# generated using pymatgen
data_CoSiH16(C7O2)4
_symmetry_space_group_name_H-M   'P 1'
_cell_length_a   22.70220000
_cell_length_b   14.56560000
_cell_length_c   28.26470000
_cell_angle_alpha   90.00000000
_cell_angle_beta   90.00000000
_cell_angle_gamma   90.00000000
_symmetry_Int_Tables_number   1
_chemical_formula_structural   CoSiH16(C7O2)4
_chemical_formula_sum   'Co8 Si8 H128 C224 O64'
_cell_volume   9346.32125816
_cell_formula_units_Z   8
loop_
 _symmetry_equiv_pos_site_id
 _symmetry_equiv_pos_as_xyz
  1  'x, y, z'
loop_
 _atom_site_type_symbol
 _atom_site_label
 _atom_site_symmetry_multiplicity
 _atom_site_fract_x
 _atom_site_fract_y
 _atom_site_fract_z
 _atom_site_occupancy
 _atom_site_charge
  Co  Co1  1  0.851200  0.039020  0.107880  1.0  1.1246
  Co  Co2  1  0.648800  0.960980  0.607880  1.0  1.1246
  Co  Co3  1  0.148800  0.539020  0.392120  1.0  1.1245
  Co  Co4  1  0.351200  0.460980  0.892120  1.0  1.1249
  Co  Co5  1  0.148800  0.960980  0.892120  1.0  1.1249
  Co  Co6  1  0.351200  0.039020  0.392120  1.0  1.1245
  Co  Co7  1  0.851200  0.460980  0.607880  1.0  1.1245
  Co  Co8  1  0.648800  0.539020  0.107880  1.0  1.1248
  Si  Si9  1  0.565830  0.962280  0.904380  1.0  0.9714
  Si  Si10  1  0.934170  0.037720  0.404380  1.0  0.9715
  Si  Si11  1  0.434170  0.462280  0.595620  1.0  0.9716
  Si  Si12  1  0.065830  0.537720  0.095620  1.0  0.9716
  Si  Si13  1  0.434170  0.037720  0.095620  1.0  0.9717
  Si  Si14  1  0.065830  0.962280  0.595620  1.0  0.9715
  Si  Si15  1  0.565830  0.537720  0.404380  1.0  0.9715
  Si  Si16  1  0.934170  0.462280  0.904380  1.0  0.9714
  H  H17  1  0.677400  0.864200  0.041700  1.0  0.1027
  H  H18  1  0.602000  0.863800  0.987400  1.0  0.0662
  H  H19  1  0.667200  0.069900  0.923200  1.0  0.084
  H  H20  1  0.736700  0.085500  0.981100  1.0  0.1122
  H  H21  1  0.473100  0.670300  0.861600  1.0  0.1125
  H  H22  1  0.531200  0.798700  0.850100  1.0  0.094
  H  H23  1  0.489800  0.885600  0.978200  1.0  0.0872
  H  H24  1  0.432500  0.758900  0.989400  1.0  0.1099
  H  H25  1  0.708300  0.852100  0.791500  1.0  0.1026
  H  H26  1  0.667000  0.866600  0.863400  1.0  0.0958
  H  H27  1  0.554500  0.046500  0.810500  1.0  0.1055
  H  H28  1  0.599900  0.034500  0.739200  1.0  0.1007
  H  H29  1  0.382300  0.122100  0.878500  1.0  0.1047
  H  H30  1  0.442900  0.997200  0.884700  1.0  0.0967
  H  H31  1  0.572000  0.159000  0.923100  1.0  0.0759
  H  H32  1  0.510300  0.285900  0.917100  1.0  0.1098
  H  H33  1  0.822600  0.135800  0.541700  1.0  0.1023
  H  H34  1  0.898000  0.136200  0.487400  1.0  0.0654
  H  H35  1  0.832800  0.930100  0.423200  1.0  0.0839
  H  H36  1  0.763300  0.914500  0.481100  1.0  0.1115
  H  H37  1  0.026900  0.329700  0.361600  1.0  0.1124
  H  H38  1  0.968800  0.201300  0.350100  1.0  0.0954
  H  H39  1  0.010200  0.114400  0.478200  1.0  0.0869
  H  H40  1  0.067500  0.241100  0.489400  1.0  0.1096
  H  H41  1  0.791700  0.147900  0.291500  1.0  0.1024
  H  H42  1  0.833000  0.133400  0.363400  1.0  0.096
  H  H43  1  0.945500  0.953500  0.310500  1.0  0.1056
  H  H44  1  0.900100  0.965500  0.239200  1.0  0.1006
  H  H45  1  0.117700  0.877900  0.378500  1.0  0.1045
  H  H46  1  0.057100  0.002800  0.384700  1.0  0.0974
  H  H47  1  0.928000  0.841000  0.423100  1.0  0.0755
  H  H48  1  0.989700  0.714100  0.417100  1.0  0.1093
  H  H49  1  0.322600  0.364200  0.458300  1.0  0.1026
  H  H50  1  0.398000  0.363800  0.512600  1.0  0.065
  H  H51  1  0.332800  0.569900  0.576800  1.0  0.0845
  H  H52  1  0.263300  0.585500  0.518900  1.0  0.1121
  H  H53  1  0.526900  0.170300  0.638400  1.0  0.113
  H  H54  1  0.468800  0.298700  0.649900  1.0  0.0937
  H  H55  1  0.510200  0.385600  0.521800  1.0  0.0875
  H  H56  1  0.567500  0.258900  0.510600  1.0  0.1091
  H  H57  1  0.291700  0.352100  0.708500  1.0  0.1021
  H  H58  1  0.333000  0.366600  0.636600  1.0  0.0957
  H  H59  1  0.445500  0.546500  0.689500  1.0  0.1053
  H  H60  1  0.400100  0.534500  0.760800  1.0  0.1007
  H  H61  1  0.617700  0.622100  0.621500  1.0  0.1031
  H  H62  1  0.557100  0.497200  0.615300  1.0  0.097
  H  H63  1  0.428000  0.659000  0.576900  1.0  0.0759
  H  H64  1  0.489700  0.785900  0.582900  1.0  0.1103
  H  H65  1  0.177400  0.635800  0.958300  1.0  0.103
  H  H66  1  0.102000  0.636200  0.012600  1.0  0.0659
  H  H67  1  0.167200  0.430100  0.076800  1.0  0.0827
  H  H68  1  0.236700  0.414500  0.018900  1.0  0.1119
  H  H69  1  0.973100  0.829700  0.138400  1.0  0.1128
  H  H70  1  0.031200  0.701300  0.149900  1.0  0.0954
  H  H71  1  0.989800  0.614400  0.021800  1.0  0.0874
  H  H72  1  0.932500  0.741100  0.010600  1.0  0.1095
  H  H73  1  0.208300  0.647900  0.208500  1.0  0.1028
  H  H74  1  0.167000  0.633400  0.136600  1.0  0.096
  H  H75  1  0.054500  0.453500  0.189500  1.0  0.1056
  H  H76  1  0.099900  0.465500  0.260800  1.0  0.1008
  H  H77  1  0.882300  0.377900  0.121500  1.0  0.1045
  H  H78  1  0.942900  0.502800  0.115300  1.0  0.0976
  H  H79  1  0.072000  0.341000  0.076900  1.0  0.0766
  H  H80  1  0.010300  0.214100  0.082900  1.0  0.1099
  H  H81  1  0.322600  0.135800  0.958300  1.0  0.1026
  H  H82  1  0.398000  0.136200  0.012600  1.0  0.0652
  H  H83  1  0.332800  0.930100  0.076800  1.0  0.0843
  H  H84  1  0.263300  0.914500  0.018900  1.0  0.1118
  H  H85  1  0.526900  0.329700  0.138400  1.0  0.1128
  H  H86  1  0.468800  0.201300  0.149900  1.0  0.0951
  H  H87  1  0.510200  0.114400  0.021800  1.0  0.0875
  H  H88  1  0.567500  0.241100  0.010600  1.0  0.1094
  H  H89  1  0.291700  0.147900  0.208500  1.0  0.1024
  H  H90  1  0.333000  0.133400  0.136600  1.0  0.096
  H  H91  1  0.445500  0.953500  0.189500  1.0  0.1055
  H  H92  1  0.400100  0.965500  0.260800  1.0  0.1009
  H  H93  1  0.617700  0.877900  0.121500  1.0  0.1032
  H  H94  1  0.557100  0.002800  0.115300  1.0  0.097
  H  H95  1  0.428000  0.841000  0.076900  1.0  0.0762
  H  H96  1  0.489700  0.714100  0.082900  1.0  0.1093
  H  H97  1  0.177400  0.864200  0.458300  1.0  0.1029
  H  H98  1  0.102000  0.863800  0.512600  1.0  0.0661
  H  H99  1  0.167200  0.069900  0.576800  1.0  0.0834
  H  H100  1  0.236700  0.085500  0.518900  1.0  0.1119
  H  H101  1  0.973100  0.670300  0.638400  1.0  0.1128
  H  H102  1  0.031200  0.798700  0.649900  1.0  0.0941
  H  H103  1  0.989800  0.885600  0.521800  1.0  0.0876
  H  H104  1  0.932500  0.758900  0.510600  1.0  0.1097
  H  H105  1  0.208300  0.852100  0.708500  1.0  0.1024
  H  H106  1  0.167000  0.866600  0.636600  1.0  0.0958
  H  H107  1  0.054500  0.046500  0.689500  1.0  0.1057
  H  H108  1  0.099900  0.034500  0.760800  1.0  0.1008
  H  H109  1  0.882300  0.122100  0.621500  1.0  0.1044
  H  H110  1  0.942900  0.997200  0.615300  1.0  0.0975
  H  H111  1  0.072000  0.159000  0.576900  1.0  0.0762
  H  H112  1  0.010300  0.285900  0.582900  1.0  0.1097
  H  H113  1  0.677400  0.635800  0.541700  1.0  0.1024
  H  H114  1  0.602000  0.636200  0.487400  1.0  0.066
  H  H115  1  0.667200  0.430100  0.423200  1.0  0.0831
  H  H116  1  0.736700  0.414500  0.481100  1.0  0.1118
  H  H117  1  0.473100  0.829700  0.361600  1.0  0.1127
  H  H118  1  0.531200  0.701300  0.350100  1.0  0.0953
  H  H119  1  0.489800  0.614400  0.478200  1.0  0.0867
  H  H120  1  0.432500  0.741100  0.489400  1.0  0.1102
  H  H121  1  0.708300  0.647900  0.291500  1.0  0.1029
  H  H122  1  0.667000  0.633400  0.363400  1.0  0.0959
  H  H123  1  0.554500  0.453500  0.310500  1.0  0.1055
  H  H124  1  0.599900  0.465500  0.239200  1.0  0.1005
  H  H125  1  0.382300  0.377900  0.378500  1.0  0.105
  H  H126  1  0.442900  0.502800  0.384700  1.0  0.0971
  H  H127  1  0.572000  0.341000  0.423100  1.0  0.076
  H  H128  1  0.510300  0.214100  0.417100  1.0  0.1092
  H  H129  1  0.822600  0.364200  0.041700  1.0  0.1026
  H  H130  1  0.898000  0.363800  0.987400  1.0  0.0651
  H  H131  1  0.832800  0.569900  0.923200  1.0  0.0842
  H  H132  1  0.763300  0.585500  0.981100  1.0  0.1122
  H  H133  1  0.026900  0.170300  0.861600  1.0  0.1124
  H  H134  1  0.968800  0.298700  0.850100  1.0  0.0941
  H  H135  1  0.010200  0.385600  0.978200  1.0  0.0872
  H  H136  1  0.067500  0.258900  0.989400  1.0  0.1098
  H  H137  1  0.791700  0.352100  0.791500  1.0  0.102
  H  H138  1  0.833000  0.366600  0.863400  1.0  0.096
  H  H139  1  0.945500  0.546500  0.810500  1.0  0.1052
  H  H140  1  0.900100  0.534500  0.739200  1.0  0.1005
  H  H141  1  0.117700  0.622100  0.878500  1.0  0.1042
  H  H142  1  0.057100  0.497200  0.884700  1.0  0.0974
  H  H143  1  0.928000  0.659000  0.923100  1.0  0.0753
  H  H144  1  0.989700  0.785900  0.917100  1.0  0.11
  C  C145  1  0.757900  0.989900  0.059670  1.0  0.7147
  C  C146  1  0.710300  0.982200  0.022010  1.0  -0.042
  C  C147  1  0.673900  0.912400  0.020250  1.0  -0.1627
  C  C148  1  0.629400  0.911100  0.985500  1.0  -0.0325
  C  C149  1  0.622900  0.969100  0.951330  1.0  0.0682
  C  C150  1  0.665800  0.030800  0.949200  1.0  -0.0873
  C  C151  1  0.708600  0.039500  0.983900  1.0  -0.0894
  C  C152  1  0.409900  0.619700  0.934120  1.0  0.7301
  C  C153  1  0.447490  0.702100  0.926760  1.0  -0.1148
  C  C154  1  0.476600  0.713800  0.885570  1.0  -0.1027
  C  C155  1  0.512000  0.791600  0.878960  1.0  -0.0343
  C  C156  1  0.519950  0.858300  0.913080  1.0  -0.1706
  C  C157  1  0.487600  0.842300  0.954040  1.0  -0.0783
  C  C158  1  0.452600  0.766200  0.960960  1.0  -0.1352
  C  C159  1  0.683200  0.924800  0.707630  1.0  0.7288
  C  C160  1  0.656200  0.936500  0.756250  1.0  -0.1333
  C  C161  1  0.676200  0.891000  0.794870  1.0  -0.0217
  C  C162  1  0.651300  0.899700  0.838290  1.0  -0.0975
  C  C163  1  0.603970  0.955300  0.846330  1.0  -0.1604
  C  C164  1  0.585800  0.005800  0.807160  1.0  -0.059
  C  C165  1  0.612400  0.997300  0.763940  1.0  -0.05
  C  C166  1  0.398300  0.296200  0.895450  1.0  0.7087
  C  C167  1  0.439430  0.217200  0.898800  1.0  -0.1231
  C  C168  1  0.421100  0.130800  0.888200  1.0  -0.0602
  C  C169  1  0.458000  0.055100  0.891400  1.0  -0.0639
  C  C170  1  0.515780  0.063300  0.904100  1.0  -0.0898
  C  C171  1  0.533100  0.149800  0.913800  1.0  -0.065
  C  C172  1  0.495500  0.227600  0.910700  1.0  -0.0977
  C  C173  1  0.742100  0.010100  0.559670  1.0  0.7125
  C  C174  1  0.789700  0.017800  0.522010  1.0  -0.0405
  C  C175  1  0.826100  0.087600  0.520250  1.0  -0.1653
  C  C176  1  0.870600  0.088900  0.485500  1.0  -0.0349
  C  C177  1  0.877100  0.030900  0.451330  1.0  0.0687
  C  C178  1  0.834200  0.969200  0.449200  1.0  -0.0871
  C  C179  1  0.791400  0.960500  0.483900  1.0  -0.0916
  C  C180  1  0.090100  0.380300  0.434120  1.0  0.7293
  C  C181  1  0.052510  0.297900  0.426760  1.0  -0.1156
  C  C182  1  0.023400  0.286200  0.385570  1.0  -0.1032
  C  C183  1  0.988000  0.208400  0.378960  1.0  -0.0356
  C  C184  1  0.980050  0.141700  0.413080  1.0  -0.1729
  C  C185  1  0.012400  0.157700  0.454040  1.0  -0.0782
  C  C186  1  0.047400  0.233800  0.460960  1.0  -0.1366
  C  C187  1  0.816800  0.075200  0.207630  1.0  0.7317
  C  C188  1  0.843800  0.063500  0.256250  1.0  -0.1345
  C  C189  1  0.823800  0.109000  0.294870  1.0  -0.0238
  C  C190  1  0.848700  0.100300  0.338290  1.0  -0.0968
  C  C191  1  0.896030  0.044700  0.346330  1.0  -0.1592
  C  C192  1  0.914200  0.994200  0.307160  1.0  -0.0574
  C  C193  1  0.887600  0.002700  0.263940  1.0  -0.0504
  C  C194  1  0.101700  0.703800  0.395450  1.0  0.7092
  C  C195  1  0.060570  0.782800  0.398800  1.0  -0.1231
  C  C196  1  0.078900  0.869200  0.388200  1.0  -0.0599
  C  C197  1  0.042000  0.944900  0.391400  1.0  -0.0657
  C  C198  1  0.984220  0.936700  0.404100  1.0  -0.0882
  C  C199  1  0.966900  0.850200  0.413800  1.0  -0.0656
  C  C200  1  0.004500  0.772400  0.410700  1.0  -0.0973
  C  C201  1  0.242100  0.489900  0.440330  1.0  0.7122
  C  C202  1  0.289700  0.482200  0.477990  1.0  -0.0422
  C  C203  1  0.326100  0.412400  0.479750  1.0  -0.163
  C  C204  1  0.370600  0.411100  0.514500  1.0  -0.0337
  C  C205  1  0.377100  0.469100  0.548670  1.0  0.0685
  C  C206  1  0.334200  0.530800  0.550800  1.0  -0.0858
  C  C207  1  0.291400  0.539500  0.516100  1.0  -0.0913
  C  C208  1  0.590100  0.119700  0.565880  1.0  0.73
  C  C209  1  0.552510  0.202100  0.573240  1.0  -0.115
  C  C210  1  0.523400  0.213800  0.614430  1.0  -0.1029
  C  C211  1  0.488000  0.291600  0.621040  1.0  -0.0342
  C  C212  1  0.480050  0.358300  0.586920  1.0  -0.172
  C  C213  1  0.512400  0.342300  0.545960  1.0  -0.0788
  C  C214  1  0.547400  0.266200  0.539040  1.0  -0.1371
  C  C215  1  0.316800  0.424800  0.792370  1.0  0.7307
  C  C216  1  0.343800  0.436500  0.743750  1.0  -0.1355
  C  C217  1  0.323800  0.391000  0.705130  1.0  -0.0226
  C  C218  1  0.348700  0.399700  0.661710  1.0  -0.0962
  C  C219  1  0.396030  0.455300  0.653670  1.0  -0.1568
  C  C220  1  0.414200  0.505800  0.692840  1.0  -0.0605
  C  C221  1  0.387600  0.497300  0.736060  1.0  -0.0501
  C  C222  1  0.601700  0.796200  0.604550  1.0  0.7097
  C  C223  1  0.560570  0.717200  0.601200  1.0  -0.1217
  C  C224  1  0.578900  0.630800  0.611800  1.0  -0.0587
  C  C225  1  0.542000  0.555100  0.608600  1.0  -0.0643
  C  C226  1  0.484220  0.563300  0.595900  1.0  -0.0897
  C  C227  1  0.466900  0.649800  0.586200  1.0  -0.0653
  C  C228  1  0.504500  0.727600  0.589300  1.0  -0.098
  C  C229  1  0.257900  0.510100  0.940330  1.0  0.7138
  C  C230  1  0.210300  0.517800  0.977990  1.0  -0.0412
  C  C231  1  0.173900  0.587600  0.979750  1.0  -0.1646
  C  C232  1  0.129400  0.588900  0.014500  1.0  -0.0343
  C  C233  1  0.122900  0.530900  0.048670  1.0  0.068
  C  C234  1  0.165800  0.469200  0.050800  1.0  -0.0843
  C  C235  1  0.208600  0.460500  0.016100  1.0  -0.0907
  C  C236  1  0.909900  0.880300  0.065880  1.0  0.73
  C  C237  1  0.947490  0.797900  0.073240  1.0  -0.1155
  C  C238  1  0.976600  0.786200  0.114430  1.0  -0.104
  C  C239  1  0.012000  0.708400  0.121040  1.0  -0.0353
  C  C240  1  0.019950  0.641700  0.086920  1.0  -0.1713
  C  C241  1  0.987600  0.657700  0.045960  1.0  -0.0784
  C  C242  1  0.952600  0.733800  0.039040  1.0  -0.1373
  C  C243  1  0.183200  0.575200  0.292370  1.0  0.7303
  C  C244  1  0.156200  0.563500  0.243750  1.0  -0.135
  C  C245  1  0.176200  0.609000  0.205130  1.0  -0.0222
  C  C246  1  0.151300  0.600300  0.161710  1.0  -0.0977
  C  C247  1  0.103970  0.544700  0.153670  1.0  -0.1584
  C  C248  1  0.085800  0.494200  0.192840  1.0  -0.0584
  C  C249  1  0.112400  0.502700  0.236060  1.0  -0.0493
  C  C250  1  0.898300  0.203800  0.104550  1.0  0.7089
  C  C251  1  0.939430  0.282800  0.101200  1.0  -0.1226
  C  C252  1  0.921100  0.369200  0.111800  1.0  -0.0596
  C  C253  1  0.958000  0.444900  0.108600  1.0  -0.0658
  C  C254  1  0.015780  0.436700  0.095900  1.0  -0.0873
  C  C255  1  0.033100  0.350200  0.086200  1.0  -0.0644
  C  C256  1  0.995500  0.272400  0.089300  1.0  -0.0975
  C  C257  1  0.242100  0.010100  0.940330  1.0  0.7123
  C  C258  1  0.289700  0.017800  0.977990  1.0  -0.0421
  C  C259  1  0.326100  0.087600  0.979750  1.0  -0.1645
  C  C260  1  0.370600  0.088900  0.014500  1.0  -0.0348
  C  C261  1  0.377100  0.030900  0.048670  1.0  0.0685
  C  C262  1  0.334200  0.969200  0.050800  1.0  -0.084
  C  C263  1  0.291400  0.960500  0.016100  1.0  -0.0913
  C  C264  1  0.590100  0.380300  0.065880  1.0  0.73
  C  C265  1  0.552510  0.297900  0.073240  1.0  -0.1157
  C  C266  1  0.523400  0.286200  0.114430  1.0  -0.104
  C  C267  1  0.488000  0.208400  0.121040  1.0  -0.0354
  C  C268  1  0.480050  0.141700  0.086920  1.0  -0.1725
  C  C269  1  0.512400  0.157700  0.045960  1.0  -0.0785
  C  C270  1  0.547400  0.233800  0.039040  1.0  -0.137
  C  C271  1  0.316800  0.075200  0.292370  1.0  0.7309
  C  C272  1  0.343800  0.063500  0.243750  1.0  -0.1354
  C  C273  1  0.323800  0.109000  0.205130  1.0  -0.024
  C  C274  1  0.348700  0.100300  0.161710  1.0  -0.0958
  C  C275  1  0.396030  0.044700  0.153670  1.0  -0.1572
  C  C276  1  0.414200  0.994200  0.192840  1.0  -0.0586
  C  C277  1  0.387600  0.002700  0.236060  1.0  -0.0492
  C  C278  1  0.601700  0.703800  0.104550  1.0  0.7092
  C  C279  1  0.560570  0.782800  0.101200  1.0  -0.1218
  C  C280  1  0.578900  0.869200  0.111800  1.0  -0.0589
  C  C281  1  0.542000  0.944900  0.108600  1.0  -0.0666
  C  C282  1  0.484220  0.936700  0.095900  1.0  -0.088
  C  C283  1  0.466900  0.850200  0.086200  1.0  -0.0651
  C  C284  1  0.504500  0.772400  0.089300  1.0  -0.0965
  C  C285  1  0.257900  0.989900  0.440330  1.0  0.7138
  C  C286  1  0.210300  0.982200  0.477990  1.0  -0.0417
  C  C287  1  0.173900  0.912400  0.479750  1.0  -0.1631
  C  C288  1  0.129400  0.911100  0.514500  1.0  -0.0327
  C  C289  1  0.122900  0.969100  0.548670  1.0  0.068
  C  C290  1  0.165800  0.030800  0.550800  1.0  -0.0865
  C  C291  1  0.208600  0.039500  0.516100  1.0  -0.0896
  C  C292  1  0.909900  0.619700  0.565880  1.0  0.7302
  C  C293  1  0.947490  0.702100  0.573240  1.0  -0.1147
  C  C294  1  0.976600  0.713800  0.614430  1.0  -0.103
  C  C295  1  0.012000  0.791600  0.621040  1.0  -0.0341
  C  C296  1  0.019950  0.858300  0.586920  1.0  -0.1704
  C  C297  1  0.987600  0.842300  0.545960  1.0  -0.0788
  C  C298  1  0.952600  0.766200  0.539040  1.0  -0.1365
  C  C299  1  0.183200  0.924800  0.792370  1.0  0.7302
  C  C300  1  0.156200  0.936500  0.743750  1.0  -0.1349
  C  C301  1  0.176200  0.891000  0.705130  1.0  -0.0218
  C  C302  1  0.151300  0.899700  0.661710  1.0  -0.0983
  C  C303  1  0.103970  0.955300  0.653670  1.0  -0.158
  C  C304  1  0.085800  0.005800  0.692840  1.0  -0.0609
  C  C305  1  0.112400  0.997300  0.736060  1.0  -0.0504
  C  C306  1  0.898300  0.296200  0.604550  1.0  0.7085
  C  C307  1  0.939430  0.217200  0.601200  1.0  -0.1219
  C  C308  1  0.921100  0.130800  0.611800  1.0  -0.0592
  C  C309  1  0.958000  0.055100  0.608600  1.0  -0.0644
  C  C310  1  0.015780  0.063300  0.595900  1.0  -0.089
  C  C311  1  0.033100  0.149800  0.586200  1.0  -0.0649
  C  C312  1  0.995500  0.227600  0.589300  1.0  -0.0982
  C  C313  1  0.757900  0.510100  0.559670  1.0  0.7148
  C  C314  1  0.710300  0.517800  0.522010  1.0  -0.0412
  C  C315  1  0.673900  0.587600  0.520250  1.0  -0.1651
  C  C316  1  0.629400  0.588900  0.485500  1.0  -0.0342
  C  C317  1  0.622900  0.530900  0.451330  1.0  0.0682
  C  C318  1  0.665800  0.469200  0.449200  1.0  -0.0865
  C  C319  1  0.708600  0.460500  0.483900  1.0  -0.0911
  C  C320  1  0.409900  0.880300  0.434120  1.0  0.7291
  C  C321  1  0.447490  0.797900  0.426760  1.0  -0.1154
  C  C322  1  0.476600  0.786200  0.385570  1.0  -0.1028
  C  C323  1  0.512000  0.708400  0.378960  1.0  -0.0358
  C  C324  1  0.519950  0.641700  0.413080  1.0  -0.1715
  C  C325  1  0.487600  0.657700  0.454040  1.0  -0.0782
  C  C326  1  0.452600  0.733800  0.460960  1.0  -0.1367
  C  C327  1  0.683200  0.575200  0.207630  1.0  0.7291
  C  C328  1  0.656200  0.563500  0.256250  1.0  -0.1329
  C  C329  1  0.676200  0.609000  0.294870  1.0  -0.0222
  C  C330  1  0.651300  0.600300  0.338290  1.0  -0.099
  C  C331  1  0.603970  0.544700  0.346330  1.0  -0.1604
  C  C332  1  0.585800  0.494200  0.307160  1.0  -0.0567
  C  C333  1  0.612400  0.502700  0.263940  1.0  -0.0494
  C  C334  1  0.398300  0.203800  0.395450  1.0  0.7091
  C  C335  1  0.439430  0.282800  0.398800  1.0  -0.1238
  C  C336  1  0.421100  0.369200  0.388200  1.0  -0.0601
  C  C337  1  0.458000  0.444900  0.391400  1.0  -0.0648
  C  C338  1  0.515780  0.436700  0.404100  1.0  -0.0876
  C  C339  1  0.533100  0.350200  0.413800  1.0  -0.0643
  C  C340  1  0.495500  0.272400  0.410700  1.0  -0.0976
  C  C341  1  0.742100  0.489900  0.059670  1.0  0.7124
  C  C342  1  0.789700  0.482200  0.022010  1.0  -0.0412
  C  C343  1  0.826100  0.412400  0.020250  1.0  -0.1628
  C  C344  1  0.870600  0.411100  0.985500  1.0  -0.0336
  C  C345  1  0.877100  0.469100  0.951330  1.0  0.0689
  C  C346  1  0.834200  0.530800  0.949200  1.0  -0.0871
  C  C347  1  0.791400  0.539500  0.983900  1.0  -0.091
  C  C348  1  0.090100  0.119700  0.934120  1.0  0.7302
  C  C349  1  0.052510  0.202100  0.926760  1.0  -0.1151
  C  C350  1  0.023400  0.213800  0.885570  1.0  -0.1032
  C  C351  1  0.988000  0.291600  0.878960  1.0  -0.0342
  C  C352  1  0.980050  0.358300  0.913080  1.0  -0.1723
  C  C353  1  0.012400  0.342300  0.954040  1.0  -0.0784
  C  C354  1  0.047400  0.266200  0.960960  1.0  -0.136
  C  C355  1  0.816800  0.424800  0.707630  1.0  0.7313
  C  C356  1  0.843800  0.436500  0.756250  1.0  -0.135
  C  C357  1  0.823800  0.391000  0.794870  1.0  -0.0224
  C  C358  1  0.848700  0.399700  0.838290  1.0  -0.0955
  C  C359  1  0.896030  0.455300  0.846330  1.0  -0.1591
  C  C360  1  0.914200  0.505800  0.807160  1.0  -0.0586
  C  C361  1  0.887600  0.497300  0.763940  1.0  -0.0509
  C  C362  1  0.101700  0.796200  0.895450  1.0  0.7097
  C  C363  1  0.060570  0.717200  0.898800  1.0  -0.1228
  C  C364  1  0.078900  0.630800  0.888200  1.0  -0.0603
  C  C365  1  0.042000  0.555100  0.891400  1.0  -0.0643
  C  C366  1  0.984220  0.563300  0.904100  1.0  -0.0906
  C  C367  1  0.966900  0.649800  0.913800  1.0  -0.0657
  C  C368  1  0.004500  0.727600  0.910700  1.0  -0.0984
  O  O369  1  0.757400  0.934600  0.093350  1.0  -0.6012
  O  O370  1  0.794840  0.051300  0.054540  1.0  -0.5521
  O  O371  1  0.395300  0.598300  0.974500  1.0  -0.4924
  O  O372  1  0.394520  0.578100  0.897580  1.0  -0.5825
  O  O373  1  0.723870  0.870300  0.702710  1.0  -0.4901
  O  O374  1  0.659130  0.969300  0.675360  1.0  -0.6019
  O  O375  1  0.346420  0.285200  0.886410  1.0  -0.6285
  O  O376  1  0.418920  0.373100  0.904550  1.0  -0.5851
  O  O377  1  0.742600  0.065400  0.593350  1.0  -0.6015
  O  O378  1  0.705160  0.948700  0.554540  1.0  -0.5518
  O  O379  1  0.104700  0.401700  0.474500  1.0  -0.4913
  O  O380  1  0.105480  0.421900  0.397580  1.0  -0.5826
  O  O381  1  0.776130  0.129700  0.202710  1.0  -0.4897
  O  O382  1  0.840870  0.030700  0.175360  1.0  -0.5992
  O  O383  1  0.153580  0.714800  0.386410  1.0  -0.6272
  O  O384  1  0.081080  0.626900  0.404550  1.0  -0.5847
  O  O385  1  0.242600  0.434600  0.406650  1.0  -0.6019
  O  O386  1  0.205160  0.551300  0.445460  1.0  -0.5525
  O  O387  1  0.604700  0.098300  0.525500  1.0  -0.491
  O  O388  1  0.605480  0.078100  0.602420  1.0  -0.5833
  O  O389  1  0.276130  0.370300  0.797290  1.0  -0.4891
  O  O390  1  0.340870  0.469300  0.824640  1.0  -0.6012
  O  O391  1  0.653580  0.785200  0.613590  1.0  -0.6264
  O  O392  1  0.581080  0.873100  0.595450  1.0  -0.586
  O  O393  1  0.257400  0.565400  0.906650  1.0  -0.5993
  O  O394  1  0.294840  0.448700  0.945460  1.0  -0.5505
  O  O395  1  0.895300  0.901700  0.025500  1.0  -0.4922
  O  O396  1  0.894520  0.921900  0.102420  1.0  -0.5835
  O  O397  1  0.223870  0.629700  0.297290  1.0  -0.4916
  O  O398  1  0.159130  0.530700  0.324640  1.0  -0.5992
  O  O399  1  0.846420  0.214800  0.113590  1.0  -0.6279
  O  O400  1  0.918920  0.126900  0.095450  1.0  -0.5853
  O  O401  1  0.242600  0.065400  0.906650  1.0  -0.5999
  O  O402  1  0.205160  0.948700  0.945460  1.0  -0.5515
  O  O403  1  0.604700  0.401700  0.025500  1.0  -0.4905
  O  O404  1  0.605480  0.421900  0.102420  1.0  -0.582
  O  O405  1  0.276130  0.129700  0.297290  1.0  -0.4894
  O  O406  1  0.340870  0.030700  0.324640  1.0  -0.5994
  O  O407  1  0.653580  0.714800  0.113590  1.0  -0.6266
  O  O408  1  0.581080  0.626900  0.095450  1.0  -0.5856
  O  O409  1  0.257400  0.934600  0.406650  1.0  -0.6012
  O  O410  1  0.294840  0.051300  0.445460  1.0  -0.5517
  O  O411  1  0.895300  0.598300  0.525500  1.0  -0.4926
  O  O412  1  0.894520  0.578100  0.602420  1.0  -0.582
  O  O413  1  0.223870  0.870300  0.797290  1.0  -0.4911
  O  O414  1  0.159130  0.969300  0.824640  1.0  -0.601
  O  O415  1  0.846420  0.285200  0.613590  1.0  -0.6276
  O  O416  1  0.918920  0.373100  0.595450  1.0  -0.5856
  O  O417  1  0.757400  0.565400  0.593350  1.0  -0.601
  O  O418  1  0.794840  0.448700  0.554540  1.0  -0.5509
  O  O419  1  0.395300  0.901700  0.474500  1.0  -0.4932
  O  O420  1  0.394520  0.921900  0.397580  1.0  -0.5838
  O  O421  1  0.723870  0.629700  0.202710  1.0  -0.4906
  O  O422  1  0.659130  0.530700  0.175360  1.0  -0.5991
  O  O423  1  0.346420  0.214800  0.386410  1.0  -0.6284
  O  O424  1  0.418920  0.126900  0.404550  1.0  -0.5847
  O  O425  1  0.742600  0.434600  0.093350  1.0  -0.6018
  O  O426  1  0.705160  0.551300  0.054540  1.0  -0.5525
  O  O427  1  0.104700  0.098300  0.974500  1.0  -0.4906
  O  O428  1  0.105480  0.078100  0.897580  1.0  -0.5839
  O  O429  1  0.776130  0.370300  0.702710  1.0  -0.4894
  O  O430  1  0.840870  0.469300  0.675360  1.0  -0.6019
  O  O431  1  0.153580  0.785200  0.886410  1.0  -0.6271
  O  O432  1  0.081080  0.873100  0.904550  1.0  -0.5854
