# generated using pymatgen
data_Co3Si2H32(C7O2)8
_symmetry_space_group_name_H-M   'P 1'
_cell_length_a   26.98200000
_cell_length_b   21.88200000
_cell_length_c   13.82190000
_cell_angle_alpha   90.00000000
_cell_angle_beta   90.00000000
_cell_angle_gamma   90.00000000
_symmetry_Int_Tables_number   1
_chemical_formula_structural   Co3Si2H32(C7O2)8
_chemical_formula_sum   'Co12 Si8 H128 C224 O64'
_cell_volume   8160.72791192
_cell_formula_units_Z   4
loop_
 _symmetry_equiv_pos_site_id
 _symmetry_equiv_pos_as_xyz
  1  'x, y, z'
loop_
 _atom_site_type_symbol
 _atom_site_label
 _atom_site_symmetry_multiplicity
 _atom_site_fract_x
 _atom_site_fract_y
 _atom_site_fract_z
 _atom_site_occupancy
 _atom_site_charge
  Co  Co1  1  0.117720  0.685280  0.966620  1.0  1.104
  Co  Co2  1  0.382280  0.314720  0.966620  1.0  1.103
  Co  Co3  1  0.382280  0.185280  0.533380  1.0  1.1027
  Co  Co4  1  0.117720  0.814720  0.533380  1.0  1.1024
  Co  Co5  1  0.882280  0.314720  0.033380  1.0  1.1032
  Co  Co6  1  0.617720  0.685280  0.033380  1.0  1.1036
  Co  Co7  1  0.617720  0.814720  0.466620  1.0  1.1021
  Co  Co8  1  0.882280  0.185280  0.466620  1.0  1.103
  Co  Co9  1  0.128400  0.750000  0.750000  1.0  1.1179
  Co  Co10  1  0.371600  0.250000  0.750000  1.0  1.1197
  Co  Co11  1  0.871600  0.250000  0.250000  1.0  1.1197
  Co  Co12  1  0.628400  0.750000  0.250000  1.0  1.1179
  Si  Si13  1  0.131600  0.445660  0.465510  1.0  0.9236
  Si  Si14  1  0.368400  0.554340  0.465510  1.0  0.9235
  Si  Si15  1  0.368400  0.945660  0.034490  1.0  0.9235
  Si  Si16  1  0.131600  0.054340  0.034490  1.0  0.9232
  Si  Si17  1  0.868400  0.554340  0.534490  1.0  0.9233
  Si  Si18  1  0.631600  0.445660  0.534490  1.0  0.9234
  Si  Si19  1  0.631600  0.054340  0.965510  1.0  0.9234
  Si  Si20  1  0.868400  0.945660  0.965510  1.0  0.9237
  H  H21  1  0.243000  0.337700  0.674300  1.0  0.0999
  H  H22  1  0.272600  0.313300  0.400100  1.0  0.0799
  H  H23  1  0.021600  0.279100  0.540200  1.0  0.1007
  H  H24  1  0.996100  0.353400  0.289900  1.0  0.0803
  H  H25  1  0.170200  0.611500  0.687500  1.0  0.1002
  H  H26  1  0.178600  0.548500  0.553600  1.0  0.068
  H  H27  1  0.179400  0.399900  0.634300  1.0  0.0766
  H  H28  1  0.059500  0.423500  0.316500  1.0  0.0991
  H  H29  1  0.085400  0.346600  0.563600  1.0  0.0661
  H  H30  1  0.055700  0.461700  0.620900  1.0  0.0843
  H  H31  1  0.046300  0.523200  0.752900  1.0  0.1002
  H  H32  1  0.212300  0.382600  0.361900  1.0  0.1019
  H  H33  1  0.078400  0.597800  0.235300  1.0  0.1076
  H  H34  1  0.078400  0.542700  0.379400  1.0  0.0711
  H  H35  1  0.203800  0.523900  0.168100  1.0  0.1052
  H  H36  1  0.196600  0.463200  0.297900  1.0  0.0831
  H  H37  1  0.257000  0.662300  0.674300  1.0  0.0992
  H  H38  1  0.227400  0.686700  0.400100  1.0  0.0802
  H  H39  1  0.478400  0.720900  0.540200  1.0  0.1005
  H  H40  1  0.503900  0.646600  0.289900  1.0  0.0804
  H  H41  1  0.329800  0.388500  0.687500  1.0  0.1005
  H  H42  1  0.321400  0.451500  0.553600  1.0  0.0679
  H  H43  1  0.320600  0.600100  0.634300  1.0  0.0766
  H  H44  1  0.440500  0.576500  0.316500  1.0  0.0994
  H  H45  1  0.414600  0.653400  0.563600  1.0  0.0667
  H  H46  1  0.444300  0.538300  0.620900  1.0  0.0845
  H  H47  1  0.453700  0.476800  0.752900  1.0  0.1003
  H  H48  1  0.287700  0.617400  0.361900  1.0  0.1014
  H  H49  1  0.421600  0.402200  0.235300  1.0  0.1075
  H  H50  1  0.421600  0.457300  0.379400  1.0  0.0713
  H  H51  1  0.296200  0.476100  0.168100  1.0  0.1054
  H  H52  1  0.303400  0.536800  0.297900  1.0  0.0837
  H  H53  1  0.257000  0.837700  0.825700  1.0  0.0996
  H  H54  1  0.227400  0.813300  0.099900  1.0  0.08
  H  H55  1  0.478400  0.779100  0.959800  1.0  0.0998
  H  H56  1  0.503900  0.853400  0.210100  1.0  0.08
  H  H57  1  0.329800  0.111500  0.812500  1.0  0.1001
  H  H58  1  0.321400  0.048500  0.946400  1.0  0.0682
  H  H59  1  0.320600  0.899900  0.865700  1.0  0.076
  H  H60  1  0.440500  0.923500  0.183500  1.0  0.0992
  H  H61  1  0.414600  0.846600  0.936400  1.0  0.0662
  H  H62  1  0.444300  0.961700  0.879100  1.0  0.0842
  H  H63  1  0.453700  0.023200  0.747100  1.0  0.1
  H  H64  1  0.287700  0.882600  0.138100  1.0  0.1032
  H  H65  1  0.421600  0.097800  0.264700  1.0  0.1074
  H  H66  1  0.421600  0.042700  0.120600  1.0  0.0714
  H  H67  1  0.296200  0.023900  0.331900  1.0  0.1062
  H  H68  1  0.303400  0.963200  0.202100  1.0  0.0825
  H  H69  1  0.243000  0.162300  0.825700  1.0  0.0992
  H  H70  1  0.272600  0.186700  0.099900  1.0  0.0801
  H  H71  1  0.021600  0.220900  0.959800  1.0  0.1006
  H  H72  1  0.996100  0.146600  0.210100  1.0  0.0804
  H  H73  1  0.170200  0.888500  0.812500  1.0  0.1007
  H  H74  1  0.178600  0.951500  0.946400  1.0  0.0684
  H  H75  1  0.179400  0.100100  0.865700  1.0  0.0765
  H  H76  1  0.059500  0.076500  0.183500  1.0  0.0996
  H  H77  1  0.085400  0.153400  0.936400  1.0  0.0669
  H  H78  1  0.055700  0.038300  0.879100  1.0  0.0848
  H  H79  1  0.046300  0.976800  0.747100  1.0  0.1006
  H  H80  1  0.212300  0.117400  0.138100  1.0  0.1027
  H  H81  1  0.078400  0.902200  0.264700  1.0  0.1071
  H  H82  1  0.078400  0.957300  0.120600  1.0  0.0713
  H  H83  1  0.203800  0.976100  0.331900  1.0  0.1059
  H  H84  1  0.196600  0.036800  0.202100  1.0  0.0827
  H  H85  1  0.757000  0.662300  0.325700  1.0  0.0996
  H  H86  1  0.727400  0.686700  0.599900  1.0  0.0799
  H  H87  1  0.978400  0.720900  0.459800  1.0  0.1005
  H  H88  1  0.003900  0.646600  0.710100  1.0  0.0801
  H  H89  1  0.829800  0.388500  0.312500  1.0  0.1003
  H  H90  1  0.821400  0.451500  0.446400  1.0  0.0681
  H  H91  1  0.820600  0.600100  0.365700  1.0  0.0764
  H  H92  1  0.940500  0.576500  0.683500  1.0  0.0995
  H  H93  1  0.914600  0.653400  0.436400  1.0  0.0671
  H  H94  1  0.944300  0.538300  0.379100  1.0  0.0844
  H  H95  1  0.953700  0.476800  0.247100  1.0  0.1003
  H  H96  1  0.787700  0.617400  0.638100  1.0  0.1029
  H  H97  1  0.921600  0.402200  0.764700  1.0  0.1074
  H  H98  1  0.921600  0.457300  0.620600  1.0  0.0713
  H  H99  1  0.796200  0.476100  0.831900  1.0  0.106
  H  H100  1  0.803400  0.536800  0.702100  1.0  0.0827
  H  H101  1  0.743000  0.337700  0.325700  1.0  0.0993
  H  H102  1  0.772600  0.313300  0.599900  1.0  0.0803
  H  H103  1  0.521600  0.279100  0.459800  1.0  0.1
  H  H104  1  0.496100  0.353400  0.710100  1.0  0.0803
  H  H105  1  0.670200  0.611500  0.312500  1.0  0.1003
  H  H106  1  0.678600  0.548500  0.446400  1.0  0.0683
  H  H107  1  0.679400  0.399900  0.365700  1.0  0.0761
  H  H108  1  0.559500  0.423500  0.683500  1.0  0.0991
  H  H109  1  0.585400  0.346600  0.436400  1.0  0.0664
  H  H110  1  0.555700  0.461700  0.379100  1.0  0.0836
  H  H111  1  0.546300  0.523200  0.247100  1.0  0.1001
  H  H112  1  0.712300  0.382600  0.638100  1.0  0.1029
  H  H113  1  0.578400  0.597800  0.764700  1.0  0.1074
  H  H114  1  0.578400  0.542700  0.620600  1.0  0.0715
  H  H115  1  0.703800  0.523900  0.831900  1.0  0.1062
  H  H116  1  0.696600  0.463200  0.702100  1.0  0.0832
  H  H117  1  0.743000  0.162300  0.174300  1.0  0.0998
  H  H118  1  0.772600  0.186700  0.900100  1.0  0.0801
  H  H119  1  0.521600  0.220900  0.040200  1.0  0.1007
  H  H120  1  0.496100  0.146600  0.789900  1.0  0.0804
  H  H121  1  0.670200  0.888500  0.187500  1.0  0.1007
  H  H122  1  0.678600  0.951500  0.053600  1.0  0.0679
  H  H123  1  0.679400  0.100100  0.134300  1.0  0.0767
  H  H124  1  0.559500  0.076500  0.816500  1.0  0.0995
  H  H125  1  0.585400  0.153400  0.063600  1.0  0.0666
  H  H126  1  0.555700  0.038300  0.120900  1.0  0.0849
  H  H127  1  0.546300  0.976800  0.252900  1.0  0.1005
  H  H128  1  0.712300  0.117400  0.861900  1.0  0.1012
  H  H129  1  0.578400  0.902200  0.735300  1.0  0.1069
  H  H130  1  0.578400  0.957300  0.879400  1.0  0.0711
  H  H131  1  0.703800  0.976100  0.668100  1.0  0.1052
  H  H132  1  0.696600  0.036800  0.797900  1.0  0.0835
  H  H133  1  0.757000  0.837700  0.174300  1.0  0.0993
  H  H134  1  0.727400  0.813300  0.900100  1.0  0.0797
  H  H135  1  0.978400  0.779100  0.040200  1.0  0.1005
  H  H136  1  0.003900  0.853400  0.789900  1.0  0.0803
  H  H137  1  0.829800  0.111500  0.187500  1.0  0.1002
  H  H138  1  0.821400  0.048500  0.053600  1.0  0.0682
  H  H139  1  0.820600  0.899900  0.134300  1.0  0.0766
  H  H140  1  0.940500  0.923500  0.816500  1.0  0.0992
  H  H141  1  0.914600  0.846600  0.063600  1.0  0.0659
  H  H142  1  0.944300  0.961700  0.120900  1.0  0.0849
  H  H143  1  0.953700  0.023200  0.252900  1.0  0.1002
  H  H144  1  0.787700  0.882600  0.861900  1.0  0.1023
  H  H145  1  0.921600  0.097800  0.735300  1.0  0.1079
  H  H146  1  0.921600  0.042700  0.879400  1.0  0.0712
  H  H147  1  0.796200  0.023900  0.668100  1.0  0.1052
  H  H148  1  0.803400  0.963200  0.797900  1.0  0.0827
  C  C149  1  0.141900  0.606800  0.098200  1.0  0.6222
  C  C150  1  0.307400  0.277600  0.571000  1.0  0.7033
  C  C151  1  0.266000  0.318100  0.540400  1.0  -0.0839
  C  C152  1  0.236600  0.345300  0.609300  1.0  -0.1336
  C  C153  1  0.254800  0.331600  0.449800  1.0  -0.0847
  C  C154  1  0.952500  0.275200  0.405400  1.0  0.7099
  C  C155  1  0.996500  0.316200  0.420500  1.0  -0.0802
  C  C156  1  0.026800  0.310300  0.495600  1.0  -0.1281
  C  C157  1  0.012000  0.354300  0.349600  1.0  -0.0592
  C  C158  1  0.138600  0.494000  0.356100  1.0  0.0226
  C  C159  1  0.078130  0.392700  0.448000  1.0  0.0523
  C  C160  1  0.119400  0.496600  0.571300  1.0  -0.1232
  C  C161  1  0.187280  0.397500  0.493800  1.0  -0.0422
  C  C162  1  0.107200  0.575400  0.733500  1.0  -0.1142
  C  C163  1  0.146500  0.581700  0.675000  1.0  -0.1142
  C  C164  1  0.151500  0.542500  0.594100  1.0  -0.057
  C  C165  1  0.102000  0.614500  0.819800  1.0  0.6817
  C  C166  1  0.198500  0.383200  0.585000  1.0  -0.0828
  C  C167  1  0.051500  0.395000  0.364000  1.0  -0.0947
  C  C168  1  0.066300  0.350600  0.507900  1.0  -0.0487
  C  C169  1  0.079400  0.491500  0.633200  1.0  -0.0832
  C  C170  1  0.073400  0.529000  0.712500  1.0  -0.0841
  C  C171  1  0.217200  0.372300  0.426600  1.0  -0.0936
  C  C172  1  0.142500  0.567200  0.190500  1.0  -0.0365
  C  C173  1  0.104500  0.571700  0.249700  1.0  -0.1551
  C  C174  1  0.103900  0.536400  0.335300  1.0  -0.0861
  C  C175  1  0.176600  0.528000  0.208900  1.0  -0.1487
  C  C176  1  0.172000  0.492600  0.289600  1.0  -0.0296
  C  C177  1  0.358100  0.393200  0.098200  1.0  0.6216
  C  C178  1  0.192600  0.722400  0.571000  1.0  0.7038
  C  C179  1  0.234000  0.681900  0.540400  1.0  -0.0841
  C  C180  1  0.263400  0.654700  0.609300  1.0  -0.1329
  C  C181  1  0.245200  0.668400  0.449800  1.0  -0.0852
  C  C182  1  0.547500  0.724800  0.405400  1.0  0.7101
  C  C183  1  0.503500  0.683800  0.420500  1.0  -0.0744
  C  C184  1  0.473200  0.689700  0.495600  1.0  -0.1288
  C  C185  1  0.488000  0.645700  0.349600  1.0  -0.0596
  C  C186  1  0.361400  0.506000  0.356100  1.0  0.0234
  C  C187  1  0.421870  0.607300  0.448000  1.0  0.0553
  C  C188  1  0.380600  0.503400  0.571300  1.0  -0.1224
  C  C189  1  0.312720  0.602500  0.493800  1.0  -0.0403
  C  C190  1  0.392800  0.424600  0.733500  1.0  -0.1135
  C  C191  1  0.353500  0.418300  0.675000  1.0  -0.1136
  C  C192  1  0.348500  0.457500  0.594100  1.0  -0.0552
  C  C193  1  0.398000  0.385500  0.819800  1.0  0.6829
  C  C194  1  0.301500  0.616800  0.585000  1.0  -0.0821
  C  C195  1  0.448500  0.605000  0.364000  1.0  -0.0958
  C  C196  1  0.433700  0.649400  0.507900  1.0  -0.0488
  C  C197  1  0.420600  0.508500  0.633200  1.0  -0.083
  C  C198  1  0.426600  0.471000  0.712500  1.0  -0.0846
  C  C199  1  0.282800  0.627700  0.426600  1.0  -0.0937
  C  C200  1  0.357500  0.432800  0.190500  1.0  -0.036
  C  C201  1  0.395500  0.428300  0.249700  1.0  -0.1534
  C  C202  1  0.396100  0.463600  0.335300  1.0  -0.0844
  C  C203  1  0.323400  0.472000  0.208900  1.0  -0.1473
  C  C204  1  0.328000  0.507400  0.289600  1.0  -0.0299
  C  C205  1  0.358100  0.106800  0.401800  1.0  0.6221
  C  C206  1  0.192600  0.777600  0.929000  1.0  0.7024
  C  C207  1  0.234000  0.818100  0.959600  1.0  -0.0843
  C  C208  1  0.263400  0.845300  0.890700  1.0  -0.1322
  C  C209  1  0.245200  0.831600  0.050200  1.0  -0.0872
  C  C210  1  0.547500  0.775200  0.094600  1.0  0.7102
  C  C211  1  0.503500  0.816200  0.079500  1.0  -0.0751
  C  C212  1  0.473200  0.810300  0.004400  1.0  -0.1276
  C  C213  1  0.488000  0.854300  0.150400  1.0  -0.0597
  C  C214  1  0.361400  0.994000  0.143900  1.0  0.0222
  C  C215  1  0.421870  0.892700  0.052000  1.0  0.0548
  C  C216  1  0.380600  0.996600  0.928700  1.0  -0.1229
  C  C217  1  0.312720  0.897500  0.006200  1.0  -0.0401
  C  C218  1  0.392800  0.075400  0.766500  1.0  -0.113
  C  C219  1  0.353500  0.081700  0.825000  1.0  -0.1138
  C  C220  1  0.348500  0.042500  0.905900  1.0  -0.0558
  C  C221  1  0.398000  0.114500  0.680200  1.0  0.6823
  C  C222  1  0.301500  0.883200  0.915000  1.0  -0.0842
  C  C223  1  0.448500  0.895000  0.136000  1.0  -0.0955
  C  C224  1  0.433700  0.850600  0.992100  1.0  -0.049
  C  C225  1  0.420600  0.991500  0.866800  1.0  -0.0825
  C  C226  1  0.426600  0.029000  0.787500  1.0  -0.0864
  C  C227  1  0.282800  0.872300  0.073400  1.0  -0.0933
  C  C228  1  0.357500  0.067200  0.309500  1.0  -0.0375
  C  C229  1  0.395500  0.071700  0.250300  1.0  -0.1533
  C  C230  1  0.396100  0.036400  0.164700  1.0  -0.0847
  C  C231  1  0.323400  0.028000  0.291100  1.0  -0.1478
  C  C232  1  0.328000  0.992600  0.210400  1.0  -0.0306
  C  C233  1  0.141900  0.893200  0.401800  1.0  0.6219
  C  C234  1  0.307400  0.222400  0.929000  1.0  0.7027
  C  C235  1  0.266000  0.181900  0.959600  1.0  -0.0829
  C  C236  1  0.236600  0.154700  0.890700  1.0  -0.1326
  C  C237  1  0.254800  0.168400  0.050200  1.0  -0.0843
  C  C238  1  0.952500  0.224800  0.094600  1.0  0.7104
  C  C239  1  0.996500  0.183800  0.079500  1.0  -0.0783
  C  C240  1  0.026800  0.189700  0.004400  1.0  -0.1301
  C  C241  1  0.012000  0.145700  0.150400  1.0  -0.0598
  C  C242  1  0.138600  0.006000  0.143900  1.0  0.0224
  C  C243  1  0.078130  0.107300  0.052000  1.0  0.0523
  C  C244  1  0.119400  0.003400  0.928700  1.0  -0.1226
  C  C245  1  0.187280  0.102500  0.006200  1.0  -0.0419
  C  C246  1  0.107200  0.924600  0.766500  1.0  -0.1132
  C  C247  1  0.146500  0.918300  0.825000  1.0  -0.114
  C  C248  1  0.151500  0.957500  0.905900  1.0  -0.0572
  C  C249  1  0.102000  0.885500  0.680200  1.0  0.6821
  C  C250  1  0.198500  0.116800  0.915000  1.0  -0.083
  C  C251  1  0.051500  0.105000  0.136000  1.0  -0.095
  C  C252  1  0.066300  0.149400  0.992100  1.0  -0.0488
  C  C253  1  0.079400  0.008500  0.866800  1.0  -0.0832
  C  C254  1  0.073400  0.971000  0.787500  1.0  -0.0825
  C  C255  1  0.217200  0.127700  0.073400  1.0  -0.0932
  C  C256  1  0.142500  0.932800  0.309500  1.0  -0.0353
  C  C257  1  0.104500  0.928300  0.250300  1.0  -0.1546
  C  C258  1  0.103900  0.963600  0.164700  1.0  -0.0859
  C  C259  1  0.176600  0.972000  0.291100  1.0  -0.148
  C  C260  1  0.172000  0.007400  0.210400  1.0  -0.0317
  C  C261  1  0.858100  0.393200  0.901800  1.0  0.622
  C  C262  1  0.692600  0.722400  0.429000  1.0  0.7028
  C  C263  1  0.734000  0.681900  0.459600  1.0  -0.0834
  C  C264  1  0.763400  0.654700  0.390700  1.0  -0.1329
  C  C265  1  0.745200  0.668400  0.550200  1.0  -0.0856
  C  C266  1  0.047500  0.724800  0.594600  1.0  0.7107
  C  C267  1  0.003500  0.683800  0.579500  1.0  -0.0743
  C  C268  1  0.973200  0.689700  0.504400  1.0  -0.1297
  C  C269  1  0.988000  0.645700  0.650400  1.0  -0.06
  C  C270  1  0.861400  0.506000  0.643900  1.0  0.0226
  C  C271  1  0.921870  0.607300  0.552000  1.0  0.055
  C  C272  1  0.880600  0.503400  0.428700  1.0  -0.1223
  C  C273  1  0.812720  0.602500  0.506200  1.0  -0.0402
  C  C274  1  0.892800  0.424600  0.266500  1.0  -0.1134
  C  C275  1  0.853500  0.418300  0.325000  1.0  -0.114
  C  C276  1  0.848500  0.457500  0.405900  1.0  -0.0555
  C  C277  1  0.898000  0.385500  0.180200  1.0  0.6826
  C  C278  1  0.801500  0.616800  0.415000  1.0  -0.0837
  C  C279  1  0.948500  0.605000  0.636000  1.0  -0.0962
  C  C280  1  0.933700  0.649400  0.492100  1.0  -0.049
  C  C281  1  0.920600  0.508500  0.366800  1.0  -0.0828
  C  C282  1  0.926600  0.471000  0.287500  1.0  -0.085
  C  C283  1  0.782800  0.627700  0.573400  1.0  -0.0924
  C  C284  1  0.857500  0.432800  0.809500  1.0  -0.0352
  C  C285  1  0.895500  0.428300  0.750300  1.0  -0.1528
  C  C286  1  0.896100  0.463600  0.664700  1.0  -0.085
  C  C287  1  0.823400  0.472000  0.791100  1.0  -0.1479
  C  C288  1  0.828000  0.507400  0.710400  1.0  -0.0314
  C  C289  1  0.641900  0.606800  0.901800  1.0  0.6222
  C  C290  1  0.807400  0.277600  0.429000  1.0  0.7023
  C  C291  1  0.766000  0.318100  0.459600  1.0  -0.0835
  C  C292  1  0.736600  0.345300  0.390700  1.0  -0.1323
  C  C293  1  0.754800  0.331600  0.550200  1.0  -0.0857
  C  C294  1  0.452500  0.275200  0.594600  1.0  0.7106
  C  C295  1  0.496500  0.316200  0.579500  1.0  -0.0807
  C  C296  1  0.526800  0.310300  0.504400  1.0  -0.129
  C  C297  1  0.512000  0.354300  0.650400  1.0  -0.0597
  C  C298  1  0.638600  0.494000  0.643900  1.0  0.0219
  C  C299  1  0.578130  0.392700  0.552000  1.0  0.0518
  C  C300  1  0.619400  0.496600  0.428700  1.0  -0.1231
  C  C301  1  0.687280  0.397500  0.506200  1.0  -0.042
  C  C302  1  0.607200  0.575400  0.266500  1.0  -0.1129
  C  C303  1  0.646500  0.581700  0.325000  1.0  -0.1142
  C  C304  1  0.651500  0.542500  0.405900  1.0  -0.0575
  C  C305  1  0.602000  0.614500  0.180200  1.0  0.6819
  C  C306  1  0.698500  0.383200  0.415000  1.0  -0.083
  C  C307  1  0.551500  0.395000  0.636000  1.0  -0.0941
  C  C308  1  0.566300  0.350600  0.492100  1.0  -0.0488
  C  C309  1  0.579400  0.491500  0.366800  1.0  -0.0826
  C  C310  1  0.573400  0.529000  0.287500  1.0  -0.0835
  C  C311  1  0.717200  0.372300  0.573400  1.0  -0.094
  C  C312  1  0.642500  0.567200  0.809500  1.0  -0.0368
  C  C313  1  0.604500  0.571700  0.750300  1.0  -0.1558
  C  C314  1  0.603900  0.536400  0.664700  1.0  -0.0856
  C  C315  1  0.676600  0.528000  0.791100  1.0  -0.1479
  C  C316  1  0.672000  0.492600  0.710400  1.0  -0.0307
  C  C317  1  0.641900  0.893200  0.598200  1.0  0.6214
  C  C318  1  0.807400  0.222400  0.071000  1.0  0.7042
  C  C319  1  0.766000  0.181900  0.040400  1.0  -0.0835
  C  C320  1  0.736600  0.154700  0.109300  1.0  -0.1334
  C  C321  1  0.754800  0.168400  0.949800  1.0  -0.0843
  C  C322  1  0.452500  0.224800  0.905400  1.0  0.7097
  C  C323  1  0.496500  0.183800  0.920500  1.0  -0.0777
  C  C324  1  0.526800  0.189700  0.995600  1.0  -0.129
  C  C325  1  0.512000  0.145700  0.849600  1.0  -0.0594
  C  C326  1  0.638600  0.006000  0.856100  1.0  0.023
  C  C327  1  0.578130  0.107300  0.948000  1.0  0.0527
  C  C328  1  0.619400  0.003400  0.071300  1.0  -0.1226
  C  C329  1  0.687280  0.102500  0.993800  1.0  -0.042
  C  C330  1  0.607200  0.924600  0.233500  1.0  -0.1133
  C  C331  1  0.646500  0.918300  0.175000  1.0  -0.1139
  C  C332  1  0.651500  0.957500  0.094100  1.0  -0.057
  C  C333  1  0.602000  0.885500  0.319800  1.0  0.6823
  C  C334  1  0.698500  0.116800  0.085000  1.0  -0.082
  C  C335  1  0.551500  0.105000  0.864000  1.0  -0.0958
  C  C336  1  0.566300  0.149400  0.007900  1.0  -0.0483
  C  C337  1  0.579400  0.008500  0.133200  1.0  -0.0839
  C  C338  1  0.573400  0.971000  0.212500  1.0  -0.0845
  C  C339  1  0.717200  0.127700  0.926600  1.0  -0.0938
  C  C340  1  0.642500  0.932800  0.690500  1.0  -0.0353
  C  C341  1  0.604500  0.928300  0.749700  1.0  -0.1546
  C  C342  1  0.603900  0.963600  0.835300  1.0  -0.0852
  C  C343  1  0.676600  0.972000  0.708900  1.0  -0.1483
  C  C344  1  0.672000  0.007400  0.789600  1.0  -0.0307
  C  C345  1  0.858100  0.106800  0.598200  1.0  0.6223
  C  C346  1  0.692600  0.777600  0.071000  1.0  0.7029
  C  C347  1  0.734000  0.818100  0.040400  1.0  -0.0842
  C  C348  1  0.763400  0.845300  0.109300  1.0  -0.1331
  C  C349  1  0.745200  0.831600  0.949800  1.0  -0.0858
  C  C350  1  0.047500  0.775200  0.905400  1.0  0.7096
  C  C351  1  0.003500  0.816200  0.920500  1.0  -0.0753
  C  C352  1  0.973200  0.810300  0.995600  1.0  -0.1271
  C  C353  1  0.988000  0.854300  0.849600  1.0  -0.0594
  C  C354  1  0.861400  0.994000  0.856100  1.0  0.023
  C  C355  1  0.921870  0.892700  0.948000  1.0  0.0553
  C  C356  1  0.880600  0.996600  0.071300  1.0  -0.1231
  C  C357  1  0.812720  0.897500  0.993800  1.0  -0.0403
  C  C358  1  0.892800  0.075400  0.233500  1.0  -0.1143
  C  C359  1  0.853500  0.081700  0.175000  1.0  -0.1134
  C  C360  1  0.848500  0.042500  0.094100  1.0  -0.0551
  C  C361  1  0.898000  0.114500  0.319800  1.0  0.6822
  C  C362  1  0.801500  0.883200  0.085000  1.0  -0.0829
  C  C363  1  0.948500  0.895000  0.864000  1.0  -0.0952
  C  C364  1  0.933700  0.850600  0.007900  1.0  -0.049
  C  C365  1  0.920600  0.991500  0.133200  1.0  -0.0827
  C  C366  1  0.926600  0.029000  0.212500  1.0  -0.0848
  C  C367  1  0.782800  0.872300  0.926600  1.0  -0.0937
  C  C368  1  0.857500  0.067200  0.690500  1.0  -0.0373
  C  C369  1  0.895500  0.071700  0.749700  1.0  -0.1535
  C  C370  1  0.896100  0.036400  0.835300  1.0  -0.0857
  C  C371  1  0.823400  0.028000  0.708900  1.0  -0.1475
  C  C372  1  0.828000  0.992600  0.789600  1.0  -0.029
  O  O373  1  0.107100  0.649300  0.098200  1.0  -0.5949
  O  O374  1  0.317030  0.276980  0.659300  1.0  -0.6095
  O  O375  1  0.943460  0.235800  0.467300  1.0  -0.6074
  O  O376  1  0.130430  0.660640  0.826300  1.0  -0.6739
  O  O377  1  0.071630  0.601500  0.883100  1.0  -0.5892
  O  O378  1  0.329680  0.246200  0.505300  1.0  -0.6052
  O  O379  1  0.926590  0.285180  0.332600  1.0  -0.6217
  O  O380  1  0.171800  0.598300  0.034900  1.0  -0.5459
  O  O381  1  0.392900  0.350700  0.098200  1.0  -0.5964
  O  O382  1  0.182970  0.723020  0.659300  1.0  -0.6079
  O  O383  1  0.556540  0.764200  0.467300  1.0  -0.6084
  O  O384  1  0.369570  0.339360  0.826300  1.0  -0.6743
  O  O385  1  0.428370  0.398500  0.883100  1.0  -0.5895
  O  O386  1  0.170320  0.753800  0.505300  1.0  -0.6047
  O  O387  1  0.573410  0.714820  0.332600  1.0  -0.6219
  O  O388  1  0.328200  0.401700  0.034900  1.0  -0.5469
  O  O389  1  0.392900  0.149300  0.401800  1.0  -0.5956
  O  O390  1  0.182970  0.776980  0.840700  1.0  -0.6063
  O  O391  1  0.556540  0.735800  0.032700  1.0  -0.6072
  O  O392  1  0.369570  0.160640  0.673700  1.0  -0.675
  O  O393  1  0.428370  0.101500  0.616900  1.0  -0.5909
  O  O394  1  0.170320  0.746200  0.994700  1.0  -0.6033
  O  O395  1  0.573410  0.785180  0.167400  1.0  -0.6226
  O  O396  1  0.328200  0.098300  0.465100  1.0  -0.5456
  O  O397  1  0.107100  0.850700  0.401800  1.0  -0.5966
  O  O398  1  0.317030  0.223020  0.840700  1.0  -0.6069
  O  O399  1  0.943460  0.264200  0.032700  1.0  -0.6073
  O  O400  1  0.130430  0.839360  0.673700  1.0  -0.675
  O  O401  1  0.071630  0.898500  0.616900  1.0  -0.5892
  O  O402  1  0.329680  0.253800  0.994700  1.0  -0.6041
  O  O403  1  0.926590  0.214820  0.167400  1.0  -0.6231
  O  O404  1  0.171800  0.901700  0.465100  1.0  -0.5467
  O  O405  1  0.892900  0.350700  0.901800  1.0  -0.597
  O  O406  1  0.682970  0.723020  0.340700  1.0  -0.6071
  O  O407  1  0.056540  0.764200  0.532700  1.0  -0.6076
  O  O408  1  0.869570  0.339360  0.173700  1.0  -0.6751
  O  O409  1  0.928370  0.398500  0.116900  1.0  -0.5898
  O  O410  1  0.670320  0.753800  0.494700  1.0  -0.6025
  O  O411  1  0.073410  0.714820  0.667400  1.0  -0.6228
  O  O412  1  0.828200  0.401700  0.965100  1.0  -0.5466
  O  O413  1  0.607100  0.649300  0.901800  1.0  -0.5955
  O  O414  1  0.817030  0.276980  0.340700  1.0  -0.609
  O  O415  1  0.443460  0.235800  0.532700  1.0  -0.6072
  O  O416  1  0.630430  0.660640  0.173700  1.0  -0.6741
  O  O417  1  0.571630  0.601500  0.116900  1.0  -0.5898
  O  O418  1  0.829680  0.246200  0.494700  1.0  -0.6047
  O  O419  1  0.426590  0.285180  0.667400  1.0  -0.6228
  O  O420  1  0.671800  0.598300  0.965100  1.0  -0.5456
  O  O421  1  0.607100  0.850700  0.598200  1.0  -0.5964
  O  O422  1  0.817030  0.223020  0.159300  1.0  -0.6076
  O  O423  1  0.443460  0.264200  0.967300  1.0  -0.6065
  O  O424  1  0.630430  0.839360  0.326300  1.0  -0.6742
  O  O425  1  0.571630  0.898500  0.383100  1.0  -0.5889
  O  O426  1  0.829680  0.253800  0.005300  1.0  -0.6053
  O  O427  1  0.426590  0.214820  0.832600  1.0  -0.6221
  O  O428  1  0.671800  0.901700  0.534900  1.0  -0.5452
  O  O429  1  0.892900  0.149300  0.598200  1.0  -0.595
  O  O430  1  0.682970  0.776980  0.159300  1.0  -0.6069
  O  O431  1  0.056540  0.735800  0.967300  1.0  -0.6081
  O  O432  1  0.869570  0.160640  0.326300  1.0  -0.6742
  O  O433  1  0.928370  0.101500  0.383100  1.0  -0.5907
  O  O434  1  0.670320  0.746200  0.005300  1.0  -0.6048
  O  O435  1  0.073410  0.785180  0.832600  1.0  -0.6216
  O  O436  1  0.828200  0.098300  0.534900  1.0  -0.5474
