# generated using pymatgen
data_Ni2H12C15N2O7
_symmetry_space_group_name_H-M   'P 1'
_cell_length_a   12.85390000
_cell_length_b   14.45780000
_cell_length_c   30.45300000
_cell_angle_alpha   90.00000000
_cell_angle_beta   96.49700000
_cell_angle_gamma   90.00000000
_symmetry_Int_Tables_number   1
_chemical_formula_structural   Ni2H12C15N2O7
_chemical_formula_sum   'Ni16 H96 C120 N16 O56'
_cell_volume   5623.01294519
_cell_formula_units_Z   8
loop_
 _symmetry_equiv_pos_site_id
 _symmetry_equiv_pos_as_xyz
  1  'x, y, z'
loop_
 _atom_site_type_symbol
 _atom_site_label
 _atom_site_symmetry_multiplicity
 _atom_site_fract_x
 _atom_site_fract_y
 _atom_site_fract_z
 _atom_site_occupancy
 _atom_site_charge
  Ni  Ni1  1  0.872760  0.782380  0.066410  1.0  1.0009
  Ni  Ni2  1  0.196720  0.907050  0.111830  1.0  0.859
  Ni  Ni3  1  0.129260  0.706160  0.119070  1.0  0.874
  Ni  Ni4  1  0.973330  0.809900  0.161130  1.0  0.8887
  Ni  Ni5  1  0.127240  0.282380  0.433590  1.0  0.999
  Ni  Ni6  1  0.803280  0.407050  0.388170  1.0  0.8586
  Ni  Ni7  1  0.870740  0.206160  0.380930  1.0  0.8744
  Ni  Ni8  1  0.026670  0.309900  0.338870  1.0  0.8877
  Ni  Ni9  1  0.127240  0.217620  0.933590  1.0  1.0005
  Ni  Ni10  1  0.803280  0.092950  0.888170  1.0  0.8545
  Ni  Ni11  1  0.870740  0.293840  0.880930  1.0  0.8743
  Ni  Ni12  1  0.026670  0.190100  0.838870  1.0  0.8872
  Ni  Ni13  1  0.872760  0.717620  0.566410  1.0  1.0012
  Ni  Ni14  1  0.196720  0.592950  0.611830  1.0  0.8551
  Ni  Ni15  1  0.129260  0.793840  0.619070  1.0  0.8743
  Ni  Ni16  1  0.973330  0.690100  0.661130  1.0  0.8884
  H  H17  1  0.938700  0.656300  0.119800  1.0  0.3931
  H  H18  1  0.170700  0.823500  0.182200  1.0  0.3996
  H  H19  1  0.222800  0.520900  0.132200  1.0  0.0913
  H  H20  1  0.101000  0.495200  0.985900  1.0  0.1167
  H  H21  1  0.998000  0.925900  0.972700  1.0  0.1048
  H  H22  1  0.942300  0.502000  0.320600  1.0  0.0852
  H  H23  1  0.959700  0.625300  0.275800  1.0  0.1318
  H  H24  1  0.071000  0.626200  0.025700  1.0  0.0803
  H  H25  1  0.544400  0.802400  0.118100  1.0  0.1152
  H  H26  1  0.123000  0.349700  0.255400  1.0  0.096
  H  H27  1  0.142200  0.468700  0.207200  1.0  0.1196
  H  H28  1  0.317400  0.951900  0.880600  1.0  0.1414
  H  H29  1  0.256400  0.044300  0.886100  1.0  0.137
  H  H30  1  0.205000  0.965400  0.855600  1.0  0.1462
  H  H31  1  0.368600  0.768800  0.992700  1.0  0.1438
  H  H32  1  0.274400  0.708700  0.004900  1.0  0.136
  H  H33  1  0.317400  0.789700  0.036000  1.0  0.1436
  H  H34  1  0.739800  0.583800  0.238900  1.0  0.1407
  H  H35  1  0.800700  0.672100  0.226300  1.0  0.1314
  H  H36  1  0.785100  0.588700  0.193300  1.0  0.1399
  H  H37  1  0.250100  0.385800  0.096100  1.0  0.1229
  H  H38  1  0.403600  0.597800  0.241000  1.0  0.1506
  H  H39  1  0.329100  0.608900  0.196900  1.0  0.1277
  H  H40  1  0.347700  0.692600  0.229500  1.0  0.1445
  H  H41  1  0.061300  0.156300  0.380200  1.0  0.3925
  H  H42  1  0.829300  0.323500  0.317800  1.0  0.3991
  H  H43  1  0.777200  0.020900  0.367800  1.0  0.0917
  H  H44  1  0.899000  0.995200  0.514100  1.0  0.117
  H  H45  1  0.002000  0.425900  0.527300  1.0  0.1058
  H  H46  1  0.057700  0.002000  0.179400  1.0  0.0853
  H  H47  1  0.040300  0.125300  0.224200  1.0  0.1314
  H  H48  1  0.929000  0.126200  0.474300  1.0  0.0803
  H  H49  1  0.455600  0.302400  0.381900  1.0  0.1153
  H  H50  1  0.877000  0.849700  0.244600  1.0  0.0962
  H  H51  1  0.857800  0.968700  0.292800  1.0  0.1199
  H  H52  1  0.682600  0.451900  0.619400  1.0  0.1417
  H  H53  1  0.743600  0.544300  0.613900  1.0  0.1376
  H  H54  1  0.795000  0.465400  0.644400  1.0  0.1471
  H  H55  1  0.631400  0.268800  0.507300  1.0  0.1444
  H  H56  1  0.725600  0.208700  0.495100  1.0  0.1351
  H  H57  1  0.682600  0.289700  0.464000  1.0  0.1443
  H  H58  1  0.260200  0.083800  0.261100  1.0  0.1406
  H  H59  1  0.199300  0.172100  0.273700  1.0  0.132
  H  H60  1  0.214900  0.088700  0.306700  1.0  0.1404
  H  H61  1  0.749900  0.885800  0.403900  1.0  0.1228
  H  H62  1  0.596400  0.097800  0.259000  1.0  0.1491
  H  H63  1  0.670900  0.108900  0.303100  1.0  0.1267
  H  H64  1  0.652300  0.192600  0.270500  1.0  0.1438
  H  H65  1  0.061300  0.343700  0.880200  1.0  0.3914
  H  H66  1  0.829300  0.176500  0.817800  1.0  0.3995
  H  H67  1  0.777200  0.479100  0.867800  1.0  0.0913
  H  H68  1  0.899000  0.504800  0.014100  1.0  0.1172
  H  H69  1  0.002000  0.074100  0.027300  1.0  0.1059
  H  H70  1  0.057700  0.498000  0.679400  1.0  0.0849
  H  H71  1  0.040300  0.374700  0.724200  1.0  0.1316
  H  H72  1  0.929000  0.373800  0.974300  1.0  0.0804
  H  H73  1  0.455600  0.197600  0.881900  1.0  0.1155
  H  H74  1  0.877000  0.650300  0.744600  1.0  0.0967
  H  H75  1  0.857800  0.531300  0.792800  1.0  0.12
  H  H76  1  0.682600  0.048100  0.119400  1.0  0.1411
  H  H77  1  0.743600  0.955700  0.113900  1.0  0.1334
  H  H78  1  0.795000  0.034600  0.144400  1.0  0.1459
  H  H79  1  0.631400  0.231200  0.007300  1.0  0.1437
  H  H80  1  0.725600  0.291300  0.995100  1.0  0.1357
  H  H81  1  0.682600  0.210300  0.964000  1.0  0.1451
  H  H82  1  0.260200  0.416200  0.761100  1.0  0.1408
  H  H83  1  0.199300  0.327900  0.773700  1.0  0.132
  H  H84  1  0.214900  0.411300  0.806700  1.0  0.1405
  H  H85  1  0.749900  0.614200  0.903900  1.0  0.1235
  H  H86  1  0.596400  0.402200  0.759000  1.0  0.1487
  H  H87  1  0.670900  0.391100  0.803100  1.0  0.1264
  H  H88  1  0.652300  0.307400  0.770500  1.0  0.143
  H  H89  1  0.938700  0.843700  0.619800  1.0  0.3927
  H  H90  1  0.170700  0.676500  0.682200  1.0  0.3999
  H  H91  1  0.222800  0.979100  0.632200  1.0  0.0905
  H  H92  1  0.101000  0.004800  0.485900  1.0  0.1168
  H  H93  1  0.998000  0.574100  0.472700  1.0  0.1051
  H  H94  1  0.942300  0.998000  0.820600  1.0  0.0852
  H  H95  1  0.959700  0.874700  0.775800  1.0  0.1316
  H  H96  1  0.071000  0.873800  0.525700  1.0  0.0803
  H  H97  1  0.544400  0.697600  0.618100  1.0  0.1154
  H  H98  1  0.123000  0.150300  0.755400  1.0  0.0967
  H  H99  1  0.142200  0.031300  0.707200  1.0  0.1195
  H  H100  1  0.317400  0.548100  0.380600  1.0  0.1433
  H  H101  1  0.256400  0.455700  0.386100  1.0  0.1345
  H  H102  1  0.205000  0.534600  0.355600  1.0  0.145
  H  H103  1  0.368600  0.731200  0.492700  1.0  0.1439
  H  H104  1  0.274400  0.791300  0.504900  1.0  0.1375
  H  H105  1  0.317400  0.710300  0.536000  1.0  0.1435
  H  H106  1  0.739800  0.916200  0.738900  1.0  0.1407
  H  H107  1  0.800700  0.827900  0.726300  1.0  0.1319
  H  H108  1  0.785100  0.911300  0.693300  1.0  0.1397
  H  H109  1  0.250100  0.114200  0.596100  1.0  0.1227
  H  H110  1  0.403600  0.902200  0.741000  1.0  0.1508
  H  H111  1  0.329100  0.891100  0.696900  1.0  0.128
  H  H112  1  0.347700  0.807400  0.729500  1.0  0.1448
  C  C113  1  0.647900  0.728100  0.158890  1.0  -0.0141
  C  C114  1  0.196100  0.515000  0.102620  1.0  0.1722
  C  C115  1  0.102900  0.960300  0.931900  1.0  -0.1148
  C  C116  1  0.124600  0.498200  0.015920  1.0  -0.1428
  C  C117  1  0.461100  0.732000  0.158890  1.0  -0.0421
  C  C118  1  0.066200  0.915300  0.966610  1.0  -0.0573
  C  C119  1  0.983900  0.495800  0.297670  1.0  0.1732
  C  C120  1  0.033000  0.032900  0.908520  1.0  0.7046
  C  C121  1  0.084600  0.813900  0.031970  1.0  0.6845
  C  C122  1  0.353300  0.761700  0.138280  1.0  0.6861
  C  C123  1  0.061300  0.638800  0.203680  1.0  0.6685
  C  C124  1  0.993100  0.569800  0.270800  1.0  -0.1759
  C  C125  1  0.229400  0.834700  0.980830  1.0  0.2637
  C  C126  1  0.744900  0.760100  0.140610  1.0  0.6949
  C  C127  1  0.129100  0.854300  0.992760  1.0  -0.0473
  C  C128  1  0.177000  0.423700  0.036820  1.0  -0.0659
  C  C129  1  0.053000  0.561500  0.235660  1.0  -0.0592
  C  C130  1  0.107700  0.577400  0.040030  1.0  0.1626
  C  C131  1  0.652100  0.666000  0.194230  1.0  0.2922
  C  C132  1  0.202700  0.938000  0.921000  1.0  0.2283
  C  C133  1  0.549900  0.760900  0.141540  1.0  -0.0113
  C  C134  1  0.089600  0.405700  0.259310  1.0  0.176
  C  C135  1  0.101700  0.477000  0.230280  1.0  -0.1137
  C  C136  1  0.188500  0.333400  0.012600  1.0  0.7116
  C  C137  1  0.249600  0.978500  0.882350  1.0  -0.4243
  C  C138  1  0.304100  0.769700  0.005830  1.0  -0.4134
  C  C139  1  0.753700  0.623800  0.215070  1.0  -0.3793
  C  C140  1  0.213600  0.433800  0.080980  1.0  -0.1093
  C  C141  1  0.471000  0.670300  0.194270  1.0  0.2828
  C  C142  1  0.379600  0.639600  0.217530  1.0  -0.3806
  C  C143  1  0.352100  0.228100  0.341110  1.0  -0.0165
  C  C144  1  0.803900  0.015000  0.397380  1.0  0.1725
  C  C145  1  0.897100  0.460300  0.568100  1.0  -0.1145
  C  C146  1  0.875400  0.998200  0.484080  1.0  -0.1426
  C  C147  1  0.538900  0.232000  0.341110  1.0  -0.0414
  C  C148  1  0.933800  0.415300  0.533390  1.0  -0.0573
  C  C149  1  0.016100  0.995800  0.202330  1.0  0.1722
  C  C150  1  0.967000  0.532900  0.591480  1.0  0.7039
  C  C151  1  0.915400  0.313900  0.468030  1.0  0.6846
  C  C152  1  0.646700  0.261700  0.361720  1.0  0.6867
  C  C153  1  0.938700  0.138800  0.296320  1.0  0.6674
  C  C154  1  0.006900  0.069800  0.229200  1.0  -0.1738
  C  C155  1  0.770600  0.334700  0.519170  1.0  0.2647
  C  C156  1  0.255100  0.260100  0.359390  1.0  0.6947
  C  C157  1  0.870900  0.354300  0.507240  1.0  -0.0463
  C  C158  1  0.823000  0.923700  0.463180  1.0  -0.0657
  C  C159  1  0.947000  0.061500  0.264340  1.0  -0.0601
  C  C160  1  0.892300  0.077400  0.459970  1.0  0.1628
  C  C161  1  0.347900  0.166000  0.305770  1.0  0.293
  C  C162  1  0.797300  0.438000  0.579000  1.0  0.2294
  C  C163  1  0.450100  0.260900  0.358460  1.0  -0.0109
  C  C164  1  0.910400  0.905700  0.240690  1.0  0.1759
  C  C165  1  0.898300  0.977000  0.269720  1.0  -0.1119
  C  C166  1  0.811500  0.833400  0.487400  1.0  0.7112
  C  C167  1  0.750400  0.478500  0.617650  1.0  -0.4234
  C  C168  1  0.695900  0.269700  0.494170  1.0  -0.4135
  C  C169  1  0.246300  0.123800  0.284930  1.0  -0.3793
  C  C170  1  0.786400  0.933800  0.419020  1.0  -0.1076
  C  C171  1  0.529000  0.170300  0.305730  1.0  0.2834
  C  C172  1  0.620400  0.139600  0.282470  1.0  -0.38
  C  C173  1  0.352100  0.271900  0.841110  1.0  -0.0169
  C  C174  1  0.803900  0.485000  0.897380  1.0  0.1719
  C  C175  1  0.897100  0.039700  0.068100  1.0  -0.1147
  C  C176  1  0.875400  0.501800  0.984080  1.0  -0.1427
  C  C177  1  0.538900  0.268000  0.841110  1.0  -0.0415
  C  C178  1  0.933800  0.084700  0.033390  1.0  -0.0569
  C  C179  1  0.016100  0.504200  0.702330  1.0  0.1718
  C  C180  1  0.967000  0.967100  0.091480  1.0  0.7041
  C  C181  1  0.915400  0.186100  0.968030  1.0  0.6847
  C  C182  1  0.646700  0.238300  0.861720  1.0  0.6876
  C  C183  1  0.938700  0.361200  0.796320  1.0  0.6667
  C  C184  1  0.006900  0.430200  0.729200  1.0  -0.1731
  C  C185  1  0.770600  0.165300  0.019170  1.0  0.2645
  C  C186  1  0.255100  0.239900  0.859390  1.0  0.6942
  C  C187  1  0.870900  0.145700  0.007240  1.0  -0.0462
  C  C188  1  0.823000  0.576300  0.963180  1.0  -0.0652
  C  C189  1  0.947000  0.438500  0.764340  1.0  -0.0616
  C  C190  1  0.892300  0.422600  0.959970  1.0  0.1628
  C  C191  1  0.347900  0.334000  0.805770  1.0  0.2937
  C  C192  1  0.797300  0.062000  0.079000  1.0  0.2294
  C  C193  1  0.450100  0.239100  0.858460  1.0  -0.0107
  C  C194  1  0.910400  0.594300  0.740690  1.0  0.1748
  C  C195  1  0.898300  0.523000  0.769720  1.0  -0.1126
  C  C196  1  0.811500  0.666667  0.987400  1.0  0.7108
  C  C197  1  0.750400  0.021500  0.117650  1.0  -0.4239
  C  C198  1  0.695900  0.230300  0.994170  1.0  -0.4136
  C  C199  1  0.246300  0.376200  0.784930  1.0  -0.3797
  C  C200  1  0.786400  0.566200  0.919020  1.0  -0.1086
  C  C201  1  0.529000  0.329700  0.805730  1.0  0.2822
  C  C202  1  0.620400  0.360400  0.782470  1.0  -0.3806
  C  C203  1  0.647900  0.771900  0.658890  1.0  -0.0144
  C  C204  1  0.196100  0.985000  0.602620  1.0  0.1712
  C  C205  1  0.102900  0.539700  0.431900  1.0  -0.1147
  C  C206  1  0.124600  0.001800  0.515920  1.0  -0.1426
  C  C207  1  0.461100  0.768000  0.658890  1.0  -0.0427
  C  C208  1  0.066200  0.584700  0.466610  1.0  -0.0572
  C  C209  1  0.983900  0.004200  0.797670  1.0  0.1732
  C  C210  1  0.033000  0.467100  0.408520  1.0  0.7045
  C  C211  1  0.084600  0.686100  0.531970  1.0  0.6845
  C  C212  1  0.353300  0.738300  0.638280  1.0  0.6871
  C  C213  1  0.061300  0.861200  0.703680  1.0  0.6677
  C  C214  1  0.993100  0.930200  0.770800  1.0  -0.174
  C  C215  1  0.229400  0.665300  0.480830  1.0  0.2629
  C  C216  1  0.744900  0.739900  0.640610  1.0  0.6947
  C  C217  1  0.129100  0.645700  0.492760  1.0  -0.0471
  C  C218  1  0.177000  0.076300  0.536820  1.0  -0.066
  C  C219  1  0.053000  0.938500  0.735660  1.0  -0.0609
  C  C220  1  0.107700  0.922600  0.540030  1.0  0.162
  C  C221  1  0.652100  0.834000  0.694230  1.0  0.2929
  C  C222  1  0.202700  0.562000  0.421000  1.0  0.2277
  C  C223  1  0.549900  0.739100  0.641540  1.0  -0.0117
  C  C224  1  0.089600  0.094300  0.759310  1.0  0.1759
  C  C225  1  0.101700  0.023000  0.730280  1.0  -0.1138
  C  C226  1  0.188500  0.166600  0.512600  1.0  0.7109
  C  C227  1  0.249600  0.521500  0.382350  1.0  -0.4241
  C  C228  1  0.304100  0.730300  0.505830  1.0  -0.4134
  C  C229  1  0.753700  0.876200  0.715070  1.0  -0.3797
  C  C230  1  0.213600  0.066200  0.580980  1.0  -0.109
  C  C231  1  0.471000  0.829700  0.694270  1.0  0.2815
  C  C232  1  0.379600  0.860400  0.717530  1.0  -0.3817
  N  N233  1  0.031300  0.414440  0.293020  1.0  -0.3214
  N  N234  1  0.261900  0.874400  0.944410  1.0  -0.4441
  N  N235  1  0.141700  0.586500  0.082770  1.0  -0.323
  N  N236  1  0.565800  0.638100  0.211660  1.0  -0.4838
  N  N237  1  0.968700  0.914440  0.206980  1.0  -0.3212
  N  N238  1  0.738100  0.374400  0.555590  1.0  -0.441
  N  N239  1  0.858300  0.086500  0.417230  1.0  -0.3245
  N  N240  1  0.434200  0.138100  0.288340  1.0  -0.4856
  N  N241  1  0.968700  0.585560  0.706980  1.0  -0.3214
  N  N242  1  0.738100  0.125600  0.055590  1.0  -0.4406
  N  N243  1  0.858300  0.413500  0.917230  1.0  -0.3243
  N  N244  1  0.434200  0.361900  0.788340  1.0  -0.4843
  N  N245  1  0.031300  0.085560  0.793020  1.0  -0.3211
  N  N246  1  0.261900  0.625600  0.444410  1.0  -0.4436
  N  N247  1  0.141700  0.913500  0.582770  1.0  -0.3231
  N  N248  1  0.565800  0.861900  0.711660  1.0  -0.4833
  O  O249  1  0.146770  0.796370  0.066520  1.0  -0.6596
  O  O250  1  0.075420  0.102100  0.892230  1.0  -0.6596
  O  O251  1  0.970090  0.714440  0.111290  1.0  -0.924
  O  O252  1  0.288790  0.698120  0.130180  1.0  -0.5779
  O  O253  1  0.007660  0.710960  0.208890  1.0  -0.56
  O  O254  1  0.119990  0.625700  0.173970  1.0  -0.5557
  O  O255  1  0.127340  0.828230  0.153730  1.0  -0.9449
  O  O256  1  0.936060  0.019600  0.908280  1.0  -0.6404
  O  O257  1  0.167400  0.334570  0.971290  1.0  -0.5725
  O  O258  1  0.987630  0.803130  0.026890  1.0  -0.5939
  O  O259  1  0.819300  0.786060  0.168340  1.0  -0.5906
  O  O260  1  0.744570  0.758900  0.098890  1.0  -0.5844
  O  O261  1  0.339180  0.847260  0.130710  1.0  -0.5921
  O  O262  1  0.216700  0.264600  0.036230  1.0  -0.4785
  O  O263  1  0.853230  0.296370  0.433480  1.0  -0.661
  O  O264  1  0.924580  0.602100  0.607770  1.0  -0.6602
  O  O265  1  0.029910  0.214440  0.388710  1.0  -0.923
  O  O266  1  0.711210  0.198120  0.369820  1.0  -0.5794
  O  O267  1  0.992340  0.210960  0.291110  1.0  -0.5595
  O  O268  1  0.880010  0.125700  0.326030  1.0  -0.5549
  O  O269  1  0.872660  0.328230  0.346270  1.0  -0.9453
  O  O270  1  0.063940  0.519600  0.591720  1.0  -0.6362
  O  O271  1  0.832600  0.834570  0.528710  1.0  -0.575
  O  O272  1  0.012370  0.303130  0.473110  1.0  -0.5921
  O  O273  1  0.180700  0.286060  0.331660  1.0  -0.5906
  O  O274  1  0.255430  0.258900  0.401110  1.0  -0.5835
  O  O275  1  0.660820  0.347260  0.369290  1.0  -0.595
  O  O276  1  0.783300  0.764600  0.463770  1.0  -0.4778
  O  O277  1  0.853230  0.203630  0.933480  1.0  -0.6604
  O  O278  1  0.924580  0.897900  0.107770  1.0  -0.6604
  O  O279  1  0.029910  0.285560  0.888710  1.0  -0.922
  O  O280  1  0.711210  0.301880  0.869820  1.0  -0.5793
  O  O281  1  0.992340  0.289040  0.791110  1.0  -0.5591
  O  O282  1  0.880010  0.374300  0.826030  1.0  -0.555
  O  O283  1  0.872660  0.171770  0.846270  1.0  -0.9456
  O  O284  1  0.063940  0.980400  0.091720  1.0  -0.6379
  O  O285  1  0.832600  0.665430  0.028710  1.0  -0.5742
  O  O286  1  0.012370  0.196870  0.973110  1.0  -0.5923
  O  O287  1  0.180700  0.213940  0.831660  1.0  -0.5907
  O  O288  1  0.255430  0.241100  0.901110  1.0  -0.5833
  O  O289  1  0.660820  0.152740  0.869290  1.0  -0.5945
  O  O290  1  0.783300  0.735400  0.963770  1.0  -0.4833
  O  O291  1  0.146770  0.703630  0.566520  1.0  -0.6587
  O  O292  1  0.075420  0.397900  0.392230  1.0  -0.6603
  O  O293  1  0.970090  0.785560  0.611290  1.0  -0.9224
  O  O294  1  0.288790  0.801880  0.630180  1.0  -0.5777
  O  O295  1  0.007660  0.789040  0.708890  1.0  -0.5596
  O  O296  1  0.119990  0.874300  0.673970  1.0  -0.5553
  O  O297  1  0.127340  0.671770  0.653730  1.0  -0.9452
  O  O298  1  0.936060  0.480400  0.408280  1.0  -0.6412
  O  O299  1  0.167400  0.165430  0.471290  1.0  -0.5729
  O  O300  1  0.987630  0.696870  0.526890  1.0  -0.5932
  O  O301  1  0.819300  0.713940  0.668340  1.0  -0.5901
  O  O302  1  0.744570  0.741100  0.598890  1.0  -0.5847
  O  O303  1  0.339180  0.652740  0.630710  1.0  -0.5955
  O  O304  1  0.216700  0.235400  0.536230  1.0  -0.4847
