# generated using pymatgen
data_CuH14C17O4
_symmetry_space_group_name_H-M   'P 1'
_cell_length_a   24.16360000
_cell_length_b   17.67100000
_cell_length_c   10.10650000
_cell_angle_alpha   90.00000000
_cell_angle_beta   113.96900000
_cell_angle_gamma   90.00000000
_symmetry_Int_Tables_number   1
_chemical_formula_structural   CuH14C17O4
_chemical_formula_sum   'Cu8 H112 C136 O32'
_cell_volume   3943.28575147
_cell_formula_units_Z   8
loop_
 _symmetry_equiv_pos_site_id
 _symmetry_equiv_pos_as_xyz
  1  'x, y, z'
loop_
 _atom_site_type_symbol
 _atom_site_label
 _atom_site_symmetry_multiplicity
 _atom_site_fract_x
 _atom_site_fract_y
 _atom_site_fract_z
 _atom_site_occupancy
 _atom_site_charge
  Cu  Cu1  1  0.276460  0.192980  0.965430  1.0  0.9154
  Cu  Cu2  1  0.776460  0.692980  0.965430  1.0  0.9154
  Cu  Cu3  1  0.723540  0.192980  0.534570  1.0  0.9137
  Cu  Cu4  1  0.223540  0.692980  0.534570  1.0  0.9137
  Cu  Cu5  1  0.723540  0.807020  0.034570  1.0  0.9155
  Cu  Cu6  1  0.223540  0.307020  0.034570  1.0  0.9155
  Cu  Cu7  1  0.276460  0.807020  0.465430  1.0  0.9177
  Cu  Cu8  1  0.776460  0.307020  0.465430  1.0  0.9177
  H  H9  1  0.092800  0.945500  0.129100  1.0  0.1232
  H  H10  1  0.981600  0.112900  0.899300  1.0  0.1117
  H  H11  1  0.065300  0.184900  0.918200  1.0  0.1177
  H  H12  1  0.230100  0.046900  0.215900  1.0  0.134
  H  H13  1  0.212600  0.972900  0.119100  1.0  0.1387
  H  H14  1  0.202600  0.976200  0.264500  1.0  0.1359
  H  H15  1  0.979000  0.303500  0.433400  1.0  0.1236
  H  H16  1  0.087900  0.215800  0.257500  1.0  0.1227
  H  H17  1  0.000800  0.325900  0.651100  1.0  0.0589
  H  H18  1  0.067600  0.350900  0.753200  1.0  0.0988
  H  H19  1  0.045700  0.267200  0.761200  1.0  0.1305
  H  H20  1  0.191000  0.213300  0.380200  1.0  0.1103
  H  H21  1  0.189500  0.145400  0.480900  1.0  0.1311
  H  H22  1  0.223700  0.221300  0.550800  1.0  0.1072
  H  H23  1  0.592800  0.445500  0.129100  1.0  0.1232
  H  H24  1  0.481600  0.612900  0.899300  1.0  0.1117
  H  H25  1  0.565300  0.684900  0.918200  1.0  0.1177
  H  H26  1  0.730100  0.546900  0.215900  1.0  0.134
  H  H27  1  0.712600  0.472900  0.119100  1.0  0.1387
  H  H28  1  0.702600  0.476200  0.264500  1.0  0.1359
  H  H29  1  0.479000  0.803500  0.433400  1.0  0.1236
  H  H30  1  0.587900  0.715800  0.257500  1.0  0.1227
  H  H31  1  0.500800  0.825900  0.651100  1.0  0.0589
  H  H32  1  0.567600  0.850900  0.753200  1.0  0.0988
  H  H33  1  0.545700  0.767200  0.761200  1.0  0.1305
  H  H34  1  0.691000  0.713300  0.380200  1.0  0.1103
  H  H35  1  0.689500  0.645400  0.480900  1.0  0.1311
  H  H36  1  0.723700  0.721300  0.550800  1.0  0.1072
  H  H37  1  0.907200  0.945500  0.370900  1.0  0.1222
  H  H38  1  0.018400  0.112900  0.600700  1.0  0.1134
  H  H39  1  0.934700  0.184900  0.581800  1.0  0.118
  H  H40  1  0.769900  0.046900  0.284100  1.0  0.134
  H  H41  1  0.787400  0.972900  0.380900  1.0  0.1388
  H  H42  1  0.797400  0.976200  0.235500  1.0  0.1359
  H  H43  1  0.021000  0.303500  0.066600  1.0  0.1255
  H  H44  1  0.912100  0.215800  0.242500  1.0  0.1215
  H  H45  1  0.999200  0.325900  0.848900  1.0  0.0584
  H  H46  1  0.932400  0.350900  0.746800  1.0  0.0993
  H  H47  1  0.954300  0.267200  0.738800  1.0  0.131
  H  H48  1  0.809000  0.213300  0.119800  1.0  0.11
  H  H49  1  0.810500  0.145400  0.019100  1.0  0.1307
  H  H50  1  0.776300  0.221300  0.949200  1.0  0.1078
  H  H51  1  0.407200  0.445500  0.370900  1.0  0.1222
  H  H52  1  0.518400  0.612900  0.600700  1.0  0.1134
  H  H53  1  0.434700  0.684900  0.581800  1.0  0.118
  H  H54  1  0.269900  0.546900  0.284100  1.0  0.134
  H  H55  1  0.287400  0.472900  0.380900  1.0  0.1388
  H  H56  1  0.297400  0.476200  0.235500  1.0  0.1359
  H  H57  1  0.521000  0.803500  0.066600  1.0  0.1255
  H  H58  1  0.412100  0.715800  0.242500  1.0  0.1215
  H  H59  1  0.499200  0.825900  0.848900  1.0  0.0584
  H  H60  1  0.432400  0.850900  0.746800  1.0  0.0993
  H  H61  1  0.454300  0.767200  0.738800  1.0  0.131
  H  H62  1  0.309000  0.713300  0.119800  1.0  0.11
  H  H63  1  0.310500  0.645400  0.019100  1.0  0.1307
  H  H64  1  0.276300  0.721300  0.949200  1.0  0.1078
  H  H65  1  0.907200  0.054500  0.870900  1.0  0.1235
  H  H66  1  0.018400  0.887100  0.100700  1.0  0.1138
  H  H67  1  0.934700  0.815100  0.081800  1.0  0.1174
  H  H68  1  0.769900  0.953100  0.784100  1.0  0.1344
  H  H69  1  0.787400  0.027100  0.880900  1.0  0.1386
  H  H70  1  0.797400  0.023800  0.735500  1.0  0.1362
  H  H71  1  0.021000  0.696500  0.566600  1.0  0.126
  H  H72  1  0.912100  0.784200  0.742500  1.0  0.1217
  H  H73  1  0.999200  0.674100  0.348900  1.0  0.0587
  H  H74  1  0.932400  0.649100  0.246800  1.0  0.0966
  H  H75  1  0.954300  0.732800  0.238800  1.0  0.1269
  H  H76  1  0.809000  0.786700  0.619800  1.0  0.11
  H  H77  1  0.810500  0.854600  0.519100  1.0  0.1325
  H  H78  1  0.776300  0.778700  0.449200  1.0  0.1076
  H  H79  1  0.407200  0.554500  0.870900  1.0  0.1233
  H  H80  1  0.518400  0.387100  0.100700  1.0  0.1138
  H  H81  1  0.434700  0.315100  0.081800  1.0  0.1174
  H  H82  1  0.269900  0.453100  0.784100  1.0  0.1343
  H  H83  1  0.287400  0.527100  0.880900  1.0  0.1386
  H  H84  1  0.297400  0.523800  0.735500  1.0  0.1362
  H  H85  1  0.521000  0.196500  0.566600  1.0  0.126
  H  H86  1  0.412100  0.284200  0.742500  1.0  0.1217
  H  H87  1  0.499200  0.174100  0.348900  1.0  0.0587
  H  H88  1  0.432400  0.149100  0.246800  1.0  0.0966
  H  H89  1  0.454300  0.232800  0.238800  1.0  0.1269
  H  H90  1  0.309000  0.286700  0.619800  1.0  0.11
  H  H91  1  0.310500  0.354600  0.519100  1.0  0.1325
  H  H92  1  0.276300  0.278700  0.449200  1.0  0.1076
  H  H93  1  0.092800  0.054500  0.629100  1.0  0.126
  H  H94  1  0.981600  0.887100  0.399300  1.0  0.1118
  H  H95  1  0.065300  0.815100  0.418200  1.0  0.1172
  H  H96  1  0.230100  0.953100  0.715900  1.0  0.1353
  H  H97  1  0.212600  0.027100  0.619100  1.0  0.1388
  H  H98  1  0.202600  0.023800  0.764500  1.0  0.1363
  H  H99  1  0.979000  0.696500  0.933400  1.0  0.1242
  H  H100  1  0.087900  0.784200  0.757500  1.0  0.1223
  H  H101  1  0.000800  0.674100  0.151100  1.0  0.0589
  H  H102  1  0.067600  0.649100  0.253200  1.0  0.0991
  H  H103  1  0.045700  0.732800  0.261200  1.0  0.1276
  H  H104  1  0.191000  0.786700  0.880200  1.0  0.1104
  H  H105  1  0.189500  0.854600  0.980900  1.0  0.1322
  H  H106  1  0.223700  0.778700  0.050800  1.0  0.1072
  H  H107  1  0.592800  0.554500  0.629100  1.0  0.126
  H  H108  1  0.481600  0.387100  0.399300  1.0  0.1118
  H  H109  1  0.565300  0.315100  0.418200  1.0  0.1172
  H  H110  1  0.730100  0.453100  0.715900  1.0  0.135
  H  H111  1  0.712600  0.527100  0.619100  1.0  0.1388
  H  H112  1  0.702600  0.523800  0.764500  1.0  0.1363
  H  H113  1  0.479000  0.196500  0.933400  1.0  0.1242
  H  H114  1  0.587900  0.284200  0.757500  1.0  0.1223
  H  H115  1  0.500800  0.174100  0.151100  1.0  0.0589
  H  H116  1  0.567600  0.149100  0.253200  1.0  0.0991
  H  H117  1  0.545700  0.232800  0.261200  1.0  0.1276
  H  H118  1  0.691000  0.286700  0.880200  1.0  0.1104
  H  H119  1  0.689500  0.354600  0.980900  1.0  0.1322
  H  H120  1  0.723700  0.278700  0.050800  1.0  0.1072
  C  C121  1  0.179800  0.156500  0.034300  1.0  0.6846
  C  C122  1  0.129000  0.108100  0.034900  1.0  -0.1013
  C  C123  1  0.137200  0.036700  0.097800  1.0  0.0739
  C  C124  1  0.087300  0.993800  0.086500  1.0  -0.0453
  C  C125  1  0.029100  0.022300  0.012400  1.0  -0.0472
  C  C126  1  0.020900  0.093700  0.949500  1.0  -0.0691
  C  C127  1  0.070900  0.136600  0.960800  1.0  -0.0526
  C  C128  1  0.201600  0.005300  0.182000  1.0  -0.4281
  C  C129  1  0.172700  0.257900  0.743300  1.0  0.674
  C  C130  1  0.121400  0.257700  0.595100  1.0  -0.0772
  C  C131  1  0.065000  0.284400  0.579600  1.0  0.0315
  C  C132  1  0.017100  0.285500  0.443800  1.0  -0.191
  C  C133  1  0.025700  0.259800  0.323400  1.0  0.0576
  C  C134  1  0.082100  0.233100  0.338900  1.0  -0.1024
  C  C135  1  0.129900  0.232000  0.474700  1.0  0.0416
  C  C136  1  0.042700  0.309400  0.697000  1.0  -0.3481
  C  C137  1  0.189100  0.200000  0.471000  1.0  -0.3817
  C  C138  1  0.679800  0.656500  0.034300  1.0  0.6846
  C  C139  1  0.629000  0.608100  0.034900  1.0  -0.1017
  C  C140  1  0.637200  0.536700  0.097800  1.0  0.0739
  C  C141  1  0.587300  0.493800  0.086500  1.0  -0.0453
  C  C142  1  0.529100  0.522300  0.012400  1.0  -0.0472
  C  C143  1  0.520900  0.593700  0.949500  1.0  -0.0691
  C  C144  1  0.570900  0.636600  0.960800  1.0  -0.0526
  C  C145  1  0.701600  0.505300  0.182000  1.0  -0.4281
  C  C146  1  0.672700  0.757900  0.743300  1.0  0.674
  C  C147  1  0.621400  0.757700  0.595100  1.0  -0.0772
  C  C148  1  0.565000  0.784400  0.579600  1.0  0.0315
  C  C149  1  0.517100  0.785500  0.443800  1.0  -0.191
  C  C150  1  0.525700  0.759800  0.323400  1.0  0.0576
  C  C151  1  0.582100  0.733100  0.338900  1.0  -0.1024
  C  C152  1  0.629900  0.732000  0.474700  1.0  0.0416
  C  C153  1  0.542700  0.809400  0.697000  1.0  -0.3481
  C  C154  1  0.689100  0.700000  0.471000  1.0  -0.3817
  C  C155  1  0.820200  0.156500  0.465700  1.0  0.6828
  C  C156  1  0.871000  0.108100  0.465100  1.0  -0.1003
  C  C157  1  0.862800  0.036700  0.402200  1.0  0.0733
  C  C158  1  0.912700  0.993800  0.413500  1.0  -0.0453
  C  C159  1  0.970900  0.022300  0.487600  1.0  -0.0374
  C  C160  1  0.979100  0.093700  0.550500  1.0  -0.0723
  C  C161  1  0.929100  0.136600  0.539200  1.0  -0.0529
  C  C162  1  0.798400  0.005300  0.318000  1.0  -0.4253
  C  C163  1  0.827300  0.257900  0.756700  1.0  0.673
  C  C164  1  0.878600  0.257700  0.904900  1.0  -0.076
  C  C165  1  0.935000  0.284400  0.920400  1.0  0.0278
  C  C166  1  0.982900  0.285500  0.056200  1.0  -0.1888
  C  C167  1  0.974300  0.259800  0.176600  1.0  0.0578
  C  C168  1  0.917900  0.233100  0.161100  1.0  -0.1019
  C  C169  1  0.870100  0.232000  0.025300  1.0  0.0417
  C  C170  1  0.957300  0.309400  0.803000  1.0  -0.3508
  C  C171  1  0.810900  0.200000  0.029000  1.0  -0.3794
  C  C172  1  0.320200  0.656500  0.465700  1.0  0.6828
  C  C173  1  0.371000  0.608100  0.465100  1.0  -0.1003
  C  C174  1  0.362800  0.536700  0.402200  1.0  0.0733
  C  C175  1  0.412700  0.493800  0.413500  1.0  -0.0453
  C  C176  1  0.470900  0.522300  0.487600  1.0  -0.0374
  C  C177  1  0.479100  0.593700  0.550500  1.0  -0.0725
  C  C178  1  0.429100  0.636600  0.539200  1.0  -0.0529
  C  C179  1  0.298400  0.505300  0.318000  1.0  -0.4253
  C  C180  1  0.327300  0.757900  0.756700  1.0  0.673
  C  C181  1  0.378600  0.757700  0.904900  1.0  -0.076
  C  C182  1  0.435000  0.784400  0.920400  1.0  0.0278
  C  C183  1  0.482900  0.785500  0.056200  1.0  -0.1888
  C  C184  1  0.474300  0.759800  0.176600  1.0  0.0578
  C  C185  1  0.417900  0.733100  0.161100  1.0  -0.1019
  C  C186  1  0.370100  0.732000  0.025300  1.0  0.0417
  C  C187  1  0.457300  0.809400  0.803000  1.0  -0.3508
  C  C188  1  0.310900  0.700000  0.029000  1.0  -0.3794
  C  C189  1  0.820200  0.843500  0.965700  1.0  0.6827
  C  C190  1  0.871000  0.891900  0.965100  1.0  -0.1005
  C  C191  1  0.862800  0.963300  0.902200  1.0  0.0735
  C  C192  1  0.912700  0.006200  0.913500  1.0  -0.0453
  C  C193  1  0.970900  0.977700  0.987600  1.0  -0.0367
  C  C194  1  0.979100  0.906300  0.050500  1.0  -0.072
  C  C195  1  0.929100  0.863400  0.039200  1.0  -0.0534
  C  C196  1  0.798400  0.994700  0.818000  1.0  -0.4254
  C  C197  1  0.827300  0.742100  0.256700  1.0  0.6732
  C  C198  1  0.878600  0.742300  0.404900  1.0  -0.0764
  C  C199  1  0.935000  0.715600  0.420400  1.0  0.0295
  C  C200  1  0.982900  0.714500  0.556200  1.0  -0.19
  C  C201  1  0.974300  0.740200  0.676600  1.0  0.0578
  C  C202  1  0.917900  0.766900  0.661100  1.0  -0.1004
  C  C203  1  0.870100  0.768000  0.525300  1.0  0.0426
  C  C204  1  0.957300  0.690600  0.303000  1.0  -0.3476
  C  C205  1  0.810900  0.800000  0.529000  1.0  -0.3792
  C  C206  1  0.320200  0.343500  0.965700  1.0  0.6827
  C  C207  1  0.371000  0.391900  0.965100  1.0  -0.1005
  C  C208  1  0.362800  0.463300  0.902200  1.0  0.0735
  C  C209  1  0.412700  0.506200  0.913500  1.0  -0.0453
  C  C210  1  0.470900  0.477700  0.987600  1.0  -0.0367
  C  C211  1  0.479100  0.406300  0.050500  1.0  -0.0721
  C  C212  1  0.429100  0.363400  0.039200  1.0  -0.0534
  C  C213  1  0.298400  0.494700  0.818000  1.0  -0.4254
  C  C214  1  0.327300  0.242100  0.256700  1.0  0.6732
  C  C215  1  0.378600  0.242300  0.404900  1.0  -0.0764
  C  C216  1  0.435000  0.215600  0.420400  1.0  0.0295
  C  C217  1  0.482900  0.214500  0.556200  1.0  -0.1891
  C  C218  1  0.474300  0.240200  0.676600  1.0  0.0578
  C  C219  1  0.417900  0.266900  0.661100  1.0  -0.1004
  C  C220  1  0.370100  0.268000  0.525300  1.0  0.0426
  C  C221  1  0.457300  0.190600  0.303000  1.0  -0.3476
  C  C222  1  0.310900  0.300000  0.529000  1.0  -0.3792
  C  C223  1  0.179800  0.843500  0.534300  1.0  0.6842
  C  C224  1  0.129000  0.891900  0.534900  1.0  -0.1005
  C  C225  1  0.137200  0.963300  0.597800  1.0  0.0744
  C  C226  1  0.087300  0.006200  0.586500  1.0  -0.0448
  C  C227  1  0.029100  0.977700  0.512400  1.0  -0.0466
  C  C228  1  0.020900  0.906300  0.449500  1.0  -0.0691
  C  C229  1  0.070900  0.863400  0.460800  1.0  -0.0531
  C  C230  1  0.201600  0.994700  0.682000  1.0  -0.4282
  C  C231  1  0.172700  0.742100  0.243300  1.0  0.6745
  C  C232  1  0.121400  0.742300  0.095100  1.0  -0.0774
  C  C233  1  0.065000  0.715600  0.079600  1.0  0.0313
  C  C234  1  0.017100  0.714500  0.943800  1.0  -0.1908
  C  C235  1  0.025700  0.740200  0.823400  1.0  0.0579
  C  C236  1  0.082100  0.766900  0.838900  1.0  -0.1005
  C  C237  1  0.129900  0.768000  0.974700  1.0  0.0426
  C  C238  1  0.042700  0.690600  0.197000  1.0  -0.3476
  C  C239  1  0.189100  0.800000  0.971000  1.0  -0.3815
  C  C240  1  0.679800  0.343500  0.534300  1.0  0.6842
  C  C241  1  0.629000  0.391900  0.534900  1.0  -0.0985
  C  C242  1  0.637200  0.463300  0.597800  1.0  0.0744
  C  C243  1  0.587300  0.506200  0.586500  1.0  -0.0448
  C  C244  1  0.529100  0.477700  0.512400  1.0  -0.0466
  C  C245  1  0.520900  0.406300  0.449500  1.0  -0.0701
  C  C246  1  0.570900  0.363400  0.460800  1.0  -0.0531
  C  C247  1  0.701600  0.494700  0.682000  1.0  -0.4282
  C  C248  1  0.672700  0.242100  0.243300  1.0  0.6745
  C  C249  1  0.621400  0.242300  0.095100  1.0  -0.0774
  C  C250  1  0.565000  0.215600  0.079600  1.0  0.0313
  C  C251  1  0.517100  0.214500  0.943800  1.0  -0.1908
  C  C252  1  0.525700  0.240200  0.823400  1.0  0.0579
  C  C253  1  0.582100  0.266900  0.838900  1.0  -0.1005
  C  C254  1  0.629900  0.268000  0.974700  1.0  0.0426
  C  C255  1  0.542700  0.190600  0.197000  1.0  -0.3476
  C  C256  1  0.689100  0.300000  0.971000  1.0  -0.3815
  O  O257  1  0.219800  0.129000  0.002600  1.0  -0.5624
  O  O258  1  0.175100  0.225900  0.063000  1.0  -0.5936
  O  O259  1  0.213000  0.209500  0.769800  1.0  -0.5603
  O  O260  1  0.169200  0.306800  0.830100  1.0  -0.57
  O  O261  1  0.719800  0.629000  0.002600  1.0  -0.5624
  O  O262  1  0.675100  0.725900  0.063000  1.0  -0.5936
  O  O263  1  0.713000  0.709500  0.769800  1.0  -0.5603
  O  O264  1  0.669200  0.806800  0.830100  1.0  -0.57
  O  O265  1  0.780200  0.129000  0.497400  1.0  -0.5639
  O  O266  1  0.824900  0.225900  0.437000  1.0  -0.5926
  O  O267  1  0.787000  0.209500  0.730200  1.0  -0.5604
  O  O268  1  0.830800  0.306800  0.669900  1.0  -0.5701
  O  O269  1  0.280200  0.629000  0.497400  1.0  -0.5639
  O  O270  1  0.324900  0.725900  0.437000  1.0  -0.5926
  O  O271  1  0.287000  0.709500  0.730200  1.0  -0.5604
  O  O272  1  0.330800  0.806800  0.669900  1.0  -0.5701
  O  O273  1  0.780200  0.871000  0.997400  1.0  -0.5635
  O  O274  1  0.824900  0.774100  0.937000  1.0  -0.5933
  O  O275  1  0.787000  0.790500  0.230200  1.0  -0.5606
  O  O276  1  0.830800  0.693200  0.169900  1.0  -0.5702
  O  O277  1  0.280200  0.371000  0.997400  1.0  -0.5635
  O  O278  1  0.324900  0.274100  0.937000  1.0  -0.5933
  O  O279  1  0.287000  0.290500  0.230200  1.0  -0.5606
  O  O280  1  0.330800  0.193200  0.169900  1.0  -0.5702
  O  O281  1  0.219800  0.871000  0.502600  1.0  -0.5618
  O  O282  1  0.175100  0.774100  0.563000  1.0  -0.594
  O  O283  1  0.213000  0.790500  0.269800  1.0  -0.5606
  O  O284  1  0.169200  0.693200  0.330100  1.0  -0.5699
  O  O285  1  0.719800  0.371000  0.502600  1.0  -0.5618
  O  O286  1  0.675100  0.274100  0.563000  1.0  -0.594
  O  O287  1  0.713000  0.290500  0.269800  1.0  -0.5606
  O  O288  1  0.669200  0.193200  0.330100  1.0  -0.5699
