# generated using pymatgen
data_CuH10(C4O)4
_symmetry_space_group_name_H-M   'P 1'
_cell_length_a   10.46930000
_cell_length_b   26.97830000
_cell_length_c   26.97830000
_cell_angle_alpha   61.64710000
_cell_angle_beta   82.56770000
_cell_angle_gamma   97.43230000
_symmetry_Int_Tables_number   1
_chemical_formula_structural   CuH10(C4O)4
_chemical_formula_sum   'Cu6 H60 C96 O24'
_cell_volume   6488.57172009
_cell_formula_units_Z   6
loop_
 _symmetry_equiv_pos_site_id
 _symmetry_equiv_pos_as_xyz
  1  'x, y, z'
loop_
 _atom_site_type_symbol
 _atom_site_label
 _atom_site_symmetry_multiplicity
 _atom_site_fract_x
 _atom_site_fract_y
 _atom_site_fract_z
 _atom_site_occupancy
 _atom_site_charge
  Cu  Cu1  1  0.420730  0.000000  0.465710  1.0  0.9152
  Cu  Cu2  1  0.886440  0.465710  0.534290  1.0  0.9054
  Cu  Cu3  1  0.420730  0.534290  0.000000  1.0  0.9157
  Cu  Cu4  1  0.113560  0.534290  0.465710  1.0  0.907
  Cu  Cu5  1  0.579270  0.000000  0.534290  1.0  0.9156
  Cu  Cu6  1  0.579270  0.465710  0.000000  1.0  0.9156
  H  H7  1  0.447500  0.125900  0.573100  1.0  0.119
  H  H8  1  0.257100  0.143200  0.450000  1.0  0.1075
  H  H9  1  0.340300  0.235500  0.593900  1.0  0.1255
  H  H10  1  0.470200  0.212400  0.593600  1.0  0.1432
  H  H11  1  0.337200  0.170000  0.634900  1.0  0.1354
  H  H12  1  0.020600  0.573100  0.301000  1.0  0.1147
  H  H13  1  0.707100  0.450000  0.406800  1.0  0.1084
  H  H14  1  0.934200  0.593900  0.170600  1.0  0.1207
  H  H15  1  0.063800  0.593600  0.194000  1.0  0.1455
  H  H16  1  0.972100  0.634900  0.195100  1.0  0.1349
  H  H17  1  0.321600  0.301000  0.125900  1.0  0.1157
  H  H18  1  0.113900  0.406800  0.143200  1.0  0.1095
  H  H19  1  0.104800  0.170600  0.235500  1.0  0.1221
  H  H20  1  0.257800  0.194000  0.212400  1.0  0.1446
  H  H21  1  0.167200  0.195100  0.170000  1.0  0.1356
  H  H22  1  0.979400  0.301000  0.573100  1.0  0.1148
  H  H23  1  0.292900  0.406800  0.450000  1.0  0.1098
  H  H24  1  0.065800  0.170600  0.593900  1.0  0.1193
  H  H25  1  0.936200  0.194000  0.593600  1.0  0.1469
  H  H26  1  0.027900  0.195100  0.634900  1.0  0.1348
  H  H27  1  0.678400  0.125900  0.301000  1.0  0.1151
  H  H28  1  0.886100  0.143200  0.406800  1.0  0.108
  H  H29  1  0.895200  0.235500  0.170600  1.0  0.1202
  H  H30  1  0.742200  0.212400  0.194000  1.0  0.1446
  H  H31  1  0.832800  0.170000  0.195100  1.0  0.1341
  H  H32  1  0.552500  0.573100  0.125900  1.0  0.118
  H  H33  1  0.742900  0.450000  0.143200  1.0  0.1076
  H  H34  1  0.659700  0.593900  0.235500  1.0  0.126
  H  H35  1  0.529800  0.593600  0.212400  1.0  0.1439
  H  H36  1  0.662800  0.634900  0.170000  1.0  0.1346
  H  H37  1  0.552500  0.874100  0.426900  1.0  0.1179
  H  H38  1  0.742900  0.856800  0.550000  1.0  0.1081
  H  H39  1  0.659700  0.764500  0.406100  1.0  0.124
  H  H40  1  0.529800  0.787600  0.406400  1.0  0.1424
  H  H41  1  0.662800  0.830000  0.365100  1.0  0.1347
  H  H42  1  0.979400  0.426900  0.699000  1.0  0.1144
  H  H43  1  0.292900  0.550000  0.593200  1.0  0.1087
  H  H44  1  0.065800  0.406100  0.829400  1.0  0.1219
  H  H45  1  0.936200  0.406400  0.806000  1.0  0.1463
  H  H46  1  0.027900  0.365100  0.804900  1.0  0.1342
  H  H47  1  0.678400  0.699000  0.874100  1.0  0.1157
  H  H48  1  0.886100  0.593200  0.856800  1.0  0.1099
  H  H49  1  0.895200  0.829400  0.764500  1.0  0.12
  H  H50  1  0.742200  0.806000  0.787600  1.0  0.1468
  H  H51  1  0.832800  0.804900  0.830000  1.0  0.1342
  H  H52  1  0.020600  0.699000  0.426900  1.0  0.1169
  H  H53  1  0.707100  0.593200  0.550000  1.0  0.1104
  H  H54  1  0.934200  0.829400  0.406100  1.0  0.1207
  H  H55  1  0.063800  0.806000  0.406400  1.0  0.1457
  H  H56  1  0.972100  0.804900  0.365100  1.0  0.1358
  H  H57  1  0.321600  0.874100  0.699000  1.0  0.1159
  H  H58  1  0.113900  0.856800  0.593200  1.0  0.1078
  H  H59  1  0.104800  0.764500  0.829400  1.0  0.1232
  H  H60  1  0.257800  0.787600  0.806000  1.0  0.1441
  H  H61  1  0.167200  0.830000  0.804900  1.0  0.1353
  H  H62  1  0.447500  0.426900  0.874100  1.0  0.1167
  H  H63  1  0.257100  0.550000  0.856800  1.0  0.1075
  H  H64  1  0.340300  0.406100  0.764500  1.0  0.1242
  H  H65  1  0.470200  0.406400  0.787600  1.0  0.145
  H  H66  1  0.337200  0.365100  0.830000  1.0  0.1347
  C  C67  1  0.358430  0.126380  0.511690  1.0  -0.1696
  C  C68  1  0.392850  0.144410  0.548860  1.0  -0.0485
  C  C69  1  0.347340  0.190320  0.551300  1.0  0.0743
  C  C70  1  0.266910  0.217410  0.514880  1.0  -0.047
  C  C71  1  0.229520  0.199100  0.477640  1.0  -0.0197
  C  C72  1  0.278830  0.154430  0.476140  1.0  0.0025
  C  C73  1  0.410200  0.077860  0.509460  1.0  0.6758
  C  C74  1  0.376410  0.203230  0.597600  1.0  -0.4262
  C  C75  1  0.870120  0.511690  0.361930  1.0  -0.1684
  C  C76  1  0.941710  0.548860  0.306730  1.0  -0.0509
  C  C77  1  0.898640  0.551300  0.258380  1.0  0.0712
  C  C78  1  0.781790  0.514880  0.267710  1.0  -0.0519
  C  C79  1  0.707160  0.477640  0.323260  1.0  -0.0233
  C  C80  1  0.754970  0.476140  0.369430  1.0  -0.0015
  C  C81  1  0.919660  0.509460  0.412680  1.0  0.672
  C  C82  1  0.974010  0.597600  0.199170  1.0  -0.4257
  C  C83  1  0.232050  0.361930  0.126380  1.0  -0.1701
  C  C84  1  0.248440  0.306730  0.144410  1.0  -0.0458
  C  C85  1  0.157020  0.258380  0.190320  1.0  0.0735
  C  C86  1  0.049500  0.267710  0.217410  1.0  -0.0461
  C  C87  1  0.030420  0.323260  0.199100  1.0  -0.0237
  C  C88  1  0.124400  0.369430  0.154430  1.0  0.0061
  C  C89  1  0.332340  0.412680  0.077860  1.0  0.6766
  C  C90  1  0.173180  0.199170  0.203230  1.0  -0.4245
  C  C91  1  0.129880  0.361930  0.511690  1.0  -0.1693
  C  C92  1  0.058290  0.306730  0.548860  1.0  -0.0516
  C  C93  1  0.101360  0.258380  0.551300  1.0  0.0753
  C  C94  1  0.218210  0.267710  0.514880  1.0  -0.0481
  C  C95  1  0.292840  0.323260  0.477640  1.0  -0.0276
  C  C96  1  0.245030  0.369430  0.476140  1.0  -0.0031
  C  C97  1  0.080340  0.412680  0.509460  1.0  0.6725
  C  C98  1  0.025990  0.199170  0.597600  1.0  -0.4263
  C  C99  1  0.767950  0.126380  0.361930  1.0  -0.1714
  C  C100  1  0.751560  0.144410  0.306730  1.0  -0.0473
  C  C101  1  0.842980  0.190320  0.258380  1.0  0.0745
  C  C102  1  0.950500  0.217410  0.267710  1.0  -0.0445
  C  C103  1  0.969580  0.199100  0.323260  1.0  -0.0188
  C  C104  1  0.875600  0.154430  0.369430  1.0  0.0044
  C  C105  1  0.667660  0.077860  0.412680  1.0  0.6771
  C  C106  1  0.826820  0.203230  0.199170  1.0  -0.4259
  C  C107  1  0.641570  0.511690  0.126380  1.0  -0.1687
  C  C108  1  0.607150  0.548860  0.144410  1.0  -0.05
  C  C109  1  0.652660  0.551300  0.190320  1.0  0.072
  C  C110  1  0.733090  0.514880  0.217410  1.0  -0.0508
  C  C111  1  0.770480  0.477640  0.199100  1.0  -0.0222
  C  C112  1  0.721170  0.476140  0.154430  1.0  0.003
  C  C113  1  0.589800  0.509460  0.077860  1.0  0.6774
  C  C114  1  0.623590  0.597600  0.203230  1.0  -0.4251
  C  C115  1  0.641570  0.873620  0.488310  1.0  -0.1704
  C  C116  1  0.607150  0.855590  0.451140  1.0  -0.049
  C  C117  1  0.652660  0.809680  0.448700  1.0  0.0741
  C  C118  1  0.733090  0.782590  0.485120  1.0  -0.0447
  C  C119  1  0.770480  0.800900  0.522360  1.0  -0.0216
  C  C120  1  0.721170  0.845570  0.523860  1.0  0.002
  C  C121  1  0.589800  0.922140  0.490540  1.0  0.6752
  C  C122  1  0.623590  0.796770  0.402400  1.0  -0.4255
  C  C123  1  0.129880  0.488310  0.638070  1.0  -0.1685
  C  C124  1  0.058290  0.451140  0.693270  1.0  -0.0519
  C  C125  1  0.101360  0.448700  0.741620  1.0  0.0728
  C  C126  1  0.218210  0.485120  0.732290  1.0  -0.0498
  C  C127  1  0.292840  0.522360  0.676740  1.0  -0.022
  C  C128  1  0.245030  0.523860  0.630570  1.0  -0.0026
  C  C129  1  0.080340  0.490540  0.587320  1.0  0.6731
  C  C130  1  0.025990  0.402400  0.800830  1.0  -0.4242
  C  C131  1  0.767950  0.638070  0.873620  1.0  -0.1696
  C  C132  1  0.751560  0.693270  0.855590  1.0  -0.0468
  C  C133  1  0.842980  0.741620  0.809680  1.0  0.0747
  C  C134  1  0.950500  0.732290  0.782590  1.0  -0.0477
  C  C135  1  0.969580  0.676740  0.800900  1.0  -0.0281
  C  C136  1  0.875600  0.630570  0.845570  1.0  0.0059
  C  C137  1  0.667660  0.587320  0.922140  1.0  0.6776
  C  C138  1  0.826820  0.800830  0.796770  1.0  -0.4249
  C  C139  1  0.870120  0.638070  0.488310  1.0  -0.1699
  C  C140  1  0.941710  0.693270  0.451140  1.0  -0.05
  C  C141  1  0.898640  0.741620  0.448700  1.0  0.0735
  C  C142  1  0.781790  0.732290  0.485120  1.0  -0.0464
  C  C143  1  0.707160  0.676740  0.522360  1.0  -0.0203
  C  C144  1  0.754970  0.630570  0.523860  1.0  -0.0002
  C  C145  1  0.919660  0.587320  0.490540  1.0  0.6725
  C  C146  1  0.974010  0.800830  0.402400  1.0  -0.426
  C  C147  1  0.232050  0.873620  0.638070  1.0  -0.1696
  C  C148  1  0.248440  0.855590  0.693270  1.0  -0.0458
  C  C149  1  0.157020  0.809680  0.741620  1.0  0.0739
  C  C150  1  0.049500  0.782590  0.732290  1.0  -0.0485
  C  C151  1  0.030420  0.800900  0.676740  1.0  -0.0238
  C  C152  1  0.124400  0.845570  0.630570  1.0  0.0043
  C  C153  1  0.332340  0.922140  0.587320  1.0  0.6754
  C  C154  1  0.173180  0.796770  0.800830  1.0  -0.4271
  C  C155  1  0.358430  0.488310  0.873620  1.0  -0.1695
  C  C156  1  0.392850  0.451140  0.855590  1.0  -0.0486
  C  C157  1  0.347340  0.448700  0.809680  1.0  0.0719
  C  C158  1  0.266910  0.485120  0.782590  1.0  -0.0504
  C  C159  1  0.229520  0.522360  0.800900  1.0  -0.021
  C  C160  1  0.278830  0.523860  0.845570  1.0  0.0006
  C  C161  1  0.410200  0.490540  0.922140  1.0  0.6763
  C  C162  1  0.376410  0.402400  0.796770  1.0  -0.4265
  O  O163  1  0.362970  0.060010  0.478800  1.0  -0.5599
  O  O164  1  0.496710  0.059360  0.537700  1.0  -0.5558
  O  O165  1  0.841770  0.478800  0.461190  1.0  -0.5623
  O  O166  1  0.034410  0.537700  0.402940  1.0  -0.5621
  O  O167  1  0.302960  0.461190  0.060010  1.0  -0.559
  O  O168  1  0.437350  0.402940  0.059360  1.0  -0.5577
  O  O169  1  0.158230  0.461190  0.478800  1.0  -0.5637
  O  O170  1  0.965590  0.402940  0.537700  1.0  -0.5618
  O  O171  1  0.697040  0.060010  0.461190  1.0  -0.5586
  O  O172  1  0.562650  0.059360  0.402940  1.0  -0.5555
  O  O173  1  0.637030  0.478800  0.060010  1.0  -0.5617
  O  O174  1  0.503290  0.537700  0.059360  1.0  -0.5552
  O  O175  1  0.637030  0.939990  0.521200  1.0  -0.5601
  O  O176  1  0.503290  0.940640  0.462300  1.0  -0.5558
  O  O177  1  0.158230  0.521200  0.538810  1.0  -0.5633
  O  O178  1  0.965590  0.462300  0.597060  1.0  -0.5614
  O  O179  1  0.697040  0.538810  0.939990  1.0  -0.559
  O  O180  1  0.562650  0.597060  0.940640  1.0  -0.5563
  O  O181  1  0.841770  0.538810  0.521200  1.0  -0.5628
  O  O182  1  0.034410  0.597060  0.462300  1.0  -0.5628
  O  O183  1  0.302960  0.939990  0.538810  1.0  -0.5573
  O  O184  1  0.437350  0.940640  0.597060  1.0  -0.555
  O  O185  1  0.362970  0.521200  0.939990  1.0  -0.5617
  O  O186  1  0.496710  0.462300  0.940640  1.0  -0.5568
