# generated using pymatgen
data_CuH6C16(NO2)2
_symmetry_space_group_name_H-M   'P 1'
_cell_length_a   12.26180000
_cell_length_b   25.73280000
_cell_length_c   25.73280000
_cell_angle_alpha   62.47360000
_cell_angle_beta   80.86070000
_cell_angle_gamma   99.13930000
_symmetry_Int_Tables_number   1
_chemical_formula_structural   CuH6C16(NO2)2
_chemical_formula_sum   'Cu6 H36 C96 N12 O24'
_cell_volume   6854.27661549
_cell_formula_units_Z   6
loop_
 _symmetry_equiv_pos_site_id
 _symmetry_equiv_pos_as_xyz
  1  'x, y, z'
loop_
 _atom_site_type_symbol
 _atom_site_label
 _atom_site_symmetry_multiplicity
 _atom_site_fract_x
 _atom_site_fract_y
 _atom_site_fract_z
 _atom_site_occupancy
 _atom_site_charge
  Cu  Cu1  1  0.595130  0.540690  0.459310  1.0  0.9077
  Cu  Cu2  1  0.054440  0.459310  0.000000  1.0  0.9112
  Cu  Cu3  1  0.054440  0.000000  0.540690  1.0  0.9122
  Cu  Cu4  1  0.945560  0.000000  0.459310  1.0  0.9113
  Cu  Cu5  1  0.945560  0.540690  0.000000  1.0  0.9112
  Cu  Cu6  1  0.404870  0.459310  0.540690  1.0  0.9077
  H  H7  1  0.483800  0.430850  0.704900  1.0  0.1347
  H  H8  1  0.791920  0.559830  0.572390  1.0  0.1345
  H  H9  1  0.188690  0.704900  0.864260  1.0  0.1339
  H  H10  1  0.365640  0.572630  0.867310  1.0  0.136
  H  H11  1  0.052950  0.864250  0.430850  1.0  0.1338
  H  H12  1  0.232950  0.867310  0.560070  1.0  0.134
  H  H13  1  0.811310  0.864260  0.704900  1.0  0.1341
  H  H14  1  0.635690  0.867780  0.572390  1.0  0.1338
  H  H15  1  0.947050  0.430850  0.864250  1.0  0.135
  H  H16  1  0.767050  0.560070  0.867310  1.0  0.1335
  H  H17  1  0.516200  0.704900  0.430850  1.0  0.1343
  H  H18  1  0.206990  0.572630  0.560070  1.0  0.1354
  H  H19  1  0.516200  0.569150  0.295100  1.0  0.1352
  H  H20  1  0.206990  0.439930  0.427370  1.0  0.1335
  H  H21  1  0.811310  0.295100  0.135740  1.0  0.1351
  H  H22  1  0.635690  0.427610  0.132220  1.0  0.1366
  H  H23  1  0.947050  0.135750  0.569150  1.0  0.1332
  H  H24  1  0.767050  0.132690  0.439930  1.0  0.1325
  H  H25  1  0.188690  0.135740  0.295100  1.0  0.1344
  H  H26  1  0.365640  0.132690  0.427370  1.0  0.1348
  H  H27  1  0.052950  0.569150  0.135750  1.0  0.1354
  H  H28  1  0.232950  0.439930  0.132690  1.0  0.1338
  H  H29  1  0.483800  0.295100  0.569150  1.0  0.1325
  H  H30  1  0.793010  0.427370  0.439930  1.0  0.1339
  H  H31  1  0.874710  0.559400  0.656400  1.0  0.1455
  H  H32  1  0.531110  0.656400  0.784200  1.0  0.1437
  H  H33  1  0.315310  0.784200  0.559400  1.0  0.1419
  H  H34  1  0.468890  0.784200  0.656400  1.0  0.1422
  H  H35  1  0.684690  0.559400  0.784200  1.0  0.1451
  H  H36  1  0.125290  0.656400  0.559400  1.0  0.1435
  H  H37  1  0.125290  0.440600  0.343600  1.0  0.1442
  H  H38  1  0.468890  0.343600  0.215800  1.0  0.1433
  H  H39  1  0.684690  0.215800  0.440600  1.0  0.1421
  H  H40  1  0.531110  0.215800  0.343600  1.0  0.142
  H  H41  1  0.315310  0.440600  0.215800  1.0  0.1443
  H  H42  1  0.874710  0.343600  0.440600  1.0  0.1442
  C  C43  1  0.632860  0.497070  0.633940  1.0  -0.0861
  C  C44  1  0.572860  0.461430  0.692650  1.0  -0.0829
  C  C45  1  0.615690  0.460270  0.740000  1.0  0.0306
  C  C46  1  0.723490  0.494570  0.727950  1.0  0.0073
  C  C47  1  0.784640  0.529790  0.668670  1.0  -0.1199
  C  C48  1  0.738740  0.530500  0.621680  1.0  -0.067
  C  C49  1  0.583280  0.497310  0.583690  1.0  0.7062
  C  C50  1  0.560100  0.413900  0.801600  1.0  0.2144
  C  C51  1  0.266800  0.633940  0.868990  1.0  -0.0832
  C  C52  1  0.265510  0.692650  0.845920  1.0  -0.0834
  C  C53  1  0.355690  0.740000  0.799730  1.0  0.0298
  C  C54  1  0.451440  0.727950  0.777480  1.0  0.0055
  C  C55  1  0.453310  0.668670  0.801540  1.0  -0.1151
  C  C56  1  0.360420  0.621680  0.847820  1.0  -0.0653
  C  C57  1  0.166970  0.583690  0.919000  1.0  0.7042
  C  C58  1  0.361700  0.801600  0.784500  1.0  0.2155
  C  C59  1  0.135790  0.868990  0.497070  1.0  -0.0667
  C  C60  1  0.111430  0.845920  0.461430  1.0  -0.0861
  C  C61  1  0.155420  0.799730  0.460270  1.0  0.0317
  C  C62  1  0.228920  0.777480  0.494570  1.0  0.0048
  C  C63  1  0.254850  0.801540  0.529790  1.0  -0.1128
  C  C64  1  0.208240  0.847820  0.530500  1.0  -0.0622
  C  C65  1  0.085970  0.919000  0.497310  1.0  0.7059
  C  C66  1  0.146200  0.784500  0.413900  1.0  0.219
  C  C67  1  0.733200  0.868990  0.633940  1.0  -0.0864
  C  C68  1  0.734490  0.845920  0.692650  1.0  -0.0836
  C  C69  1  0.644310  0.799730  0.740000  1.0  0.0355
  C  C70  1  0.548560  0.777480  0.727950  1.0  0.0046
  C  C71  1  0.546690  0.801540  0.668670  1.0  -0.1119
  C  C72  1  0.639580  0.847820  0.621680  1.0  -0.0626
  C  C73  1  0.833030  0.919000  0.583690  1.0  0.7035
  C  C74  1  0.638300  0.784500  0.801600  1.0  0.2185
  C  C75  1  0.864210  0.497070  0.868990  1.0  -0.0663
  C  C76  1  0.888570  0.461430  0.845920  1.0  -0.0836
  C  C77  1  0.844580  0.460270  0.799730  1.0  0.0348
  C  C78  1  0.771080  0.494570  0.777480  1.0  0.0061
  C  C79  1  0.745150  0.529790  0.801540  1.0  -0.1155
  C  C80  1  0.791760  0.530500  0.847820  1.0  -0.068
  C  C81  1  0.914030  0.497310  0.919000  1.0  0.7064
  C  C82  1  0.853800  0.413900  0.784500  1.0  0.2148
  C  C83  1  0.367140  0.633940  0.497070  1.0  -0.0818
  C  C84  1  0.427140  0.692650  0.461430  1.0  -0.0838
  C  C85  1  0.384310  0.740000  0.460270  1.0  0.0316
  C  C86  1  0.276510  0.727950  0.494570  1.0  0.0052
  C  C87  1  0.215360  0.668670  0.529790  1.0  -0.1123
  C  C88  1  0.261260  0.621680  0.530500  1.0  -0.0646
  C  C89  1  0.416720  0.583690  0.497310  1.0  0.706
  C  C90  1  0.439900  0.801600  0.413900  1.0  0.2155
  C  C91  1  0.367140  0.502930  0.366060  1.0  -0.0824
  C  C92  1  0.427140  0.538570  0.307350  1.0  -0.0836
  C  C93  1  0.384310  0.539730  0.260000  1.0  0.0297
  C  C94  1  0.276510  0.505430  0.272050  1.0  0.0061
  C  C95  1  0.215360  0.470210  0.331330  1.0  -0.1154
  C  C96  1  0.261260  0.469500  0.378320  1.0  -0.0623
  C  C97  1  0.416720  0.502690  0.416310  1.0  0.7063
  C  C98  1  0.439900  0.586100  0.198400  1.0  0.2144
  C  C99  1  0.733200  0.366060  0.131010  1.0  -0.0865
  C  C100  1  0.734490  0.307350  0.154080  1.0  -0.0836
  C  C101  1  0.644310  0.260000  0.200270  1.0  0.0281
  C  C102  1  0.548560  0.272050  0.222520  1.0  0.0051
  C  C103  1  0.546690  0.331330  0.198460  1.0  -0.1168
  C  C104  1  0.639580  0.378320  0.152180  1.0  -0.0697
  C  C105  1  0.833030  0.416310  0.081000  1.0  0.7038
  C  C106  1  0.638300  0.198400  0.215500  1.0  0.2149
  C  C107  1  0.864210  0.131010  0.502930  1.0  -0.0659
  C  C108  1  0.888570  0.154080  0.538570  1.0  -0.0843
  C  C109  1  0.844580  0.200270  0.539730  1.0  0.0297
  C  C110  1  0.771080  0.222520  0.505430  1.0  0.0048
  C  C111  1  0.745150  0.198460  0.470210  1.0  -0.1117
  C  C112  1  0.791760  0.152180  0.469500  1.0  -0.0611
  C  C113  1  0.914030  0.081000  0.502690  1.0  0.706
  C  C114  1  0.853800  0.215500  0.586100  1.0  0.2184
  C  C115  1  0.266800  0.131010  0.366060  1.0  -0.0833
  C  C116  1  0.265510  0.154080  0.307350  1.0  -0.0831
  C  C117  1  0.355690  0.200270  0.260000  1.0  0.0359
  C  C118  1  0.451440  0.222520  0.272050  1.0  0.0048
  C  C119  1  0.453310  0.198460  0.331330  1.0  -0.1124
  C  C120  1  0.360420  0.152180  0.378320  1.0  -0.0581
  C  C121  1  0.166970  0.081000  0.416310  1.0  0.704
  C  C122  1  0.361700  0.215500  0.198400  1.0  0.219
  C  C123  1  0.135790  0.502930  0.131010  1.0  -0.0682
  C  C124  1  0.111430  0.538570  0.154080  1.0  -0.0862
  C  C125  1  0.155420  0.539730  0.200270  1.0  0.036
  C  C126  1  0.228920  0.505430  0.222520  1.0  0.0068
  C  C127  1  0.254850  0.470210  0.198460  1.0  -0.1177
  C  C128  1  0.208240  0.469500  0.152180  1.0  -0.0664
  C  C129  1  0.085970  0.502690  0.081000  1.0  0.7067
  C  C130  1  0.146200  0.586100  0.215500  1.0  0.2138
  C  C131  1  0.632860  0.366060  0.502930  1.0  -0.0809
  C  C132  1  0.572860  0.307350  0.538570  1.0  -0.0824
  C  C133  1  0.615690  0.260000  0.539730  1.0  0.0325
  C  C134  1  0.723490  0.272050  0.505430  1.0  0.0057
  C  C135  1  0.784640  0.331330  0.470210  1.0  -0.1156
  C  C136  1  0.738740  0.378320  0.469500  1.0  -0.0651
  C  C137  1  0.583280  0.416310  0.502690  1.0  0.7076
  C  C138  1  0.560100  0.198400  0.586100  1.0  0.2149
  N  N139  1  0.511200  0.378600  0.853000  1.0  -0.3899
  N  N140  1  0.364200  0.853000  0.768400  1.0  -0.3939
  N  N141  1  0.132600  0.768400  0.378600  1.0  -0.3863
  N  N142  1  0.635800  0.768400  0.853000  1.0  -0.3927
  N  N143  1  0.867400  0.378600  0.768400  1.0  -0.3874
  N  N144  1  0.488800  0.853000  0.378600  1.0  -0.3945
  N  N145  1  0.488800  0.621400  0.147000  1.0  -0.3931
  N  N146  1  0.635800  0.147000  0.231600  1.0  -0.394
  N  N147  1  0.867400  0.231600  0.621400  1.0  -0.3903
  N  N148  1  0.364200  0.231600  0.147000  1.0  -0.3909
  N  N149  1  0.132600  0.621400  0.231600  1.0  -0.3898
  N  N150  1  0.511200  0.147000  0.621400  1.0  -0.3898
  O  O151  1  0.645430  0.531640  0.530930  1.0  -0.5508
  O  O152  1  0.485170  0.463330  0.599540  1.0  -0.5495
  O  O153  1  0.176360  0.530930  0.937430  1.0  -0.5459
  O  O154  1  0.084710  0.599540  0.937130  1.0  -0.551
  O  O155  1  0.113790  0.937430  0.531640  1.0  -0.5421
  O  O156  1  0.021840  0.937130  0.463330  1.0  -0.5449
  O  O157  1  0.823640  0.937430  0.530930  1.0  -0.5466
  O  O158  1  0.915290  0.937130  0.599540  1.0  -0.5484
  O  O159  1  0.886210  0.531640  0.937430  1.0  -0.5452
  O  O160  1  0.978160  0.463330  0.937130  1.0  -0.5458
  O  O161  1  0.354570  0.530930  0.531640  1.0  -0.549
  O  O162  1  0.514830  0.599540  0.463330  1.0  -0.5507
  O  O163  1  0.354570  0.468360  0.469070  1.0  -0.5484
  O  O164  1  0.514830  0.536670  0.400460  1.0  -0.5497
  O  O165  1  0.823640  0.469070  0.062570  1.0  -0.5479
  O  O166  1  0.915290  0.400460  0.062870  1.0  -0.5498
  O  O167  1  0.886210  0.062570  0.468360  1.0  -0.5435
  O  O168  1  0.978160  0.062870  0.536670  1.0  -0.5449
  O  O169  1  0.176360  0.062570  0.469070  1.0  -0.5439
  O  O170  1  0.084710  0.062870  0.400460  1.0  -0.5503
  O  O171  1  0.113790  0.468360  0.062570  1.0  -0.5442
  O  O172  1  0.021840  0.536670  0.062870  1.0  -0.5458
  O  O173  1  0.645430  0.469070  0.468360  1.0  -0.5446
  O  O174  1  0.485170  0.400460  0.536670  1.0  -0.5507
