# generated using pymatgen
data_Fe3C24N12O13
_symmetry_space_group_name_H-M   'P 1'
_cell_length_a   11.10750000
_cell_length_b   11.10750000
_cell_length_c   19.09250000
_cell_angle_alpha   90.00000000
_cell_angle_beta   90.00000000
_cell_angle_gamma   120.00000000
_symmetry_Int_Tables_number   1
_chemical_formula_structural   Fe3C24N12O13
_chemical_formula_sum   'Fe6 C48 N24 O26'
_cell_volume   2039.98077589
_cell_formula_units_Z   2
loop_
 _symmetry_equiv_pos_site_id
 _symmetry_equiv_pos_as_xyz
  1  'x, y, z'
loop_
 _atom_site_type_symbol
 _atom_site_label
 _atom_site_symmetry_multiplicity
 _atom_site_fract_x
 _atom_site_fract_y
 _atom_site_fract_z
 _atom_site_occupancy
 _atom_site_charge
  Fe  Fe1  1  0.767200  0.534400  0.750000  1.0  1.3439
  Fe  Fe2  1  0.465600  0.232800  0.750000  1.0  1.3456
  Fe  Fe3  1  0.767200  0.232800  0.750000  1.0  1.3443
  Fe  Fe4  1  0.232800  0.465600  0.250000  1.0  1.3424
  Fe  Fe5  1  0.534400  0.767200  0.250000  1.0  1.346
  Fe  Fe6  1  0.232800  0.767200  0.250000  1.0  1.3463
  C  C7  1  0.394200  0.379200  0.966100  1.0  0.1554
  C  C8  1  0.620800  0.015000  0.966100  1.0  0.1568
  C  C9  1  0.985000  0.605800  0.966100  1.0  0.1541
  C  C10  1  0.605800  0.620800  0.466100  1.0  0.1549
  C  C11  1  0.379200  0.985000  0.466100  1.0  0.1552
  C  C12  1  0.015000  0.394200  0.466100  1.0  0.1561
  C  C13  1  0.379200  0.394200  0.033900  1.0  0.1537
  C  C14  1  0.015000  0.620800  0.033900  1.0  0.1546
  C  C15  1  0.605800  0.985000  0.033900  1.0  0.1552
  C  C16  1  0.620800  0.605800  0.533900  1.0  0.1548
  C  C17  1  0.985000  0.379200  0.533900  1.0  0.1553
  C  C18  1  0.394200  0.015000  0.533900  1.0  0.156
  C  C19  1  0.605800  0.620800  0.033900  1.0  0.1541
  C  C20  1  0.379200  0.985000  0.033900  1.0  0.1551
  C  C21  1  0.015000  0.394200  0.033900  1.0  0.1559
  C  C22  1  0.394200  0.379200  0.533900  1.0  0.1554
  C  C23  1  0.620800  0.015000  0.533900  1.0  0.1564
  C  C24  1  0.985000  0.605800  0.533900  1.0  0.1535
  C  C25  1  0.620800  0.605800  0.966100  1.0  0.1555
  C  C26  1  0.985000  0.379200  0.966100  1.0  0.1557
  C  C27  1  0.394200  0.015000  0.966100  1.0  0.156
  C  C28  1  0.379200  0.394200  0.466100  1.0  0.154
  C  C29  1  0.015000  0.620800  0.466100  1.0  0.155
  C  C30  1  0.605800  0.985000  0.466100  1.0  0.1557
  C  C31  1  0.539900  0.460100  0.855500  1.0  0.7072
  C  C32  1  0.512150  0.487850  0.927800  1.0  -0.0716
  C  C33  1  0.539900  0.079800  0.855500  1.0  0.7058
  C  C34  1  0.512150  0.024300  0.927800  1.0  -0.0721
  C  C35  1  0.920200  0.460100  0.855500  1.0  0.7075
  C  C36  1  0.975700  0.487850  0.927800  1.0  -0.0719
  C  C37  1  0.460100  0.539900  0.355500  1.0  0.7074
  C  C38  1  0.487850  0.512150  0.427800  1.0  -0.0719
  C  C39  1  0.460100  0.920200  0.355500  1.0  0.7061
  C  C40  1  0.487850  0.975700  0.427800  1.0  -0.0717
  C  C41  1  0.079800  0.539900  0.355500  1.0  0.7068
  C  C42  1  0.024300  0.512150  0.427800  1.0  -0.0715
  C  C43  1  0.460100  0.539900  0.144500  1.0  0.708
  C  C44  1  0.487850  0.512150  0.072200  1.0  -0.0725
  C  C45  1  0.079800  0.539900  0.144500  1.0  0.7071
  C  C46  1  0.024300  0.512150  0.072200  1.0  -0.0719
  C  C47  1  0.460100  0.920200  0.144500  1.0  0.7065
  C  C48  1  0.487850  0.975700  0.072200  1.0  -0.0726
  C  C49  1  0.539900  0.460100  0.644500  1.0  0.7075
  C  C50  1  0.512150  0.487850  0.572200  1.0  -0.0723
  C  C51  1  0.920200  0.460100  0.644500  1.0  0.708
  C  C52  1  0.975700  0.487850  0.572200  1.0  -0.0728
  C  C53  1  0.539900  0.079800  0.644500  1.0  0.7062
  C  C54  1  0.512150  0.024300  0.572200  1.0  -0.0723
  N  N55  1  0.260600  0.282900  0.927600  1.0  -0.1866
  N  N56  1  0.717100  0.977700  0.927600  1.0  -0.1883
  N  N57  1  0.022300  0.739400  0.927600  1.0  -0.1863
  N  N58  1  0.739400  0.717100  0.427600  1.0  -0.1871
  N  N59  1  0.282900  0.022300  0.427600  1.0  -0.1864
  N  N60  1  0.977700  0.260600  0.427600  1.0  -0.1872
  N  N61  1  0.282900  0.260600  0.072400  1.0  -0.1869
  N  N62  1  0.977700  0.717100  0.072400  1.0  -0.1872
  N  N63  1  0.739400  0.022300  0.072400  1.0  -0.1883
  N  N64  1  0.717100  0.739400  0.572400  1.0  -0.1872
  N  N65  1  0.022300  0.282900  0.572400  1.0  -0.1873
  N  N66  1  0.260600  0.977700  0.572400  1.0  -0.1876
  N  N67  1  0.739400  0.717100  0.072400  1.0  -0.1871
  N  N68  1  0.282900  0.022300  0.072400  1.0  -0.1872
  N  N69  1  0.977700  0.260600  0.072400  1.0  -0.1876
  N  N70  1  0.260600  0.282900  0.572400  1.0  -0.1874
  N  N71  1  0.717100  0.977700  0.572400  1.0  -0.1888
  N  N72  1  0.022300  0.739400  0.572400  1.0  -0.1865
  N  N73  1  0.717100  0.739400  0.927600  1.0  -0.1872
  N  N74  1  0.022300  0.282900  0.927600  1.0  -0.1874
  N  N75  1  0.260600  0.977700  0.927600  1.0  -0.1867
  N  N76  1  0.282900  0.260600  0.427600  1.0  -0.1864
  N  N77  1  0.977700  0.717100  0.427600  1.0  -0.1862
  N  N78  1  0.739400  0.022300  0.427600  1.0  -0.188
  O  O79  1  0.652500  0.552600  0.825500  1.0  -0.5359
  O  O80  1  0.447400  0.099900  0.825500  1.0  -0.5377
  O  O81  1  0.900100  0.347500  0.825500  1.0  -0.5376
  O  O82  1  0.347500  0.447400  0.325500  1.0  -0.5375
  O  O83  1  0.552600  0.900100  0.325500  1.0  -0.5364
  O  O84  1  0.099900  0.652500  0.325500  1.0  -0.534
  O  O85  1  0.552600  0.652500  0.174500  1.0  -0.5348
  O  O86  1  0.099900  0.447400  0.174500  1.0  -0.5359
  O  O87  1  0.347500  0.900100  0.174500  1.0  -0.5365
  O  O88  1  0.447400  0.347500  0.674500  1.0  -0.5339
  O  O89  1  0.900100  0.552600  0.674500  1.0  -0.5358
  O  O90  1  0.652500  0.099900  0.674500  1.0  -0.5364
  O  O91  1  0.347500  0.447400  0.174500  1.0  -0.5371
  O  O92  1  0.552600  0.900100  0.174500  1.0  -0.5357
  O  O93  1  0.099900  0.652500  0.174500  1.0  -0.533
  O  O94  1  0.652500  0.552600  0.674500  1.0  -0.535
  O  O95  1  0.447400  0.099900  0.674500  1.0  -0.537
  O  O96  1  0.900100  0.347500  0.674500  1.0  -0.5368
  O  O97  1  0.447400  0.347500  0.825500  1.0  -0.5349
  O  O98  1  0.900100  0.552600  0.825500  1.0  -0.5362
  O  O99  1  0.652500  0.099900  0.825500  1.0  -0.537
  O  O100  1  0.552600  0.652500  0.325500  1.0  -0.5355
  O  O101  1  0.099900  0.447400  0.325500  1.0  -0.5369
  O  O102  1  0.347500  0.900100  0.325500  1.0  -0.5374
  O  O103  1  0.666667  0.333333  0.750000  1.0  -1.0272
  O  O104  1  0.333333  0.666667  0.250000  1.0  -1.0272
