# generated using pymatgen
data_CuH9C11N4O
_symmetry_space_group_name_H-M   'P 1'
_cell_length_a   7.82560000
_cell_length_b   22.33100000
_cell_length_c   8.99760000
_cell_angle_alpha   90.00000000
_cell_angle_beta   110.04000000
_cell_angle_gamma   90.00000000
_symmetry_Int_Tables_number   1
_chemical_formula_structural   CuH9C11N4O
_chemical_formula_sum   'Cu4 H36 C44 N16 O4'
_cell_volume   1477.16103057
_cell_formula_units_Z   4
loop_
 _symmetry_equiv_pos_site_id
 _symmetry_equiv_pos_as_xyz
  1  'x, y, z'
loop_
 _atom_site_type_symbol
 _atom_site_label
 _atom_site_symmetry_multiplicity
 _atom_site_fract_x
 _atom_site_fract_y
 _atom_site_fract_z
 _atom_site_occupancy
 _atom_site_charge
  Cu  Cu1  1  0.447200  0.132110  0.838840  1.0  0.5195
  Cu  Cu2  1  0.447200  0.867890  0.338840  1.0  0.5197
  Cu  Cu3  1  0.947200  0.632110  0.838840  1.0  0.5195
  Cu  Cu4  1  0.947200  0.367890  0.338840  1.0  0.5197
  H  H5  1  0.783900  0.212000  0.872000  1.0  0.0874
  H  H6  1  0.919100  0.294000  0.030400  1.0  0.067
  H  H7  1  0.577100  0.277400  0.264400  1.0  0.0743
  H  H8  1  0.077400  0.098700  0.868900  1.0  0.0989
  H  H9  1  0.075700  0.132000  0.026200  1.0  0.0924
  H  H10  1  0.042500  0.993900  0.905300  1.0  0.1025
  H  H11  1  0.163800  0.905600  0.038100  1.0  0.0636
  H  H12  1  0.474700  0.997200  0.403900  1.0  0.058
  H  H13  1  0.377500  0.087100  0.274800  1.0  0.0966
  H  H14  1  0.783900  0.788000  0.372000  1.0  0.0871
  H  H15  1  0.919100  0.706000  0.530400  1.0  0.0667
  H  H16  1  0.577100  0.722600  0.764400  1.0  0.0742
  H  H17  1  0.077400  0.901300  0.368900  1.0  0.0992
  H  H18  1  0.075700  0.868000  0.526200  1.0  0.0927
  H  H19  1  0.042500  0.006100  0.405300  1.0  0.1029
  H  H20  1  0.163800  0.094400  0.538100  1.0  0.0641
  H  H21  1  0.474700  0.002800  0.903900  1.0  0.0582
  H  H22  1  0.377500  0.912900  0.774800  1.0  0.0969
  H  H23  1  0.283900  0.712000  0.872000  1.0  0.0874
  H  H24  1  0.419100  0.794000  0.030400  1.0  0.067
  H  H25  1  0.077100  0.777400  0.264400  1.0  0.0742
  H  H26  1  0.577400  0.598700  0.868900  1.0  0.0988
  H  H27  1  0.575700  0.632000  0.026200  1.0  0.0924
  H  H28  1  0.542500  0.493900  0.905300  1.0  0.1025
  H  H29  1  0.663800  0.405600  0.038100  1.0  0.0632
  H  H30  1  0.974700  0.497200  0.403900  1.0  0.058
  H  H31  1  0.877500  0.587100  0.274800  1.0  0.0966
  H  H32  1  0.283900  0.288000  0.372000  1.0  0.0871
  H  H33  1  0.419100  0.206000  0.530400  1.0  0.0667
  H  H34  1  0.077100  0.222600  0.764400  1.0  0.0741
  H  H35  1  0.577400  0.401300  0.368900  1.0  0.0991
  H  H36  1  0.575700  0.368000  0.526200  1.0  0.0927
  H  H37  1  0.542500  0.506100  0.405300  1.0  0.1029
  H  H38  1  0.663800  0.594400  0.538100  1.0  0.0638
  H  H39  1  0.974700  0.502800  0.903900  1.0  0.0582
  H  H40  1  0.877500  0.412900  0.774800  1.0  0.0969
  C  C41  1  0.737800  0.225500  0.951000  1.0  0.1021
  C  C42  1  0.820600  0.274200  0.048300  1.0  0.1236
  C  C43  1  0.620800  0.264700  0.183100  1.0  0.1249
  C  C44  1  0.535100  0.217400  0.085200  1.0  0.0428
  C  C45  1  0.370700  0.184800  0.093200  1.0  0.5431
  C  C46  1  0.151200  0.107800  0.980100  1.0  -0.1568
  C  C47  1  0.205800  0.049700  0.072100  1.0  0.0947
  C  C48  1  0.136000  0.995500  0.005900  1.0  -0.1853
  C  C49  1  0.204400  0.942900  0.088400  1.0  0.14
  C  C50  1  0.387200  0.996400  0.300100  1.0  0.1326
  C  C51  1  0.331000  0.050300  0.223900  1.0  -0.2544
  C  C52  1  0.737800  0.774500  0.451000  1.0  0.1023
  C  C53  1  0.820600  0.725800  0.548300  1.0  0.1235
  C  C54  1  0.620800  0.735300  0.683100  1.0  0.125
  C  C55  1  0.535100  0.782600  0.585200  1.0  0.0427
  C  C56  1  0.370700  0.815200  0.593200  1.0  0.5439
  C  C57  1  0.151200  0.892200  0.480100  1.0  -0.157
  C  C58  1  0.205800  0.950300  0.572100  1.0  0.095
  C  C59  1  0.136000  0.004500  0.505900  1.0  -0.1853
  C  C60  1  0.204400  0.057100  0.588400  1.0  0.1397
  C  C61  1  0.387200  0.003600  0.800100  1.0  0.133
  C  C62  1  0.331000  0.949700  0.723900  1.0  -0.2542
  C  C63  1  0.237800  0.725500  0.951000  1.0  0.1021
  C  C64  1  0.320600  0.774200  0.048300  1.0  0.1236
  C  C65  1  0.120800  0.764700  0.183100  1.0  0.1249
  C  C66  1  0.035100  0.717400  0.085200  1.0  0.0428
  C  C67  1  0.870700  0.684800  0.093200  1.0  0.5431
  C  C68  1  0.651200  0.607800  0.980100  1.0  -0.1568
  C  C69  1  0.705800  0.549700  0.072100  1.0  0.0947
  C  C70  1  0.636000  0.495500  0.005900  1.0  -0.1853
  C  C71  1  0.704400  0.442900  0.088400  1.0  0.14
  C  C72  1  0.887200  0.496400  0.300100  1.0  0.1326
  C  C73  1  0.831000  0.550300  0.223900  1.0  -0.2544
  C  C74  1  0.237800  0.274500  0.451000  1.0  0.1023
  C  C75  1  0.320600  0.225800  0.548300  1.0  0.1235
  C  C76  1  0.120800  0.235300  0.683100  1.0  0.125
  C  C77  1  0.035100  0.282600  0.585200  1.0  0.0427
  C  C78  1  0.870700  0.315200  0.593200  1.0  0.5439
  C  C79  1  0.651200  0.392200  0.480100  1.0  -0.157
  C  C80  1  0.705800  0.450300  0.572100  1.0  0.095
  C  C81  1  0.636000  0.504500  0.505900  1.0  -0.1853
  C  C82  1  0.704400  0.557100  0.588400  1.0  0.1397
  C  C83  1  0.887200  0.503600  0.800100  1.0  0.133
  C  C84  1  0.831000  0.449700  0.723900  1.0  -0.2542
  N  N85  1  0.595800  0.198800  0.969500  1.0  -0.327
  N  N86  1  0.765800  0.293300  0.164600  1.0  -0.3734
  N  N87  1  0.310900  0.142100  0.984400  1.0  -0.3705
  N  N88  1  0.325500  0.943000  0.236100  1.0  -0.337
  N  N89  1  0.595800  0.801200  0.469500  1.0  -0.3263
  N  N90  1  0.765800  0.706700  0.664600  1.0  -0.3738
  N  N91  1  0.310900  0.857900  0.484400  1.0  -0.37
  N  N92  1  0.325500  0.057000  0.736100  1.0  -0.3369
  N  N93  1  0.095800  0.698800  0.969500  1.0  -0.327
  N  N94  1  0.265800  0.793300  0.164600  1.0  -0.3734
  N  N95  1  0.810900  0.642100  0.984400  1.0  -0.3705
  N  N96  1  0.825500  0.443000  0.236100  1.0  -0.337
  N  N97  1  0.095800  0.301200  0.469500  1.0  -0.3263
  N  N98  1  0.265800  0.206700  0.664600  1.0  -0.3738
  N  N99  1  0.810900  0.357900  0.484400  1.0  -0.37
  N  N100  1  0.825500  0.557000  0.736100  1.0  -0.3369
  O  O101  1  0.307200  0.199500  0.200400  1.0  -0.5614
  O  O102  1  0.307200  0.800500  0.700400  1.0  -0.5611
  O  O103  1  0.807200  0.699500  0.200400  1.0  -0.5614
  O  O104  1  0.807200  0.300500  0.700400  1.0  -0.5611
