# generated using pymatgen
data_NiH24C30(NO3)2
_symmetry_space_group_name_H-M   'P 1'
_cell_length_a   16.90250000
_cell_length_b   18.79290000
_cell_length_c   18.79290000
_cell_angle_alpha   68.58150000
_cell_angle_beta   72.55420000
_cell_angle_gamma   107.44600000
_symmetry_Int_Tables_number   1
_chemical_formula_structural   NiH24C30(NO3)2
_chemical_formula_sum   'Ni6 H144 C180 N12 O36'
_cell_volume   4705.06566094
_cell_formula_units_Z   6
loop_
 _symmetry_equiv_pos_site_id
 _symmetry_equiv_pos_as_xyz
  1  'x, y, z'
loop_
 _atom_site_type_symbol
 _atom_site_label
 _atom_site_symmetry_multiplicity
 _atom_site_fract_x
 _atom_site_fract_y
 _atom_site_fract_z
 _atom_site_occupancy
 _atom_site_charge
  Ni  Ni1  1  0.868930  0.618930  0.762140  1.0  0.7939
  Ni  Ni2  1  0.631070  0.762140  0.618930  1.0  0.7948
  Ni  Ni3  1  0.250000  0.618930  0.618930  1.0  0.7928
  Ni  Ni4  1  0.131070  0.381070  0.237860  1.0  0.7939
  Ni  Ni5  1  0.368930  0.237860  0.381070  1.0  0.7955
  Ni  Ni6  1  0.750000  0.381070  0.381070  1.0  0.794
  H  H7  1  0.965500  0.088900  0.850700  1.0  0.1051
  H  H8  1  0.772100  0.827500  0.954400  1.0  0.1124
  H  H9  1  0.068700  0.937000  0.732400  1.0  0.1072
  H  H10  1  0.042800  0.008600  0.807600  1.0  0.0881
  H  H11  1  0.797300  0.757800  0.876000  1.0  0.0987
  H  H12  1  0.911000  0.727700  0.533900  1.0  0.1009
  H  H13  1  0.920500  0.640900  0.568600  1.0  0.0842
  H  H14  1  0.899700  0.551600  0.036100  1.0  0.1088
  H  H15  1  0.851100  0.606300  0.935400  1.0  0.0749
  H  H16  1  0.997200  0.547400  0.784700  1.0  0.086
  H  H17  1  0.054100  0.496900  0.878800  1.0  0.0984
  H  H18  1  0.801600  0.593100  0.667800  1.0  0.3616
  H  H19  1  0.816200  0.850700  0.060400  1.0  0.106
  H  H20  1  0.726500  0.954400  0.218100  1.0  0.1128
  H  H21  1  0.801100  0.732400  0.330600  1.0  0.1057
  H  H22  1  0.850400  0.807600  0.183800  1.0  0.0866
  H  H23  1  0.673300  0.876000  0.366200  1.0  0.098
  H  H24  1  0.444900  0.533900  0.738400  1.0  0.1013
  H  H25  1  0.489100  0.568600  0.790500  1.0  0.0805
  H  H26  1  0.935800  0.036100  0.412300  1.0  0.1086
  H  H27  1  0.786500  0.935400  0.458300  1.0  0.0754
  H  H28  1  0.781900  0.784700  0.667900  1.0  0.0859
  H  H29  1  0.932900  0.878800  0.624300  1.0  0.0983
  H  H30  1  0.469400  0.667800  0.739100  1.0  0.3605
  H  H31  1  0.876600  0.060400  0.088900  1.0  0.1064
  H  H32  1  0.944600  0.218100  0.827500  1.0  0.1125
  H  H33  1  0.131700  0.330600  0.937000  1.0  0.1064
  H  H34  1  0.034200  0.183800  0.008600  1.0  0.0867
  H  H35  1  0.039500  0.366200  0.757800  1.0  0.0995
  H  H36  1  0.183300  0.738400  0.727700  1.0  0.0977
  H  H37  1  0.279600  0.790500  0.640900  1.0  0.0813
  H  H38  1  0.348100  0.412300  0.551600  1.0  0.1077
  H  H39  1  0.244800  0.458300  0.606300  1.0  0.0737
  H  H40  1  0.449800  0.667900  0.547400  1.0  0.0863
  H  H41  1  0.557200  0.624300  0.496900  1.0  0.0997
  H  H42  1  0.208500  0.739100  0.593100  1.0  0.3596
  H  H43  1  0.683800  0.060400  0.850700  1.0  0.1068
  H  H44  1  0.773500  0.218100  0.954400  1.0  0.1132
  H  H45  1  0.698900  0.330600  0.732400  1.0  0.1067
  H  H46  1  0.649600  0.183800  0.807600  1.0  0.087
  H  H47  1  0.826700  0.366200  0.876000  1.0  0.0993
  H  H48  1  0.055100  0.738400  0.533900  1.0  0.0964
  H  H49  1  0.010900  0.790500  0.568600  1.0  0.0831
  H  H50  1  0.564200  0.412300  0.036100  1.0  0.1082
  H  H51  1  0.713500  0.458300  0.935400  1.0  0.0743
  H  H52  1  0.718100  0.667900  0.784700  1.0  0.0868
  H  H53  1  0.567100  0.624300  0.878800  1.0  0.099
  H  H54  1  0.030600  0.739100  0.667800  1.0  0.3571
  H  H55  1  0.623400  0.088900  0.060400  1.0  0.1057
  H  H56  1  0.555400  0.827500  0.218100  1.0  0.1122
  H  H57  1  0.368300  0.937000  0.330600  1.0  0.1065
  H  H58  1  0.465800  0.008600  0.183800  1.0  0.0884
  H  H59  1  0.460500  0.757800  0.366200  1.0  0.0989
  H  H60  1  0.316700  0.727700  0.738400  1.0  0.1002
  H  H61  1  0.220400  0.640900  0.790500  1.0  0.0833
  H  H62  1  0.151900  0.551600  0.412300  1.0  0.1085
  H  H63  1  0.255200  0.606300  0.458300  1.0  0.0747
  H  H64  1  0.050200  0.547400  0.667900  1.0  0.0874
  H  H65  1  0.942800  0.496900  0.624300  1.0  0.0979
  H  H66  1  0.291500  0.593100  0.739100  1.0  0.3609
  H  H67  1  0.534500  0.850700  0.088900  1.0  0.1062
  H  H68  1  0.727900  0.954400  0.827500  1.0  0.1127
  H  H69  1  0.431300  0.732400  0.937000  1.0  0.1049
  H  H70  1  0.457200  0.807600  0.008600  1.0  0.0866
  H  H71  1  0.702700  0.876000  0.757800  1.0  0.0986
  H  H72  1  0.589000  0.533900  0.727700  1.0  0.1015
  H  H73  1  0.579500  0.568600  0.640900  1.0  0.0808
  H  H74  1  0.600300  0.036100  0.551600  1.0  0.1084
  H  H75  1  0.648900  0.935400  0.606300  1.0  0.0748
  H  H76  1  0.502800  0.784700  0.547400  1.0  0.0858
  H  H77  1  0.445900  0.878800  0.496900  1.0  0.0989
  H  H78  1  0.698400  0.667800  0.593100  1.0  0.3612
  H  H79  1  0.034500  0.911100  0.149300  1.0  0.1057
  H  H80  1  0.227900  0.172500  0.045600  1.0  0.1125
  H  H81  1  0.931300  0.063000  0.267600  1.0  0.1068
  H  H82  1  0.957200  0.991400  0.192400  1.0  0.0884
  H  H83  1  0.202700  0.242200  0.124000  1.0  0.0991
  H  H84  1  0.089000  0.272300  0.466100  1.0  0.1009
  H  H85  1  0.079500  0.359100  0.431400  1.0  0.0828
  H  H86  1  0.100300  0.448400  0.963900  1.0  0.1085
  H  H87  1  0.148900  0.393700  0.064600  1.0  0.0748
  H  H88  1  0.002800  0.452600  0.215300  1.0  0.0869
  H  H89  1  0.945900  0.503100  0.121200  1.0  0.0978
  H  H90  1  0.198400  0.406900  0.332200  1.0  0.3591
  H  H91  1  0.183800  0.149300  0.939600  1.0  0.1065
  H  H92  1  0.273500  0.045600  0.781900  1.0  0.1128
  H  H93  1  0.198900  0.267600  0.669400  1.0  0.1053
  H  H94  1  0.149600  0.192400  0.816200  1.0  0.0864
  H  H95  1  0.326700  0.124000  0.633800  1.0  0.0981
  H  H96  1  0.555100  0.466100  0.261600  1.0  0.1008
  H  H97  1  0.510900  0.431400  0.209500  1.0  0.0805
  H  H98  1  0.064200  0.963900  0.587700  1.0  0.1079
  H  H99  1  0.213500  0.064600  0.541700  1.0  0.075
  H  H100  1  0.218100  0.215300  0.332100  1.0  0.0855
  H  H101  1  0.067100  0.121200  0.375700  1.0  0.0984
  H  H102  1  0.530600  0.332200  0.260900  1.0  0.3618
  H  H103  1  0.123400  0.939600  0.911100  1.0  0.1067
  H  H104  1  0.055400  0.781900  0.172500  1.0  0.1126
  H  H105  1  0.868300  0.669400  0.063000  1.0  0.1065
  H  H106  1  0.965800  0.816200  0.991400  1.0  0.0865
  H  H107  1  0.960500  0.633800  0.242200  1.0  0.099
  H  H108  1  0.816700  0.261600  0.272300  1.0  0.0964
  H  H109  1  0.720400  0.209500  0.359100  1.0  0.0776
  H  H110  1  0.651900  0.587700  0.448400  1.0  0.1088
  H  H111  1  0.755200  0.541700  0.393700  1.0  0.074
  H  H112  1  0.550200  0.332100  0.452600  1.0  0.0867
  H  H113  1  0.442800  0.375700  0.503100  1.0  0.0987
  H  H114  1  0.791500  0.260900  0.406900  1.0  0.3583
  H  H115  1  0.316200  0.939600  0.149300  1.0  0.1069
  H  H116  1  0.226500  0.781900  0.045600  1.0  0.113
  H  H117  1  0.301100  0.669400  0.267600  1.0  0.1065
  H  H118  1  0.350400  0.816200  0.192400  1.0  0.0866
  H  H119  1  0.173300  0.633800  0.124000  1.0  0.0997
  H  H120  1  0.944900  0.261600  0.466100  1.0  0.0971
  H  H121  1  0.989100  0.209500  0.431400  1.0  0.0776
  H  H122  1  0.435800  0.587700  0.963900  1.0  0.1089
  H  H123  1  0.286500  0.541700  0.064600  1.0  0.0742
  H  H124  1  0.281900  0.332100  0.215300  1.0  0.086
  H  H125  1  0.432900  0.375700  0.121200  1.0  0.0995
  H  H126  1  0.969400  0.260900  0.332200  1.0  0.3591
  H  H127  1  0.376600  0.911100  0.939600  1.0  0.1053
  H  H128  1  0.444600  0.172500  0.781900  1.0  0.1126
  H  H129  1  0.631700  0.063000  0.669400  1.0  0.1073
  H  H130  1  0.534200  0.991400  0.816200  1.0  0.0879
  H  H131  1  0.539500  0.242200  0.633800  1.0  0.0988
  H  H132  1  0.683300  0.272300  0.261600  1.0  0.1003
  H  H133  1  0.779600  0.359100  0.209500  1.0  0.0838
  H  H134  1  0.848100  0.448400  0.587700  1.0  0.109
  H  H135  1  0.744800  0.393700  0.541700  1.0  0.075
  H  H136  1  0.949800  0.452600  0.332100  1.0  0.0861
  H  H137  1  0.057200  0.503100  0.375700  1.0  0.0981
  H  H138  1  0.708500  0.406900  0.260900  1.0  0.3609
  H  H139  1  0.465500  0.149300  0.911100  1.0  0.1067
  H  H140  1  0.272100  0.045600  0.172500  1.0  0.1121
  H  H141  1  0.568700  0.267600  0.063000  1.0  0.1051
  H  H142  1  0.542800  0.192400  0.991400  1.0  0.0865
  H  H143  1  0.297300  0.124000  0.242200  1.0  0.0978
  H  H144  1  0.411000  0.466100  0.272300  1.0  0.1007
  H  H145  1  0.420500  0.431400  0.359100  1.0  0.0812
  H  H146  1  0.399700  0.963900  0.448400  1.0  0.1083
  H  H147  1  0.351100  0.064600  0.393700  1.0  0.0752
  H  H148  1  0.497200  0.215300  0.452600  1.0  0.0862
  H  H149  1  0.554100  0.121200  0.503100  1.0  0.0986
  H  H150  1  0.301600  0.332200  0.406900  1.0  0.3612
  C  C151  1  0.953820  0.788780  0.753320  1.0  0.6395
  C  C152  1  0.937230  0.838930  0.798040  1.0  -0.1255
  C  C153  1  0.933630  0.052850  0.911460  1.0  -0.1095
  C  C154  1  0.832760  0.849650  0.909770  1.0  -0.1312
  C  C155  1  0.008350  0.913990  0.777940  1.0  -0.0461
  C  C156  1  0.892110  0.963320  0.947090  1.0  -0.0031
  C  C157  1  0.983830  0.517970  0.968480  1.0  0.0854
  C  C158  1  0.905870  0.924090  0.891480  1.0  0.0452
  C  C159  1  0.992940  0.956350  0.823330  1.0  -0.129
  C  C160  1  0.847890  0.807830  0.863360  1.0  -0.0369
  C  C161  1  0.917130  0.687130  0.580840  1.0  0.084
  C  C162  1  0.922380  0.550980  0.983640  1.0  -0.1855
  C  C163  1  0.892980  0.583230  0.923190  1.0  0.1633
  C  C164  1  0.977710  0.549890  0.836360  1.0  0.161
  C  C165  1  0.011110  0.518480  0.893150  1.0  -0.1667
  C  C166  1  0.707140  0.753320  0.457900  1.0  0.6395
  C  C167  1  0.735270  0.798040  0.363030  1.0  -0.1263
  C  C168  1  0.845090  0.911460  0.035690  1.0  -0.1094
  C  C169  1  0.742530  0.909770  0.240580  1.0  -0.1308
  C  C170  1  0.786290  0.777940  0.308070  1.0  -0.0445
  C  C171  1  0.839200  0.947090  0.089590  1.0  -0.0028
  C  C172  1  0.952310  0.968480  0.513550  1.0  0.0863
  C  C173  1  0.797350  0.891480  0.184430  1.0  0.0465
  C  C174  1  0.816270  0.823330  0.220320  1.0  -0.1299
  C  C175  1  0.711250  0.863360  0.328810  1.0  -0.0368
  C  C176  1  0.497970  0.580840  0.732030  1.0  0.0836
  C  C177  1  0.906020  0.983640  0.465380  1.0  -0.1805
  C  C178  1  0.816170  0.923190  0.493580  1.0  0.165
  C  C179  1  0.814070  0.836360  0.613750  1.0  0.1586
  C  C180  1  0.904260  0.893150  0.588370  1.0  -0.1655
  C  C181  1  0.165040  0.457900  0.788780  1.0  0.6379
  C  C182  1  0.098300  0.363030  0.838930  1.0  -0.1246
  C  C183  1  0.880780  0.035690  0.052850  1.0  -0.1108
  C  C184  1  0.983110  0.240580  0.849650  1.0  -0.1328
  C  C185  1  0.094360  0.308070  0.913990  1.0  -0.0475
  C  C186  1  0.928790  0.089590  0.963320  1.0  -0.0032
  C  C187  1  0.465860  0.513550  0.517970  1.0  0.0849
  C  C188  1  0.981780  0.184430  0.924090  1.0  0.0465
  C  C189  1  0.036590  0.220320  0.956350  1.0  -0.1293
  C  C190  1  0.040060  0.328810  0.807830  1.0  -0.0373
  C  C191  1  0.230000  0.732030  0.687130  1.0  0.0807
  C  C192  1  0.371400  0.465380  0.550980  1.0  -0.1809
  C  C193  1  0.309750  0.493580  0.583230  1.0  0.1634
  C  C194  1  0.427820  0.613750  0.549890  1.0  0.1597
  C  C195  1  0.492630  0.588370  0.518480  1.0  -0.167
  C  C196  1  0.792860  0.457900  0.753320  1.0  0.6385
  C  C197  1  0.764730  0.363030  0.798040  1.0  -0.1247
  C  C198  1  0.654910  0.035690  0.911460  1.0  -0.1087
  C  C199  1  0.757470  0.240580  0.909770  1.0  -0.1336
  C  C200  1  0.713710  0.308070  0.777940  1.0  -0.0471
  C  C201  1  0.660800  0.089590  0.947090  1.0  -0.0019
  C  C202  1  0.547690  0.513550  0.968480  1.0  0.0842
  C  C203  1  0.702650  0.184430  0.891480  1.0  0.0466
  C  C204  1  0.683730  0.220320  0.823330  1.0  -0.1303
  C  C205  1  0.788750  0.328810  0.863360  1.0  -0.0373
  C  C206  1  0.002030  0.732030  0.580840  1.0  0.0811
  C  C207  1  0.593980  0.465380  0.983640  1.0  -0.1811
  C  C208  1  0.683830  0.493580  0.923190  1.0  0.1644
  C  C209  1  0.685930  0.613750  0.836360  1.0  0.1592
  C  C210  1  0.595740  0.588370  0.893150  1.0  -0.1669
  C  C211  1  0.334960  0.788780  0.457900  1.0  0.6393
  C  C212  1  0.401700  0.838930  0.363030  1.0  -0.1248
  C  C213  1  0.619220  0.052850  0.035690  1.0  -0.1154
  C  C214  1  0.516890  0.849650  0.240580  1.0  -0.1308
  C  C215  1  0.405640  0.913990  0.308070  1.0  -0.0456
  C  C216  1  0.571210  0.963320  0.089590  1.0  -0.0014
  C  C217  1  0.034140  0.517970  0.513550  1.0  0.0852
  C  C218  1  0.518220  0.924090  0.184430  1.0  0.0453
  C  C219  1  0.463410  0.956350  0.220320  1.0  -0.1279
  C  C220  1  0.459940  0.807830  0.328810  1.0  -0.0384
  C  C221  1  0.270000  0.687130  0.732030  1.0  0.0844
  C  C222  1  0.128600  0.550980  0.465380  1.0  -0.1849
  C  C223  1  0.190250  0.583230  0.493580  1.0  0.1637
  C  C224  1  0.072180  0.549890  0.613750  1.0  0.1592
  C  C225  1  0.007370  0.518480  0.588370  1.0  -0.1664
  C  C226  1  0.546180  0.753320  0.788780  1.0  0.639
  C  C227  1  0.562770  0.798040  0.838930  1.0  -0.1263
  C  C228  1  0.566370  0.911460  0.052850  1.0  -0.1091
  C  C229  1  0.667240  0.909770  0.849650  1.0  -0.1307
  C  C230  1  0.491650  0.777940  0.913990  1.0  -0.0435
  C  C231  1  0.607890  0.947090  0.963320  1.0  -0.0016
  C  C232  1  0.516170  0.968480  0.517970  1.0  0.086
  C  C233  1  0.594130  0.891480  0.924090  1.0  0.0464
  C  C234  1  0.507060  0.823330  0.956350  1.0  -0.1294
  C  C235  1  0.652110  0.863360  0.807830  1.0  -0.0374
  C  C236  1  0.582870  0.580840  0.687130  1.0  0.0841
  C  C237  1  0.577620  0.983640  0.550980  1.0  -0.1816
  C  C238  1  0.607020  0.923190  0.583230  1.0  0.1647
  C  C239  1  0.522290  0.836360  0.549890  1.0  0.1588
  C  C240  1  0.488890  0.893150  0.518480  1.0  -0.1674
  C  C241  1  0.046180  0.211220  0.246680  1.0  0.6396
  C  C242  1  0.062770  0.161070  0.201960  1.0  -0.1252
  C  C243  1  0.066370  0.947150  0.088540  1.0  -0.1111
  C  C244  1  0.167240  0.150350  0.090230  1.0  -0.1312
  C  C245  1  0.991650  0.086010  0.222060  1.0  -0.0451
  C  C246  1  0.107890  0.036680  0.052910  1.0  -0.0016
  C  C247  1  0.016170  0.482030  0.031520  1.0  0.0859
  C  C248  1  0.094130  0.075910  0.108520  1.0  0.0456
  C  C249  1  0.007060  0.043650  0.176670  1.0  -0.1279
  C  C250  1  0.152110  0.192170  0.136640  1.0  -0.0379
  C  C251  1  0.082870  0.312870  0.419160  1.0  0.0839
  C  C252  1  0.077620  0.449020  0.016360  1.0  -0.1822
  C  C253  1  0.107020  0.416770  0.076810  1.0  0.1632
  C  C254  1  0.022290  0.450110  0.163640  1.0  0.1591
  C  C255  1  0.988890  0.481520  0.106850  1.0  -0.167
  C  C256  1  0.292860  0.246680  0.542100  1.0  0.6392
  C  C257  1  0.264730  0.201960  0.636970  1.0  -0.1262
  C  C258  1  0.154910  0.088540  0.964310  1.0  -0.1074
  C  C259  1  0.257470  0.090230  0.759420  1.0  -0.1299
  C  C260  1  0.213710  0.222060  0.691930  1.0  -0.0438
  C  C261  1  0.160800  0.052910  0.910410  1.0  -0.002
  C  C262  1  0.047690  0.031520  0.486450  1.0  0.0859
  C  C263  1  0.202650  0.108520  0.815570  1.0  0.0459
  C  C264  1  0.183730  0.176670  0.779680  1.0  -0.1302
  C  C265  1  0.288750  0.136640  0.671190  1.0  -0.037
  C  C266  1  0.502030  0.419160  0.267970  1.0  0.0815
  C  C267  1  0.093980  0.016360  0.534620  1.0  -0.179
  C  C268  1  0.183830  0.076810  0.506420  1.0  0.1645
  C  C269  1  0.185930  0.163640  0.386250  1.0  0.159
  C  C270  1  0.095740  0.106850  0.411630  1.0  -0.1676
  C  C271  1  0.834960  0.542100  0.211220  1.0  0.6376
  C  C272  1  0.901700  0.636970  0.161070  1.0  -0.1252
  C  C273  1  0.119220  0.964310  0.947150  1.0  -0.1113
  C  C274  1  0.016890  0.759420  0.150350  1.0  -0.1332
  C  C275  1  0.905640  0.691930  0.086010  1.0  -0.0472
  C  C276  1  0.071210  0.910410  0.036680  1.0  -0.0025
  C  C277  1  0.534140  0.486450  0.482030  1.0  0.0853
  C  C278  1  0.018220  0.815570  0.075910  1.0  0.0466
  C  C279  1  0.963410  0.779680  0.043650  1.0  -0.1302
  C  C280  1  0.959940  0.671190  0.192170  1.0  -0.0376
  C  C281  1  0.770000  0.267970  0.312870  1.0  0.0808
  C  C282  1  0.628600  0.534620  0.449020  1.0  -0.1783
  C  C283  1  0.690250  0.506420  0.416770  1.0  0.1646
  C  C284  1  0.572180  0.386250  0.450110  1.0  0.1588
  C  C285  1  0.507370  0.411630  0.481520  1.0  -0.1671
  C  C286  1  0.207140  0.542100  0.246680  1.0  0.6396
  C  C287  1  0.235270  0.636970  0.201960  1.0  -0.1251
  C  C288  1  0.345090  0.964310  0.088540  1.0  -0.1077
  C  C289  1  0.242530  0.759420  0.090230  1.0  -0.1325
  C  C290  1  0.286290  0.691930  0.222060  1.0  -0.0476
  C  C291  1  0.339200  0.910410  0.052910  1.0  -0.0037
  C  C292  1  0.452310  0.486450  0.031520  1.0  0.0862
  C  C293  1  0.297350  0.815570  0.108520  1.0  0.0461
  C  C294  1  0.316270  0.779680  0.176670  1.0  -0.1289
  C  C295  1  0.211250  0.671190  0.136640  1.0  -0.037
  C  C296  1  0.997970  0.267970  0.419160  1.0  0.0813
  C  C297  1  0.406020  0.534620  0.016360  1.0  -0.1778
  C  C298  1  0.316170  0.506420  0.076810  1.0  0.1641
  C  C299  1  0.314070  0.386250  0.163640  1.0  0.1597
  C  C300  1  0.404260  0.411630  0.106850  1.0  -0.167
  C  C301  1  0.665040  0.211220  0.542100  1.0  0.6401
  C  C302  1  0.598300  0.161070  0.636970  1.0  -0.1259
  C  C303  1  0.380780  0.947150  0.964310  1.0  -0.1135
  C  C304  1  0.483110  0.150350  0.759420  1.0  -0.1312
  C  C305  1  0.594360  0.086010  0.691930  1.0  -0.0458
  C  C306  1  0.428790  0.036680  0.910410  1.0  -0.0032
  C  C307  1  0.965860  0.482030  0.486450  1.0  0.0861
  C  C308  1  0.481780  0.075910  0.815570  1.0  0.0447
  C  C309  1  0.536590  0.043650  0.779680  1.0  -0.1288
  C  C310  1  0.540060  0.192170  0.671190  1.0  -0.0361
  C  C311  1  0.730000  0.312870  0.267970  1.0  0.0858
  C  C312  1  0.871400  0.449020  0.534620  1.0  -0.1824
  C  C313  1  0.809750  0.416770  0.506420  1.0  0.1637
  C  C314  1  0.927820  0.450110  0.386250  1.0  0.161
  C  C315  1  0.992630  0.481520  0.411630  1.0  -0.167
  C  C316  1  0.453820  0.246680  0.211220  1.0  0.6396
  C  C317  1  0.437230  0.201960  0.161070  1.0  -0.1265
  C  C318  1  0.433630  0.088540  0.947150  1.0  -0.1079
  C  C319  1  0.332760  0.090230  0.150350  1.0  -0.1304
  C  C320  1  0.508350  0.222060  0.086010  1.0  -0.0446
  C  C321  1  0.392110  0.052910  0.036680  1.0  -0.0028
  C  C322  1  0.483830  0.031520  0.482030  1.0  0.0865
  C  C323  1  0.405870  0.108520  0.075910  1.0  0.0467
  C  C324  1  0.492940  0.176670  0.043650  1.0  -0.1299
  C  C325  1  0.347890  0.136640  0.192170  1.0  -0.036
  C  C326  1  0.417130  0.419160  0.312870  1.0  0.0823
  C  C327  1  0.422380  0.016360  0.449020  1.0  -0.1784
  C  C328  1  0.392980  0.076810  0.416770  1.0  0.1646
  C  C329  1  0.477710  0.163640  0.450110  1.0  0.1584
  C  C330  1  0.511110  0.106850  0.481520  1.0  -0.1664
  N  N331  1  0.920200  0.583340  0.850040  1.0  -0.321
  N  N332  1  0.770240  0.850040  0.566620  1.0  -0.3207
  N  N333  1  0.336860  0.566620  0.583340  1.0  -0.3202
  N  N334  1  0.729760  0.566620  0.850040  1.0  -0.3202
  N  N335  1  0.163140  0.583340  0.566620  1.0  -0.3197
  N  N336  1  0.579800  0.850040  0.583340  1.0  -0.3214
  N  N337  1  0.079800  0.416660  0.149960  1.0  -0.3197
  N  N338  1  0.229760  0.149960  0.433380  1.0  -0.321
  N  N339  1  0.663140  0.433380  0.416660  1.0  -0.3206
  N  N340  1  0.270240  0.433380  0.149960  1.0  -0.3199
  N  N341  1  0.836860  0.416660  0.433380  1.0  -0.3208
  N  N342  1  0.420200  0.149960  0.416660  1.0  -0.3201
  O  O343  1  0.881820  0.727100  0.768980  1.0  -0.5865
  O  O344  1  0.836640  0.650530  0.659560  1.0  -0.5637
  O  O345  1  0.035400  0.809980  0.704440  1.0  -0.5927
  O  O346  1  0.650800  0.768980  0.503920  1.0  -0.5869
  O  O347  1  0.496200  0.659560  0.689910  1.0  -0.5644
  O  O348  1  0.739840  0.704440  0.485580  1.0  -0.5929
  O  O349  1  0.154720  0.503920  0.727100  1.0  -0.588
  O  O350  1  0.186110  0.689910  0.650530  1.0  -0.5625
  O  O351  1  0.225420  0.485580  0.809980  1.0  -0.5954
  O  O352  1  0.849200  0.503920  0.768980  1.0  -0.5875
  O  O353  1  0.003800  0.689910  0.659560  1.0  -0.5627
  O  O354  1  0.760160  0.485580  0.704440  1.0  -0.5948
  O  O355  1  0.345280  0.727100  0.503920  1.0  -0.5869
  O  O356  1  0.313890  0.650530  0.689910  1.0  -0.564
  O  O357  1  0.274580  0.809980  0.485580  1.0  -0.5941
  O  O358  1  0.618180  0.768980  0.727100  1.0  -0.5864
  O  O359  1  0.663360  0.659560  0.650530  1.0  -0.5618
  O  O360  1  0.464600  0.704440  0.809980  1.0  -0.5942
  O  O361  1  0.118180  0.272900  0.231020  1.0  -0.5867
  O  O362  1  0.163360  0.349470  0.340440  1.0  -0.5636
  O  O363  1  0.964600  0.190020  0.295560  1.0  -0.5945
  O  O364  1  0.349200  0.231020  0.496080  1.0  -0.5867
  O  O365  1  0.503800  0.340440  0.310090  1.0  -0.5625
  O  O366  1  0.260160  0.295560  0.514420  1.0  -0.5938
  O  O367  1  0.845280  0.496080  0.272900  1.0  -0.5878
  O  O368  1  0.813890  0.310090  0.349470  1.0  -0.5612
  O  O369  1  0.774580  0.514420  0.190020  1.0  -0.5947
  O  O370  1  0.150800  0.496080  0.231020  1.0  -0.5877
  O  O371  1  0.996200  0.310090  0.340440  1.0  -0.5621
  O  O372  1  0.239840  0.514420  0.295560  1.0  -0.5946
  O  O373  1  0.654720  0.272900  0.496080  1.0  -0.5863
  O  O374  1  0.686110  0.349470  0.310090  1.0  -0.5632
  O  O375  1  0.725420  0.190020  0.514420  1.0  -0.5924
  O  O376  1  0.381820  0.231020  0.272900  1.0  -0.5875
  O  O377  1  0.336640  0.340440  0.349470  1.0  -0.5639
  O  O378  1  0.535400  0.295560  0.190020  1.0  -0.5933
