# generated using pymatgen
data_CuH24(C3N)12
_symmetry_space_group_name_H-M   'P 1'
_cell_length_a   14.32900000
_cell_length_b   14.32900000
_cell_length_c   44.55400000
_cell_angle_alpha   90.00000000
_cell_angle_beta   90.00000000
_cell_angle_gamma   90.00000000
_symmetry_Int_Tables_number   1
_chemical_formula_structural   CuH24(C3N)12
_chemical_formula_sum   'Cu8 H192 C288 N96'
_cell_volume   9147.83801751
_cell_formula_units_Z   8
loop_
 _symmetry_equiv_pos_site_id
 _symmetry_equiv_pos_as_xyz
  1  'x, y, z'
loop_
 _atom_site_type_symbol
 _atom_site_label
 _atom_site_symmetry_multiplicity
 _atom_site_fract_x
 _atom_site_fract_y
 _atom_site_fract_z
 _atom_site_occupancy
 _atom_site_charge
  Cu  Cu1  1  0.500000  0.250000  0.583290  1.0  0.3048
  Cu  Cu2  1  0.000000  0.750000  0.083290  1.0  0.3048
  Cu  Cu3  1  0.500000  0.750000  0.833290  1.0  0.3048
  Cu  Cu4  1  0.000000  0.250000  0.333290  1.0  0.3048
  Cu  Cu5  1  0.500000  0.750000  0.416710  1.0  0.3051
  Cu  Cu6  1  0.000000  0.250000  0.916710  1.0  0.3051
  Cu  Cu7  1  0.500000  0.250000  0.166710  1.0  0.3051
  Cu  Cu8  1  0.000000  0.750000  0.666667  1.0  0.302
  H  H9  1  0.460300  0.455900  0.561400  1.0  0.0795
  H  H10  1  0.368400  0.227600  0.522900  1.0  0.1128
  H  H11  1  0.483200  0.361000  0.471400  1.0  0.0943
  H  H12  1  0.554100  0.365600  0.424900  1.0  0.0983
  H  H13  1  0.463900  0.383000  0.381200  1.0  0.0837
  H  H14  1  0.304500  0.382700  0.383200  1.0  0.0968
  H  H15  1  0.011300  0.375900  0.444300  1.0  0.1015
  H  H16  1  0.941300  0.380000  0.490600  1.0  0.0944
  H  H17  1  0.031200  0.379000  0.534800  1.0  0.0901
  H  H18  1  0.190900  0.369900  0.532900  1.0  0.1004
  H  H19  1  0.120900  0.234800  0.394500  1.0  0.1046
  H  H20  1  0.041600  0.462000  0.353000  1.0  0.0874
  H  H21  1  0.960300  0.955900  0.061400  1.0  0.0795
  H  H22  1  0.868400  0.727600  0.022900  1.0  0.1128
  H  H23  1  0.983200  0.861000  0.971400  1.0  0.0943
  H  H24  1  0.054100  0.865600  0.924900  1.0  0.0983
  H  H25  1  0.963900  0.883000  0.881200  1.0  0.0837
  H  H26  1  0.804500  0.882700  0.883200  1.0  0.0968
  H  H27  1  0.511300  0.875900  0.944300  1.0  0.1015
  H  H28  1  0.441300  0.880000  0.990600  1.0  0.0944
  H  H29  1  0.531200  0.879000  0.034800  1.0  0.0901
  H  H30  1  0.690900  0.869900  0.032900  1.0  0.1004
  H  H31  1  0.620900  0.734800  0.894500  1.0  0.1046
  H  H32  1  0.541600  0.962000  0.853000  1.0  0.0874
  H  H33  1  0.039700  0.544100  0.061400  1.0  0.0796
  H  H34  1  0.131600  0.772400  0.022900  1.0  0.1126
  H  H35  1  0.016800  0.639000  0.971400  1.0  0.0948
  H  H36  1  0.945900  0.634400  0.924900  1.0  0.0982
  H  H37  1  0.036100  0.617000  0.881200  1.0  0.0842
  H  H38  1  0.195500  0.617300  0.883200  1.0  0.0966
  H  H39  1  0.488700  0.624100  0.944300  1.0  0.1015
  H  H40  1  0.558700  0.620000  0.990600  1.0  0.0948
  H  H41  1  0.468800  0.621000  0.034800  1.0  0.09
  H  H42  1  0.309100  0.630100  0.032900  1.0  0.1005
  H  H43  1  0.379100  0.765200  0.894500  1.0  0.1043
  H  H44  1  0.458400  0.538000  0.853000  1.0  0.086
  H  H45  1  0.539700  0.044100  0.561400  1.0  0.0796
  H  H46  1  0.631600  0.272400  0.522900  1.0  0.1126
  H  H47  1  0.516800  0.139000  0.471400  1.0  0.0948
  H  H48  1  0.445900  0.134400  0.424900  1.0  0.0982
  H  H49  1  0.536100  0.117000  0.381200  1.0  0.0842
  H  H50  1  0.695500  0.117300  0.383200  1.0  0.0966
  H  H51  1  0.988700  0.124100  0.444300  1.0  0.1015
  H  H52  1  0.058700  0.120000  0.490600  1.0  0.0948
  H  H53  1  0.968800  0.121000  0.534800  1.0  0.09
  H  H54  1  0.809100  0.130100  0.532900  1.0  0.1005
  H  H55  1  0.879100  0.265200  0.394500  1.0  0.1043
  H  H56  1  0.958400  0.038000  0.353000  1.0  0.086
  H  H57  1  0.294100  0.710300  0.811400  1.0  0.0795
  H  H58  1  0.522400  0.618400  0.772900  1.0  0.1105
  H  H59  1  0.389000  0.733200  0.721400  1.0  0.0942
  H  H60  1  0.384400  0.804100  0.674900  1.0  0.097
  H  H61  1  0.367000  0.713900  0.631200  1.0  0.0848
  H  H62  1  0.367300  0.554500  0.633200  1.0  0.0967
  H  H63  1  0.374100  0.261300  0.694300  1.0  0.101
  H  H64  1  0.370000  0.191300  0.740600  1.0  0.0956
  H  H65  1  0.371000  0.281200  0.784800  1.0  0.0901
  H  H66  1  0.380100  0.440900  0.782900  1.0  0.0997
  H  H67  1  0.515200  0.370900  0.644500  1.0  0.1025
  H  H68  1  0.288000  0.291600  0.603000  1.0  0.0839
  H  H69  1  0.794100  0.210300  0.311400  1.0  0.0795
  H  H70  1  0.022400  0.118400  0.272900  1.0  0.1105
  H  H71  1  0.889000  0.233200  0.221400  1.0  0.0942
  H  H72  1  0.884400  0.304100  0.174900  1.0  0.097
  H  H73  1  0.867000  0.213900  0.131200  1.0  0.0848
  H  H74  1  0.867300  0.054500  0.133200  1.0  0.0967
  H  H75  1  0.874100  0.761300  0.194300  1.0  0.101
  H  H76  1  0.870000  0.691300  0.240600  1.0  0.0956
  H  H77  1  0.871000  0.781200  0.284800  1.0  0.0901
  H  H78  1  0.880100  0.940900  0.282900  1.0  0.0997
  H  H79  1  0.015200  0.870900  0.144500  1.0  0.1025
  H  H80  1  0.788000  0.791600  0.103000  1.0  0.0839
  H  H81  1  0.205900  0.289700  0.311400  1.0  0.0797
  H  H82  1  0.977600  0.381600  0.272900  1.0  0.1106
  H  H83  1  0.111000  0.266800  0.221400  1.0  0.0944
  H  H84  1  0.115600  0.195900  0.174900  1.0  0.0983
  H  H85  1  0.133000  0.286100  0.131200  1.0  0.0851
  H  H86  1  0.132700  0.445500  0.133200  1.0  0.0965
  H  H87  1  0.125900  0.738700  0.194300  1.0  0.1015
  H  H88  1  0.130000  0.808700  0.240600  1.0  0.096
  H  H89  1  0.129000  0.718800  0.284800  1.0  0.0903
  H  H90  1  0.119900  0.559100  0.282900  1.0  0.1001
  H  H91  1  0.984800  0.629100  0.144500  1.0  0.1014
  H  H92  1  0.212000  0.708400  0.103000  1.0  0.084
  H  H93  1  0.705900  0.789700  0.811400  1.0  0.0797
  H  H94  1  0.477600  0.881600  0.772900  1.0  0.1106
  H  H95  1  0.611000  0.766800  0.721400  1.0  0.0944
  H  H96  1  0.615600  0.695900  0.674900  1.0  0.0983
  H  H97  1  0.633000  0.786100  0.631200  1.0  0.0851
  H  H98  1  0.632700  0.945500  0.633200  1.0  0.0965
  H  H99  1  0.625900  0.238700  0.694300  1.0  0.1015
  H  H100  1  0.630000  0.308700  0.740600  1.0  0.096
  H  H101  1  0.629000  0.218800  0.784800  1.0  0.0903
  H  H102  1  0.619900  0.059100  0.782900  1.0  0.1001
  H  H103  1  0.484800  0.129100  0.644500  1.0  0.1014
  H  H104  1  0.712000  0.208400  0.603000  1.0  0.084
  H  H105  1  0.539700  0.544100  0.438600  1.0  0.0797
  H  H106  1  0.631600  0.772400  0.477100  1.0  0.1124
  H  H107  1  0.516800  0.639000  0.528600  1.0  0.094
  H  H108  1  0.445900  0.634400  0.575100  1.0  0.0982
  H  H109  1  0.536100  0.617000  0.618800  1.0  0.0847
  H  H110  1  0.695500  0.617300  0.616800  1.0  0.0965
  H  H111  1  0.988700  0.624100  0.555700  1.0  0.1017
  H  H112  1  0.058700  0.620000  0.509400  1.0  0.0951
  H  H113  1  0.968800  0.621000  0.465200  1.0  0.0903
  H  H114  1  0.809100  0.630100  0.467100  1.0  0.1011
  H  H115  1  0.879100  0.765200  0.605500  1.0  0.104
  H  H116  1  0.958400  0.538000  0.647000  1.0  0.0862
  H  H117  1  0.039700  0.044100  0.938600  1.0  0.0797
  H  H118  1  0.131600  0.272400  0.977100  1.0  0.1124
  H  H119  1  0.016800  0.139000  0.028600  1.0  0.094
  H  H120  1  0.945900  0.134400  0.075100  1.0  0.0982
  H  H121  1  0.036100  0.117000  0.118800  1.0  0.0847
  H  H122  1  0.195500  0.117300  0.116800  1.0  0.0965
  H  H123  1  0.488700  0.124100  0.055700  1.0  0.1017
  H  H124  1  0.558700  0.120000  0.009400  1.0  0.0951
  H  H125  1  0.468800  0.121000  0.965200  1.0  0.0903
  H  H126  1  0.309100  0.130100  0.967100  1.0  0.1011
  H  H127  1  0.379100  0.265200  0.105500  1.0  0.1041
  H  H128  1  0.458400  0.038000  0.147000  1.0  0.0862
  H  H129  1  0.960300  0.455900  0.938600  1.0  0.0799
  H  H130  1  0.868400  0.227600  0.977100  1.0  0.112
  H  H131  1  0.983200  0.361000  0.028600  1.0  0.094
  H  H132  1  0.054100  0.365600  0.075100  1.0  0.0985
  H  H133  1  0.963900  0.383000  0.118800  1.0  0.084
  H  H134  1  0.804500  0.382700  0.116800  1.0  0.0968
  H  H135  1  0.511300  0.375900  0.055700  1.0  0.1015
  H  H136  1  0.441300  0.380000  0.009400  1.0  0.0946
  H  H137  1  0.531200  0.379000  0.965200  1.0  0.0905
  H  H138  1  0.690900  0.369900  0.967100  1.0  0.1009
  H  H139  1  0.620900  0.234800  0.105500  1.0  0.104
  H  H140  1  0.541600  0.462000  0.147000  1.0  0.0877
  H  H141  1  0.460300  0.955900  0.438600  1.0  0.0799
  H  H142  1  0.368400  0.727600  0.477100  1.0  0.112
  H  H143  1  0.483200  0.861000  0.528600  1.0  0.094
  H  H144  1  0.554100  0.865600  0.575100  1.0  0.0985
  H  H145  1  0.463900  0.883000  0.618800  1.0  0.084
  H  H146  1  0.304500  0.882700  0.616800  1.0  0.0968
  H  H147  1  0.011300  0.875900  0.555700  1.0  0.1015
  H  H148  1  0.941300  0.880000  0.509400  1.0  0.0946
  H  H149  1  0.031200  0.879000  0.465200  1.0  0.0905
  H  H150  1  0.190900  0.869900  0.467100  1.0  0.1009
  H  H151  1  0.120900  0.734800  0.605500  1.0  0.1039
  H  H152  1  0.041600  0.962000  0.647000  1.0  0.0877
  H  H153  1  0.705900  0.289700  0.188600  1.0  0.0801
  H  H154  1  0.477600  0.381600  0.227100  1.0  0.1107
  H  H155  1  0.611000  0.266800  0.278600  1.0  0.0939
  H  H156  1  0.615600  0.195900  0.325100  1.0  0.0984
  H  H157  1  0.633000  0.286100  0.368800  1.0  0.0849
  H  H158  1  0.632700  0.445500  0.366800  1.0  0.096
  H  H159  1  0.625900  0.738700  0.305700  1.0  0.1014
  H  H160  1  0.630000  0.808700  0.259400  1.0  0.0961
  H  H161  1  0.629000  0.718800  0.215200  1.0  0.0904
  H  H162  1  0.619900  0.559100  0.217100  1.0  0.1007
  H  H163  1  0.484800  0.629100  0.355500  1.0  0.1011
  H  H164  1  0.712000  0.708400  0.397000  1.0  0.0835
  H  H165  1  0.205900  0.789700  0.688600  1.0  0.0801
  H  H166  1  0.977600  0.881600  0.727100  1.0  0.1107
  H  H167  1  0.111000  0.766800  0.778600  1.0  0.0939
  H  H168  1  0.115600  0.695900  0.825100  1.0  0.0984
  H  H169  1  0.133000  0.786100  0.868800  1.0  0.0849
  H  H170  1  0.132700  0.945500  0.866800  1.0  0.096
  H  H171  1  0.125900  0.238700  0.805700  1.0  0.1014
  H  H172  1  0.130000  0.308700  0.759400  1.0  0.0961
  H  H173  1  0.129000  0.218800  0.715200  1.0  0.0904
  H  H174  1  0.119900  0.059100  0.717100  1.0  0.1007
  H  H175  1  0.984800  0.129100  0.855500  1.0  0.1011
  H  H176  1  0.212000  0.208400  0.897000  1.0  0.0835
  H  H177  1  0.794100  0.710300  0.688600  1.0  0.0799
  H  H178  1  0.022400  0.618400  0.727100  1.0  0.1097
  H  H179  1  0.889000  0.733200  0.778600  1.0  0.0942
  H  H180  1  0.884400  0.804100  0.825100  1.0  0.0973
  H  H181  1  0.867000  0.713900  0.868800  1.0  0.0849
  H  H182  1  0.867300  0.554500  0.866800  1.0  0.0969
  H  H183  1  0.874100  0.261300  0.805700  1.0  0.1014
  H  H184  1  0.870000  0.191300  0.759400  1.0  0.0956
  H  H185  1  0.871000  0.281200  0.715200  1.0  0.0905
  H  H186  1  0.880100  0.440900  0.717100  1.0  0.1001
  H  H187  1  0.015200  0.370900  0.855500  1.0  0.1022
  H  H188  1  0.788000  0.291600  0.897000  1.0  0.0845
  H  H189  1  0.294100  0.210300  0.188600  1.0  0.0799
  H  H190  1  0.522400  0.118400  0.227100  1.0  0.1097
  H  H191  1  0.389000  0.233200  0.278600  1.0  0.0942
  H  H192  1  0.384400  0.304100  0.325100  1.0  0.0973
  H  H193  1  0.367000  0.213900  0.368800  1.0  0.0849
  H  H194  1  0.367300  0.054500  0.366800  1.0  0.0969
  H  H195  1  0.374100  0.761300  0.305700  1.0  0.1014
  H  H196  1  0.370000  0.691300  0.259400  1.0  0.0956
  H  H197  1  0.371000  0.781200  0.215200  1.0  0.0905
  H  H198  1  0.380100  0.940900  0.217100  1.0  0.1001
  H  H199  1  0.515200  0.870900  0.355500  1.0  0.1022
  H  H200  1  0.288000  0.791600  0.397000  1.0  0.0845
  C  C201  1  0.430700  0.414890  0.547560  1.0  0.2347
  C  C202  1  0.381880  0.291070  0.527310  1.0  0.14
  C  C203  1  0.299870  0.365500  0.483770  1.0  0.0808
  C  C204  1  0.347150  0.367390  0.456460  1.0  -0.0522
  C  C205  1  0.445950  0.365140  0.453840  1.0  -0.0767
  C  C206  1  0.488050  0.368860  0.426350  1.0  -0.1063
  C  C207  1  0.433700  0.377530  0.400090  1.0  -0.0997
  C  C208  1  0.339470  0.378150  0.401270  1.0  -0.0906
  C  C209  1  0.291650  0.372090  0.429490  1.0  0.0073
  C  C210  1  0.194940  0.371600  0.432120  1.0  0.0991
  C  C211  1  0.148020  0.370830  0.459510  1.0  -0.0719
  C  C212  1  0.048600  0.375000  0.461970  1.0  -0.1089
  C  C213  1  0.007400  0.377400  0.489250  1.0  -0.1001
  C  C214  1  0.061600  0.376300  0.515900  1.0  -0.1011
  C  C215  1  0.155900  0.371400  0.514850  1.0  -0.0985
  C  C216  1  0.203020  0.368560  0.486470  1.0  -0.0643
  C  C217  1  0.110750  0.298210  0.389250  1.0  0.1471
  C  C218  1  0.068900  0.421440  0.367400  1.0  0.2616
  C  C219  1  0.930700  0.914890  0.047560  1.0  0.2347
  C  C220  1  0.881880  0.791070  0.027310  1.0  0.14
  C  C221  1  0.799870  0.865500  0.983770  1.0  0.0808
  C  C222  1  0.847150  0.867390  0.956460  1.0  -0.0522
  C  C223  1  0.945950  0.865140  0.953840  1.0  -0.0767
  C  C224  1  0.988050  0.868860  0.926350  1.0  -0.1063
  C  C225  1  0.933700  0.877530  0.900090  1.0  -0.0997
  C  C226  1  0.839470  0.878150  0.901270  1.0  -0.0906
  C  C227  1  0.791650  0.872090  0.929490  1.0  0.0073
  C  C228  1  0.694940  0.871600  0.932120  1.0  0.0991
  C  C229  1  0.648020  0.870830  0.959510  1.0  -0.0719
  C  C230  1  0.548600  0.875000  0.961970  1.0  -0.1089
  C  C231  1  0.507400  0.877400  0.989250  1.0  -0.1001
  C  C232  1  0.561600  0.876300  0.015900  1.0  -0.1011
  C  C233  1  0.655900  0.871400  0.014850  1.0  -0.0985
  C  C234  1  0.703020  0.868560  0.986470  1.0  -0.0643
  C  C235  1  0.610750  0.798210  0.889250  1.0  0.1471
  C  C236  1  0.568900  0.921440  0.867400  1.0  0.2616
  C  C237  1  0.069300  0.585110  0.047560  1.0  0.2357
  C  C238  1  0.118120  0.708930  0.027310  1.0  0.1381
  C  C239  1  0.200130  0.634500  0.983770  1.0  0.0801
  C  C240  1  0.152850  0.632610  0.956460  1.0  -0.0519
  C  C241  1  0.054050  0.634860  0.953840  1.0  -0.0758
  C  C242  1  0.011950  0.631140  0.926350  1.0  -0.1057
  C  C243  1  0.066300  0.622470  0.900090  1.0  -0.0986
  C  C244  1  0.160530  0.621850  0.901270  1.0  -0.091
  C  C245  1  0.208350  0.627910  0.929490  1.0  0.0072
  C  C246  1  0.305060  0.628400  0.932120  1.0  0.0988
  C  C247  1  0.351980  0.629170  0.959510  1.0  -0.0717
  C  C248  1  0.451400  0.625000  0.961970  1.0  -0.1091
  C  C249  1  0.492600  0.622600  0.989250  1.0  -0.0984
  C  C250  1  0.438400  0.623700  0.015900  1.0  -0.1013
  C  C251  1  0.344100  0.628600  0.014850  1.0  -0.1005
  C  C252  1  0.296980  0.631440  0.986470  1.0  -0.0641
  C  C253  1  0.389250  0.701790  0.889250  1.0  0.1481
  C  C254  1  0.431100  0.578560  0.867400  1.0  0.2606
  C  C255  1  0.569300  0.085110  0.547560  1.0  0.2357
  C  C256  1  0.618120  0.208930  0.527310  1.0  0.1381
  C  C257  1  0.700130  0.134500  0.483770  1.0  0.0801
  C  C258  1  0.652850  0.132610  0.456460  1.0  -0.0519
  C  C259  1  0.554050  0.134860  0.453840  1.0  -0.0758
  C  C260  1  0.511950  0.131140  0.426350  1.0  -0.1057
  C  C261  1  0.566300  0.122470  0.400090  1.0  -0.0986
  C  C262  1  0.660530  0.121850  0.401270  1.0  -0.091
  C  C263  1  0.708350  0.127910  0.429490  1.0  0.0072
  C  C264  1  0.805060  0.128400  0.432120  1.0  0.0988
  C  C265  1  0.851980  0.129170  0.459510  1.0  -0.0717
  C  C266  1  0.951400  0.125000  0.461970  1.0  -0.1091
  C  C267  1  0.992600  0.122600  0.489250  1.0  -0.0984
  C  C268  1  0.938400  0.123700  0.515900  1.0  -0.1013
  C  C269  1  0.844100  0.128600  0.514850  1.0  -0.1005
  C  C270  1  0.796980  0.131440  0.486470  1.0  -0.0641
  C  C271  1  0.889250  0.201790  0.389250  1.0  0.1481
  C  C272  1  0.931100  0.078560  0.367400  1.0  0.2606
  C  C273  1  0.335110  0.680700  0.797560  1.0  0.2328
  C  C274  1  0.458930  0.631880  0.777310  1.0  0.1369
  C  C275  1  0.384500  0.549870  0.733770  1.0  0.0796
  C  C276  1  0.382610  0.597150  0.706460  1.0  -0.0518
  C  C277  1  0.384860  0.695950  0.703840  1.0  -0.0779
  C  C278  1  0.381140  0.738050  0.676350  1.0  -0.0989
  C  C279  1  0.372470  0.683700  0.650090  1.0  -0.0977
  C  C280  1  0.371850  0.589470  0.651270  1.0  -0.0896
  C  C281  1  0.377910  0.541650  0.679490  1.0  0.0081
  C  C282  1  0.378400  0.444940  0.682120  1.0  0.0999
  C  C283  1  0.379170  0.398020  0.709510  1.0  -0.0713
  C  C284  1  0.375000  0.298600  0.711970  1.0  -0.1105
  C  C285  1  0.372600  0.257400  0.739250  1.0  -0.0939
  C  C286  1  0.373700  0.311600  0.765900  1.0  -0.0997
  C  C287  1  0.378600  0.405900  0.764850  1.0  -0.099
  C  C288  1  0.381440  0.453020  0.736470  1.0  -0.0642
  C  C289  1  0.451790  0.360750  0.639250  1.0  0.146
  C  C290  1  0.328560  0.318900  0.617400  1.0  0.2546
  C  C291  1  0.835110  0.180700  0.297560  1.0  0.2328
  C  C292  1  0.958930  0.131880  0.277310  1.0  0.1369
  C  C293  1  0.884500  0.049870  0.233770  1.0  0.0796
  C  C294  1  0.882610  0.097150  0.206460  1.0  -0.0518
  C  C295  1  0.884860  0.195950  0.203840  1.0  -0.0779
  C  C296  1  0.881140  0.238050  0.176350  1.0  -0.0989
  C  C297  1  0.872470  0.183700  0.150090  1.0  -0.0977
  C  C298  1  0.871850  0.089470  0.151270  1.0  -0.0896
  C  C299  1  0.877910  0.041650  0.179490  1.0  0.0081
  C  C300  1  0.878400  0.944940  0.182120  1.0  0.0999
  C  C301  1  0.879170  0.898020  0.209510  1.0  -0.0713
  C  C302  1  0.875000  0.798600  0.211970  1.0  -0.1105
  C  C303  1  0.872600  0.757400  0.239250  1.0  -0.0939
  C  C304  1  0.873700  0.811600  0.265900  1.0  -0.0997
  C  C305  1  0.878600  0.905900  0.264850  1.0  -0.099
  C  C306  1  0.881440  0.953020  0.236470  1.0  -0.0642
  C  C307  1  0.951790  0.860750  0.139250  1.0  0.146
  C  C308  1  0.828560  0.818900  0.117400  1.0  0.2546
  C  C309  1  0.164890  0.319300  0.297560  1.0  0.2352
  C  C310  1  0.041070  0.368120  0.277310  1.0  0.1366
  C  C311  1  0.115500  0.450130  0.233770  1.0  0.0801
  C  C312  1  0.117390  0.402850  0.206460  1.0  -0.0522
  C  C313  1  0.115140  0.304050  0.203840  1.0  -0.0774
  C  C314  1  0.118860  0.261950  0.176350  1.0  -0.0995
  C  C315  1  0.127530  0.316300  0.150090  1.0  -0.0987
  C  C316  1  0.128150  0.410530  0.151270  1.0  -0.09
  C  C317  1  0.122090  0.458350  0.179490  1.0  0.007
  C  C318  1  0.121600  0.555060  0.182120  1.0  0.0998
  C  C319  1  0.120830  0.601980  0.209510  1.0  -0.0714
  C  C320  1  0.125000  0.701400  0.211970  1.0  -0.11
  C  C321  1  0.127400  0.742600  0.239250  1.0  -0.0947
  C  C322  1  0.126300  0.688400  0.265900  1.0  -0.0994
  C  C323  1  0.121400  0.594100  0.264850  1.0  -0.0994
  C  C324  1  0.118560  0.546980  0.236470  1.0  -0.0645
  C  C325  1  0.048210  0.639250  0.139250  1.0  0.1447
  C  C326  1  0.171440  0.681100  0.117400  1.0  0.2588
  C  C327  1  0.664890  0.819300  0.797560  1.0  0.2352
  C  C328  1  0.541070  0.868120  0.777310  1.0  0.1366
  C  C329  1  0.615500  0.950130  0.733770  1.0  0.0801
  C  C330  1  0.617390  0.902850  0.706460  1.0  -0.0522
  C  C331  1  0.615140  0.804050  0.703840  1.0  -0.0774
  C  C332  1  0.618860  0.761950  0.676350  1.0  -0.0995
  C  C333  1  0.627530  0.816300  0.650090  1.0  -0.0987
  C  C334  1  0.628150  0.910530  0.651270  1.0  -0.09
  C  C335  1  0.622090  0.958350  0.679490  1.0  0.007
  C  C336  1  0.621600  0.055060  0.682120  1.0  0.0998
  C  C337  1  0.620830  0.101980  0.709510  1.0  -0.0714
  C  C338  1  0.625000  0.201400  0.711970  1.0  -0.11
  C  C339  1  0.627400  0.242600  0.739250  1.0  -0.0947
  C  C340  1  0.626300  0.188400  0.765900  1.0  -0.0994
  C  C341  1  0.621400  0.094100  0.764850  1.0  -0.0994
  C  C342  1  0.618560  0.046980  0.736470  1.0  -0.0645
  C  C343  1  0.548210  0.139250  0.639250  1.0  0.1447
  C  C344  1  0.671440  0.181100  0.617400  1.0  0.2588
  C  C345  1  0.569300  0.585110  0.452440  1.0  0.235
  C  C346  1  0.618120  0.708930  0.472690  1.0  0.1372
  C  C347  1  0.700130  0.634500  0.516230  1.0  0.0802
  C  C348  1  0.652850  0.632610  0.543540  1.0  -0.0516
  C  C349  1  0.554050  0.634860  0.546160  1.0  -0.0752
  C  C350  1  0.511950  0.631140  0.573650  1.0  -0.1054
  C  C351  1  0.566300  0.622470  0.599910  1.0  -0.0979
  C  C352  1  0.660530  0.621850  0.598730  1.0  -0.0911
  C  C353  1  0.708350  0.627910  0.570510  1.0  0.0071
  C  C354  1  0.805060  0.628400  0.567880  1.0  0.0989
  C  C355  1  0.851980  0.629170  0.540490  1.0  -0.0715
  C  C356  1  0.951400  0.625000  0.538030  1.0  -0.109
  C  C357  1  0.992600  0.622600  0.510750  1.0  -0.0987
  C  C358  1  0.938400  0.623700  0.484100  1.0  -0.1013
  C  C359  1  0.844100  0.628600  0.485150  1.0  -0.0984
  C  C360  1  0.796980  0.631440  0.513530  1.0  -0.0638
  C  C361  1  0.889250  0.701790  0.610750  1.0  0.1478
  C  C362  1  0.931100  0.578560  0.632600  1.0  0.2609
  C  C363  1  0.069300  0.085110  0.952440  1.0  0.235
  C  C364  1  0.118120  0.208930  0.972690  1.0  0.1372
  C  C365  1  0.200130  0.134500  0.016230  1.0  0.0802
  C  C366  1  0.152850  0.132610  0.043540  1.0  -0.0516
  C  C367  1  0.054050  0.134860  0.046160  1.0  -0.0752
  C  C368  1  0.011950  0.131140  0.073650  1.0  -0.1054
  C  C369  1  0.066300  0.122470  0.099910  1.0  -0.0979
  C  C370  1  0.160530  0.121850  0.098730  1.0  -0.0911
  C  C371  1  0.208350  0.127910  0.070510  1.0  0.0071
  C  C372  1  0.305060  0.128400  0.067880  1.0  0.0989
  C  C373  1  0.351980  0.129170  0.040490  1.0  -0.0715
  C  C374  1  0.451400  0.125000  0.038030  1.0  -0.109
  C  C375  1  0.492600  0.122600  0.010750  1.0  -0.0987
  C  C376  1  0.438400  0.123700  0.984100  1.0  -0.1013
  C  C377  1  0.344100  0.128600  0.985150  1.0  -0.0984
  C  C378  1  0.296980  0.131440  0.013530  1.0  -0.0638
  C  C379  1  0.389250  0.201790  0.110750  1.0  0.1478
  C  C380  1  0.431100  0.078560  0.132600  1.0  0.2609
  C  C381  1  0.930700  0.414890  0.952440  1.0  0.2353
  C  C382  1  0.881880  0.291070  0.972690  1.0  0.1395
  C  C383  1  0.799870  0.365500  0.016230  1.0  0.081
  C  C384  1  0.847150  0.367390  0.043540  1.0  -0.0519
  C  C385  1  0.945950  0.365140  0.046160  1.0  -0.0764
  C  C386  1  0.988050  0.368860  0.073650  1.0  -0.1059
  C  C387  1  0.933700  0.377530  0.099910  1.0  -0.0996
  C  C388  1  0.839470  0.378150  0.098730  1.0  -0.0916
  C  C389  1  0.791650  0.372090  0.070510  1.0  0.007
  C  C390  1  0.694940  0.371600  0.067880  1.0  0.0993
  C  C391  1  0.648020  0.370830  0.040490  1.0  -0.0717
  C  C392  1  0.548600  0.375000  0.038030  1.0  -0.1094
  C  C393  1  0.507400  0.377400  0.010750  1.0  -0.1006
  C  C394  1  0.561600  0.376300  0.984100  1.0  -0.0999
  C  C395  1  0.655900  0.371400  0.985150  1.0  -0.0989
  C  C396  1  0.703020  0.368560  0.013530  1.0  -0.064
  C  C397  1  0.610750  0.298210  0.110750  1.0  0.1467
  C  C398  1  0.568900  0.421440  0.132600  1.0  0.2606
  C  C399  1  0.430700  0.914890  0.452440  1.0  0.2353
  C  C400  1  0.381880  0.791070  0.472690  1.0  0.1395
  C  C401  1  0.299870  0.865500  0.516230  1.0  0.081
  C  C402  1  0.347150  0.867390  0.543540  1.0  -0.0519
  C  C403  1  0.445950  0.865140  0.546160  1.0  -0.0764
  C  C404  1  0.488050  0.868860  0.573650  1.0  -0.1059
  C  C405  1  0.433700  0.877530  0.599910  1.0  -0.0996
  C  C406  1  0.339470  0.878150  0.598730  1.0  -0.0916
  C  C407  1  0.291650  0.872090  0.570510  1.0  0.007
  C  C408  1  0.194940  0.871600  0.567880  1.0  0.0993
  C  C409  1  0.148020  0.870830  0.540490  1.0  -0.0717
  C  C410  1  0.048600  0.875000  0.538030  1.0  -0.1094
  C  C411  1  0.007400  0.877400  0.510750  1.0  -0.1006
  C  C412  1  0.061600  0.876300  0.484100  1.0  -0.0999
  C  C413  1  0.155900  0.871400  0.485150  1.0  -0.0989
  C  C414  1  0.203020  0.868560  0.513530  1.0  -0.064
  C  C415  1  0.110750  0.798210  0.610750  1.0  0.1467
  C  C416  1  0.068900  0.921440  0.632600  1.0  0.2605
  C  C417  1  0.664890  0.319300  0.202440  1.0  0.2351
  C  C418  1  0.541070  0.368120  0.222690  1.0  0.1358
  C  C419  1  0.615500  0.450130  0.266230  1.0  0.0802
  C  C420  1  0.617390  0.402850  0.293540  1.0  -0.052
  C  C421  1  0.615140  0.304050  0.296160  1.0  -0.0771
  C  C422  1  0.618860  0.261950  0.323650  1.0  -0.0987
  C  C423  1  0.627530  0.316300  0.349910  1.0  -0.0984
  C  C424  1  0.628150  0.410530  0.348730  1.0  -0.0906
  C  C425  1  0.622090  0.458350  0.320510  1.0  0.0068
  C  C426  1  0.621600  0.555060  0.317880  1.0  0.0998
  C  C427  1  0.620830  0.601980  0.290490  1.0  -0.0713
  C  C428  1  0.625000  0.701400  0.288030  1.0  -0.1103
  C  C429  1  0.627400  0.742600  0.260750  1.0  -0.0953
  C  C430  1  0.626300  0.688400  0.234100  1.0  -0.0993
  C  C431  1  0.621400  0.594100  0.235150  1.0  -0.0985
  C  C432  1  0.618560  0.546980  0.263530  1.0  -0.0642
  C  C433  1  0.548210  0.639250  0.360750  1.0  0.1441
  C  C434  1  0.671440  0.681100  0.382600  1.0  0.2589
  C  C435  1  0.164890  0.819300  0.702440  1.0  0.2351
  C  C436  1  0.041070  0.868120  0.722690  1.0  0.1362
  C  C437  1  0.115500  0.950130  0.766230  1.0  0.0802
  C  C438  1  0.117390  0.902850  0.793540  1.0  -0.052
  C  C439  1  0.115140  0.804050  0.796160  1.0  -0.0771
  C  C440  1  0.118860  0.761950  0.823650  1.0  -0.0987
  C  C441  1  0.127530  0.816300  0.849910  1.0  -0.0984
  C  C442  1  0.128150  0.910530  0.848730  1.0  -0.0906
  C  C443  1  0.122090  0.958350  0.820510  1.0  0.0068
  C  C444  1  0.121600  0.055060  0.817880  1.0  0.0998
  C  C445  1  0.120830  0.101980  0.790490  1.0  -0.0713
  C  C446  1  0.125000  0.201400  0.788030  1.0  -0.1103
  C  C447  1  0.127400  0.242600  0.760750  1.0  -0.0953
  C  C448  1  0.126300  0.188400  0.734100  1.0  -0.0993
  C  C449  1  0.121400  0.094100  0.735150  1.0  -0.0985
  C  C450  1  0.118560  0.046980  0.763530  1.0  -0.0642
  C  C451  1  0.048210  0.139250  0.860750  1.0  0.1441
  C  C452  1  0.171440  0.181100  0.882600  1.0  0.2589
  C  C453  1  0.835110  0.680700  0.702440  1.0  0.2333
  C  C454  1  0.958930  0.631880  0.722690  1.0  0.1367
  C  C455  1  0.884500  0.549870  0.766230  1.0  0.0796
  C  C456  1  0.882610  0.597150  0.793540  1.0  -0.0516
  C  C457  1  0.884860  0.695950  0.796160  1.0  -0.0778
  C  C458  1  0.881140  0.738050  0.823650  1.0  -0.0986
  C  C459  1  0.872470  0.683700  0.849910  1.0  -0.0976
  C  C460  1  0.871850  0.589470  0.848730  1.0  -0.0898
  C  C461  1  0.877910  0.541650  0.820510  1.0  0.0079
  C  C462  1  0.878400  0.444940  0.817880  1.0  0.0999
  C  C463  1  0.879170  0.398020  0.790490  1.0  -0.0711
  C  C464  1  0.875000  0.298600  0.788030  1.0  -0.1108
  C  C465  1  0.872600  0.257400  0.760750  1.0  -0.094
  C  C466  1  0.873700  0.311600  0.734100  1.0  -0.0986
  C  C467  1  0.878600  0.405900  0.735150  1.0  -0.0981
  C  C468  1  0.881440  0.453020  0.763530  1.0  -0.0639
  C  C469  1  0.951790  0.360750  0.860750  1.0  0.1456
  C  C470  1  0.828560  0.318900  0.882600  1.0  0.2551
  C  C471  1  0.335110  0.180700  0.202440  1.0  0.2332
  C  C472  1  0.458930  0.131880  0.222690  1.0  0.1363
  C  C473  1  0.384500  0.049870  0.266230  1.0  0.0796
  C  C474  1  0.382610  0.097150  0.293540  1.0  -0.0516
  C  C475  1  0.384860  0.195950  0.296160  1.0  -0.0778
  C  C476  1  0.381140  0.238050  0.323650  1.0  -0.0986
  C  C477  1  0.372470  0.183700  0.349910  1.0  -0.0976
  C  C478  1  0.371850  0.089470  0.348730  1.0  -0.0898
  C  C479  1  0.377910  0.041650  0.320510  1.0  0.0079
  C  C480  1  0.378400  0.944940  0.317880  1.0  0.0999
  C  C481  1  0.379170  0.898020  0.290490  1.0  -0.0711
  C  C482  1  0.375000  0.798600  0.288030  1.0  -0.1108
  C  C483  1  0.372600  0.757400  0.260750  1.0  -0.094
  C  C484  1  0.373700  0.811600  0.234100  1.0  -0.0986
  C  C485  1  0.378600  0.905900  0.235150  1.0  -0.0981
  C  C486  1  0.381440  0.953020  0.263530  1.0  -0.0639
  C  C487  1  0.451790  0.860750  0.360750  1.0  0.1456
  C  C488  1  0.328560  0.818900  0.382600  1.0  0.2551
  N  N489  1  0.430930  0.320870  0.550790  1.0  -0.3996
  N  N490  1  0.386030  0.444260  0.523700  1.0  -0.3745
  N  N491  1  0.354630  0.363490  0.510980  1.0  0.1154
  N  N492  1  0.140680  0.371390  0.404820  1.0  0.1174
  N  N493  1  0.113800  0.451790  0.391130  1.0  -0.3616
  N  N494  1  0.064730  0.327180  0.365280  1.0  -0.3922
  N  N495  1  0.930930  0.820870  0.050790  1.0  -0.3996
  N  N496  1  0.886030  0.944260  0.023700  1.0  -0.3745
  N  N497  1  0.854630  0.863490  0.010980  1.0  0.1154
  N  N498  1  0.640680  0.871390  0.904820  1.0  0.1174
  N  N499  1  0.613800  0.951790  0.891130  1.0  -0.3616
  N  N500  1  0.564730  0.827180  0.865280  1.0  -0.3922
  N  N501  1  0.069070  0.679130  0.050790  1.0  -0.4005
  N  N502  1  0.113970  0.555740  0.023700  1.0  -0.3754
  N  N503  1  0.145370  0.636510  0.010980  1.0  0.1168
  N  N504  1  0.359320  0.628610  0.904820  1.0  0.1162
  N  N505  1  0.386200  0.548210  0.891130  1.0  -0.3618
  N  N506  1  0.435270  0.672820  0.865280  1.0  -0.3901
  N  N507  1  0.569070  0.179130  0.550790  1.0  -0.4005
  N  N508  1  0.613970  0.055740  0.523700  1.0  -0.3754
  N  N509  1  0.645370  0.136510  0.510980  1.0  0.1168
  N  N510  1  0.859320  0.128610  0.404820  1.0  0.1162
  N  N511  1  0.886200  0.048210  0.391130  1.0  -0.3618
  N  N512  1  0.935270  0.172820  0.365280  1.0  -0.3901
  N  N513  1  0.429130  0.680930  0.800790  1.0  -0.3989
  N  N514  1  0.305740  0.636030  0.773700  1.0  -0.3723
  N  N515  1  0.386510  0.604630  0.760980  1.0  0.1163
  N  N516  1  0.378610  0.390680  0.654820  1.0  0.1153
  N  N517  1  0.298210  0.363800  0.641130  1.0  -0.3617
  N  N518  1  0.422820  0.314730  0.615280  1.0  -0.391
  N  N519  1  0.929130  0.180930  0.300790  1.0  -0.3989
  N  N520  1  0.805740  0.136030  0.273700  1.0  -0.3723
  N  N521  1  0.886510  0.104630  0.260980  1.0  0.1163
  N  N522  1  0.878610  0.890680  0.154820  1.0  0.1153
  N  N523  1  0.798210  0.863800  0.141130  1.0  -0.3617
  N  N524  1  0.922820  0.814730  0.115280  1.0  -0.391
  N  N525  1  0.070870  0.319070  0.300790  1.0  -0.4007
  N  N526  1  0.194260  0.363970  0.273700  1.0  -0.3724
  N  N527  1  0.113490  0.395370  0.260980  1.0  0.1167
  N  N528  1  0.121390  0.609320  0.154820  1.0  0.116
  N  N529  1  0.201790  0.636200  0.141130  1.0  -0.3639
  N  N530  1  0.077180  0.685270  0.115280  1.0  -0.3909
  N  N531  1  0.570870  0.819070  0.800790  1.0  -0.4007
  N  N532  1  0.694260  0.863970  0.773700  1.0  -0.3724
  N  N533  1  0.613490  0.895370  0.760980  1.0  0.1167
  N  N534  1  0.621390  0.109320  0.654820  1.0  0.116
  N  N535  1  0.701790  0.136200  0.641130  1.0  -0.3639
  N  N536  1  0.577180  0.185270  0.615280  1.0  -0.3909
  N  N537  1  0.569070  0.679130  0.449210  1.0  -0.4031
  N  N538  1  0.613970  0.555740  0.476300  1.0  -0.3755
  N  N539  1  0.645370  0.636510  0.489020  1.0  0.1168
  N  N540  1  0.859320  0.628610  0.595180  1.0  0.1169
  N  N541  1  0.886200  0.548210  0.608870  1.0  -0.3619
  N  N542  1  0.935270  0.672820  0.634720  1.0  -0.3899
  N  N543  1  0.069070  0.179130  0.949210  1.0  -0.4031
  N  N544  1  0.113970  0.055740  0.976300  1.0  -0.3755
  N  N545  1  0.145370  0.136510  0.989020  1.0  0.1168
  N  N546  1  0.359320  0.128610  0.095180  1.0  0.1169
  N  N547  1  0.386200  0.048210  0.108870  1.0  -0.3619
  N  N548  1  0.435270  0.172820  0.134720  1.0  -0.3897
  N  N549  1  0.930930  0.320870  0.949210  1.0  -0.4029
  N  N550  1  0.886030  0.444260  0.976300  1.0  -0.3742
  N  N551  1  0.854630  0.363490  0.989020  1.0  0.1157
  N  N552  1  0.640680  0.371390  0.095180  1.0  0.1176
  N  N553  1  0.613800  0.451790  0.108870  1.0  -0.3622
  N  N554  1  0.564730  0.327180  0.134720  1.0  -0.3919
  N  N555  1  0.430930  0.820870  0.449210  1.0  -0.4029
  N  N556  1  0.386030  0.944260  0.476300  1.0  -0.3742
  N  N557  1  0.354630  0.863490  0.489020  1.0  0.1157
  N  N558  1  0.140680  0.871390  0.595180  1.0  0.1176
  N  N559  1  0.113800  0.951790  0.608870  1.0  -0.3622
  N  N560  1  0.064730  0.827180  0.634720  1.0  -0.392
  N  N561  1  0.570870  0.319070  0.199210  1.0  -0.4042
  N  N562  1  0.694260  0.363970  0.226300  1.0  -0.3724
  N  N563  1  0.613490  0.395370  0.239020  1.0  0.1167
  N  N564  1  0.621390  0.609320  0.345180  1.0  0.1161
  N  N565  1  0.701790  0.636200  0.358870  1.0  -0.3641
  N  N566  1  0.577180  0.685270  0.384720  1.0  -0.3907
  N  N567  1  0.070870  0.819070  0.699210  1.0  -0.4043
  N  N568  1  0.194260  0.863970  0.726300  1.0  -0.3724
  N  N569  1  0.113490  0.895370  0.739020  1.0  0.1167
  N  N570  1  0.121390  0.109320  0.845180  1.0  0.1161
  N  N571  1  0.201790  0.136200  0.858870  1.0  -0.3641
  N  N572  1  0.077180  0.185270  0.884720  1.0  -0.3907
  N  N573  1  0.929130  0.680930  0.699210  1.0  -0.4016
  N  N574  1  0.805740  0.636030  0.726300  1.0  -0.372
  N  N575  1  0.886510  0.604630  0.739020  1.0  0.1164
  N  N576  1  0.878610  0.390680  0.845180  1.0  0.1155
  N  N577  1  0.798210  0.363800  0.858870  1.0  -0.3615
  N  N578  1  0.922820  0.314730  0.884720  1.0  -0.3903
  N  N579  1  0.429130  0.180930  0.199210  1.0  -0.4013
  N  N580  1  0.305740  0.136030  0.226300  1.0  -0.372
  N  N581  1  0.386510  0.104630  0.239020  1.0  0.1164
  N  N582  1  0.378610  0.890680  0.345180  1.0  0.1155
  N  N583  1  0.298210  0.863800  0.358870  1.0  -0.3615
  N  N584  1  0.422820  0.814730  0.384720  1.0  -0.3903
