# generated using pymatgen
data_ZnH21C27N7Cl
_symmetry_space_group_name_H-M   'P 1'
_cell_length_a   28.47000000
_cell_length_b   27.78400000
_cell_length_c   9.25500000
_cell_angle_alpha   90.00000000
_cell_angle_beta   90.00000000
_cell_angle_gamma   90.00000000
_symmetry_Int_Tables_number   1
_chemical_formula_structural   ZnH21C27N7Cl
_chemical_formula_sum   'Zn8 H168 C216 N56 Cl8'
_cell_volume   7320.80199240
_cell_formula_units_Z   8
loop_
 _symmetry_equiv_pos_site_id
 _symmetry_equiv_pos_as_xyz
  1  'x, y, z'
loop_
 _atom_site_type_symbol
 _atom_site_label
 _atom_site_symmetry_multiplicity
 _atom_site_fract_x
 _atom_site_fract_y
 _atom_site_fract_z
 _atom_site_occupancy
 _atom_site_charge
  Zn  Zn1  1  0.364970  0.492060  0.081320  1.0  0.7337
  Zn  Zn2  1  0.135030  0.992060  0.418680  1.0  0.7349
  Zn  Zn3  1  0.864970  0.492060  0.918680  1.0  0.7347
  Zn  Zn4  1  0.635030  0.992060  0.581320  1.0  0.7342
  Zn  Zn5  1  0.135030  0.507940  0.081320  1.0  0.7342
  Zn  Zn6  1  0.364970  0.007940  0.418680  1.0  0.7346
  Zn  Zn7  1  0.635030  0.507940  0.918680  1.0  0.7349
  Zn  Zn8  1  0.864970  0.007940  0.581320  1.0  0.7336
  H  H9  1  0.458700  0.528100  0.227900  1.0  0.0876
  H  H10  1  0.412900  0.560000  0.844000  1.0  0.0835
  H  H11  1  0.481600  0.609000  0.889900  1.0  0.1039
  H  H12  1  0.548100  0.534500  0.248200  1.0  0.1006
  H  H13  1  0.606800  0.568800  0.381500  1.0  0.0845
  H  H14  1  0.571200  0.698000  0.229200  1.0  0.0833
  H  H15  1  0.510600  0.663700  0.102100  1.0  0.1133
  H  H16  1  0.777100  0.547600  0.804600  1.0  0.0807
  H  H17  1  0.882200  0.501600  0.572200  1.0  0.091
  H  H18  1  0.827800  0.541700  0.411000  1.0  0.1032
  H  H19  1  0.735100  0.614200  0.731800  1.0  0.113
  H  H20  1  0.670500  0.656200  0.653300  1.0  0.078
  H  H21  1  0.685100  0.601100  0.261600  1.0  0.0845
  H  H22  1  0.748500  0.556800  0.339200  1.0  0.0957
  H  H23  1  0.655200  0.885000  0.497500  1.0  0.0929
  H  H24  1  0.562700  0.930500  0.777000  1.0  0.093
  H  H25  1  0.554300  0.843700  0.760500  1.0  0.1115
  H  H26  1  0.548500  0.776900  0.603600  1.0  0.1032
  H  H27  1  0.557600  0.700000  0.515400  1.0  0.0962
  H  H28  1  0.691300  0.728700  0.417600  1.0  0.1164
  H  H29  1  0.682900  0.805000  0.509600  1.0  0.107
  H  H30  1  0.041300  0.028100  0.272100  1.0  0.0876
  H  H31  1  0.087100  0.060000  0.656000  1.0  0.082
  H  H32  1  0.018400  0.109000  0.610100  1.0  0.1034
  H  H33  1  0.951900  0.034500  0.251800  1.0  0.101
  H  H34  1  0.893200  0.068800  0.118500  1.0  0.0844
  H  H35  1  0.928800  0.198000  0.270800  1.0  0.0832
  H  H36  1  0.989400  0.163700  0.397900  1.0  0.113
  H  H37  1  0.722900  0.047600  0.695400  1.0  0.0794
  H  H38  1  0.617800  0.001600  0.927800  1.0  0.09
  H  H39  1  0.672200  0.041700  0.089000  1.0  0.1029
  H  H40  1  0.764900  0.114200  0.768200  1.0  0.1127
  H  H41  1  0.829500  0.156200  0.846700  1.0  0.0775
  H  H42  1  0.814900  0.101100  0.238400  1.0  0.085
  H  H43  1  0.751500  0.056800  0.160800  1.0  0.096
  H  H44  1  0.844800  0.385000  0.002500  1.0  0.0946
  H  H45  1  0.937300  0.430500  0.723000  1.0  0.0931
  H  H46  1  0.945700  0.343700  0.739500  1.0  0.111
  H  H47  1  0.951500  0.276900  0.896400  1.0  0.1047
  H  H48  1  0.942400  0.200000  0.984600  1.0  0.0965
  H  H49  1  0.808700  0.228700  0.082400  1.0  0.1171
  H  H50  1  0.817100  0.305000  0.990400  1.0  0.1066
  H  H51  1  0.958700  0.528100  0.772100  1.0  0.0874
  H  H52  1  0.912900  0.560000  0.156000  1.0  0.0844
  H  H53  1  0.981600  0.609000  0.110100  1.0  0.1038
  H  H54  1  0.048100  0.534500  0.751800  1.0  0.1008
  H  H55  1  0.106800  0.568800  0.618500  1.0  0.0845
  H  H56  1  0.071200  0.698000  0.770800  1.0  0.0834
  H  H57  1  0.010600  0.663700  0.897900  1.0  0.1131
  H  H58  1  0.277100  0.547600  0.195400  1.0  0.08
  H  H59  1  0.382200  0.501600  0.427800  1.0  0.0906
  H  H60  1  0.327800  0.541700  0.589000  1.0  0.1029
  H  H61  1  0.235100  0.614200  0.268200  1.0  0.113
  H  H62  1  0.170500  0.656200  0.346700  1.0  0.0781
  H  H63  1  0.185100  0.601100  0.738400  1.0  0.0837
  H  H64  1  0.248500  0.556800  0.660800  1.0  0.0963
  H  H65  1  0.155200  0.885000  0.502500  1.0  0.0924
  H  H66  1  0.062700  0.930500  0.223000  1.0  0.093
  H  H67  1  0.054300  0.843700  0.239500  1.0  0.1112
  H  H68  1  0.048500  0.776900  0.396400  1.0  0.1034
  H  H69  1  0.057600  0.700000  0.484600  1.0  0.0961
  H  H70  1  0.191300  0.728700  0.582400  1.0  0.1161
  H  H71  1  0.182900  0.805000  0.490400  1.0  0.1069
  H  H72  1  0.541300  0.028100  0.727900  1.0  0.0877
  H  H73  1  0.587100  0.060000  0.344000  1.0  0.0823
  H  H74  1  0.518400  0.109000  0.389900  1.0  0.1038
  H  H75  1  0.451900  0.034500  0.748200  1.0  0.1007
  H  H76  1  0.393200  0.068800  0.881500  1.0  0.0846
  H  H77  1  0.428800  0.198000  0.729200  1.0  0.0832
  H  H78  1  0.489400  0.163700  0.602100  1.0  0.113
  H  H79  1  0.222900  0.047600  0.304600  1.0  0.0801
  H  H80  1  0.117800  0.001600  0.072200  1.0  0.0902
  H  H81  1  0.172200  0.041700  0.911000  1.0  0.103
  H  H82  1  0.264900  0.114200  0.231800  1.0  0.1132
  H  H83  1  0.329500  0.156200  0.153300  1.0  0.0779
  H  H84  1  0.314900  0.101100  0.761600  1.0  0.0844
  H  H85  1  0.251500  0.056800  0.839200  1.0  0.0947
  H  H86  1  0.344800  0.385000  0.997500  1.0  0.0949
  H  H87  1  0.437300  0.430500  0.277000  1.0  0.0925
  H  H88  1  0.445700  0.343700  0.260500  1.0  0.1111
  H  H89  1  0.451500  0.276900  0.103600  1.0  0.1037
  H  H90  1  0.442400  0.200000  0.015400  1.0  0.0965
  H  H91  1  0.308700  0.228700  0.917600  1.0  0.1172
  H  H92  1  0.317100  0.305000  0.009600  1.0  0.1067
  H  H93  1  0.041300  0.471900  0.227900  1.0  0.0876
  H  H94  1  0.087100  0.440000  0.844000  1.0  0.0838
  H  H95  1  0.018400  0.391000  0.889900  1.0  0.1038
  H  H96  1  0.951900  0.465500  0.248200  1.0  0.1
  H  H97  1  0.893200  0.431200  0.381500  1.0  0.0843
  H  H98  1  0.928800  0.302000  0.229200  1.0  0.0831
  H  H99  1  0.989400  0.336300  0.102100  1.0  0.1115
  H  H100  1  0.722900  0.452400  0.804600  1.0  0.0805
  H  H101  1  0.617800  0.498400  0.572200  1.0  0.0895
  H  H102  1  0.672200  0.458300  0.411000  1.0  0.103
  H  H103  1  0.764900  0.385800  0.731800  1.0  0.1132
  H  H104  1  0.829500  0.343800  0.653300  1.0  0.0783
  H  H105  1  0.814900  0.398900  0.261600  1.0  0.085
  H  H106  1  0.751500  0.443200  0.339200  1.0  0.0948
  H  H107  1  0.844800  0.115000  0.497500  1.0  0.0945
  H  H108  1  0.937300  0.069500  0.777000  1.0  0.0926
  H  H109  1  0.945700  0.156300  0.760500  1.0  0.1111
  H  H110  1  0.951500  0.223100  0.603600  1.0  0.1036
  H  H111  1  0.942400  0.300000  0.515400  1.0  0.0962
  H  H112  1  0.808700  0.271300  0.417600  1.0  0.1152
  H  H113  1  0.817100  0.195000  0.509600  1.0  0.1064
  H  H114  1  0.458700  0.971900  0.272100  1.0  0.0871
  H  H115  1  0.412900  0.940000  0.656000  1.0  0.0845
  H  H116  1  0.481600  0.891000  0.610100  1.0  0.1045
  H  H117  1  0.548100  0.965500  0.251800  1.0  0.1
  H  H118  1  0.606800  0.931200  0.118500  1.0  0.0846
  H  H119  1  0.571200  0.802000  0.270800  1.0  0.0832
  H  H120  1  0.510600  0.836300  0.397900  1.0  0.1109
  H  H121  1  0.777100  0.952400  0.695400  1.0  0.0799
  H  H122  1  0.882200  0.998400  0.927800  1.0  0.0902
  H  H123  1  0.827800  0.958300  0.089000  1.0  0.1025
  H  H124  1  0.735100  0.885800  0.768200  1.0  0.1128
  H  H125  1  0.670500  0.843800  0.846700  1.0  0.0777
  H  H126  1  0.685100  0.898900  0.238400  1.0  0.0838
  H  H127  1  0.748500  0.943200  0.160800  1.0  0.0961
  H  H128  1  0.655200  0.615000  0.002500  1.0  0.0928
  H  H129  1  0.562700  0.569500  0.723000  1.0  0.0927
  H  H130  1  0.554300  0.656300  0.739500  1.0  0.1116
  H  H131  1  0.548500  0.723100  0.896400  1.0  0.1028
  H  H132  1  0.557600  0.800000  0.984600  1.0  0.0963
  H  H133  1  0.691300  0.771300  0.082400  1.0  0.1149
  H  H134  1  0.682900  0.695000  0.990400  1.0  0.1068
  H  H135  1  0.541300  0.471900  0.772100  1.0  0.0874
  H  H136  1  0.587100  0.440000  0.156000  1.0  0.0839
  H  H137  1  0.518400  0.391000  0.110100  1.0  0.1041
  H  H138  1  0.451900  0.465500  0.751800  1.0  0.1003
  H  H139  1  0.393200  0.431200  0.618500  1.0  0.0847
  H  H140  1  0.428800  0.302000  0.770800  1.0  0.0831
  H  H141  1  0.489400  0.336300  0.897900  1.0  0.1119
  H  H142  1  0.222900  0.452400  0.195400  1.0  0.0796
  H  H143  1  0.117800  0.498400  0.427800  1.0  0.0896
  H  H144  1  0.172200  0.458300  0.589000  1.0  0.103
  H  H145  1  0.264900  0.385800  0.268200  1.0  0.1126
  H  H146  1  0.329500  0.343800  0.346700  1.0  0.0773
  H  H147  1  0.314900  0.398900  0.738400  1.0  0.085
  H  H148  1  0.251500  0.443200  0.660800  1.0  0.0959
  H  H149  1  0.344800  0.115000  0.502500  1.0  0.0948
  H  H150  1  0.437300  0.069500  0.223000  1.0  0.0926
  H  H151  1  0.445700  0.156300  0.239500  1.0  0.1111
  H  H152  1  0.451500  0.223100  0.396400  1.0  0.104
  H  H153  1  0.442400  0.300000  0.484600  1.0  0.0963
  H  H154  1  0.308700  0.271300  0.582400  1.0  0.1148
  H  H155  1  0.317100  0.195000  0.490400  1.0  0.1063
  H  H156  1  0.958700  0.971900  0.727900  1.0  0.0875
  H  H157  1  0.912900  0.940000  0.344000  1.0  0.0838
  H  H158  1  0.981600  0.891000  0.389900  1.0  0.104
  H  H159  1  0.048100  0.965500  0.748200  1.0  0.0999
  H  H160  1  0.106800  0.931200  0.881500  1.0  0.0842
  H  H161  1  0.071200  0.802000  0.729200  1.0  0.0832
  H  H162  1  0.010600  0.836300  0.602100  1.0  0.1108
  H  H163  1  0.277100  0.952400  0.304600  1.0  0.0807
  H  H164  1  0.382200  0.998400  0.072200  1.0  0.0902
  H  H165  1  0.327800  0.958300  0.911000  1.0  0.1029
  H  H166  1  0.235100  0.885800  0.231800  1.0  0.1128
  H  H167  1  0.170500  0.843800  0.153300  1.0  0.0782
  H  H168  1  0.185100  0.898900  0.761600  1.0  0.0846
  H  H169  1  0.248500  0.943200  0.839200  1.0  0.0954
  H  H170  1  0.155200  0.615000  0.997500  1.0  0.0927
  H  H171  1  0.062700  0.569500  0.277000  1.0  0.0934
  H  H172  1  0.054300  0.656300  0.260500  1.0  0.1116
  H  H173  1  0.048500  0.723100  0.103600  1.0  0.1039
  H  H174  1  0.057600  0.800000  0.015400  1.0  0.0964
  H  H175  1  0.191300  0.771300  0.917600  1.0  0.1153
  H  H176  1  0.182900  0.695000  0.009600  1.0  0.1069
  C  C177  1  0.455630  0.542150  0.137200  1.0  0.146
  C  C178  1  0.430670  0.559700  0.928300  1.0  -0.0191
  C  C179  1  0.468480  0.586500  0.952200  1.0  -0.1539
  C  C180  1  0.523360  0.595720  0.163800  1.0  0.1152
  C  C181  1  0.552380  0.567720  0.246000  1.0  -0.1991
  C  C182  1  0.587570  0.588260  0.324900  1.0  -0.1488
  C  C183  1  0.595180  0.637280  0.322200  1.0  0.1736
  C  C184  1  0.566160  0.665020  0.235300  1.0  -0.1422
  C  C185  1  0.530220  0.644520  0.158100  1.0  -0.1884
  C  C186  1  0.796620  0.540900  0.726500  1.0  0.1239
  C  C187  1  0.853900  0.515800  0.599100  1.0  -0.0103
  C  C188  1  0.824280  0.537900  0.510300  1.0  -0.107
  C  C189  1  0.748300  0.581090  0.541400  1.0  0.1069
  C  C190  1  0.724860  0.611140  0.636800  1.0  -0.182
  C  C191  1  0.686420  0.636230  0.589300  1.0  -0.1522
  C  C192  1  0.670930  0.632440  0.448500  1.0  0.1713
  C  C193  1  0.694760  0.603450  0.357300  1.0  -0.1369
  C  C194  1  0.733070  0.577200  0.403200  1.0  -0.1505
  C  C195  1  0.631040  0.885730  0.565300  1.0  0.1398
  C  C196  1  0.580300  0.910250  0.718000  1.0  0.0056
  C  C197  1  0.575690  0.862600  0.709900  1.0  -0.1607
  C  C198  1  0.614830  0.798520  0.564500  1.0  0.1327
  C  C199  1  0.577330  0.767140  0.566500  1.0  -0.1658
  C  C200  1  0.582760  0.721310  0.513400  1.0  -0.0894
  C  C201  1  0.625210  0.706790  0.457500  1.0  0.134
  C  C202  1  0.662610  0.738370  0.455700  1.0  -0.1033
  C  C203  1  0.657560  0.783920  0.509800  1.0  -0.1757
  C  C204  1  0.044370  0.042150  0.362800  1.0  0.146
  C  C205  1  0.069330  0.059700  0.571700  1.0  -0.017
  C  C206  1  0.031520  0.086500  0.547800  1.0  -0.1525
  C  C207  1  0.976640  0.095720  0.336200  1.0  0.1134
  C  C208  1  0.947620  0.067720  0.254000  1.0  -0.2042
  C  C209  1  0.912430  0.088260  0.175100  1.0  -0.1507
  C  C210  1  0.904820  0.137280  0.177800  1.0  0.1735
  C  C211  1  0.933840  0.165020  0.264700  1.0  -0.1465
  C  C212  1  0.969780  0.144520  0.341900  1.0  -0.1846
  C  C213  1  0.703380  0.040900  0.773500  1.0  0.1257
  C  C214  1  0.646100  0.015800  0.900900  1.0  -0.0118
  C  C215  1  0.675720  0.037900  0.989700  1.0  -0.1034
  C  C216  1  0.751700  0.081090  0.958600  1.0  0.1055
  C  C217  1  0.775140  0.111140  0.863200  1.0  -0.1832
  C  C218  1  0.813580  0.136230  0.910700  1.0  -0.1555
  C  C219  1  0.829070  0.132440  0.051500  1.0  0.1705
  C  C220  1  0.805240  0.103450  0.142700  1.0  -0.1361
  C  C221  1  0.766930  0.077200  0.096800  1.0  -0.1527
  C  C222  1  0.868960  0.385730  0.934700  1.0  0.1399
  C  C223  1  0.919700  0.410250  0.782000  1.0  0.0056
  C  C224  1  0.924310  0.362600  0.790100  1.0  -0.1559
  C  C225  1  0.885170  0.298520  0.935500  1.0  0.1326
  C  C226  1  0.922670  0.267140  0.933500  1.0  -0.1669
  C  C227  1  0.917240  0.221310  0.986600  1.0  -0.0886
  C  C228  1  0.874790  0.206790  0.042500  1.0  0.1328
  C  C229  1  0.837390  0.238370  0.044300  1.0  -0.1036
  C  C230  1  0.842440  0.283920  0.990200  1.0  -0.1719
  C  C231  1  0.955630  0.542150  0.862800  1.0  0.1459
  C  C232  1  0.930670  0.559700  0.071700  1.0  -0.0188
  C  C233  1  0.968480  0.586500  0.047800  1.0  -0.1538
  C  C234  1  0.023360  0.595720  0.836200  1.0  0.1146
  C  C235  1  0.052380  0.567720  0.754000  1.0  -0.201
  C  C236  1  0.087570  0.588260  0.675100  1.0  -0.1479
  C  C237  1  0.095180  0.637280  0.677800  1.0  0.1736
  C  C238  1  0.066160  0.665020  0.764700  1.0  -0.1426
  C  C239  1  0.030220  0.644520  0.841900  1.0  -0.1878
  C  C240  1  0.296620  0.540900  0.273500  1.0  0.126
  C  C241  1  0.353900  0.515800  0.400900  1.0  -0.0107
  C  C242  1  0.324280  0.537900  0.489700  1.0  -0.105
  C  C243  1  0.248300  0.581090  0.458600  1.0  0.1069
  C  C244  1  0.224860  0.611140  0.363200  1.0  -0.1846
  C  C245  1  0.186420  0.636230  0.410700  1.0  -0.1605
  C  C246  1  0.170930  0.632440  0.551500  1.0  0.1715
  C  C247  1  0.194760  0.603450  0.642700  1.0  -0.1357
  C  C248  1  0.233070  0.577200  0.596800  1.0  -0.1503
  C  C249  1  0.131040  0.885730  0.434700  1.0  0.1399
  C  C250  1  0.080300  0.910250  0.282000  1.0  0.0053
  C  C251  1  0.075690  0.862600  0.290100  1.0  -0.1583
  C  C252  1  0.114830  0.798520  0.435500  1.0  0.1333
  C  C253  1  0.077330  0.767140  0.433500  1.0  -0.1664
  C  C254  1  0.082760  0.721310  0.486600  1.0  -0.0894
  C  C255  1  0.125210  0.706790  0.542500  1.0  0.1341
  C  C256  1  0.162610  0.738370  0.544300  1.0  -0.1019
  C  C257  1  0.157560  0.783920  0.490200  1.0  -0.1766
  C  C258  1  0.544370  0.042150  0.637200  1.0  0.1462
  C  C259  1  0.569330  0.059700  0.428300  1.0  -0.0176
  C  C260  1  0.531520  0.086500  0.452200  1.0  -0.1532
  C  C261  1  0.476640  0.095720  0.663800  1.0  0.1135
  C  C262  1  0.447620  0.067720  0.746000  1.0  -0.1987
  C  C263  1  0.412430  0.088260  0.824900  1.0  -0.1509
  C  C264  1  0.404820  0.137280  0.822200  1.0  0.1735
  C  C265  1  0.433840  0.165020  0.735300  1.0  -0.1467
  C  C266  1  0.469780  0.144520  0.658100  1.0  -0.1847
  C  C267  1  0.203380  0.040900  0.226500  1.0  0.1244
  C  C268  1  0.146100  0.015800  0.099100  1.0  -0.0116
  C  C269  1  0.175720  0.037900  0.010300  1.0  -0.1042
  C  C270  1  0.251700  0.081090  0.041400  1.0  0.1057
  C  C271  1  0.275140  0.111140  0.136800  1.0  -0.1819
  C  C272  1  0.313580  0.136230  0.089300  1.0  -0.1499
  C  C273  1  0.329070  0.132440  0.948500  1.0  0.1706
  C  C274  1  0.305240  0.103450  0.857300  1.0  -0.1365
  C  C275  1  0.266930  0.077200  0.903200  1.0  -0.1487
  C  C276  1  0.368960  0.385730  0.065300  1.0  0.1402
  C  C277  1  0.419700  0.410250  0.218000  1.0  0.0064
  C  C278  1  0.424310  0.362600  0.209900  1.0  -0.1562
  C  C279  1  0.385170  0.298520  0.064500  1.0  0.1323
  C  C280  1  0.422670  0.267140  0.066500  1.0  -0.1682
  C  C281  1  0.417240  0.221310  0.013400  1.0  -0.0883
  C  C282  1  0.374790  0.206790  0.957500  1.0  0.1328
  C  C283  1  0.337390  0.238370  0.955700  1.0  -0.1037
  C  C284  1  0.342440  0.283920  0.009800  1.0  -0.1809
  C  C285  1  0.044370  0.457850  0.137200  1.0  0.1465
  C  C286  1  0.069330  0.440300  0.928300  1.0  -0.0168
  C  C287  1  0.031520  0.413500  0.952200  1.0  -0.1544
  C  C288  1  0.976640  0.404280  0.163800  1.0  0.1135
  C  C289  1  0.947620  0.432280  0.246000  1.0  -0.1997
  C  C290  1  0.912430  0.411740  0.324900  1.0  -0.145
  C  C291  1  0.904820  0.362720  0.322200  1.0  0.1733
  C  C292  1  0.933840  0.334980  0.235300  1.0  -0.1462
  C  C293  1  0.969780  0.355480  0.158100  1.0  -0.1844
  C  C294  1  0.703380  0.459100  0.726500  1.0  0.1245
  C  C295  1  0.646100  0.484200  0.599100  1.0  -0.0116
  C  C296  1  0.675720  0.462100  0.510300  1.0  -0.1033
  C  C297  1  0.751700  0.418910  0.541400  1.0  0.1058
  C  C298  1  0.775140  0.388860  0.636800  1.0  -0.1822
  C  C299  1  0.813580  0.363770  0.589300  1.0  -0.149
  C  C300  1  0.829070  0.367560  0.448500  1.0  0.1708
  C  C301  1  0.805240  0.396550  0.357300  1.0  -0.1365
  C  C302  1  0.766930  0.422800  0.403200  1.0  -0.1485
  C  C303  1  0.868960  0.114270  0.565300  1.0  0.1404
  C  C304  1  0.919700  0.089750  0.718000  1.0  0.0061
  C  C305  1  0.924310  0.137400  0.709900  1.0  -0.1561
  C  C306  1  0.885170  0.201480  0.564500  1.0  0.1325
  C  C307  1  0.922670  0.232860  0.566500  1.0  -0.1673
  C  C308  1  0.917240  0.278690  0.513400  1.0  -0.0884
  C  C309  1  0.874790  0.293210  0.457500  1.0  0.1328
  C  C310  1  0.837390  0.261630  0.455700  1.0  -0.1044
  C  C311  1  0.842440  0.216080  0.509800  1.0  -0.1815
  C  C312  1  0.455630  0.957850  0.362800  1.0  0.1463
  C  C313  1  0.430670  0.940300  0.571700  1.0  -0.0172
  C  C314  1  0.468480  0.913500  0.547800  1.0  -0.1544
  C  C315  1  0.523360  0.904280  0.336200  1.0  0.1145
  C  C316  1  0.552380  0.932280  0.254000  1.0  -0.2001
  C  C317  1  0.587570  0.911740  0.175100  1.0  -0.1457
  C  C318  1  0.595180  0.862720  0.177800  1.0  0.1736
  C  C319  1  0.566160  0.834980  0.264700  1.0  -0.1432
  C  C320  1  0.530220  0.855480  0.341900  1.0  -0.1894
  C  C321  1  0.796620  0.959100  0.773500  1.0  0.1265
  C  C322  1  0.853900  0.984200  0.900900  1.0  -0.0113
  C  C323  1  0.824280  0.962100  0.989700  1.0  -0.1048
  C  C324  1  0.748300  0.918910  0.958600  1.0  0.1072
  C  C325  1  0.724860  0.888860  0.863200  1.0  -0.1836
  C  C326  1  0.686420  0.863770  0.910700  1.0  -0.1615
  C  C327  1  0.670930  0.867560  0.051500  1.0  0.1715
  C  C328  1  0.694760  0.896550  0.142700  1.0  -0.1358
  C  C329  1  0.733070  0.922800  0.096800  1.0  -0.15
  C  C330  1  0.631040  0.614270  0.934700  1.0  0.1403
  C  C331  1  0.580300  0.589750  0.782000  1.0  0.0045
  C  C332  1  0.575690  0.637400  0.790100  1.0  -0.1582
  C  C333  1  0.614830  0.701480  0.935500  1.0  0.1336
  C  C334  1  0.577330  0.732860  0.933500  1.0  -0.1656
  C  C335  1  0.582760  0.778690  0.986600  1.0  -0.0896
  C  C336  1  0.625210  0.793210  0.042500  1.0  0.1339
  C  C337  1  0.662610  0.761630  0.044300  1.0  -0.1022
  C  C338  1  0.657560  0.716080  0.990200  1.0  -0.1771
  C  C339  1  0.544370  0.457850  0.862800  1.0  0.1464
  C  C340  1  0.569330  0.440300  0.071700  1.0  -0.0164
  C  C341  1  0.531520  0.413500  0.047800  1.0  -0.1547
  C  C342  1  0.476640  0.404280  0.836200  1.0  0.1136
  C  C343  1  0.447620  0.432280  0.754000  1.0  -0.2039
  C  C344  1  0.412430  0.411740  0.675100  1.0  -0.1449
  C  C345  1  0.404820  0.362720  0.677800  1.0  0.1734
  C  C346  1  0.433840  0.334980  0.764700  1.0  -0.1459
  C  C347  1  0.469780  0.355480  0.841900  1.0  -0.1847
  C  C348  1  0.203380  0.459100  0.273500  1.0  0.1264
  C  C349  1  0.146100  0.484200  0.400900  1.0  -0.0118
  C  C350  1  0.175720  0.462100  0.489700  1.0  -0.1029
  C  C351  1  0.251700  0.418910  0.458600  1.0  0.1058
  C  C352  1  0.275140  0.388860  0.363200  1.0  -0.1828
  C  C353  1  0.313580  0.363770  0.410700  1.0  -0.1592
  C  C354  1  0.329070  0.367560  0.551500  1.0  0.1708
  C  C355  1  0.305240  0.396550  0.642700  1.0  -0.1361
  C  C356  1  0.266930  0.422800  0.596800  1.0  -0.1515
  C  C357  1  0.368960  0.114270  0.434700  1.0  0.1409
  C  C358  1  0.419700  0.089750  0.282000  1.0  0.005
  C  C359  1  0.424310  0.137400  0.290100  1.0  -0.1565
  C  C360  1  0.385170  0.201480  0.435500  1.0  0.1329
  C  C361  1  0.422670  0.232860  0.433500  1.0  -0.1675
  C  C362  1  0.417240  0.278690  0.486600  1.0  -0.0885
  C  C363  1  0.374790  0.293210  0.542500  1.0  0.1329
  C  C364  1  0.337390  0.261630  0.544300  1.0  -0.1039
  C  C365  1  0.342440  0.216080  0.490200  1.0  -0.1724
  C  C366  1  0.955630  0.957850  0.637200  1.0  0.1462
  C  C367  1  0.930670  0.940300  0.428300  1.0  -0.0167
  C  C368  1  0.968480  0.913500  0.452200  1.0  -0.1553
  C  C369  1  0.023360  0.904280  0.663800  1.0  0.115
  C  C370  1  0.052380  0.932280  0.746000  1.0  -0.2001
  C  C371  1  0.087570  0.911740  0.824900  1.0  -0.1456
  C  C372  1  0.095180  0.862720  0.822200  1.0  0.1736
  C  C373  1  0.066160  0.834980  0.735300  1.0  -0.1428
  C  C374  1  0.030220  0.855480  0.658100  1.0  -0.1899
  C  C375  1  0.296620  0.959100  0.226500  1.0  0.1239
  C  C376  1  0.353900  0.984200  0.099100  1.0  -0.0109
  C  C377  1  0.324280  0.962100  0.010300  1.0  -0.1059
  C  C378  1  0.248300  0.918910  0.041400  1.0  0.1068
  C  C379  1  0.224860  0.888860  0.136800  1.0  -0.1824
  C  C380  1  0.186420  0.863770  0.089300  1.0  -0.1575
  C  C381  1  0.170930  0.867560  0.948500  1.0  0.1714
  C  C382  1  0.194760  0.896550  0.857300  1.0  -0.1372
  C  C383  1  0.233070  0.922800  0.903200  1.0  -0.1506
  C  C384  1  0.131040  0.614270  0.065300  1.0  0.1396
  C  C385  1  0.080300  0.589750  0.218000  1.0  0.0054
  C  C386  1  0.075690  0.637400  0.209900  1.0  -0.1606
  C  C387  1  0.114830  0.701480  0.064500  1.0  0.1332
  C  C388  1  0.077330  0.732860  0.066500  1.0  -0.1658
  C  C389  1  0.082760  0.778690  0.013400  1.0  -0.0896
  C  C390  1  0.125210  0.793210  0.957500  1.0  0.1338
  C  C391  1  0.162610  0.761630  0.955700  1.0  -0.1029
  C  C392  1  0.157560  0.716080  0.009800  1.0  -0.1762
  N  N393  1  0.421900  0.531830  0.045800  1.0  -0.3853
  N  N394  1  0.484200  0.574350  0.085700  1.0  0.0391
  N  N395  1  0.615170  0.924630  0.625300  1.0  -0.3703
  N  N396  1  0.608460  0.846960  0.612800  1.0  0.0333
  N  N397  1  0.787830  0.554140  0.591800  1.0  0.0297
  N  N398  1  0.836190  0.517150  0.736100  1.0  -0.3755
  N  N399  1  0.630940  0.659280  0.402900  1.0  -0.1736
  N  N400  1  0.078100  0.031830  0.454200  1.0  -0.3841
  N  N401  1  0.015800  0.074350  0.414300  1.0  0.0406
  N  N402  1  0.884830  0.424630  0.874700  1.0  -0.3699
  N  N403  1  0.891540  0.346960  0.887200  1.0  0.0334
  N  N404  1  0.712170  0.054140  0.908200  1.0  0.0302
  N  N405  1  0.663810  0.017150  0.763900  1.0  -0.3762
  N  N406  1  0.869060  0.159280  0.097100  1.0  -0.1749
  N  N407  1  0.921900  0.531830  0.954200  1.0  -0.3852
  N  N408  1  0.984200  0.574350  0.914300  1.0  0.0392
  N  N409  1  0.115170  0.924630  0.374700  1.0  -0.37
  N  N410  1  0.108460  0.846960  0.387200  1.0  0.0334
  N  N411  1  0.287830  0.554140  0.408200  1.0  0.0298
  N  N412  1  0.336190  0.517150  0.263900  1.0  -0.3764
  N  N413  1  0.130940  0.659280  0.597100  1.0  -0.1738
  N  N414  1  0.578100  0.031830  0.545800  1.0  -0.384
  N  N415  1  0.515800  0.074350  0.585700  1.0  0.0402
  N  N416  1  0.384830  0.424630  0.125300  1.0  -0.3702
  N  N417  1  0.391540  0.346960  0.112800  1.0  0.0334
  N  N418  1  0.212170  0.054140  0.091800  1.0  0.0303
  N  N419  1  0.163810  0.017150  0.236100  1.0  -0.3759
  N  N420  1  0.369060  0.159280  0.902900  1.0  -0.1748
  N  N421  1  0.078100  0.468170  0.045800  1.0  -0.3839
  N  N422  1  0.015800  0.425650  0.085700  1.0  0.04
  N  N423  1  0.884830  0.075370  0.625300  1.0  -0.3703
  N  N424  1  0.891540  0.153040  0.612800  1.0  0.0338
  N  N425  1  0.712170  0.445860  0.591800  1.0  0.0302
  N  N426  1  0.663810  0.482850  0.736100  1.0  -0.3771
  N  N427  1  0.869060  0.340720  0.402900  1.0  -0.1748
  N  N428  1  0.421900  0.968170  0.454200  1.0  -0.3833
  N  N429  1  0.484200  0.925650  0.414300  1.0  0.0394
  N  N430  1  0.615170  0.575370  0.874700  1.0  -0.3689
  N  N431  1  0.608460  0.653040  0.887200  1.0  0.0338
  N  N432  1  0.787830  0.945860  0.908200  1.0  0.029
  N  N433  1  0.836190  0.982850  0.763900  1.0  -0.376
  N  N434  1  0.630940  0.840720  0.097100  1.0  -0.1739
  N  N435  1  0.578100  0.468170  0.954200  1.0  -0.3836
  N  N436  1  0.515800  0.425650  0.914300  1.0  0.0403
  N  N437  1  0.384830  0.075370  0.374700  1.0  -0.3699
  N  N438  1  0.391540  0.153040  0.387200  1.0  0.0339
  N  N439  1  0.212170  0.445860  0.408200  1.0  0.03
  N  N440  1  0.163810  0.482850  0.263900  1.0  -0.3761
  N  N441  1  0.369060  0.340720  0.597100  1.0  -0.175
  N  N442  1  0.921900  0.968170  0.545800  1.0  -0.3838
  N  N443  1  0.984200  0.925650  0.585700  1.0  0.0394
  N  N444  1  0.115170  0.575370  0.125300  1.0  -0.3692
  N  N445  1  0.108460  0.653040  0.112800  1.0  0.0337
  N  N446  1  0.287830  0.945860  0.091800  1.0  0.0291
  N  N447  1  0.336190  0.982850  0.236100  1.0  -0.376
  N  N448  1  0.130940  0.840720  0.902900  1.0  -0.1736
  Cl  Cl449  1  0.316770  0.499240  0.892900  1.0  -0.516
  Cl  Cl450  1  0.183230  0.999240  0.607100  1.0  -0.516
  Cl  Cl451  1  0.816770  0.499240  0.107100  1.0  -0.516
  Cl  Cl452  1  0.683230  0.999240  0.392900  1.0  -0.5162
  Cl  Cl453  1  0.183230  0.500760  0.892900  1.0  -0.5156
  Cl  Cl454  1  0.316770  0.000760  0.607100  1.0  -0.5154
  Cl  Cl455  1  0.683230  0.500760  0.107100  1.0  -0.5154
  Cl  Cl456  1  0.816770  0.000760  0.392900  1.0  -0.5156
