# generated using pymatgen
data_CuH8(C2N3)4
_symmetry_space_group_name_H-M   'P 1'
_cell_length_a   10.64660000
_cell_length_b   12.05020000
_cell_length_c   12.79260000
_cell_angle_alpha   90.00000000
_cell_angle_beta   92.32000000
_cell_angle_gamma   90.00000000
_symmetry_Int_Tables_number   1
_chemical_formula_structural   CuH8(C2N3)4
_chemical_formula_sum   'Cu4 H32 C32 N48'
_cell_volume   1639.86420884
_cell_formula_units_Z   4
loop_
 _symmetry_equiv_pos_site_id
 _symmetry_equiv_pos_as_xyz
  1  'x, y, z'
loop_
 _atom_site_type_symbol
 _atom_site_label
 _atom_site_symmetry_multiplicity
 _atom_site_fract_x
 _atom_site_fract_y
 _atom_site_fract_z
 _atom_site_occupancy
 _atom_site_charge
  Cu  Cu1  1  0.122990  0.629730  0.495200  1.0  0.6908
  Cu  Cu2  1  0.377010  0.129730  0.004800  1.0  0.6901
  Cu  Cu3  1  0.877010  0.370270  0.504800  1.0  0.6908
  Cu  Cu4  1  0.622990  0.870270  0.995200  1.0  0.692
  H  H5  1  0.279400  0.763300  0.335100  1.0  0.0564
  H  H6  1  0.082400  0.027900  0.404000  1.0  0.0514
  H  H7  1  0.432500  0.029200  0.376000  1.0  0.0567
  H  H8  1  0.193000  0.977600  0.136700  1.0  0.0649
  H  H9  1  0.292700  0.513000  0.666667  1.0  0.0779
  H  H10  1  0.125000  0.230200  0.591900  1.0  0.057
  H  H11  1  0.475500  0.266300  0.654000  1.0  0.0444
  H  H12  1  0.204100  0.274200  0.852900  1.0  0.0682
  H  H13  1  0.220600  0.263300  0.164900  1.0  0.0559
  H  H14  1  0.417600  0.527900  0.096000  1.0  0.0514
  H  H15  1  0.067500  0.529200  0.124000  1.0  0.0573
  H  H16  1  0.307000  0.477600  0.363300  1.0  0.0645
  H  H17  1  0.207300  0.013000  0.833300  1.0  0.0778
  H  H18  1  0.375000  0.730200  0.908100  1.0  0.0572
  H  H19  1  0.024500  0.766300  0.846000  1.0  0.0442
  H  H20  1  0.295900  0.774200  0.647100  1.0  0.0684
  H  H21  1  0.720600  0.236700  0.664900  1.0  0.0557
  H  H22  1  0.917600  0.972100  0.596000  1.0  0.0507
  H  H23  1  0.567500  0.970800  0.624000  1.0  0.0574
  H  H24  1  0.807000  0.022400  0.863300  1.0  0.0651
  H  H25  1  0.707300  0.487000  0.333333  1.0  0.0777
  H  H26  1  0.875000  0.769800  0.408100  1.0  0.0577
  H  H27  1  0.524500  0.733700  0.346000  1.0  0.043
  H  H28  1  0.795900  0.725800  0.147100  1.0  0.0684
  H  H29  1  0.779400  0.736700  0.835100  1.0  0.0564
  H  H30  1  0.582400  0.472100  0.904000  1.0  0.0505
  H  H31  1  0.932500  0.470800  0.876000  1.0  0.0569
  H  H32  1  0.693000  0.522400  0.636700  1.0  0.0648
  H  H33  1  0.792700  0.987000  0.166700  1.0  0.0783
  H  H34  1  0.625000  0.269800  0.091900  1.0  0.0579
  H  H35  1  0.975500  0.233700  0.154000  1.0  0.0433
  H  H36  1  0.704100  0.225800  0.352900  1.0  0.0685
  C  C37  1  0.220500  0.810000  0.363900  1.0  0.0872
  C  C38  1  0.111800  0.955300  0.402000  1.0  0.0899
  C  C39  1  0.394700  0.030700  0.309100  1.0  0.0847
  C  C40  1  0.262100  0.001600  0.177500  1.0  0.1047
  C  C41  1  0.238700  0.461000  0.635500  1.0  0.0986
  C  C42  1  0.145600  0.305200  0.593800  1.0  0.1076
  C  C43  1  0.430000  0.255700  0.713700  1.0  0.0851
  C  C44  1  0.280500  0.260200  0.822700  1.0  0.0831
  C  C45  1  0.279500  0.310000  0.136100  1.0  0.087
  C  C46  1  0.388200  0.455300  0.098000  1.0  0.09
  C  C47  1  0.105300  0.530700  0.190900  1.0  0.0842
  C  C48  1  0.237900  0.501600  0.322500  1.0  0.1065
  C  C49  1  0.261300  0.961000  0.864500  1.0  0.0983
  C  C50  1  0.354400  0.805200  0.906200  1.0  0.1083
  C  C51  1  0.070000  0.755700  0.786300  1.0  0.0834
  C  C52  1  0.219500  0.760200  0.677300  1.0  0.0831
  C  C53  1  0.779500  0.190000  0.636100  1.0  0.0865
  C  C54  1  0.888200  0.044700  0.598000  1.0  0.0897
  C  C55  1  0.605300  0.969300  0.690900  1.0  0.0847
  C  C56  1  0.737900  0.998400  0.822500  1.0  0.1062
  C  C57  1  0.761300  0.539000  0.364500  1.0  0.0985
  C  C58  1  0.854400  0.694800  0.406200  1.0  0.1085
  C  C59  1  0.570000  0.744300  0.286300  1.0  0.0835
  C  C60  1  0.719500  0.739800  0.177300  1.0  0.0829
  C  C61  1  0.720500  0.690000  0.863900  1.0  0.0871
  C  C62  1  0.611800  0.544700  0.902000  1.0  0.0901
  C  C63  1  0.894700  0.469300  0.809100  1.0  0.085
  C  C64  1  0.762100  0.498400  0.677500  1.0  0.1043
  C  C65  1  0.738700  0.039000  0.135500  1.0  0.0992
  C  C66  1  0.645600  0.194800  0.093800  1.0  0.1086
  C  C67  1  0.930000  0.244300  0.213700  1.0  0.0851
  C  C68  1  0.780500  0.239800  0.322700  1.0  0.0832
  N  N69  1  0.138000  0.780600  0.429820  1.0  -0.2139
  N  N70  1  0.068000  0.873100  0.454500  1.0  -0.278
  N  N71  1  0.207400  0.919200  0.343460  1.0  0.0249
  N  N72  1  0.283500  0.980100  0.280050  1.0  0.0273
  N  N73  1  0.439000  0.080900  0.229010  1.0  -0.3213
  N  N74  1  0.353900  0.061400  0.145410  1.0  -0.1886
  N  N75  1  0.152000  0.481190  0.563600  1.0  -0.2214
  N  N76  1  0.091700  0.381980  0.536560  1.0  -0.2962
  N  N77  1  0.236800  0.351800  0.656790  1.0  0.0202
  N  N78  1  0.313800  0.296100  0.728260  1.0  0.031
  N  N79  1  0.468700  0.199900  0.795200  1.0  -0.3021
  N  N80  1  0.372700  0.202900  0.864750  1.0  -0.191
  N  N81  1  0.362000  0.280600  0.070180  1.0  -0.215
  N  N82  1  0.432000  0.373100  0.045500  1.0  -0.2791
  N  N83  1  0.292600  0.419200  0.156540  1.0  0.0242
  N  N84  1  0.216500  0.480100  0.219950  1.0  0.0275
  N  N85  1  0.061000  0.580900  0.270990  1.0  -0.3197
  N  N86  1  0.146100  0.561400  0.354590  1.0  -0.188
  N  N87  1  0.348000  0.981190  0.936400  1.0  -0.2184
  N  N88  1  0.408300  0.881980  0.963440  1.0  -0.2976
  N  N89  1  0.263200  0.851800  0.843210  1.0  0.019
  N  N90  1  0.186200  0.796100  0.771740  1.0  0.0309
  N  N91  1  0.031300  0.699900  0.704800  1.0  -0.2997
  N  N92  1  0.127300  0.702900  0.635250  1.0  -0.1921
  N  N93  1  0.862000  0.219400  0.570180  1.0  -0.2154
  N  N94  1  0.932000  0.126900  0.545500  1.0  -0.2793
  N  N95  1  0.792600  0.080800  0.656540  1.0  0.0245
  N  N96  1  0.716500  0.019900  0.719950  1.0  0.0273
  N  N97  1  0.561000  0.919100  0.770990  1.0  -0.3195
  N  N98  1  0.646100  0.938600  0.854590  1.0  -0.1881
  N  N99  1  0.848000  0.518810  0.436400  1.0  -0.2204
  N  N100  1  0.908300  0.618020  0.463440  1.0  -0.2977
  N  N101  1  0.763200  0.648200  0.343210  1.0  0.0187
  N  N102  1  0.686200  0.703900  0.271740  1.0  0.0313
  N  N103  1  0.531300  0.800100  0.204800  1.0  -0.2992
  N  N104  1  0.627300  0.797100  0.135250  1.0  -0.1921
  N  N105  1  0.638000  0.719400  0.929820  1.0  -0.214
  N  N106  1  0.568000  0.626900  0.954500  1.0  -0.2784
  N  N107  1  0.707400  0.580800  0.843460  1.0  0.025
  N  N108  1  0.783500  0.519900  0.780050  1.0  0.0269
  N  N109  1  0.939000  0.419100  0.729010  1.0  -0.3201
  N  N110  1  0.853900  0.438600  0.645410  1.0  -0.1886
  N  N111  1  0.652000  0.018810  0.063600  1.0  -0.2195
  N  N112  1  0.591700  0.118020  0.036560  1.0  -0.2964
  N  N113  1  0.736800  0.148200  0.156790  1.0  0.0196
  N  N114  1  0.813800  0.203900  0.228260  1.0  0.0314
  N  N115  1  0.968700  0.300100  0.295200  1.0  -0.3021
  N  N116  1  0.872700  0.297100  0.364750  1.0  -0.1909
