# generated using pymatgen
data_Cd3H32(C2N3)16
_symmetry_space_group_name_H-M   'P 1'
_cell_length_a   12.74710000
_cell_length_b   12.74710000
_cell_length_c   22.54500000
_cell_angle_alpha   90.00000000
_cell_angle_beta   90.00000000
_cell_angle_gamma   90.00000000
_symmetry_Int_Tables_number   1
_chemical_formula_structural   Cd3H32(C2N3)16
_chemical_formula_sum   'Cd6 H64 C64 N96'
_cell_volume   3663.30454935
_cell_formula_units_Z   2
loop_
 _symmetry_equiv_pos_site_id
 _symmetry_equiv_pos_as_xyz
  1  'x, y, z'
loop_
 _atom_site_type_symbol
 _atom_site_label
 _atom_site_symmetry_multiplicity
 _atom_site_fract_x
 _atom_site_fract_y
 _atom_site_fract_z
 _atom_site_occupancy
 _atom_site_charge
  Cd  Cd1  1  0.000000  0.000000  0.000000  1.0  0.9074
  Cd  Cd2  1  0.500000  0.500000  0.500000  1.0  0.9074
  Cd  Cd3  1  0.500000  0.500000  0.160420  1.0  0.8198
  Cd  Cd4  1  0.000000  0.000000  0.660420  1.0  0.8198
  Cd  Cd5  1  0.500000  0.500000  0.839580  1.0  0.8197
  Cd  Cd6  1  0.000000  0.000000  0.339580  1.0  0.8197
  H  H7  1  0.244100  0.098200  0.052600  1.0  0.0575
  H  H8  1  0.195100  0.344100  0.950100  1.0  0.0434
  H  H9  1  0.464100  0.235600  0.983900  1.0  0.0553
  H  H10  1  0.283000  0.378900  0.099600  1.0  0.0599
  H  H11  1  0.119100  0.653700  0.135200  1.0  0.058
  H  H12  1  0.381300  0.725700  0.216400  1.0  0.0567
  H  H13  1  0.247800  0.931500  0.161400  1.0  0.0492
  H  H14  1  0.095700  0.759100  0.277300  1.0  0.0676
  H  H15  1  0.744100  0.598200  0.552600  1.0  0.0575
  H  H16  1  0.695100  0.844100  0.450100  1.0  0.0434
  H  H17  1  0.964100  0.735600  0.483900  1.0  0.0553
  H  H18  1  0.783000  0.878900  0.599600  1.0  0.0599
  H  H19  1  0.619100  0.153700  0.635200  1.0  0.058
  H  H20  1  0.881300  0.225700  0.716400  1.0  0.0567
  H  H21  1  0.747800  0.431500  0.661400  1.0  0.0492
  H  H22  1  0.595700  0.259100  0.777300  1.0  0.0676
  H  H23  1  0.755900  0.901800  0.052600  1.0  0.0572
  H  H24  1  0.804900  0.655900  0.950100  1.0  0.0427
  H  H25  1  0.535900  0.764400  0.983900  1.0  0.0555
  H  H26  1  0.717000  0.621100  0.099600  1.0  0.0597
  H  H27  1  0.880900  0.346300  0.135200  1.0  0.0574
  H  H28  1  0.618700  0.274300  0.216400  1.0  0.0572
  H  H29  1  0.752200  0.068500  0.161400  1.0  0.0493
  H  H30  1  0.904300  0.240900  0.277300  1.0  0.0673
  H  H31  1  0.255900  0.401800  0.552600  1.0  0.0572
  H  H32  1  0.304900  0.155900  0.450100  1.0  0.0427
  H  H33  1  0.035900  0.264400  0.483900  1.0  0.0555
  H  H34  1  0.217000  0.121100  0.599600  1.0  0.0597
  H  H35  1  0.380900  0.846300  0.635200  1.0  0.0574
  H  H36  1  0.118700  0.774300  0.716400  1.0  0.0572
  H  H37  1  0.252200  0.568500  0.661400  1.0  0.0493
  H  H38  1  0.404300  0.740900  0.777300  1.0  0.0673
  H  H39  1  0.098200  0.755900  0.947400  1.0  0.0557
  H  H40  1  0.344100  0.804900  0.049900  1.0  0.044
  H  H41  1  0.235600  0.535900  0.016100  1.0  0.0546
  H  H42  1  0.378900  0.717000  0.900400  1.0  0.0618
  H  H43  1  0.653700  0.880900  0.864800  1.0  0.0592
  H  H44  1  0.725700  0.618700  0.783600  1.0  0.0564
  H  H45  1  0.931500  0.752200  0.838600  1.0  0.0487
  H  H46  1  0.759100  0.904300  0.722700  1.0  0.0664
  H  H47  1  0.598200  0.255900  0.447400  1.0  0.0557
  H  H48  1  0.844100  0.304900  0.549900  1.0  0.044
  H  H49  1  0.735600  0.035900  0.516100  1.0  0.0546
  H  H50  1  0.878900  0.217000  0.400400  1.0  0.0618
  H  H51  1  0.153700  0.380900  0.364800  1.0  0.0592
  H  H52  1  0.225700  0.118700  0.283600  1.0  0.0564
  H  H53  1  0.431500  0.252200  0.338600  1.0  0.0487
  H  H54  1  0.259100  0.404300  0.222700  1.0  0.0664
  H  H55  1  0.901800  0.244100  0.947400  1.0  0.056
  H  H56  1  0.655900  0.195100  0.049900  1.0  0.0442
  H  H57  1  0.764400  0.464100  0.016100  1.0  0.0542
  H  H58  1  0.621100  0.283000  0.900400  1.0  0.0616
  H  H59  1  0.346300  0.119100  0.864800  1.0  0.0597
  H  H60  1  0.274300  0.381300  0.783600  1.0  0.056
  H  H61  1  0.068500  0.247800  0.838600  1.0  0.0491
  H  H62  1  0.240900  0.095700  0.722700  1.0  0.0665
  H  H63  1  0.401800  0.744100  0.447400  1.0  0.056
  H  H64  1  0.155900  0.695100  0.549900  1.0  0.0442
  H  H65  1  0.264400  0.964100  0.516100  1.0  0.0542
  H  H66  1  0.121100  0.783000  0.400400  1.0  0.0616
  H  H67  1  0.846300  0.619100  0.364800  1.0  0.0597
  H  H68  1  0.774300  0.881300  0.283600  1.0  0.056
  H  H69  1  0.568500  0.747800  0.338600  1.0  0.0491
  H  H70  1  0.740900  0.595700  0.222700  1.0  0.0665
  C  C71  1  0.214900  0.143500  0.024800  1.0  0.1625
  C  C72  1  0.187100  0.279300  0.968400  1.0  0.084
  C  C73  1  0.441500  0.277700  0.015130  1.0  0.1142
  C  C74  1  0.341500  0.356400  0.078550  1.0  0.0801
  C  C75  1  0.187900  0.651400  0.148900  1.0  0.1428
  C  C76  1  0.331600  0.691400  0.193200  1.0  0.1104
  C  C77  1  0.204700  0.911600  0.192600  1.0  0.1325
  C  C78  1  0.121500  0.816400  0.256300  1.0  0.1356
  C  C79  1  0.714900  0.643500  0.524800  1.0  0.1625
  C  C80  1  0.687100  0.779300  0.468400  1.0  0.084
  C  C81  1  0.941500  0.777700  0.515130  1.0  0.1142
  C  C82  1  0.841500  0.856400  0.578550  1.0  0.0801
  C  C83  1  0.687900  0.151400  0.648900  1.0  0.1428
  C  C84  1  0.831600  0.191400  0.693200  1.0  0.1104
  C  C85  1  0.704700  0.411600  0.692600  1.0  0.1325
  C  C86  1  0.621500  0.316400  0.756300  1.0  0.1356
  C  C87  1  0.785100  0.856500  0.024800  1.0  0.1618
  C  C88  1  0.812900  0.720700  0.968400  1.0  0.0839
  C  C89  1  0.558500  0.722300  0.015130  1.0  0.115
  C  C90  1  0.658500  0.643600  0.078550  1.0  0.0788
  C  C91  1  0.812100  0.348600  0.148900  1.0  0.1449
  C  C92  1  0.668400  0.308600  0.193200  1.0  0.11
  C  C93  1  0.795300  0.088400  0.192600  1.0  0.1314
  C  C94  1  0.878500  0.183600  0.256300  1.0  0.1358
  C  C95  1  0.285100  0.356500  0.524800  1.0  0.1618
  C  C96  1  0.312900  0.220700  0.468400  1.0  0.0839
  C  C97  1  0.058500  0.222300  0.515130  1.0  0.115
  C  C98  1  0.158500  0.143600  0.578550  1.0  0.0788
  C  C99  1  0.312100  0.848600  0.648900  1.0  0.1449
  C  C100  1  0.168400  0.808600  0.693200  1.0  0.11
  C  C101  1  0.295300  0.588400  0.692600  1.0  0.1314
  C  C102  1  0.378500  0.683600  0.756300  1.0  0.1358
  C  C103  1  0.143500  0.785100  0.975200  1.0  0.163
  C  C104  1  0.279300  0.812900  0.031600  1.0  0.0843
  C  C105  1  0.277700  0.558500  0.984870  1.0  0.1135
  C  C106  1  0.356400  0.658500  0.921450  1.0  0.0804
  C  C107  1  0.651400  0.812100  0.851100  1.0  0.1485
  C  C108  1  0.691400  0.668400  0.806800  1.0  0.1088
  C  C109  1  0.911600  0.795300  0.807400  1.0  0.1327
  C  C110  1  0.816400  0.878500  0.743700  1.0  0.1343
  C  C111  1  0.643500  0.285100  0.475200  1.0  0.163
  C  C112  1  0.779300  0.312900  0.531600  1.0  0.0843
  C  C113  1  0.777700  0.058500  0.484870  1.0  0.1135
  C  C114  1  0.856400  0.158500  0.421450  1.0  0.0804
  C  C115  1  0.151400  0.312100  0.351100  1.0  0.1485
  C  C116  1  0.191400  0.168400  0.306800  1.0  0.1088
  C  C117  1  0.411600  0.295300  0.307400  1.0  0.1327
  C  C118  1  0.316400  0.378500  0.243700  1.0  0.1343
  C  C119  1  0.856500  0.214900  0.975200  1.0  0.162
  C  C120  1  0.720700  0.187100  0.031600  1.0  0.084
  C  C121  1  0.722300  0.441500  0.984870  1.0  0.1132
  C  C122  1  0.643600  0.341500  0.921450  1.0  0.0793
  C  C123  1  0.348600  0.187900  0.851100  1.0  0.1481
  C  C124  1  0.308600  0.331600  0.806800  1.0  0.1091
  C  C125  1  0.088400  0.204700  0.807400  1.0  0.1299
  C  C126  1  0.183600  0.121500  0.743700  1.0  0.1339
  C  C127  1  0.356500  0.714900  0.475200  1.0  0.162
  C  C128  1  0.220700  0.687100  0.531600  1.0  0.084
  C  C129  1  0.222300  0.941500  0.484870  1.0  0.1132
  C  C130  1  0.143600  0.841500  0.421450  1.0  0.0793
  C  C131  1  0.848600  0.687900  0.351100  1.0  0.1481
  C  C132  1  0.808600  0.831600  0.306800  1.0  0.1091
  C  C133  1  0.588400  0.704700  0.307400  1.0  0.1299
  C  C134  1  0.683600  0.621500  0.243700  1.0  0.1339
  N  N135  1  0.129800  0.126100  0.994100  1.0  -0.2742
  N  N136  1  0.111500  0.214300  0.958770  1.0  -0.2677
  N  N137  1  0.253300  0.238400  0.009520  1.0  0.0245
  N  N138  1  0.341000  0.286000  0.033310  1.0  0.021
  N  N139  1  0.501500  0.335600  0.046770  1.0  -0.2908
  N  N140  1  0.437000  0.386900  0.087350  1.0  -0.2398
  N  N141  1  0.347300  0.605700  0.163500  1.0  -0.255
  N  N142  1  0.254800  0.579800  0.135800  1.0  -0.2842
  N  N143  1  0.231900  0.722400  0.185100  1.0  0.0343
  N  N144  1  0.186700  0.812200  0.209330  1.0  0.0155
  N  N145  1  0.100700  0.914100  0.267110  1.0  -0.2073
  N  N146  1  0.152800  0.976400  0.226600  1.0  -0.3199
  N  N147  1  0.629800  0.626100  0.494100  1.0  -0.2742
  N  N148  1  0.611500  0.714300  0.458770  1.0  -0.2677
  N  N149  1  0.753300  0.738400  0.509520  1.0  0.0245
  N  N150  1  0.841000  0.786000  0.533310  1.0  0.021
  N  N151  1  0.001500  0.835600  0.546770  1.0  -0.2908
  N  N152  1  0.937000  0.886900  0.587350  1.0  -0.2398
  N  N153  1  0.847300  0.105700  0.663500  1.0  -0.255
  N  N154  1  0.754800  0.079800  0.635800  1.0  -0.2842
  N  N155  1  0.731900  0.222400  0.685100  1.0  0.0343
  N  N156  1  0.686700  0.312200  0.709330  1.0  0.0155
  N  N157  1  0.600700  0.414100  0.767110  1.0  -0.2073
  N  N158  1  0.652800  0.476400  0.726600  1.0  -0.3199
  N  N159  1  0.870200  0.873900  0.994100  1.0  -0.2766
  N  N160  1  0.888500  0.785700  0.958770  1.0  -0.2698
  N  N161  1  0.746700  0.761600  0.009520  1.0  0.0247
  N  N162  1  0.659000  0.714000  0.033310  1.0  0.021
  N  N163  1  0.498500  0.664400  0.046770  1.0  -0.2915
  N  N164  1  0.563000  0.613100  0.087350  1.0  -0.2394
  N  N165  1  0.652700  0.394300  0.163500  1.0  -0.2544
  N  N166  1  0.745200  0.420200  0.135800  1.0  -0.2846
  N  N167  1  0.768100  0.277600  0.185100  1.0  0.0344
  N  N168  1  0.813300  0.187800  0.209330  1.0  0.0147
  N  N169  1  0.899300  0.085900  0.267110  1.0  -0.2057
  N  N170  1  0.847200  0.023600  0.226600  1.0  -0.3204
  N  N171  1  0.370200  0.373900  0.494100  1.0  -0.2766
  N  N172  1  0.388500  0.285700  0.458770  1.0  -0.2698
  N  N173  1  0.246700  0.261600  0.509520  1.0  0.0247
  N  N174  1  0.159000  0.214000  0.533310  1.0  0.021
  N  N175  1  0.998500  0.164400  0.546770  1.0  -0.2915
  N  N176  1  0.063000  0.113100  0.587350  1.0  -0.2394
  N  N177  1  0.152700  0.894300  0.663500  1.0  -0.2544
  N  N178  1  0.245200  0.920200  0.635800  1.0  -0.2846
  N  N179  1  0.268100  0.777600  0.685100  1.0  0.0344
  N  N180  1  0.313300  0.687800  0.709330  1.0  0.0147
  N  N181  1  0.399300  0.585900  0.767110  1.0  -0.2057
  N  N182  1  0.347200  0.523600  0.726600  1.0  -0.3204
  N  N183  1  0.126100  0.870200  0.005900  1.0  -0.2753
  N  N184  1  0.214300  0.888500  0.041230  1.0  -0.2671
  N  N185  1  0.238400  0.746700  0.990480  1.0  0.0249
  N  N186  1  0.286000  0.659000  0.966690  1.0  0.0223
  N  N187  1  0.335600  0.498500  0.953230  1.0  -0.2922
  N  N188  1  0.386900  0.563000  0.912650  1.0  -0.2414
  N  N189  1  0.605700  0.652700  0.836500  1.0  -0.2549
  N  N190  1  0.579800  0.745200  0.864200  1.0  -0.2837
  N  N191  1  0.722400  0.768100  0.814900  1.0  0.0348
  N  N192  1  0.812200  0.813300  0.790670  1.0  0.0158
  N  N193  1  0.914100  0.899300  0.732890  1.0  -0.2063
  N  N194  1  0.976400  0.847200  0.773400  1.0  -0.3206
  N  N195  1  0.626100  0.370200  0.505900  1.0  -0.2753
  N  N196  1  0.714300  0.388500  0.541230  1.0  -0.2671
  N  N197  1  0.738400  0.246700  0.490480  1.0  0.0249
  N  N198  1  0.786000  0.159000  0.466690  1.0  0.0223
  N  N199  1  0.835600  0.998500  0.453230  1.0  -0.2922
  N  N200  1  0.886900  0.063000  0.412650  1.0  -0.2414
  N  N201  1  0.105700  0.152700  0.336500  1.0  -0.2549
  N  N202  1  0.079800  0.245200  0.364200  1.0  -0.2837
  N  N203  1  0.222400  0.268100  0.314900  1.0  0.0348
  N  N204  1  0.312200  0.313300  0.290670  1.0  0.0158
  N  N205  1  0.414100  0.399300  0.232890  1.0  -0.2063
  N  N206  1  0.476400  0.347200  0.273400  1.0  -0.3206
  N  N207  1  0.873900  0.129800  0.005900  1.0  -0.2757
  N  N208  1  0.785700  0.111500  0.041230  1.0  -0.2663
  N  N209  1  0.761600  0.253300  0.990480  1.0  0.0247
  N  N210  1  0.714000  0.341000  0.966690  1.0  0.0211
  N  N211  1  0.664400  0.501500  0.953230  1.0  -0.2916
  N  N212  1  0.613100  0.437000  0.912650  1.0  -0.2418
  N  N213  1  0.394300  0.347300  0.836500  1.0  -0.256
  N  N214  1  0.420200  0.254800  0.864200  1.0  -0.2857
  N  N215  1  0.277600  0.231900  0.814900  1.0  0.0351
  N  N216  1  0.187800  0.186700  0.790670  1.0  0.0165
  N  N217  1  0.085900  0.100700  0.732890  1.0  -0.2068
  N  N218  1  0.023600  0.152800  0.773400  1.0  -0.3223
  N  N219  1  0.373900  0.629800  0.505900  1.0  -0.2757
  N  N220  1  0.285700  0.611500  0.541230  1.0  -0.2663
  N  N221  1  0.261600  0.753300  0.490480  1.0  0.0247
  N  N222  1  0.214000  0.841000  0.466690  1.0  0.0211
  N  N223  1  0.164400  0.001500  0.453230  1.0  -0.2916
  N  N224  1  0.113100  0.937000  0.412650  1.0  -0.2418
  N  N225  1  0.894300  0.847300  0.336500  1.0  -0.256
  N  N226  1  0.920200  0.754800  0.364200  1.0  -0.2857
  N  N227  1  0.777600  0.731900  0.314900  1.0  0.0351
  N  N228  1  0.687800  0.686700  0.290670  1.0  0.0165
  N  N229  1  0.585900  0.600700  0.232890  1.0  -0.2068
  N  N230  1  0.523600  0.652800  0.273400  1.0  -0.3223
