# generated using pymatgen
data_Zn2H6C5N8O3
_symmetry_space_group_name_H-M   'P 1'
_cell_length_a   9.35310000
_cell_length_b   9.80550000
_cell_length_c   16.19410000
_cell_angle_alpha   90.00000000
_cell_angle_beta   90.00000000
_cell_angle_gamma   90.00000000
_symmetry_Int_Tables_number   1
_chemical_formula_structural   Zn2H6C5N8O3
_chemical_formula_sum   'Zn8 H24 C20 N32 O12'
_cell_volume   1485.19041746
_cell_formula_units_Z   4
loop_
 _symmetry_equiv_pos_site_id
 _symmetry_equiv_pos_as_xyz
  1  'x, y, z'
loop_
 _atom_site_type_symbol
 _atom_site_label
 _atom_site_symmetry_multiplicity
 _atom_site_fract_x
 _atom_site_fract_y
 _atom_site_fract_z
 _atom_site_occupancy
 _atom_site_charge
  Zn  Zn1  1  0.940500  0.120020  0.582340  1.0  0.8452
  Zn  Zn2  1  0.440500  0.379980  0.417660  1.0  0.8454
  Zn  Zn3  1  0.059500  0.879980  0.082340  1.0  0.8455
  Zn  Zn4  1  0.559500  0.620020  0.917660  1.0  0.8452
  Zn  Zn5  1  0.059500  0.879980  0.417660  1.0  0.8455
  Zn  Zn6  1  0.559500  0.620020  0.582340  1.0  0.8453
  Zn  Zn7  1  0.940500  0.120020  0.917660  1.0  0.8453
  Zn  Zn8  1  0.440500  0.379980  0.082340  1.0  0.8452
  H  H9  1  0.670400  0.021300  0.664800  1.0  0.3673
  H  H10  1  0.581200  0.895600  0.668300  1.0  0.363
  H  H11  1  0.827400  0.670800  0.468100  1.0  0.083
  H  H12  1  0.170400  0.478700  0.335200  1.0  0.3652
  H  H13  1  0.081200  0.604400  0.331700  1.0  0.3622
  H  H14  1  0.327400  0.829200  0.531900  1.0  0.0834
  H  H15  1  0.329600  0.978700  0.164800  1.0  0.3652
  H  H16  1  0.418800  0.104400  0.168300  1.0  0.3618
  H  H17  1  0.172600  0.329200  0.968100  1.0  0.0839
  H  H18  1  0.829600  0.521300  0.835200  1.0  0.367
  H  H19  1  0.918800  0.395600  0.831700  1.0  0.3618
  H  H20  1  0.672600  0.170800  0.031900  1.0  0.0839
  H  H21  1  0.329600  0.978700  0.335200  1.0  0.3651
  H  H22  1  0.418800  0.104400  0.331700  1.0  0.3614
  H  H23  1  0.172600  0.329200  0.531900  1.0  0.0838
  H  H24  1  0.829600  0.521300  0.664800  1.0  0.3667
  H  H25  1  0.918800  0.395600  0.668300  1.0  0.3623
  H  H26  1  0.672600  0.170800  0.468100  1.0  0.0834
  H  H27  1  0.670400  0.021300  0.835200  1.0  0.3671
  H  H28  1  0.581200  0.895600  0.831700  1.0  0.3625
  H  H29  1  0.827400  0.670800  0.031900  1.0  0.0834
  H  H30  1  0.170400  0.478700  0.164800  1.0  0.3658
  H  H31  1  0.081200  0.604400  0.168300  1.0  0.3627
  H  H32  1  0.327400  0.829200  0.968100  1.0  0.0833
  C  C33  1  0.740300  0.879000  0.593200  1.0  0.6566
  C  C34  1  0.817600  0.745800  0.502800  1.0  0.2776
  C  C35  1  0.240300  0.621000  0.406800  1.0  0.6566
  C  C36  1  0.317600  0.754200  0.497200  1.0  0.2773
  C  C37  1  0.259700  0.121000  0.093200  1.0  0.6568
  C  C38  1  0.182400  0.254200  0.002800  1.0  0.2771
  C  C39  1  0.759700  0.379000  0.906800  1.0  0.6567
  C  C40  1  0.682400  0.245800  0.997200  1.0  0.2773
  C  C41  1  0.259700  0.121000  0.406800  1.0  0.6568
  C  C42  1  0.182400  0.254200  0.497200  1.0  0.2768
  C  C43  1  0.759700  0.379000  0.593200  1.0  0.6568
  C  C44  1  0.682400  0.245800  0.502800  1.0  0.2776
  C  C45  1  0.740300  0.879000  0.906800  1.0  0.6566
  C  C46  1  0.817600  0.745800  0.997200  1.0  0.2777
  C  C47  1  0.240300  0.621000  0.093200  1.0  0.6566
  C  C48  1  0.317600  0.754200  0.002800  1.0  0.2771
  C  C49  1  0.975300  0.140400  0.750000  1.0  0.9941
  C  C50  1  0.475300  0.359600  0.250000  1.0  0.9942
  C  C51  1  0.024700  0.859600  0.250000  1.0  0.9933
  C  C52  1  0.524700  0.640400  0.750000  1.0  0.9929
  N  N53  1  0.854500  0.939100  0.559800  1.0  -0.3978
  N  N54  1  0.902400  0.848700  0.501100  1.0  -0.2564
  N  N55  1  0.713700  0.757200  0.559200  1.0  -0.5684
  N  N56  1  0.653400  0.939200  0.648800  1.0  -0.7623
  N  N57  1  0.354500  0.560900  0.440200  1.0  -0.3976
  N  N58  1  0.402400  0.651300  0.498900  1.0  -0.2564
  N  N59  1  0.213700  0.742800  0.440800  1.0  -0.569
  N  N60  1  0.153400  0.560800  0.351200  1.0  -0.7617
  N  N61  1  0.145500  0.060900  0.059800  1.0  -0.3986
  N  N62  1  0.097600  0.151300  0.001100  1.0  -0.2559
  N  N63  1  0.286300  0.242800  0.059200  1.0  -0.5664
  N  N64  1  0.346600  0.060800  0.148800  1.0  -0.7614
  N  N65  1  0.645500  0.439100  0.940200  1.0  -0.3987
  N  N66  1  0.597600  0.348700  0.998900  1.0  -0.2565
  N  N67  1  0.786300  0.257200  0.940800  1.0  -0.5663
  N  N68  1  0.846600  0.439200  0.851200  1.0  -0.762
  N  N69  1  0.145500  0.060900  0.440200  1.0  -0.3988
  N  N70  1  0.097600  0.151300  0.498900  1.0  -0.2562
  N  N71  1  0.286300  0.242800  0.440800  1.0  -0.5665
  N  N72  1  0.346600  0.060800  0.351200  1.0  -0.7613
  N  N73  1  0.645500  0.439100  0.559800  1.0  -0.3986
  N  N74  1  0.597600  0.348700  0.501100  1.0  -0.2557
  N  N75  1  0.786300  0.257200  0.559200  1.0  -0.5662
  N  N76  1  0.846600  0.439200  0.648800  1.0  -0.7622
  N  N77  1  0.854500  0.939100  0.940200  1.0  -0.3978
  N  N78  1  0.902400  0.848700  0.998900  1.0  -0.2567
  N  N79  1  0.713700  0.757200  0.940800  1.0  -0.5687
  N  N80  1  0.653400  0.939200  0.851200  1.0  -0.7622
  N  N81  1  0.354500  0.560900  0.059800  1.0  -0.3976
  N  N82  1  0.402400  0.651300  0.001100  1.0  -0.2564
  N  N83  1  0.213700  0.742800  0.059200  1.0  -0.5687
  N  N84  1  0.153400  0.560800  0.148800  1.0  -0.7617
  O  O85  1  0.041800  0.162200  0.682000  1.0  -0.7401
  O  O86  1  0.541800  0.337800  0.318000  1.0  -0.7384
  O  O87  1  0.958200  0.837800  0.182000  1.0  -0.7373
  O  O88  1  0.458200  0.662200  0.818000  1.0  -0.7366
  O  O89  1  0.958200  0.837800  0.318000  1.0  -0.7356
  O  O90  1  0.458200  0.662200  0.682000  1.0  -0.738
  O  O91  1  0.041800  0.162200  0.818000  1.0  -0.7383
  O  O92  1  0.541800  0.337800  0.182000  1.0  -0.7403
  O  O93  1  0.849800  0.109900  0.750000  1.0  -0.7284
  O  O94  1  0.349800  0.390100  0.250000  1.0  -0.7244
  O  O95  1  0.150200  0.890100  0.250000  1.0  -0.7369
  O  O96  1  0.650200  0.609900  0.750000  1.0  -0.7395
