# generated using pymatgen
data_Zn4H12C11N16O7
_symmetry_space_group_name_H-M   'P 1'
_cell_length_a   9.04360000
_cell_length_b   9.73080000
_cell_length_c   17.39160000
_cell_angle_alpha   94.43090000
_cell_angle_beta   105.07000000
_cell_angle_gamma   90.00000000
_symmetry_Int_Tables_number   1
_chemical_formula_structural   Zn4H12C11N16O7
_chemical_formula_sum   'Zn8 H24 C22 N32 O14'
_cell_volume   1473.11343394
_cell_formula_units_Z   2
loop_
 _symmetry_equiv_pos_site_id
 _symmetry_equiv_pos_as_xyz
  1  'x, y, z'
loop_
 _atom_site_type_symbol
 _atom_site_label
 _atom_site_symmetry_multiplicity
 _atom_site_fract_x
 _atom_site_fract_y
 _atom_site_fract_z
 _atom_site_occupancy
 _atom_site_charge
  Zn  Zn1  1  0.781660  0.759610  0.164260  1.0  0.8519
  Zn  Zn2  1  0.966590  0.553040  0.342920  1.0  0.8095
  Zn  Zn3  1  0.617400  0.740390  0.835740  1.0  0.8517
  Zn  Zn4  1  0.623670  0.946960  0.657080  1.0  0.808
  Zn  Zn5  1  0.218340  0.240390  0.835740  1.0  0.8516
  Zn  Zn6  1  0.033410  0.446960  0.657080  1.0  0.8088
  Zn  Zn7  1  0.382600  0.259610  0.164260  1.0  0.8522
  Zn  Zn8  1  0.376330  0.053040  0.342920  1.0  0.8075
  H  H9  1  0.479900  0.640000  0.069200  1.0  0.3541
  H  H10  1  0.379200  0.518000  0.067400  1.0  0.3586
  H  H11  1  0.132200  0.047600  0.184200  1.0  0.3472
  H  H12  1  0.992000  0.967900  0.138800  1.0  0.3572
  H  H13  1  0.698300  0.334800  0.282000  1.0  0.0827
  H  H14  1  0.226700  0.789000  0.399400  1.0  0.084
  H  H15  1  0.410700  0.860000  0.930800  1.0  0.3533
  H  H16  1  0.311800  0.982000  0.932600  1.0  0.3533
  H  H17  1  0.948000  0.452400  0.815800  1.0  0.3475
  H  H18  1  0.853200  0.532100  0.861200  1.0  0.3571
  H  H19  1  0.416300  0.165200  0.718000  1.0  0.0828
  H  H20  1  0.827300  0.711000  0.600600  1.0  0.0832
  H  H21  1  0.520100  0.360000  0.930800  1.0  0.3522
  H  H22  1  0.620800  0.482000  0.932600  1.0  0.3564
  H  H23  1  0.867800  0.952400  0.815800  1.0  0.3466
  H  H24  1  0.008000  0.032100  0.861200  1.0  0.3564
  H  H25  1  0.301700  0.665200  0.718000  1.0  0.0828
  H  H26  1  0.773300  0.211000  0.600600  1.0  0.0835
  H  H27  1  0.589300  0.140000  0.069200  1.0  0.3541
  H  H28  1  0.688200  0.018000  0.067400  1.0  0.3529
  H  H29  1  0.052000  0.547600  0.184200  1.0  0.3467
  H  H30  1  0.146800  0.467900  0.138800  1.0  0.3564
  H  H31  1  0.583700  0.834800  0.282000  1.0  0.0827
  H  H32  1  0.172700  0.289000  0.399400  1.0  0.0834
  C  C33  1  0.567400  0.518900  0.152200  1.0  0.6427
  C  C34  1  0.677250  0.403400  0.246500  1.0  0.2865
  C  C35  1  0.083940  0.896600  0.241880  1.0  0.6378
  C  C36  1  0.166480  0.806800  0.349160  1.0  0.2841
  C  C37  1  0.931740  0.451200  0.486480  1.0  0.5341
  C  C38  1  0.415200  0.981100  0.847800  1.0  0.6427
  C  C39  1  0.430750  0.096600  0.753500  1.0  0.2866
  C  C40  1  0.842060  0.603400  0.758120  1.0  0.6384
  C  C41  1  0.817320  0.693200  0.650840  1.0  0.2845
  C  C42  1  0.445260  0.048800  0.513520  1.0  0.5345
  C  C43  1  0.432600  0.481100  0.847800  1.0  0.6431
  C  C44  1  0.322750  0.596600  0.753500  1.0  0.2862
  C  C45  1  0.916060  0.103400  0.758120  1.0  0.6387
  C  C46  1  0.833520  0.193200  0.650840  1.0  0.2843
  C  C47  1  0.068260  0.548800  0.513520  1.0  0.5368
  C  C48  1  0.584800  0.018900  0.152200  1.0  0.6423
  C  C49  1  0.569250  0.903400  0.246500  1.0  0.2865
  C  C50  1  0.157940  0.396600  0.241880  1.0  0.6378
  C  C51  1  0.182680  0.306800  0.349160  1.0  0.2849
  C  C52  1  0.554740  0.951200  0.486480  1.0  0.5353
  C  C53  1  0.736800  0.750000  0.000000  1.0  0.9448
  C  C54  1  0.263200  0.250000  0.000000  1.0  0.9446
  N  N55  1  0.698880  0.584100  0.188360  1.0  -0.3987
  N  N56  1  0.768490  0.506900  0.250580  1.0  -0.2648
  N  N57  1  0.549130  0.403500  0.186460  1.0  -0.5664
  N  N58  1  0.462590  0.564600  0.088380  1.0  -0.7602
  N  N59  1  0.988070  0.793400  0.240940  1.0  -0.3937
  N  N60  1  0.044130  0.733800  0.311260  1.0  -0.2828
  N  N61  1  0.196280  0.910400  0.307960  1.0  -0.5227
  N  N62  1  0.067330  0.981200  0.180660  1.0  -0.7736
  N  N63  1  0.510520  0.915900  0.811640  1.0  -0.401
  N  N64  1  0.517910  0.993100  0.749420  1.0  -0.2636
  N  N65  1  0.362670  0.096500  0.813540  1.0  -0.5666
  N  N66  1  0.374210  0.935400  0.911620  1.0  -0.7645
  N  N67  1  0.747130  0.706600  0.759060  1.0  -0.3929
  N  N68  1  0.732870  0.766200  0.688740  1.0  -0.2843
  N  N69  1  0.888320  0.589600  0.692040  1.0  -0.5254
  N  N70  1  0.886670  0.518800  0.819340  1.0  -0.7753
  N  N71  1  0.301120  0.415900  0.811640  1.0  -0.4002
  N  N72  1  0.231510  0.493100  0.749420  1.0  -0.2658
  N  N73  1  0.450870  0.596500  0.813540  1.0  -0.5669
  N  N74  1  0.537410  0.435400  0.911620  1.0  -0.7614
  N  N75  1  0.011930  0.206600  0.759060  1.0  -0.3926
  N  N76  1  0.955870  0.266200  0.688740  1.0  -0.2763
  N  N77  1  0.803720  0.089600  0.692040  1.0  -0.5267
  N  N78  1  0.932670  0.018800  0.819340  1.0  -0.7746
  N  N79  1  0.489480  0.084100  0.188360  1.0  -0.4007
  N  N80  1  0.482090  0.006900  0.250580  1.0  -0.2648
  N  N81  1  0.637330  0.903500  0.186460  1.0  -0.5649
  N  N82  1  0.625790  0.064600  0.088380  1.0  -0.7637
  N  N83  1  0.252870  0.293400  0.240940  1.0  -0.392
  N  N84  1  0.267130  0.233800  0.311260  1.0  -0.2774
  N  N85  1  0.111680  0.410400  0.307960  1.0  -0.5247
  N  N86  1  0.113330  0.481200  0.180660  1.0  -0.7744
  O  O87  1  0.842550  0.759200  0.065700  1.0  -0.6899
  O  O88  1  0.877470  0.424400  0.413740  1.0  -0.5399
  O  O89  1  0.887030  0.397500  0.540060  1.0  -0.5513
  O  O90  1  0.776850  0.740800  0.934300  1.0  -0.6898
  O  O91  1  0.463730  0.075600  0.586260  1.0  -0.5393
  O  O92  1  0.346970  0.102500  0.459940  1.0  -0.5524
  O  O93  1  0.157450  0.240800  0.934300  1.0  -0.6893
  O  O94  1  0.122530  0.575600  0.586260  1.0  -0.5411
  O  O95  1  0.112970  0.602500  0.459940  1.0  -0.5522
  O  O96  1  0.223150  0.259200  0.065700  1.0  -0.684
  O  O97  1  0.536270  0.924400  0.413740  1.0  -0.541
  O  O98  1  0.653030  0.897500  0.540060  1.0  -0.5512
  O  O99  1  0.598000  0.750000  0.000000  1.0  -0.704
  O  O100  1  0.402000  0.250000  0.000000  1.0  -0.7044
