# generated using pymatgen
data_K2H22C18S2N2O9
_symmetry_space_group_name_H-M   'P 1'
_cell_length_a   10.12000000
_cell_length_b   21.93400000
_cell_length_c   15.81800000
_cell_angle_alpha   90.00000000
_cell_angle_beta   105.43000000
_cell_angle_gamma   90.00000000
_symmetry_Int_Tables_number   1
_chemical_formula_structural   K2H22C18S2N2O9
_chemical_formula_sum   'K8 H88 C72 S8 N8 O36'
_cell_volume   3384.59911146
_cell_formula_units_Z   4
loop_
 _symmetry_equiv_pos_site_id
 _symmetry_equiv_pos_as_xyz
  1  'x, y, z'
loop_
 _atom_site_type_symbol
 _atom_site_label
 _atom_site_symmetry_multiplicity
 _atom_site_fract_x
 _atom_site_fract_y
 _atom_site_fract_z
 _atom_site_occupancy
 _atom_site_charge
  K  K1  1  0.838620  0.967620  0.403700  1.0  0.9578
  K  K2  1  0.338620  0.467620  0.903700  1.0  0.9578
  K  K3  1  0.661380  0.967620  0.596300  1.0  0.9589
  K  K4  1  0.161380  0.467620  0.096300  1.0  0.9589
  K  K5  1  0.161380  0.032380  0.596300  1.0  0.9587
  K  K6  1  0.661380  0.532380  0.096300  1.0  0.9587
  K  K7  1  0.338620  0.032380  0.403700  1.0  0.9583
  K  K8  1  0.838620  0.532380  0.903700  1.0  0.9583
  H  H9  1  0.145900  0.281000  0.457800  1.0  0.1084
  H  H10  1  0.174300  0.183500  0.417800  1.0  0.1097
  H  H11  1  0.765600  0.162300  0.332400  1.0  0.1092
  H  H12  1  0.670900  0.283700  0.428000  1.0  0.0993
  H  H13  1  0.676800  0.311500  0.337900  1.0  0.1245
  H  H14  1  0.438300  0.306600  0.290100  1.0  0.092
  H  H15  1  0.423500  0.274100  0.375600  1.0  0.0814
  H  H16  1  0.299800  0.195900  0.297400  1.0  0.0824
  H  H17  1  0.337700  0.215500  0.211400  1.0  0.083
  H  H18  1  0.561000  0.198200  0.342000  1.0  0.2919
  H  H19  1  0.811000  0.082000  0.526000  1.0  0.4841
  H  H20  1  0.645900  0.781000  0.957800  1.0  0.1084
  H  H21  1  0.674300  0.683500  0.917800  1.0  0.1097
  H  H22  1  0.265600  0.662300  0.832400  1.0  0.1092
  H  H23  1  0.170900  0.783700  0.928000  1.0  0.0993
  H  H24  1  0.176800  0.811500  0.837900  1.0  0.1245
  H  H25  1  0.938300  0.806600  0.790100  1.0  0.092
  H  H26  1  0.923500  0.774100  0.875600  1.0  0.0814
  H  H27  1  0.799800  0.695900  0.797400  1.0  0.0824
  H  H28  1  0.837700  0.715500  0.711400  1.0  0.083
  H  H29  1  0.061000  0.698200  0.842000  1.0  0.2919
  H  H30  1  0.311000  0.582000  0.026000  1.0  0.4841
  H  H31  1  0.354100  0.281000  0.542200  1.0  0.1094
  H  H32  1  0.325700  0.183500  0.582200  1.0  0.1093
  H  H33  1  0.734400  0.162300  0.667600  1.0  0.1096
  H  H34  1  0.829100  0.283700  0.572000  1.0  0.1009
  H  H35  1  0.823200  0.311500  0.662100  1.0  0.1236
  H  H36  1  0.061700  0.306600  0.709900  1.0  0.0912
  H  H37  1  0.076500  0.274100  0.624400  1.0  0.0819
  H  H38  1  0.200200  0.195900  0.702600  1.0  0.0817
  H  H39  1  0.162300  0.215500  0.788600  1.0  0.083
  H  H40  1  0.939000  0.198200  0.658000  1.0  0.2913
  H  H41  1  0.689000  0.082000  0.474000  1.0  0.4865
  H  H42  1  0.854100  0.781000  0.042200  1.0  0.1094
  H  H43  1  0.825700  0.683500  0.082200  1.0  0.1093
  H  H44  1  0.234400  0.662300  0.167600  1.0  0.1096
  H  H45  1  0.329100  0.783700  0.072000  1.0  0.1009
  H  H46  1  0.323200  0.811500  0.162100  1.0  0.1236
  H  H47  1  0.561700  0.806600  0.209900  1.0  0.0912
  H  H48  1  0.576500  0.774100  0.124400  1.0  0.0819
  H  H49  1  0.700200  0.695900  0.202600  1.0  0.0817
  H  H50  1  0.662300  0.715500  0.288600  1.0  0.083
  H  H51  1  0.439000  0.698200  0.158000  1.0  0.2913
  H  H52  1  0.189000  0.582000  0.974000  1.0  0.4865
  H  H53  1  0.854100  0.719000  0.542200  1.0  0.1093
  H  H54  1  0.825700  0.816500  0.582200  1.0  0.1092
  H  H55  1  0.234400  0.837700  0.667600  1.0  0.1091
  H  H56  1  0.329100  0.716300  0.572000  1.0  0.1005
  H  H57  1  0.323200  0.688500  0.662100  1.0  0.1251
  H  H58  1  0.561700  0.693400  0.709900  1.0  0.0925
  H  H59  1  0.576500  0.725900  0.624400  1.0  0.0818
  H  H60  1  0.700200  0.804100  0.702600  1.0  0.0836
  H  H61  1  0.662300  0.784500  0.788600  1.0  0.0815
  H  H62  1  0.439000  0.801800  0.658000  1.0  0.2923
  H  H63  1  0.189000  0.918000  0.474000  1.0  0.4862
  H  H64  1  0.354100  0.219000  0.042200  1.0  0.1093
  H  H65  1  0.325700  0.316500  0.082200  1.0  0.1092
  H  H66  1  0.734400  0.337700  0.167600  1.0  0.1091
  H  H67  1  0.829100  0.216300  0.072000  1.0  0.1005
  H  H68  1  0.823200  0.188500  0.162100  1.0  0.1251
  H  H69  1  0.061700  0.193400  0.209900  1.0  0.0925
  H  H70  1  0.076500  0.225900  0.124400  1.0  0.0818
  H  H71  1  0.200200  0.304100  0.202600  1.0  0.0836
  H  H72  1  0.162300  0.284500  0.288600  1.0  0.0815
  H  H73  1  0.939000  0.301800  0.158000  1.0  0.2923
  H  H74  1  0.689000  0.418000  0.974000  1.0  0.4862
  H  H75  1  0.645900  0.719000  0.457800  1.0  0.1098
  H  H76  1  0.674300  0.816500  0.417800  1.0  0.1093
  H  H77  1  0.265600  0.837700  0.332400  1.0  0.1096
  H  H78  1  0.170900  0.716300  0.428000  1.0  0.0998
  H  H79  1  0.176800  0.688500  0.337900  1.0  0.124
  H  H80  1  0.938300  0.693400  0.290100  1.0  0.0925
  H  H81  1  0.923500  0.725900  0.375600  1.0  0.0823
  H  H82  1  0.799800  0.804100  0.297400  1.0  0.083
  H  H83  1  0.837700  0.784500  0.211400  1.0  0.0824
  H  H84  1  0.061000  0.801800  0.342000  1.0  0.2924
  H  H85  1  0.311000  0.918000  0.526000  1.0  0.4836
  H  H86  1  0.145900  0.219000  0.957800  1.0  0.1098
  H  H87  1  0.174300  0.316500  0.917800  1.0  0.1093
  H  H88  1  0.765600  0.337700  0.832400  1.0  0.1096
  H  H89  1  0.670900  0.216300  0.928000  1.0  0.0998
  H  H90  1  0.676800  0.188500  0.837900  1.0  0.124
  H  H91  1  0.438300  0.193400  0.790100  1.0  0.0925
  H  H92  1  0.423500  0.225900  0.875600  1.0  0.0823
  H  H93  1  0.299800  0.304100  0.797400  1.0  0.083
  H  H94  1  0.337700  0.284500  0.711400  1.0  0.0824
  H  H95  1  0.561000  0.301800  0.842000  1.0  0.2924
  H  H96  1  0.811000  0.418000  0.026000  1.0  0.4836
  C  C97  1  0.822300  0.245300  0.381200  1.0  0.0833
  C  C98  1  0.936200  0.284200  0.417600  1.0  0.3118
  C  C99  1  0.069000  0.257700  0.431800  1.0  -0.1458
  C  C100  1  0.086100  0.199100  0.408100  1.0  -0.122
  C  C101  1  0.975200  0.162300  0.370100  1.0  -0.238
  C  C102  1  0.841300  0.186500  0.357300  1.0  -0.0323
  C  C103  1  0.681400  0.273700  0.370400  1.0  -0.1611
  C  C104  1  0.435400  0.267200  0.317500  1.0  -0.0134
  C  C105  1  0.315600  0.230700  0.263600  1.0  -0.1296
  C  C106  1  0.322300  0.745300  0.881200  1.0  0.0833
  C  C107  1  0.436200  0.784200  0.917600  1.0  0.3118
  C  C108  1  0.569000  0.757700  0.931800  1.0  -0.1458
  C  C109  1  0.586100  0.699100  0.908100  1.0  -0.122
  C  C110  1  0.475200  0.662300  0.870100  1.0  -0.238
  C  C111  1  0.341300  0.686500  0.857300  1.0  -0.0323
  C  C112  1  0.181400  0.773700  0.870400  1.0  -0.1611
  C  C113  1  0.935400  0.767200  0.817500  1.0  -0.0134
  C  C114  1  0.815600  0.730700  0.763600  1.0  -0.1296
  C  C115  1  0.677700  0.245300  0.618800  1.0  0.083
  C  C116  1  0.563800  0.284200  0.582400  1.0  0.312
  C  C117  1  0.431000  0.257700  0.568200  1.0  -0.144
  C  C118  1  0.413900  0.199100  0.591900  1.0  -0.1198
  C  C119  1  0.524800  0.162300  0.629900  1.0  -0.2384
  C  C120  1  0.658700  0.186500  0.642700  1.0  -0.0324
  C  C121  1  0.818600  0.273700  0.629600  1.0  -0.1607
  C  C122  1  0.064600  0.267200  0.682500  1.0  -0.0138
  C  C123  1  0.184400  0.230700  0.736400  1.0  -0.1297
  C  C124  1  0.177700  0.745300  0.118800  1.0  0.083
  C  C125  1  0.063800  0.784200  0.082400  1.0  0.312
  C  C126  1  0.931000  0.757700  0.068200  1.0  -0.144
  C  C127  1  0.913900  0.699100  0.091900  1.0  -0.1198
  C  C128  1  0.024800  0.662300  0.129900  1.0  -0.2384
  C  C129  1  0.158700  0.686500  0.142700  1.0  -0.0324
  C  C130  1  0.318600  0.773700  0.129600  1.0  -0.1607
  C  C131  1  0.564600  0.767200  0.182500  1.0  -0.0138
  C  C132  1  0.684400  0.730700  0.236400  1.0  -0.1297
  C  C133  1  0.177700  0.754700  0.618800  1.0  0.0832
  C  C134  1  0.063800  0.715800  0.582400  1.0  0.3098
  C  C135  1  0.931000  0.742300  0.568200  1.0  -0.1435
  C  C136  1  0.913900  0.800900  0.591900  1.0  -0.1194
  C  C137  1  0.024800  0.837700  0.629900  1.0  -0.2399
  C  C138  1  0.158700  0.813500  0.642700  1.0  -0.0328
  C  C139  1  0.318600  0.726300  0.629600  1.0  -0.1596
  C  C140  1  0.564600  0.732800  0.682500  1.0  -0.0144
  C  C141  1  0.684400  0.769300  0.736400  1.0  -0.1297
  C  C142  1  0.677700  0.254700  0.118800  1.0  0.0832
  C  C143  1  0.563800  0.215800  0.082400  1.0  0.3098
  C  C144  1  0.431000  0.242300  0.068200  1.0  -0.1435
  C  C145  1  0.413900  0.300900  0.091900  1.0  -0.1194
  C  C146  1  0.524800  0.337700  0.129900  1.0  -0.2399
  C  C147  1  0.658700  0.313500  0.142700  1.0  -0.0328
  C  C148  1  0.818600  0.226300  0.129600  1.0  -0.1596
  C  C149  1  0.064600  0.232800  0.182500  1.0  -0.0144
  C  C150  1  0.184400  0.269300  0.236400  1.0  -0.1297
  C  C151  1  0.322300  0.754700  0.381200  1.0  0.0837
  C  C152  1  0.436200  0.715800  0.417600  1.0  0.3095
  C  C153  1  0.569000  0.742300  0.431800  1.0  -0.1451
  C  C154  1  0.586100  0.800900  0.408100  1.0  -0.1213
  C  C155  1  0.475200  0.837700  0.370100  1.0  -0.2397
  C  C156  1  0.341300  0.813500  0.357300  1.0  -0.0336
  C  C157  1  0.181400  0.726300  0.370400  1.0  -0.1608
  C  C158  1  0.935400  0.732800  0.317500  1.0  -0.0138
  C  C159  1  0.815600  0.769300  0.263600  1.0  -0.1293
  C  C160  1  0.822300  0.254700  0.881200  1.0  0.0837
  C  C161  1  0.936200  0.215800  0.917600  1.0  0.3095
  C  C162  1  0.069000  0.242300  0.931800  1.0  -0.1451
  C  C163  1  0.086100  0.300900  0.908100  1.0  -0.1213
  C  C164  1  0.975200  0.337700  0.870100  1.0  -0.2397
  C  C165  1  0.841300  0.313500  0.857300  1.0  -0.0336
  C  C166  1  0.681400  0.226300  0.870400  1.0  -0.1608
  C  C167  1  0.435400  0.232800  0.817500  1.0  -0.0138
  C  C168  1  0.315600  0.269300  0.763600  1.0  -0.1293
  S  S169  1  0.002350  0.087530  0.340220  1.0  1.4073
  S  S170  1  0.502350  0.587530  0.840220  1.0  1.4073
  S  S171  1  0.497650  0.087530  0.659780  1.0  1.4083
  S  S172  1  0.997650  0.587530  0.159780  1.0  1.4083
  S  S173  1  0.997650  0.912470  0.659780  1.0  1.4079
  S  S174  1  0.497650  0.412470  0.159780  1.0  1.4079
  S  S175  1  0.502350  0.912470  0.340220  1.0  1.4079
  S  S176  1  0.002350  0.412470  0.840220  1.0  1.4079
  N  N177  1  0.566300  0.234500  0.324900  1.0  -0.3797
  N  N178  1  0.066300  0.734500  0.824900  1.0  -0.3797
  N  N179  1  0.933700  0.234500  0.675100  1.0  -0.3827
  N  N180  1  0.433700  0.734500  0.175100  1.0  -0.3827
  N  N181  1  0.433700  0.765500  0.675100  1.0  -0.3843
  N  N182  1  0.933700  0.265500  0.175100  1.0  -0.3843
  N  N183  1  0.066300  0.765500  0.324900  1.0  -0.3811
  N  N184  1  0.566300  0.265500  0.824900  1.0  -0.3811
  O  O185  1  0.921100  0.341000  0.436700  1.0  -0.5268
  O  O186  1  0.101600  0.089700  0.288100  1.0  -0.748
  O  O187  1  0.056900  0.054000  0.421100  1.0  -0.7655
  O  O188  1  0.871000  0.062900  0.289900  1.0  -0.7489
  O  O189  1  0.421100  0.841000  0.936700  1.0  -0.5268
  O  O190  1  0.601600  0.589700  0.788100  1.0  -0.748
  O  O191  1  0.556900  0.554000  0.921100  1.0  -0.7655
  O  O192  1  0.371000  0.562900  0.789900  1.0  -0.7489
  O  O193  1  0.578900  0.341000  0.563300  1.0  -0.5257
  O  O194  1  0.398400  0.089700  0.711900  1.0  -0.75
  O  O195  1  0.443100  0.054000  0.578900  1.0  -0.7652
  O  O196  1  0.629000  0.062900  0.710100  1.0  -0.75
  O  O197  1  0.078900  0.841000  0.063300  1.0  -0.5257
  O  O198  1  0.898400  0.589700  0.211900  1.0  -0.75
  O  O199  1  0.943100  0.554000  0.078900  1.0  -0.7652
  O  O200  1  0.129000  0.562900  0.210100  1.0  -0.75
  O  O201  1  0.078900  0.659000  0.563300  1.0  -0.5253
  O  O202  1  0.898400  0.910300  0.711900  1.0  -0.7443
  O  O203  1  0.943100  0.946000  0.578900  1.0  -0.7641
  O  O204  1  0.129000  0.937100  0.710100  1.0  -0.7495
  O  O205  1  0.578900  0.159000  0.063300  1.0  -0.5253
  O  O206  1  0.398400  0.410300  0.211900  1.0  -0.7443
  O  O207  1  0.443100  0.446000  0.078900  1.0  -0.7641
  O  O208  1  0.629000  0.437100  0.210100  1.0  -0.7495
  O  O209  1  0.421100  0.659000  0.436700  1.0  -0.5255
  O  O210  1  0.601600  0.910300  0.288100  1.0  -0.7455
  O  O211  1  0.556900  0.946000  0.421100  1.0  -0.7657
  O  O212  1  0.371000  0.937100  0.289900  1.0  -0.7498
  O  O213  1  0.921100  0.159000  0.936700  1.0  -0.5255
  O  O214  1  0.101600  0.410300  0.788100  1.0  -0.7455
  O  O215  1  0.056900  0.446000  0.921100  1.0  -0.7657
  O  O216  1  0.871000  0.437100  0.789900  1.0  -0.7498
  O  O217  1  0.750000  0.057400  0.500000  1.0  -0.8401
  O  O218  1  0.250000  0.557400  0.000000  1.0  -0.8401
  O  O219  1  0.250000  0.942600  0.500000  1.0  -0.834
  O  O220  1  0.750000  0.442600  0.000000  1.0  -0.834
