# generated using pymatgen
data_PrH4C5O6
_symmetry_space_group_name_H-M   'P 1'
_cell_length_a   9.16310000
_cell_length_b   9.16310000
_cell_length_c   14.82130000
_cell_angle_alpha   100.01900000
_cell_angle_beta   100.02000000
_cell_angle_gamma   115.92300000
_symmetry_Int_Tables_number   1
_chemical_formula_structural   PrH4C5O6
_chemical_formula_sum   'Pr4 H16 C20 O24'
_cell_volume   1057.31482585
_cell_formula_units_Z   4
loop_
 _symmetry_equiv_pos_site_id
 _symmetry_equiv_pos_as_xyz
  1  'x, y, z'
loop_
 _atom_site_type_symbol
 _atom_site_label
 _atom_site_symmetry_multiplicity
 _atom_site_fract_x
 _atom_site_fract_y
 _atom_site_fract_z
 _atom_site_occupancy
 _atom_site_charge
  Pr  Pr1  1  0.240540  0.490540  0.981080  1.0  2.1982
  Pr  Pr2  1  0.009460  0.259460  0.518920  1.0  2.1979
  Pr  Pr3  1  0.759460  0.509460  0.018920  1.0  2.1979
  Pr  Pr4  1  0.990540  0.740540  0.481080  1.0  2.1982
  H  H5  1  0.658500  0.061900  0.969600  1.0  0.1013
  H  H6  1  0.636700  0.021700  0.859800  1.0  0.1216
  H  H7  1  0.811100  0.907700  0.969600  1.0  0.1004
  H  H8  1  0.723100  0.838100  0.859800  1.0  0.1216
  H  H9  1  0.438100  0.841500  0.530400  1.0  0.1012
  H  H10  1  0.478300  0.863300  0.640200  1.0  0.1222
  H  H11  1  0.592300  0.688900  0.530400  1.0  0.0991
  H  H12  1  0.661900  0.776900  0.640200  1.0  0.122
  H  H13  1  0.341500  0.938100  0.030400  1.0  0.1002
  H  H14  1  0.363300  0.978300  0.140200  1.0  0.1222
  H  H15  1  0.188900  0.092300  0.030400  1.0  0.0993
  H  H16  1  0.276900  0.161900  0.140200  1.0  0.1222
  H  H17  1  0.561900  0.158500  0.469600  1.0  0.1014
  H  H18  1  0.521700  0.136700  0.359800  1.0  0.1215
  H  H19  1  0.407700  0.311100  0.469600  1.0  0.0993
  H  H20  1  0.338100  0.223100  0.359800  1.0  0.1213
  C  C21  1  0.876370  0.193170  0.937540  1.0  0.8037
  C  C22  1  0.709800  0.038600  0.921000  1.0  -0.2633
  C  C23  1  0.561170  0.744370  0.937540  1.0  0.8071
  C  C24  1  0.711200  0.882400  0.921000  1.0  -0.2601
  C  C25  1  0.306830  0.623630  0.562460  1.0  0.7939
  C  C26  1  0.461400  0.790200  0.579000  1.0  -0.2617
  C  C27  1  0.755630  0.938830  0.562460  1.0  0.806
  C  C28  1  0.617600  0.788800  0.579000  1.0  -0.2621
  C  C29  1  0.123630  0.806830  0.062460  1.0  0.7941
  C  C30  1  0.290200  0.961400  0.079000  1.0  -0.2604
  C  C31  1  0.438830  0.255630  0.062460  1.0  0.8081
  C  C32  1  0.288800  0.117600  0.079000  1.0  -0.2627
  C  C33  1  0.693170  0.376370  0.437540  1.0  0.8016
  C  C34  1  0.538600  0.209800  0.421000  1.0  -0.2655
  C  C35  1  0.244370  0.061170  0.437540  1.0  0.8073
  C  C36  1  0.382400  0.211200  0.421000  1.0  -0.2613
  C  C37  1  0.175100  0.324900  0.750000  1.0  0.5345
  C  C38  1  0.074900  0.425100  0.750000  1.0  0.5345
  C  C39  1  0.824900  0.675100  0.250000  1.0  0.5345
  C  C40  1  0.925100  0.574900  0.250000  1.0  0.5345
  O  O41  1  0.001310  0.182190  0.920300  1.0  -0.6902
  O  O42  1  0.262020  0.339660  0.829480  1.0  -0.639
  O  O43  1  0.885130  0.334390  0.967120  1.0  -0.8041
  O  O44  1  0.418990  0.738110  0.920300  1.0  -0.6863
  O  O45  1  0.067460  0.489820  0.829480  1.0  -0.637
  O  O46  1  0.581990  0.632730  0.967120  1.0  -0.7987
  O  O47  1  0.317810  0.498690  0.579700  1.0  -0.6894
  O  O48  1  0.160340  0.237980  0.670520  1.0  -0.6401
  O  O49  1  0.165610  0.614870  0.532880  1.0  -0.8035
  O  O50  1  0.761890  0.081010  0.579700  1.0  -0.6877
  O  O51  1  0.010180  0.432540  0.670520  1.0  -0.6388
  O  O52  1  0.867270  0.918010  0.532880  1.0  -0.795
  O  O53  1  0.998690  0.817810  0.079700  1.0  -0.6887
  O  O54  1  0.737980  0.660340  0.170520  1.0  -0.6386
  O  O55  1  0.114870  0.665610  0.032880  1.0  -0.8041
  O  O56  1  0.581010  0.261890  0.079700  1.0  -0.6896
  O  O57  1  0.932540  0.510180  0.170520  1.0  -0.6388
  O  O58  1  0.418010  0.367270  0.032880  1.0  -0.8014
  O  O59  1  0.682190  0.501310  0.420300  1.0  -0.6893
  O  O60  1  0.839660  0.762020  0.329480  1.0  -0.6379
  O  O61  1  0.834390  0.385130  0.467120  1.0  -0.804
  O  O62  1  0.238110  0.918990  0.420300  1.0  -0.6867
  O  O63  1  0.989820  0.567460  0.329480  1.0  -0.6391
  O  O64  1  0.132730  0.081990  0.467120  1.0  -0.8038
