# generated using pymatgen
data_Ce2C12S3(NO2)6
_symmetry_space_group_name_H-M   'P 1'
_cell_length_a   6.97500000
_cell_length_b   12.90100000
_cell_length_c   13.55100000
_cell_angle_alpha   90.00000000
_cell_angle_beta   100.72900000
_cell_angle_gamma   90.00000000
_symmetry_Int_Tables_number   1
_chemical_formula_structural   Ce2C12S3(NO2)6
_chemical_formula_sum   'Ce4 C24 S6 N12 O24'
_cell_volume   1198.06327533
_cell_formula_units_Z   2
loop_
 _symmetry_equiv_pos_site_id
 _symmetry_equiv_pos_as_xyz
  1  'x, y, z'
loop_
 _atom_site_type_symbol
 _atom_site_label
 _atom_site_symmetry_multiplicity
 _atom_site_fract_x
 _atom_site_fract_y
 _atom_site_fract_z
 _atom_site_occupancy
 _atom_site_charge
  Ce  Ce1  1  0.206630  0.960120  0.041230  1.0  2.19
  Ce  Ce2  1  0.414720  0.037650  0.558640  1.0  2.252
  Ce  Ce3  1  0.793370  0.460120  0.958770  1.0  2.1898
  Ce  Ce4  1  0.585280  0.537650  0.441360  1.0  2.251
  C  C5  1  0.045000  0.986900  0.773900  1.0  0.1689
  C  C6  1  0.909000  0.013700  0.689300  1.0  0.1171
  C  C7  1  0.262000  0.002000  0.797300  1.0  0.7108
  C  C8  1  0.928000  0.069100  0.592800  1.0  0.6726
  C  C9  1  0.373000  0.871500  0.287300  1.0  0.1842
  C  C10  1  0.459000  0.795500  0.357800  1.0  0.0838
  C  C11  1  0.323000  0.980600  0.296700  1.0  0.6972
  C  C12  1  0.557000  0.800400  0.465900  1.0  0.7257
  C  C13  1  0.644000  0.820100  0.015600  1.0  0.1182
  C  C14  1  0.746000  0.733100  0.992400  1.0  0.1182
  C  C15  1  0.713000  0.920100  0.072100  1.0  0.6518
  C  C16  1  0.959000  0.711300  0.005800  1.0  0.6956
  C  C17  1  0.955000  0.486900  0.226100  1.0  0.1676
  C  C18  1  0.091000  0.513700  0.310700  1.0  0.1185
  C  C19  1  0.738000  0.502000  0.202700  1.0  0.7111
  C  C20  1  0.072000  0.569100  0.407200  1.0  0.6728
  C  C21  1  0.627000  0.371500  0.712700  1.0  0.1843
  C  C22  1  0.541000  0.295500  0.642200  1.0  0.0838
  C  C23  1  0.677000  0.480600  0.703300  1.0  0.6977
  C  C24  1  0.443000  0.300400  0.534100  1.0  0.7248
  C  C25  1  0.356000  0.320100  0.984400  1.0  0.1169
  C  C26  1  0.254000  0.233100  0.007600  1.0  0.118
  C  C27  1  0.287000  0.420100  0.927900  1.0  0.6517
  C  C28  1  0.041000  0.211300  0.994200  1.0  0.6969
  S  S29  1  0.741700  0.941400  0.811700  1.0  0.1366
  S  S30  1  0.367100  0.708200  0.201000  1.0  0.1317
  S  S31  1  0.403100  0.692600  0.947700  1.0  0.1642
  S  S32  1  0.258300  0.441400  0.188300  1.0  0.1362
  S  S33  1  0.632900  0.208200  0.799000  1.0  0.1322
  S  S34  1  0.596900  0.192600  0.052300  1.0  0.1588
  N  N35  1  0.975000  0.952500  0.849600  1.0  -0.3126
  N  N36  1  0.731000  0.989300  0.700200  1.0  -0.2897
  N  N37  1  0.314000  0.832100  0.198800  1.0  -0.2868
  N  N38  1  0.463000  0.701700  0.315400  1.0  -0.3545
  N  N39  1  0.453000  0.806300  0.994900  1.0  -0.3004
  N  N40  1  0.625000  0.656400  0.953800  1.0  -0.2804
  N  N41  1  0.025000  0.452500  0.150400  1.0  -0.3131
  N  N42  1  0.269000  0.489300  0.299800  1.0  -0.2866
  N  N43  1  0.686000  0.332100  0.801200  1.0  -0.2869
  N  N44  1  0.537000  0.201700  0.684600  1.0  -0.3544
  N  N45  1  0.547000  0.306300  0.005100  1.0  -0.2977
  N  N46  1  0.375000  0.156400  0.046200  1.0  -0.2792
  O  O47  1  0.346000  0.004300  0.890400  1.0  -0.6194
  O  O48  1  0.360300  0.005500  0.729900  1.0  -0.72
  O  O49  1  0.078000  0.092800  0.573000  1.0  -0.6448
  O  O50  1  0.757000  0.088700  0.535300  1.0  -0.6508
  O  O51  1  0.259600  0.028900  0.214800  1.0  -0.6779
  O  O52  1  0.329000  0.024900  0.379900  1.0  -0.7187
  O  O53  1  0.585000  0.888000  0.507500  1.0  -0.6693
  O  O54  1  0.615000  0.717200  0.509400  1.0  -0.657
  O  O55  1  0.578000  0.972700  0.097000  1.0  -0.6647
  O  O56  1  0.887400  0.941100  0.091800  1.0  -0.6669
  O  O57  1  0.073000  0.780100  0.005200  1.0  -0.691
  O  O58  1  0.000000  0.615400  0.008900  1.0  -0.6097
  O  O59  1  0.654000  0.504300  0.109600  1.0  -0.6189
  O  O60  1  0.639700  0.505500  0.270100  1.0  -0.7196
  O  O61  1  0.922000  0.592800  0.427000  1.0  -0.6436
  O  O62  1  0.243000  0.588700  0.464700  1.0  -0.6535
  O  O63  1  0.740400  0.528900  0.785200  1.0  -0.6791
  O  O64  1  0.671000  0.524900  0.620100  1.0  -0.7199
  O  O65  1  0.415000  0.388000  0.492500  1.0  -0.67
  O  O66  1  0.385000  0.217200  0.490600  1.0  -0.6592
  O  O67  1  0.422000  0.472700  0.903000  1.0  -0.6666
  O  O68  1  0.112600  0.441100  0.908200  1.0  -0.6668
  O  O69  1  0.927000  0.280100  0.994800  1.0  -0.6905
  O  O70  1  0.000000  0.115400  0.991100  1.0  -0.6104
