# generated using pymatgen
data_La2C12S3(NO2)6
_symmetry_space_group_name_H-M   'P 1'
_cell_length_a   7.04040000
_cell_length_b   13.00150000
_cell_length_c   13.73380000
_cell_angle_alpha   90.00000000
_cell_angle_beta   100.88100000
_cell_angle_gamma   90.00000000
_symmetry_Int_Tables_number   1
_chemical_formula_structural   La2C12S3(NO2)6
_chemical_formula_sum   'La4 C24 S6 N12 O24'
_cell_volume   1234.53227883
_cell_formula_units_Z   2
loop_
 _symmetry_equiv_pos_site_id
 _symmetry_equiv_pos_as_xyz
  1  'x, y, z'
loop_
 _atom_site_type_symbol
 _atom_site_label
 _atom_site_symmetry_multiplicity
 _atom_site_fract_x
 _atom_site_fract_y
 _atom_site_fract_z
 _atom_site_occupancy
 _atom_site_charge
  La  La1  1  0.792350  0.038440  0.957740  1.0  2.1015
  La  La2  1  0.586780  0.964090  0.440740  1.0  2.1576
  La  La3  1  0.207650  0.538440  0.042260  1.0  2.1008
  La  La4  1  0.413220  0.464090  0.559260  1.0  2.1582
  C  C5  1  0.948000  0.009600  0.224800  1.0  0.067
  C  C6  1  0.090600  0.986100  0.311000  1.0  0.1075
  C  C7  1  0.732800  0.997100  0.200700  1.0  0.7524
  C  C8  1  0.079000  0.931100  0.407600  1.0  0.694
  C  C9  1  0.627600  0.130400  0.711400  1.0  0.1096
  C  C10  1  0.540700  0.205100  0.641800  1.0  0.1023
  C  C11  1  0.678600  0.017000  0.703300  1.0  0.7271
  C  C12  1  0.441300  0.198700  0.534200  1.0  0.7057
  C  C13  1  0.357800  0.179100  0.981700  1.0  0.1438
  C  C14  1  0.255800  0.265000  0.007500  1.0  0.1794
  C  C15  1  0.290400  0.079600  0.927800  1.0  0.6959
  C  C16  1  0.043400  0.287900  0.996800  1.0  0.6863
  C  C17  1  0.052000  0.509600  0.775200  1.0  0.0685
  C  C18  1  0.909400  0.486100  0.689000  1.0  0.1095
  C  C19  1  0.267200  0.497100  0.799300  1.0  0.7511
  C  C20  1  0.921000  0.431100  0.592400  1.0  0.6942
  C  C21  1  0.372400  0.630400  0.288600  1.0  0.1099
  C  C22  1  0.459300  0.705100  0.358200  1.0  0.103
  C  C23  1  0.321400  0.517000  0.296700  1.0  0.7277
  C  C24  1  0.558700  0.698700  0.465800  1.0  0.7059
  C  C25  1  0.642200  0.679100  0.018300  1.0  0.1453
  C  C26  1  0.744200  0.765000  0.992500  1.0  0.1827
  C  C27  1  0.709600  0.579600  0.072200  1.0  0.6955
  C  C28  1  0.956600  0.787900  0.003200  1.0  0.685
  S  S29  1  0.258100  0.057360  0.187740  1.0  0.1339
  S  S30  1  0.632100  0.291240  0.798140  1.0  0.147
  S  S31  1  0.595300  0.306820  0.049230  1.0  0.1766
  S  S32  1  0.741900  0.557360  0.812260  1.0  0.1332
  S  S33  1  0.367900  0.791240  0.201860  1.0  0.1475
  S  S34  1  0.404700  0.806820  0.950770  1.0  0.1806
  N  N35  1  0.025800  0.049800  0.150700  1.0  -0.2913
  N  N36  1  0.269000  0.010000  0.298700  1.0  -0.2559
  N  N37  1  0.684900  0.169100  0.801100  1.0  -0.2992
  N  N38  1  0.536500  0.297900  0.683400  1.0  -0.332
  N  N39  1  0.548000  0.192000  0.003300  1.0  -0.294
  N  N40  1  0.371600  0.340100  0.044000  1.0  -0.2508
  N  N41  1  0.974200  0.549800  0.849300  1.0  -0.2909
  N  N42  1  0.731000  0.510000  0.701300  1.0  -0.2577
  N  N43  1  0.315100  0.669100  0.198900  1.0  -0.2998
  N  N44  1  0.463500  0.797900  0.316600  1.0  -0.3306
  N  N45  1  0.452000  0.692000  0.996700  1.0  -0.2971
  N  N46  1  0.628400  0.840100  0.956000  1.0  -0.2528
  O  O47  1  0.658300  0.995400  0.111600  1.0  -0.5773
  O  O48  1  0.641100  0.993300  0.269500  1.0  -0.7158
  O  O49  1  0.921600  0.909100  0.426900  1.0  -0.6528
  O  O50  1  0.242300  0.912400  0.460700  1.0  -0.651
  O  O51  1  0.733500  0.972000  0.783400  1.0  -0.6409
  O  O52  1  0.673000  0.979400  0.619700  1.0  -0.767
  O  O53  1  0.413000  0.112700  0.493300  1.0  -0.658
  O  O54  1  0.382500  0.282900  0.494100  1.0  -0.6382
  O  O55  1  0.421100  0.025300  0.902800  1.0  -0.6766
  O  O56  1  0.114300  0.059000  0.908800  1.0  -0.6887
  O  O57  1  0.927100  0.217100  0.995400  1.0  -0.7009
  O  O58  1  0.000400  0.382500  0.992400  1.0  -0.6007
  O  O59  1  0.341700  0.495400  0.888400  1.0  -0.5768
  O  O60  1  0.358900  0.493300  0.730500  1.0  -0.7159
  O  O61  1  0.078400  0.409100  0.573100  1.0  -0.6537
  O  O62  1  0.757700  0.412400  0.539300  1.0  -0.6503
  O  O63  1  0.266500  0.472000  0.216600  1.0  -0.6406
  O  O64  1  0.327000  0.479400  0.380300  1.0  -0.7674
  O  O65  1  0.587000  0.612700  0.506700  1.0  -0.659
  O  O66  1  0.617500  0.782900  0.505900  1.0  -0.6378
  O  O67  1  0.578900  0.525300  0.097200  1.0  -0.6753
  O  O68  1  0.885700  0.559000  0.091200  1.0  -0.6886
  O  O69  1  0.072900  0.717100  0.004600  1.0  -0.7009
  O  O70  1  0.999600  0.882500  0.007600  1.0  -0.5995
