# generated using pymatgen
data_FeCu2P2H20C18(BrN)2
_symmetry_space_group_name_H-M   'P 1'
_cell_length_a   25.02750000
_cell_length_b   25.02750000
_cell_length_c   25.02750000
_cell_angle_alpha   109.47100000
_cell_angle_beta   109.47100000
_cell_angle_gamma   109.47100000
_symmetry_Int_Tables_number   1
_chemical_formula_structural   FeCu2P2H20C18(BrN)2
_chemical_formula_sum   'Fe12 Cu24 P24 H240 C216 Br24 N24'
_cell_volume   12067.96569595
_cell_formula_units_Z   12
loop_
 _symmetry_equiv_pos_site_id
 _symmetry_equiv_pos_as_xyz
  1  'x, y, z'
loop_
 _atom_site_type_symbol
 _atom_site_label
 _atom_site_symmetry_multiplicity
 _atom_site_fract_x
 _atom_site_fract_y
 _atom_site_fract_z
 _atom_site_occupancy
 _atom_site_charge
  Fe  Fe1  1  0.175540  0.000000  0.519140  1.0  0.1468
  Fe  Fe2  1  0.519140  0.000000  0.175540  1.0  0.1463
  Fe  Fe3  1  0.656400  0.480860  0.480860  1.0  0.1447
  Fe  Fe4  1  0.000000  0.175540  0.519140  1.0  0.1446
  Fe  Fe5  1  0.480860  0.480860  0.656400  1.0  0.141
  Fe  Fe6  1  0.175540  0.519140  0.000000  1.0  0.149
  Fe  Fe7  1  0.824460  0.343600  0.824460  1.0  0.1448
  Fe  Fe8  1  0.824460  0.824460  0.343600  1.0  0.1403
  Fe  Fe9  1  0.519140  0.175540  0.000000  1.0  0.148
  Fe  Fe10  1  0.000000  0.519140  0.175540  1.0  0.1451
  Fe  Fe11  1  0.343600  0.824460  0.824460  1.0  0.1437
  Fe  Fe12  1  0.480860  0.656400  0.480860  1.0  0.1442
  Cu  Cu13  1  0.575000  0.256590  0.729770  1.0  0.3582
  Cu  Cu14  1  0.270230  0.845230  0.526820  1.0  0.3565
  Cu  Cu15  1  0.729770  0.256590  0.575000  1.0  0.3512
  Cu  Cu16  1  0.473180  0.743410  0.318410  1.0  0.3508
  Cu  Cu17  1  0.681590  0.154770  0.425000  1.0  0.356
  Cu  Cu18  1  0.743410  0.318410  0.473180  1.0  0.3574
  Cu  Cu19  1  0.845230  0.526820  0.270230  1.0  0.3574
  Cu  Cu20  1  0.729770  0.575000  0.256590  1.0  0.3565
  Cu  Cu21  1  0.526820  0.270230  0.845230  1.0  0.3509
  Cu  Cu22  1  0.256590  0.729770  0.575000  1.0  0.351
  Cu  Cu23  1  0.318410  0.743410  0.473180  1.0  0.3579
  Cu  Cu24  1  0.681590  0.425000  0.154770  1.0  0.3564
  Cu  Cu25  1  0.425000  0.154770  0.681590  1.0  0.3571
  Cu  Cu26  1  0.845230  0.270230  0.526820  1.0  0.3573
  Cu  Cu27  1  0.526820  0.845230  0.270230  1.0  0.3556
  Cu  Cu28  1  0.270230  0.526820  0.845230  1.0  0.3508
  Cu  Cu29  1  0.425000  0.681590  0.154770  1.0  0.3574
  Cu  Cu30  1  0.256590  0.575000  0.729770  1.0  0.3563
  Cu  Cu31  1  0.318410  0.473180  0.743410  1.0  0.3574
  Cu  Cu32  1  0.473180  0.318410  0.743410  1.0  0.3566
  Cu  Cu33  1  0.743410  0.473180  0.318410  1.0  0.3508
  Cu  Cu34  1  0.154770  0.425000  0.681590  1.0  0.3565
  Cu  Cu35  1  0.154770  0.681590  0.425000  1.0  0.3563
  Cu  Cu36  1  0.575000  0.729770  0.256590  1.0  0.3574
  P  P37  1  0.550210  0.938440  0.272590  1.0  0.7393
  P  P38  1  0.727410  0.665850  0.277620  1.0  0.757
  P  P39  1  0.722380  0.388230  0.449790  1.0  0.7734
  P  P40  1  0.061560  0.611770  0.334150  1.0  0.7901
  P  P41  1  0.272590  0.550210  0.938440  1.0  0.7925
  P  P42  1  0.272590  0.938440  0.550210  1.0  0.7393
  P  P43  1  0.611770  0.061560  0.334150  1.0  0.7971
  P  P44  1  0.449790  0.722380  0.388230  1.0  0.8182
  P  P45  1  0.665850  0.277620  0.727410  1.0  0.7949
  P  P46  1  0.388230  0.449790  0.722380  1.0  0.7976
  P  P47  1  0.334150  0.611770  0.061560  1.0  0.7867
  P  P48  1  0.334150  0.061560  0.611770  1.0  0.7972
  P  P49  1  0.061560  0.334150  0.611770  1.0  0.7818
  P  P50  1  0.277620  0.665850  0.727410  1.0  0.7675
  P  P51  1  0.727410  0.277620  0.665850  1.0  0.8172
  P  P52  1  0.611770  0.334150  0.061560  1.0  0.7935
  P  P53  1  0.938440  0.550210  0.272590  1.0  0.7733
  P  P54  1  0.550210  0.272590  0.938440  1.0  0.793
  P  P55  1  0.388230  0.722380  0.449790  1.0  0.7952
  P  P56  1  0.722380  0.449790  0.388230  1.0  0.8158
  P  P57  1  0.938440  0.272590  0.550210  1.0  0.7567
  P  P58  1  0.665850  0.727410  0.277620  1.0  0.7801
  P  P59  1  0.277620  0.727410  0.665850  1.0  0.8152
  P  P60  1  0.449790  0.388230  0.722380  1.0  0.7768
  H  H61  1  0.348900  0.059300  0.782400  1.0  0.1064
  H  H62  1  0.601300  0.673300  0.518000  1.0  0.1012
  H  H63  1  0.151200  0.570100  0.920900  1.0  0.1268
  H  H64  1  0.059300  0.348900  0.782400  1.0  0.1058
  H  H65  1  0.432800  0.703000  0.766200  1.0  0.1072
  H  H66  1  0.748800  0.370800  0.098400  1.0  0.1093
  H  H67  1  0.432100  0.946200  0.856500  1.0  0.0771
  H  H68  1  0.143500  0.575600  0.089700  1.0  0.0779
  H  H69  1  0.350800  0.429900  0.581100  1.0  0.1242
  H  H70  1  0.666667  0.233800  0.936800  1.0  0.1114
  H  H71  1  0.451100  0.862400  0.549100  1.0  0.1108
  H  H72  1  0.450900  0.902000  0.313300  1.0  0.1126
  H  H73  1  0.766200  0.703000  0.432800  1.0  0.1051
  H  H74  1  0.258200  0.077200  0.496200  1.0  0.0949
  H  H75  1  0.928000  0.326700  0.844700  1.0  0.1012
  H  H76  1  0.450900  0.313300  0.902000  1.0  0.1153
  H  H77  1  0.326700  0.928000  0.844700  1.0  0.1009
  H  H78  1  0.910300  0.053800  0.485900  1.0  0.0773
  H  H79  1  0.230300  0.079100  0.649200  1.0  0.1255
  H  H80  1  0.346900  0.062600  0.481700  1.0  0.1081
  H  H81  1  0.155300  0.083300  0.482000  1.0  0.0995
  H  H82  1  0.946200  0.856500  0.432100  1.0  0.0762
  H  H83  1  0.729800  0.063200  0.297000  1.0  0.1122
  H  H84  1  0.063200  0.729800  0.297000  1.0  0.1112
  H  H85  1  0.089700  0.575600  0.143500  1.0  0.0772
  H  H86  1  0.715700  0.653100  0.134800  1.0  0.1116
  H  H87  1  0.567200  0.270200  0.333400  1.0  0.1072
  H  H88  1  0.518000  0.673300  0.601300  1.0  0.1013
  H  H89  1  0.920900  0.570100  0.151200  1.0  0.1272
  H  H90  1  0.079100  0.649200  0.230300  1.0  0.1274
  H  H91  1  0.326700  0.844700  0.928000  1.0  0.1016
  H  H92  1  0.848800  0.769700  0.418900  1.0  0.1281
  H  H93  1  0.270200  0.333400  0.567200  1.0  0.1049
  H  H94  1  0.433500  0.710400  0.651100  1.0  0.104
  H  H95  1  0.727600  0.629200  0.378000  1.0  0.1105
  H  H96  1  0.622000  0.349600  0.251200  1.0  0.1088
  H  H97  1  0.819000  0.741800  0.238000  1.0  0.0961
  H  H98  1  0.151200  0.920900  0.570100  1.0  0.1265
  H  H99  1  0.313300  0.902000  0.450900  1.0  0.1126
  H  H100  1  0.181000  0.922800  0.419000  1.0  0.0945
  H  H101  1  0.936800  0.233800  0.666667  1.0  0.1099
  H  H102  1  0.902000  0.313300  0.450900  1.0  0.1165
  H  H103  1  0.346900  0.481700  0.062600  1.0  0.1121
  H  H104  1  0.865200  0.580900  0.518300  1.0  0.1115
  H  H105  1  0.079100  0.230300  0.649200  1.0  0.125
  H  H106  1  0.083300  0.482000  0.155300  1.0  0.1006
  H  H107  1  0.485900  0.910300  0.053800  1.0  0.0773
  H  H108  1  0.333400  0.567200  0.270200  1.0  0.1021
  H  H109  1  0.062600  0.346900  0.481700  1.0  0.1113
  H  H110  1  0.581000  0.503800  0.762000  1.0  0.1001
  H  H111  1  0.516200  0.573700  0.924500  1.0  0.1135
  H  H112  1  0.910300  0.485900  0.053800  1.0  0.0776
  H  H113  1  0.482000  0.083300  0.155300  1.0  0.0988
  H  H114  1  0.856500  0.432100  0.946200  1.0  0.0775
  H  H115  1  0.297000  0.729800  0.063200  1.0  0.1112
  H  H116  1  0.143500  0.089700  0.575600  1.0  0.0755
  H  H117  1  0.940700  0.289600  0.723100  1.0  0.1088
  H  H118  1  0.230300  0.649200  0.079100  1.0  0.126
  H  H119  1  0.496200  0.258200  0.077200  1.0  0.0938
  H  H120  1  0.937400  0.419100  0.284300  1.0  0.1109
  H  H121  1  0.916700  0.398700  0.072000  1.0  0.1012
  H  H122  1  0.258200  0.496200  0.077200  1.0  0.0947
  H  H123  1  0.727600  0.378000  0.629200  1.0  0.1083
  H  H124  1  0.270200  0.567200  0.333400  1.0  0.1032
  H  H125  1  0.077200  0.258200  0.496200  1.0  0.094
  H  H126  1  0.426300  0.942500  0.350800  1.0  0.1128
  H  H127  1  0.916700  0.072000  0.398700  1.0  0.1002
  H  H128  1  0.503800  0.762000  0.581000  1.0  0.1002
  H  H129  1  0.936800  0.666667  0.233800  1.0  0.1134
  H  H130  1  0.217600  0.276900  0.566500  1.0  0.1058
  H  H131  1  0.482000  0.155300  0.083300  1.0  0.0997
  H  H132  1  0.370800  0.098400  0.748800  1.0  0.1098
  H  H133  1  0.591700  0.075500  0.649200  1.0  0.1105
  H  H134  1  0.284300  0.937400  0.419100  1.0  0.1081
  H  H135  1  0.408300  0.057500  0.483800  1.0  0.1114
  H  H136  1  0.072000  0.916700  0.398700  1.0  0.1
  H  H137  1  0.922800  0.419000  0.181000  1.0  0.0948
  H  H138  1  0.622000  0.251200  0.349600  1.0  0.1101
  H  H139  1  0.514100  0.567900  0.424400  1.0  0.0758
  H  H140  1  0.378000  0.629200  0.727600  1.0  0.1094
  H  H141  1  0.862400  0.549100  0.451100  1.0  0.1142
  H  H142  1  0.715700  0.134800  0.653100  1.0  0.1113
  H  H143  1  0.419000  0.922800  0.181000  1.0  0.0936
  H  H144  1  0.591700  0.649200  0.075500  1.0  0.1126
  H  H145  1  0.063200  0.297000  0.729800  1.0  0.1103
  H  H146  1  0.083300  0.155300  0.482000  1.0  0.1001
  H  H147  1  0.901600  0.272400  0.650400  1.0  0.1087
  H  H148  1  0.729800  0.297000  0.063200  1.0  0.1104
  H  H149  1  0.922800  0.181000  0.419000  1.0  0.0945
  H  H150  1  0.424400  0.567900  0.514100  1.0  0.0765
  H  H151  1  0.766200  0.432800  0.703000  1.0  0.1043
  H  H152  1  0.233800  0.936800  0.666667  1.0  0.1132
  H  H153  1  0.928000  0.844700  0.326700  1.0  0.1016
  H  H154  1  0.370800  0.748800  0.098400  1.0  0.1096
  H  H155  1  0.289600  0.940700  0.723100  1.0  0.1096
  H  H156  1  0.920900  0.151200  0.570100  1.0  0.128
  H  H157  1  0.289600  0.723100  0.940700  1.0  0.1095
  H  H158  1  0.902000  0.450900  0.313300  1.0  0.1124
  H  H159  1  0.601300  0.518000  0.673300  1.0  0.1012
  H  H160  1  0.233800  0.666667  0.936800  1.0  0.1111
  H  H161  1  0.483800  0.057500  0.408300  1.0  0.1109
  H  H162  1  0.276900  0.217600  0.566500  1.0  0.1023
  H  H163  1  0.942500  0.426300  0.350800  1.0  0.1126
  H  H164  1  0.276900  0.566500  0.217600  1.0  0.1032
  H  H165  1  0.924500  0.573700  0.516200  1.0  0.1066
  H  H166  1  0.673300  0.518000  0.601300  1.0  0.1014
  H  H167  1  0.418900  0.769700  0.848800  1.0  0.128
  H  H168  1  0.059300  0.782400  0.348900  1.0  0.1053
  H  H169  1  0.483800  0.408300  0.057500  1.0  0.1104
  H  H170  1  0.819000  0.238000  0.741800  1.0  0.0972
  H  H171  1  0.575600  0.143500  0.089700  1.0  0.0764
  H  H172  1  0.703000  0.432800  0.766200  1.0  0.1037
  H  H173  1  0.653100  0.134800  0.715700  1.0  0.1124
  H  H174  1  0.549100  0.451100  0.862400  1.0  0.1156
  H  H175  1  0.748800  0.098400  0.370800  1.0  0.1091
  H  H176  1  0.518300  0.865200  0.580900  1.0  0.1106
  H  H177  1  0.098400  0.748800  0.370800  1.0  0.1103
  H  H178  1  0.134800  0.715700  0.653100  1.0  0.1116
  H  H179  1  0.649200  0.079100  0.230300  1.0  0.1277
  H  H180  1  0.137600  0.686700  0.588700  1.0  0.1155
  H  H181  1  0.901600  0.650400  0.272400  1.0  0.1112
  H  H182  1  0.350800  0.581100  0.429900  1.0  0.125
  H  H183  1  0.348900  0.782400  0.059300  1.0  0.1053
  H  H184  1  0.350800  0.426300  0.942500  1.0  0.1051
  H  H185  1  0.629200  0.727600  0.378000  1.0  0.1093
  H  H186  1  0.481700  0.346900  0.062600  1.0  0.1119
  H  H187  1  0.548900  0.098000  0.411300  1.0  0.1149
  H  H188  1  0.588700  0.686700  0.137600  1.0  0.1162
  H  H189  1  0.272400  0.901600  0.650400  1.0  0.1095
  H  H190  1  0.937400  0.284300  0.419100  1.0  0.1101
  H  H191  1  0.580900  0.865200  0.518300  1.0  0.1091
  H  H192  1  0.426300  0.350800  0.942500  1.0  0.1135
  H  H193  1  0.782400  0.348900  0.059300  1.0  0.1068
  H  H194  1  0.575600  0.089700  0.143500  1.0  0.0768
  H  H195  1  0.710400  0.651100  0.433500  1.0  0.1039
  H  H196  1  0.549100  0.862400  0.451100  1.0  0.116
  H  H197  1  0.865200  0.518300  0.580900  1.0  0.1111
  H  H198  1  0.651100  0.710400  0.433500  1.0  0.1033
  H  H199  1  0.333400  0.270200  0.567200  1.0  0.1049
  H  H200  1  0.650400  0.901600  0.272400  1.0  0.1095
  H  H201  1  0.432800  0.766200  0.703000  1.0  0.1039
  H  H202  1  0.134800  0.653100  0.715700  1.0  0.112
  H  H203  1  0.848800  0.418900  0.769700  1.0  0.1295
  H  H204  1  0.075500  0.649200  0.591700  1.0  0.112
  H  H205  1  0.432100  0.856500  0.946200  1.0  0.0766
  H  H206  1  0.651100  0.433500  0.710400  1.0  0.1051
  H  H207  1  0.741800  0.819000  0.238000  1.0  0.0973
  H  H208  1  0.723100  0.940700  0.289600  1.0  0.1091
  H  H209  1  0.844700  0.326700  0.928000  1.0  0.1012
  H  H210  1  0.567900  0.514100  0.424400  1.0  0.0768
  H  H211  1  0.098000  0.548900  0.411300  1.0  0.1165
  H  H212  1  0.411300  0.548900  0.098000  1.0  0.1144
  H  H213  1  0.424400  0.514100  0.567900  1.0  0.0775
  H  H214  1  0.686700  0.588700  0.137600  1.0  0.1148
  H  H215  1  0.098400  0.370800  0.748800  1.0  0.1108
  H  H216  1  0.496200  0.077200  0.258200  1.0  0.0932
  H  H217  1  0.946200  0.432100  0.856500  1.0  0.0777
  H  H218  1  0.649200  0.591700  0.075500  1.0  0.1125
  H  H219  1  0.503800  0.581000  0.762000  1.0  0.0978
  H  H220  1  0.940700  0.723100  0.289600  1.0  0.11
  H  H221  1  0.057500  0.483800  0.408300  1.0  0.1116
  H  H222  1  0.481700  0.062600  0.346900  1.0  0.1115
  H  H223  1  0.566500  0.217600  0.276900  1.0  0.1026
  H  H224  1  0.350800  0.942500  0.426300  1.0  0.112
  H  H225  1  0.349600  0.622000  0.251200  1.0  0.108
  H  H226  1  0.588700  0.137600  0.686700  1.0  0.1109
  H  H227  1  0.057500  0.408300  0.483800  1.0  0.1122
  H  H228  1  0.581100  0.350800  0.429900  1.0  0.1248
  H  H229  1  0.769700  0.418900  0.848800  1.0  0.1292
  H  H230  1  0.098000  0.411300  0.548900  1.0  0.1144
  H  H231  1  0.653100  0.715700  0.134800  1.0  0.1111
  H  H232  1  0.566500  0.276900  0.217600  1.0  0.1046
  H  H233  1  0.762000  0.503800  0.581000  1.0  0.0985
  H  H234  1  0.518300  0.580900  0.865200  1.0  0.1105
  H  H235  1  0.942500  0.350800  0.426300  1.0  0.1131
  H  H236  1  0.238000  0.819000  0.741800  1.0  0.0975
  H  H237  1  0.181000  0.419000  0.922800  1.0  0.0946
  H  H238  1  0.297000  0.063200  0.729800  1.0  0.1123
  H  H239  1  0.710400  0.433500  0.651100  1.0  0.1035
  H  H240  1  0.649200  0.230300  0.079100  1.0  0.1259
  H  H241  1  0.581100  0.429900  0.350800  1.0  0.1239
  H  H242  1  0.418900  0.848800  0.769700  1.0  0.1305
  H  H243  1  0.516200  0.924500  0.573700  1.0  0.1113
  H  H244  1  0.062600  0.481700  0.346900  1.0  0.1125
  H  H245  1  0.686700  0.137600  0.588700  1.0  0.1154
  H  H246  1  0.723100  0.289600  0.940700  1.0  0.108
  H  H247  1  0.137600  0.588700  0.686700  1.0  0.1157
  H  H248  1  0.419000  0.181000  0.922800  1.0  0.0928
  H  H249  1  0.485900  0.053800  0.910300  1.0  0.0771
  H  H250  1  0.570100  0.151200  0.920900  1.0  0.1296
  H  H251  1  0.580900  0.518300  0.865200  1.0  0.113
  H  H252  1  0.581000  0.762000  0.503800  1.0  0.0973
  H  H253  1  0.155300  0.482000  0.083300  1.0  0.1013
  H  H254  1  0.567900  0.424400  0.514100  1.0  0.0769
  H  H255  1  0.629200  0.378000  0.727600  1.0  0.1095
  H  H256  1  0.053800  0.910300  0.485900  1.0  0.0774
  H  H257  1  0.075500  0.591700  0.649200  1.0  0.1113
  H  H258  1  0.077200  0.496200  0.258200  1.0  0.0941
  H  H259  1  0.762000  0.581000  0.503800  1.0  0.0979
  H  H260  1  0.924500  0.516200  0.573700  1.0  0.1043
  H  H261  1  0.548900  0.411300  0.098000  1.0  0.1145
  H  H262  1  0.284300  0.419100  0.937400  1.0  0.11
  H  H263  1  0.666667  0.936800  0.233800  1.0  0.1145
  H  H264  1  0.251200  0.349600  0.622000  1.0  0.1107
  H  H265  1  0.782400  0.059300  0.348900  1.0  0.1066
  H  H266  1  0.251200  0.622000  0.349600  1.0  0.1089
  H  H267  1  0.272400  0.650400  0.901600  1.0  0.1082
  H  H268  1  0.419100  0.284300  0.937400  1.0  0.1114
  H  H269  1  0.769700  0.848800  0.418900  1.0  0.1302
  H  H270  1  0.089700  0.143500  0.575600  1.0  0.0752
  H  H271  1  0.856500  0.946200  0.432100  1.0  0.0765
  H  H272  1  0.419100  0.937400  0.284300  1.0  0.1106
  H  H273  1  0.053800  0.485900  0.910300  1.0  0.0783
  H  H274  1  0.451100  0.549100  0.862400  1.0  0.1126
  H  H275  1  0.398700  0.072000  0.916700  1.0  0.1002
  H  H276  1  0.844700  0.928000  0.326700  1.0  0.1012
  H  H277  1  0.650400  0.272400  0.901600  1.0  0.1081
  H  H278  1  0.429900  0.581100  0.350800  1.0  0.1257
  H  H279  1  0.349600  0.251200  0.622000  1.0  0.1106
  H  H280  1  0.429900  0.350800  0.581100  1.0  0.1272
  H  H281  1  0.567200  0.333400  0.270200  1.0  0.1039
  H  H282  1  0.313300  0.450900  0.902000  1.0  0.1132
  H  H283  1  0.741800  0.238000  0.819000  1.0  0.0971
  H  H284  1  0.570100  0.920900  0.151200  1.0  0.1286
  H  H285  1  0.433500  0.651100  0.710400  1.0  0.1063
  H  H286  1  0.238000  0.741800  0.819000  1.0  0.0965
  H  H287  1  0.411300  0.098000  0.548900  1.0  0.1136
  H  H288  1  0.514100  0.424400  0.567900  1.0  0.0777
  H  H289  1  0.378000  0.727600  0.629200  1.0  0.1085
  H  H290  1  0.703000  0.766200  0.432800  1.0  0.1046
  H  H291  1  0.649200  0.075500  0.591700  1.0  0.1102
  H  H292  1  0.217600  0.566500  0.276900  1.0  0.105
  H  H293  1  0.408300  0.483800  0.057500  1.0  0.1025
  H  H294  1  0.673300  0.601300  0.518000  1.0  0.1012
  H  H295  1  0.072000  0.398700  0.916700  1.0  0.1016
  H  H296  1  0.518000  0.601300  0.673300  1.0  0.1014
  H  H297  1  0.862400  0.451100  0.549100  1.0  0.1143
  H  H298  1  0.573700  0.924500  0.516200  1.0  0.1121
  H  H299  1  0.573700  0.516200  0.924500  1.0  0.1139
  H  H300  1  0.398700  0.916700  0.072000  1.0  0.0997
  C  C301  1  0.383800  0.059900  0.506100  1.0  -0.366
  C  C302  1  0.914900  0.091300  0.483600  1.0  -0.1219
  C  C303  1  0.392300  0.823600  0.908700  1.0  -0.1217
  C  C304  1  0.717000  0.553900  0.475700  1.0  -0.1332
  C  C305  1  0.392300  0.908700  0.823600  1.0  -0.125
  C  C306  1  0.861400  0.442500  0.442500  1.0  -0.1178
  C  C307  1  0.333600  0.816800  0.899200  1.0  -0.1718
  C  C308  1  0.565600  0.666400  0.483200  1.0  -0.1673
  C  C309  1  0.336300  0.060600  0.742300  1.0  -0.3616
  C  C310  1  0.292000  0.292000  0.682000  1.0  -0.1246
  C  C311  1  0.085100  0.568700  0.176400  1.0  -0.1209
  C  C312  1  0.122300  0.616200  0.676100  1.0  -0.3658
  C  C313  1  0.681700  0.275700  0.939400  1.0  -0.3685
  C  C314  1  0.506100  0.059900  0.383800  1.0  -0.366
  C  C315  1  0.639800  0.151800  0.639800  1.0  0.1651
  C  C316  1  0.848200  0.488000  0.488000  1.0  0.1646
  C  C317  1  0.442500  0.442500  0.861400  1.0  -0.123
  C  C318  1  0.323900  0.446200  0.940100  1.0  -0.3628
  C  C319  1  0.684900  0.418000  0.493500  1.0  -0.1276
  C  C320  1  0.553900  0.475700  0.717000  1.0  -0.1303
  C  C321  1  0.488000  0.848200  0.488000  1.0  0.1649
  C  C322  1  0.283000  0.758700  0.836900  1.0  -0.1333
  C  C323  1  0.385600  0.854500  0.774700  1.0  -0.2306
  C  C324  1  0.418000  0.493500  0.684900  1.0  -0.1333
  C  C325  1  0.724300  0.663700  0.406000  1.0  -0.3688
  C  C326  1  0.075500  0.582000  0.266900  1.0  -0.1264
  C  C327  1  0.075500  0.266900  0.582000  1.0  -0.1218
  C  C328  1  0.924500  0.506500  0.191400  1.0  -0.1341
  C  C329  1  0.360200  0.512000  0.000000  1.0  0.1613
  C  C330  1  0.553800  0.493900  0.877700  1.0  -0.3638
  C  C331  1  0.163100  0.921800  0.446100  1.0  -0.1315
  C  C332  1  0.431300  0.516400  0.607700  1.0  -0.1206
  C  C333  1  0.581100  0.581100  0.138600  1.0  -0.1153
  C  C334  1  0.145500  0.920200  0.531100  1.0  -0.2263
  C  C335  1  0.553800  0.877700  0.493900  1.0  -0.3635
  C  C336  1  0.836900  0.283000  0.758700  1.0  -0.1311
  C  C337  1  0.446100  0.921800  0.163100  1.0  -0.1309
  C  C338  1  0.091300  0.914900  0.483600  1.0  -0.1201
  C  C339  1  0.000000  0.512000  0.360200  1.0  0.1639
  C  C340  1  0.191400  0.924500  0.506500  1.0  -0.1266
  C  C341  1  0.418900  0.557500  0.000000  1.0  -0.1151
  C  C342  1  0.921800  0.446100  0.163100  1.0  -0.1295
  C  C343  1  0.060600  0.742300  0.336300  1.0  -0.3599
  C  C344  1  0.446200  0.940100  0.323900  1.0  -0.3628
  C  C345  1  0.493900  0.877700  0.553800  1.0  -0.3674
  C  C346  1  0.708000  0.000000  0.390000  1.0  -0.1227
  C  C347  1  0.506500  0.924500  0.191400  1.0  -0.1302
  C  C348  1  0.610900  0.225300  0.079800  1.0  -0.2164
  C  C349  1  0.390000  0.708000  0.000000  1.0  -0.1155
  C  C350  1  0.360200  0.000000  0.512000  1.0  0.1659
  C  C351  1  0.689700  0.324700  0.000000  1.0  0.1474
  C  C352  1  0.191400  0.506500  0.924500  1.0  -0.1276
  C  C353  1  0.275700  0.681700  0.939400  1.0  -0.3675
  C  C354  1  0.616200  0.676100  0.122300  1.0  -0.3618
  C  C355  1  0.000000  0.324700  0.689700  1.0  0.1479
  C  C356  1  0.315100  0.733100  0.808600  1.0  -0.1293
  C  C357  1  0.557500  0.000000  0.418900  1.0  -0.1198
  C  C358  1  0.594000  0.257700  0.318300  1.0  -0.3689
  C  C359  1  0.183200  0.082400  0.516800  1.0  -0.1708
  C  C360  1  0.568700  0.085100  0.176400  1.0  -0.1218
  C  C361  1  0.681700  0.939400  0.275700  1.0  -0.3676
  C  C362  1  0.854500  0.385600  0.774700  1.0  -0.2319
  C  C363  1  0.079800  0.610900  0.225300  1.0  -0.2205
  C  C364  1  0.225300  0.079800  0.610900  1.0  -0.215
  C  C365  1  0.516400  0.431300  0.607700  1.0  -0.1214
  C  C366  1  0.000000  0.418900  0.557500  1.0  -0.117
  C  C367  1  0.908700  0.392300  0.823600  1.0  -0.1253
  C  C368  1  0.336300  0.742300  0.060600  1.0  -0.3623
  C  C369  1  0.808600  0.315100  0.733100  1.0  -0.1281
  C  C370  1  0.488000  0.488000  0.848200  1.0  0.1678
  C  C371  1  0.283000  0.836900  0.758700  1.0  -0.1318
  C  C372  1  0.531100  0.920200  0.145500  1.0  -0.2332
  C  C373  1  0.816800  0.899200  0.333600  1.0  -0.1703
  C  C374  1  0.610000  0.318000  0.610000  1.0  -0.12
  C  C375  1  0.816800  0.333600  0.899200  1.0  -0.1671
  C  C376  1  0.557500  0.418900  0.000000  1.0  -0.1162
  C  C377  1  0.616200  0.122300  0.676100  1.0  -0.3664
  C  C378  1  0.318300  0.594000  0.257700  1.0  -0.3691
  C  C379  1  0.920200  0.145500  0.531100  1.0  -0.2252
  C  C380  1  0.689700  0.000000  0.324700  1.0  0.1478
  C  C381  1  0.483600  0.914900  0.091300  1.0  -0.1211
  C  C382  1  0.241300  0.078200  0.524300  1.0  -0.1309
  C  C383  1  0.774700  0.385600  0.854500  1.0  -0.233
  C  C384  1  0.333600  0.899200  0.816800  1.0  -0.1731
  C  C385  1  0.434400  0.917600  0.100800  1.0  -0.1703
  C  C386  1  0.406000  0.663700  0.724300  1.0  -0.3685
  C  C387  1  0.708000  0.390000  0.000000  1.0  -0.1158
  C  C388  1  0.581100  0.138600  0.581100  1.0  -0.1118
  C  C389  1  0.431300  0.607700  0.516400  1.0  -0.121
  C  C390  1  0.635000  0.310300  0.310300  1.0  0.1533
  C  C391  1  0.666400  0.483200  0.565600  1.0  -0.1738
  C  C392  1  0.663700  0.724300  0.406000  1.0  -0.3676
  C  C393  1  0.060600  0.336300  0.742300  1.0  -0.3617
  C  C394  1  0.122300  0.676100  0.616200  1.0  -0.3623
  C  C395  1  0.085100  0.176400  0.568700  1.0  -0.1231
  C  C396  1  0.082400  0.183200  0.516800  1.0  -0.1708
  C  C397  1  0.524300  0.241300  0.078200  1.0  -0.1333
  C  C398  1  0.266900  0.582000  0.075500  1.0  -0.121
  C  C399  1  0.924500  0.191400  0.506500  1.0  -0.1285
  C  C400  1  0.742300  0.336300  0.060600  1.0  -0.3616
  C  C401  1  0.000000  0.360200  0.512000  1.0  0.1628
  C  C402  1  0.614400  0.389100  0.468900  1.0  -0.2331
  C  C403  1  0.506100  0.383800  0.059900  1.0  -0.3678
  C  C404  1  0.607700  0.516400  0.431300  1.0  -0.1236
  C  C405  1  0.899200  0.816800  0.333600  1.0  -0.1704
  C  C406  1  0.676100  0.616200  0.122300  1.0  -0.3628
  C  C407  1  0.506500  0.191400  0.924500  1.0  -0.1277
  C  C408  1  0.383800  0.506100  0.059900  1.0  -0.3647
  C  C409  1  0.582000  0.075500  0.266900  1.0  -0.1232
  C  C410  1  0.553900  0.717000  0.475700  1.0  -0.132
  C  C411  1  0.406000  0.724300  0.663700  1.0  -0.3685
  C  C412  1  0.324700  0.689700  0.000000  1.0  0.1466
  C  C413  1  0.675300  0.675300  0.365000  1.0  0.152
  C  C414  1  0.610900  0.079800  0.225300  1.0  -0.2221
  C  C415  1  0.176400  0.568700  0.085100  1.0  -0.122
  C  C416  1  0.000000  0.689700  0.324700  1.0  0.1465
  C  C417  1  0.475700  0.717000  0.553900  1.0  -0.131
  C  C418  1  0.675300  0.365000  0.675300  1.0  0.1538
  C  C419  1  0.318000  0.610000  0.610000  1.0  -0.1209
  C  C420  1  0.000000  0.557500  0.418900  1.0  -0.12
  C  C421  1  0.475700  0.553900  0.717000  1.0  -0.1322
  C  C422  1  0.493500  0.684900  0.418000  1.0  -0.1291
  C  C423  1  0.266900  0.075500  0.582000  1.0  -0.1214
  C  C424  1  0.684900  0.493500  0.418000  1.0  -0.1261
  C  C425  1  0.275700  0.939400  0.681700  1.0  -0.3675
  C  C426  1  0.823600  0.908700  0.392300  1.0  -0.1213
  C  C427  1  0.176400  0.085100  0.568700  1.0  -0.1208
  C  C428  1  0.607700  0.431300  0.516400  1.0  -0.122
  C  C429  1  0.078200  0.241300  0.524300  1.0  -0.1323
  C  C430  1  0.524300  0.078200  0.241300  1.0  -0.1336
  C  C431  1  0.138600  0.581100  0.581100  1.0  -0.1145
  C  C432  1  0.808600  0.733100  0.315100  1.0  -0.1303
  C  C433  1  0.100800  0.917600  0.434400  1.0  -0.1706
  C  C434  1  0.468900  0.614400  0.389100  1.0  -0.2328
  C  C435  1  0.091300  0.483600  0.914900  1.0  -0.1236
  C  C436  1  0.292000  0.682000  0.292000  1.0  -0.1197
  C  C437  1  0.733100  0.315100  0.808600  1.0  -0.13
  C  C438  1  0.418900  0.000000  0.557500  1.0  -0.1142
  C  C439  1  0.310300  0.310300  0.635000  1.0  0.1528
  C  C440  1  0.082400  0.516800  0.183200  1.0  -0.1715
  C  C441  1  0.493900  0.553800  0.877700  1.0  -0.366
  C  C442  1  0.145500  0.531100  0.920200  1.0  -0.2304
  C  C443  1  0.939400  0.275700  0.681700  1.0  -0.3681
  C  C444  1  0.315100  0.808600  0.733100  1.0  -0.1262
  C  C445  1  0.483200  0.565600  0.666400  1.0  -0.1685
  C  C446  1  0.000000  0.708000  0.390000  1.0  -0.1232
  C  C447  1  0.758700  0.836900  0.283000  1.0  -0.13
  C  C448  1  0.663700  0.406000  0.724300  1.0  -0.3684
  C  C449  1  0.512000  0.360200  0.000000  1.0  0.1625
  C  C450  1  0.516400  0.607700  0.431300  1.0  -0.1262
  C  C451  1  0.516800  0.082400  0.183200  1.0  -0.1707
  C  C452  1  0.318300  0.257700  0.594000  1.0  -0.3674
  C  C453  1  0.733100  0.808600  0.315100  1.0  -0.1277
  C  C454  1  0.758700  0.283000  0.836900  1.0  -0.1304
  C  C455  1  0.610000  0.610000  0.318000  1.0  -0.1207
  C  C456  1  0.257700  0.594000  0.318300  1.0  -0.3696
  C  C457  1  0.531100  0.145500  0.920200  1.0  -0.2317
  C  C458  1  0.100800  0.434400  0.917600  1.0  -0.172
  C  C459  1  0.078200  0.524300  0.241300  1.0  -0.1314
  C  C460  1  0.059900  0.506100  0.383800  1.0  -0.3645
  C  C461  1  0.614400  0.468900  0.389100  1.0  -0.2317
  C  C462  1  0.257700  0.318300  0.594000  1.0  -0.3682
  C  C463  1  0.639800  0.639800  0.151800  1.0  0.1651
  C  C464  1  0.163100  0.446100  0.921800  1.0  -0.131
  C  C465  1  0.323900  0.940100  0.446200  1.0  -0.3629
  C  C466  1  0.742300  0.060600  0.336300  1.0  -0.3611
  C  C467  1  0.920200  0.531100  0.145500  1.0  -0.2287
  C  C468  1  0.310300  0.635000  0.310300  1.0  0.1535
  C  C469  1  0.483600  0.091300  0.914900  1.0  -0.1258
  C  C470  1  0.724300  0.406000  0.663700  1.0  -0.3685
  C  C471  1  0.483200  0.666400  0.565600  1.0  -0.1676
  C  C472  1  0.568700  0.176400  0.085100  1.0  -0.1227
  C  C473  1  0.717000  0.475700  0.553900  1.0  -0.1312
  C  C474  1  0.151800  0.639800  0.639800  1.0  0.1629
  C  C475  1  0.446100  0.163100  0.921800  1.0  -0.1307
  C  C476  1  0.059900  0.383800  0.506100  1.0  -0.3653
  C  C477  1  0.389100  0.468900  0.614400  1.0  -0.2298
  C  C478  1  0.940100  0.446200  0.323900  1.0  -0.3629
  C  C479  1  0.365000  0.675300  0.675300  1.0  0.1527
  C  C480  1  0.877700  0.553800  0.493900  1.0  -0.3643
  C  C481  1  0.682000  0.292000  0.292000  1.0  -0.1192
  C  C482  1  0.512000  0.000000  0.360200  1.0  0.1661
  C  C483  1  0.908700  0.823600  0.392300  1.0  -0.1221
  C  C484  1  0.434400  0.100800  0.917600  1.0  -0.1719
  C  C485  1  0.565600  0.483200  0.666400  1.0  -0.1709
  C  C486  1  0.493500  0.418000  0.684900  1.0  -0.1338
  C  C487  1  0.899200  0.333600  0.816800  1.0  -0.1669
  C  C488  1  0.241300  0.524300  0.078200  1.0  -0.132
  C  C489  1  0.324700  0.000000  0.689700  1.0  0.1474
  C  C490  1  0.446200  0.323900  0.940100  1.0  -0.3625
  C  C491  1  0.914900  0.483600  0.091300  1.0  -0.1205
  C  C492  1  0.940100  0.323900  0.446200  1.0  -0.3613
  C  C493  1  0.877700  0.493900  0.553800  1.0  -0.3645
  C  C494  1  0.442500  0.861400  0.442500  1.0  -0.115
  C  C495  1  0.582000  0.266900  0.075500  1.0  -0.1203
  C  C496  1  0.917600  0.434400  0.100800  1.0  -0.1717
  C  C497  1  0.385600  0.774700  0.854500  1.0  -0.2288
  C  C498  1  0.823600  0.392300  0.908700  1.0  -0.1202
  C  C499  1  0.594000  0.318300  0.257700  1.0  -0.3673
  C  C500  1  0.666400  0.565600  0.483200  1.0  -0.1722
  C  C501  1  0.418000  0.684900  0.493500  1.0  -0.1311
  C  C502  1  0.676100  0.122300  0.616200  1.0  -0.3629
  C  C503  1  0.774700  0.854500  0.385600  1.0  -0.2255
  C  C504  1  0.183200  0.516800  0.082400  1.0  -0.1719
  C  C505  1  0.468900  0.389100  0.614400  1.0  -0.2336
  C  C506  1  0.225300  0.610900  0.079800  1.0  -0.2208
  C  C507  1  0.390000  0.000000  0.708000  1.0  -0.1115
  C  C508  1  0.836900  0.758700  0.283000  1.0  -0.1315
  C  C509  1  0.516800  0.183200  0.082400  1.0  -0.1719
  C  C510  1  0.939400  0.681700  0.275700  1.0  -0.3683
  C  C511  1  0.000000  0.390000  0.708000  1.0  -0.1144
  C  C512  1  0.079800  0.225300  0.610900  1.0  -0.2114
  C  C513  1  0.921800  0.163100  0.446100  1.0  -0.1292
  C  C514  1  0.854500  0.774700  0.385600  1.0  -0.2238
  C  C515  1  0.917600  0.100800  0.434400  1.0  -0.1709
  C  C516  1  0.389100  0.614400  0.468900  1.0  -0.2333
  Br  Br517  1  0.233560  0.469540  0.644600  1.0  -0.3205
  Br  Br518  1  0.235980  0.766440  0.411040  1.0  -0.321
  Br  Br519  1  0.588960  0.355400  0.824940  1.0  -0.3207
  Br  Br520  1  0.355400  0.824940  0.588960  1.0  -0.3213
  Br  Br521  1  0.233560  0.644600  0.469540  1.0  -0.3212
  Br  Br522  1  0.824940  0.588960  0.355400  1.0  -0.3219
  Br  Br523  1  0.469540  0.644600  0.233560  1.0  -0.3222
  Br  Br524  1  0.588960  0.824940  0.355400  1.0  -0.3201
  Br  Br525  1  0.766440  0.235980  0.411040  1.0  -0.3199
  Br  Br526  1  0.175060  0.764020  0.530460  1.0  -0.3224
  Br  Br527  1  0.764020  0.530460  0.175060  1.0  -0.3203
  Br  Br528  1  0.764020  0.175060  0.530460  1.0  -0.3203
  Br  Br529  1  0.530460  0.175060  0.764020  1.0  -0.3217
  Br  Br530  1  0.530460  0.764020  0.175060  1.0  -0.3199
  Br  Br531  1  0.824940  0.355400  0.588960  1.0  -0.3218
  Br  Br532  1  0.644600  0.469540  0.233560  1.0  -0.3227
  Br  Br533  1  0.175060  0.530460  0.764020  1.0  -0.3226
  Br  Br534  1  0.644600  0.233560  0.469540  1.0  -0.323
  Br  Br535  1  0.411040  0.235980  0.766440  1.0  -0.3223
  Br  Br536  1  0.469540  0.233560  0.644600  1.0  -0.3209
  Br  Br537  1  0.766440  0.411040  0.235980  1.0  -0.3218
  Br  Br538  1  0.355400  0.588960  0.824940  1.0  -0.3217
  Br  Br539  1  0.235980  0.411040  0.766440  1.0  -0.322
  Br  Br540  1  0.411040  0.766440  0.235980  1.0  -0.3228
  N  N541  1  0.698110  0.324820  0.698110  1.0  -0.4913
  N  N542  1  0.316820  0.000000  0.540180  1.0  -0.4743
  N  N543  1  0.683180  0.223360  0.683180  1.0  -0.4719
  N  N544  1  0.698110  0.698110  0.324820  1.0  -0.4907
  N  N545  1  0.223360  0.683180  0.683180  1.0  -0.472
  N  N546  1  0.301890  0.626710  0.000000  1.0  -0.4905
  N  N547  1  0.373290  0.373290  0.675180  1.0  -0.4907
  N  N548  1  0.000000  0.301890  0.626710  1.0  -0.4924
  N  N549  1  0.626710  0.000000  0.301890  1.0  -0.4921
  N  N550  1  0.776640  0.459820  0.459820  1.0  -0.474
  N  N551  1  0.626710  0.301890  0.000000  1.0  -0.4911
  N  N552  1  0.301890  0.000000  0.626710  1.0  -0.4927
  N  N553  1  0.459820  0.776640  0.459820  1.0  -0.4717
  N  N554  1  0.000000  0.316820  0.540180  1.0  -0.4729
  N  N555  1  0.324820  0.698110  0.698110  1.0  -0.4907
  N  N556  1  0.316820  0.540180  0.000000  1.0  -0.4745
  N  N557  1  0.459820  0.459820  0.776640  1.0  -0.4713
  N  N558  1  0.000000  0.540180  0.316820  1.0  -0.4715
  N  N559  1  0.683180  0.683180  0.223360  1.0  -0.4723
  N  N560  1  0.675180  0.373290  0.373290  1.0  -0.49
  N  N561  1  0.373290  0.675180  0.373290  1.0  -0.4914
  N  N562  1  0.540180  0.316820  0.000000  1.0  -0.4724
  N  N563  1  0.540180  0.000000  0.316820  1.0  -0.4715
  N  N564  1  0.000000  0.626710  0.301890  1.0  -0.4924
