# generated using pymatgen
data_CdNiH21C13N6
_symmetry_space_group_name_H-M   'P 1'
_cell_length_a   7.32500000
_cell_length_b   11.61850000
_cell_length_c   14.04800000
_cell_angle_alpha   114.06500000
_cell_angle_beta   91.50000000
_cell_angle_gamma   103.56000000
_symmetry_Int_Tables_number   1
_chemical_formula_structural   CdNiH21C13N6
_chemical_formula_sum   'Cd2 Ni2 H42 C26 N12'
_cell_volume   1051.18246308
_cell_formula_units_Z   2
loop_
 _symmetry_equiv_pos_site_id
 _symmetry_equiv_pos_as_xyz
  1  'x, y, z'
loop_
 _atom_site_type_symbol
 _atom_site_label
 _atom_site_symmetry_multiplicity
 _atom_site_fract_x
 _atom_site_fract_y
 _atom_site_fract_z
 _atom_site_occupancy
 _atom_site_charge
  Cd  Cd1  1  0.000000  0.000000  0.000000  1.0  1.0088
  Cd  Cd2  1  0.000000  0.000000  0.500000  1.0  0.9737
  Ni  Ni3  1  0.516340  0.077160  0.267300  1.0  0.1038
  Ni  Ni4  1  0.483660  0.922840  0.732700  1.0  0.1768
  H  H5  1  0.214300  0.168100  0.931100  1.0  0.2389
  H  H6  1  0.114800  0.268800  0.037700  1.0  0.2402
  H  H7  1  0.039400  0.289700  0.877500  1.0  0.0666
  H  H8  1  0.681900  0.228200  0.869900  1.0  0.0872
  H  H9  1  0.707000  0.145600  0.949800  1.0  0.0981
  H  H10  1  0.881600  0.348300  0.091000  1.0  0.0773
  H  H11  1  0.867600  0.432600  0.011200  1.0  0.0639
  H  H12  1  0.509900  0.359300  0.992300  1.0  0.0664
  H  H13  1  0.529200  0.282400  0.077300  1.0  0.0844
  H  H14  1  0.698900  0.499400  0.220900  1.0  0.0694
  H  H15  1  0.671300  0.574800  0.135700  1.0  0.0504
  H  H16  1  0.318200  0.488600  0.117100  1.0  0.0603
  H  H17  1  0.349400  0.419100  0.206200  1.0  0.0836
  H  H18  1  0.494400  0.633800  0.345800  1.0  0.0753
  H  H19  1  0.485400  0.707700  0.257500  1.0  0.0805
  H  H20  1  0.124700  0.619000  0.226300  1.0  0.0678
  H  H21  1  0.143400  0.562000  0.325100  1.0  0.0722
  H  H22  1  0.291300  0.842300  0.356600  1.0  0.0884
  H  H23  1  0.291600  0.782100  0.454500  1.0  0.082
  H  H24  1  0.943600  0.715300  0.426900  1.0  0.279
  H  H25  1  0.943300  0.775500  0.329000  1.0  0.2474
  H  H26  1  0.785700  0.831900  0.068900  1.0  0.2427
  H  H27  1  0.885200  0.731200  0.962300  1.0  0.2399
  H  H28  1  0.960600  0.710300  0.122500  1.0  0.0758
  H  H29  1  0.318100  0.771800  0.130100  1.0  0.0868
  H  H30  1  0.293000  0.854400  0.050200  1.0  0.0981
  H  H31  1  0.118400  0.651700  0.909000  1.0  0.0833
  H  H32  1  0.132400  0.567400  0.988800  1.0  0.0599
  H  H33  1  0.490100  0.640700  0.007700  1.0  0.0656
  H  H34  1  0.470800  0.717600  0.922700  1.0  0.0844
  H  H35  1  0.301100  0.500600  0.779100  1.0  0.0705
  H  H36  1  0.328700  0.425200  0.864300  1.0  0.0499
  H  H37  1  0.681800  0.511400  0.882900  1.0  0.0565
  H  H38  1  0.650600  0.580900  0.793800  1.0  0.0833
  H  H39  1  0.505600  0.366200  0.654200  1.0  0.0746
  H  H40  1  0.514600  0.292300  0.742500  1.0  0.0753
  H  H41  1  0.875300  0.381000  0.773700  1.0  0.0647
  H  H42  1  0.856600  0.438000  0.674900  1.0  0.0723
  H  H43  1  0.708700  0.157700  0.643400  1.0  0.0881
  H  H44  1  0.708400  0.217900  0.545500  1.0  0.0814
  H  H45  1  0.056400  0.284700  0.573100  1.0  0.2806
  H  H46  1  0.056700  0.224500  0.671000  1.0  0.2455
  C  C47  1  0.684400  0.020200  0.328100  1.0  0.1152
  C  C48  1  0.668800  0.068700  0.162800  1.0  0.1294
  C  C49  1  0.357300  0.083800  0.370300  1.0  0.1083
  C  C50  1  0.344100  0.120600  0.198200  1.0  0.1032
  C  C51  1  0.962500  0.205500  0.888800  1.0  0.1201
  C  C52  1  0.777700  0.225200  0.929500  1.0  -0.227
  C  C53  1  0.793200  0.350200  0.027500  1.0  -0.0992
  C  C54  1  0.601200  0.364400  0.058600  1.0  -0.1431
  C  C55  1  0.605100  0.490600  0.153800  1.0  -0.1234
  C  C56  1  0.411300  0.499800  0.185200  1.0  -0.1467
  C  C57  1  0.413200  0.626100  0.275500  1.0  -0.1142
  C  C58  1  0.211500  0.637600  0.298700  1.0  -0.1786
  C  C59  1  0.210100  0.767900  0.381500  1.0  0.0629
  C  C60  1  0.315600  0.979800  0.671900  1.0  0.1149
  C  C61  1  0.331200  0.931300  0.837200  1.0  0.1255
  C  C62  1  0.642700  0.916200  0.629700  1.0  0.1099
  C  C63  1  0.655900  0.879400  0.801800  1.0  0.113
  C  C64  1  0.037500  0.794500  0.111200  1.0  0.1173
  C  C65  1  0.222300  0.774800  0.070500  1.0  -0.2295
  C  C66  1  0.206800  0.649800  0.972500  1.0  -0.1017
  C  C67  1  0.398800  0.635600  0.941400  1.0  -0.1433
  C  C68  1  0.394900  0.509400  0.846200  1.0  -0.1216
  C  C69  1  0.588700  0.500200  0.814800  1.0  -0.1456
  C  C70  1  0.586800  0.373900  0.724500  1.0  -0.1144
  C  C71  1  0.788500  0.362400  0.701300  1.0  -0.1784
  C  C72  1  0.789900  0.232100  0.618500  1.0  0.0669
  N  N73  1  0.786300  0.983600  0.363600  1.0  -0.4436
  N  N74  1  0.764600  0.063600  0.100000  1.0  -0.4322
  N  N75  1  0.253800  0.083000  0.429300  1.0  -0.4365
  N  N76  1  0.231000  0.134100  0.148600  1.0  -0.4756
  N  N77  1  0.081100  0.181200  0.961200  1.0  -0.6203
  N  N78  1  0.022100  0.788200  0.402000  1.0  -0.6074
  N  N79  1  0.213700  0.016400  0.636400  1.0  -0.4432
  N  N80  1  0.235400  0.936400  0.900000  1.0  -0.434
  N  N81  1  0.746200  0.917000  0.570700  1.0  -0.4356
  N  N82  1  0.769000  0.865900  0.851400  1.0  -0.4784
  N  N83  1  0.918900  0.818800  0.038800  1.0  -0.6211
  N  N84  1  0.977900  0.211800  0.598000  1.0  -0.6132
