# generated using pymatgen
data_Cu4H70C69(N5O6)2
_symmetry_space_group_name_H-M   'P 1'
_cell_length_a   9.27620000
_cell_length_b   14.82300000
_cell_length_c   27.40580000
_cell_angle_alpha   90.00000000
_cell_angle_beta   90.00000000
_cell_angle_gamma   90.00000000
_symmetry_Int_Tables_number   1
_chemical_formula_structural   Cu4H70C69(N5O6)2
_chemical_formula_sum   'Cu8 H140 C138 N20 O24'
_cell_volume   3768.32799169
_cell_formula_units_Z   2
loop_
 _symmetry_equiv_pos_site_id
 _symmetry_equiv_pos_as_xyz
  1  'x, y, z'
loop_
 _atom_site_type_symbol
 _atom_site_label
 _atom_site_symmetry_multiplicity
 _atom_site_fract_x
 _atom_site_fract_y
 _atom_site_fract_z
 _atom_site_occupancy
 _atom_site_charge
  Cu  Cu1  1  0.109610  0.030710  0.436640  1.0  0.8517
  Cu  Cu2  1  0.109610  0.969290  0.563360  1.0  0.8519
  Cu  Cu3  1  0.890390  0.530710  0.063360  1.0  0.8514
  Cu  Cu4  1  0.612870  0.053940  0.439510  1.0  0.8577
  Cu  Cu5  1  0.387130  0.446060  0.939510  1.0  0.8599
  Cu  Cu6  1  0.890390  0.469290  0.936640  1.0  0.852
  Cu  Cu7  1  0.387130  0.553940  0.060490  1.0  0.8591
  Cu  Cu8  1  0.612870  0.946060  0.560490  1.0  0.8594
  H  H9  1  0.085900  0.472200  0.320000  1.0  0.1093
  H  H10  1  0.311300  0.708900  0.220700  1.0  0.1155
  H  H11  1  0.474200  0.462100  0.219000  1.0  0.0644
  H  H12  1  0.092100  0.161000  0.528700  1.0  0.0987
  H  H13  1  0.516500  0.737800  0.386700  1.0  0.1125
  H  H14  1  0.941200  0.066900  0.111400  1.0  0.0675
  H  H15  1  0.175400  0.318000  0.981600  1.0  0.0792
  H  H16  1  0.140400  0.578100  0.631800  1.0  0.1143
  H  H17  1  0.883000  0.194100  0.060800  1.0  0.1128
  H  H18  1  0.470800  0.874700  0.425000  1.0  0.0873
  H  H19  1  0.221600  0.804900  0.309100  1.0  0.1157
  H  H20  1  0.488900  0.271300  0.717200  1.0  0.0735
  H  H21  1  0.403000  0.199600  0.464700  1.0  0.0906
  H  H22  1  0.227000  0.559000  0.400200  1.0  0.0808
  H  H23  1  0.350600  0.089600  0.384000  1.0  0.0869
  H  H24  1  0.058800  0.566900  0.388600  1.0  0.069
  H  H25  1  0.402100  0.342100  0.499200  1.0  0.1191
  H  H26  1  0.175400  0.682000  0.018400  1.0  0.0788
  H  H27  1  0.597900  0.157900  0.999200  1.0  0.1185
  H  H28  1  0.227000  0.441000  0.599800  1.0  0.0808
  H  H29  1  0.358600  0.100800  0.843300  1.0  0.0737
  H  H30  1  0.511100  0.228700  0.217200  1.0  0.076
  H  H31  1  0.252800  0.510600  0.747500  1.0  0.1287
  H  H32  1  0.471400  0.036200  0.049400  1.0  0.088
  H  H33  1  0.832400  0.321400  0.519300  1.0  0.131
  H  H34  1  0.280600  0.364100  0.669700  1.0  0.0987
  H  H35  1  0.396800  0.109800  0.198600  1.0  0.0686
  H  H36  1  0.471400  0.963800  0.950600  1.0  0.088
  H  H37  1  0.581900  0.915600  0.117800  1.0  0.116
  H  H38  1  0.529200  0.374700  0.075000  1.0  0.0876
  H  H39  1  0.276100  0.144500  0.309400  1.0  0.1263
  H  H40  1  0.597900  0.842100  0.000800  1.0  0.1189
  H  H41  1  0.824600  0.818000  0.518400  1.0  0.0785
  H  H42  1  0.258400  0.958800  0.017900  1.0  0.074
  H  H43  1  0.114800  0.342300  0.166400  1.0  0.1116
  H  H44  1  0.373500  0.272800  0.242400  1.0  0.0848
  H  H45  1  0.252800  0.489400  0.252500  1.0  0.1288
  H  H46  1  0.773000  0.941000  0.900200  1.0  0.0798
  H  H47  1  0.168400  0.477000  0.127900  1.0  0.095
  H  H48  1  0.741600  0.458800  0.482100  1.0  0.0721
  H  H49  1  0.824600  0.182000  0.481600  1.0  0.0789
  H  H50  1  0.581900  0.084400  0.882200  1.0  0.116
  H  H51  1  0.396800  0.890200  0.801400  1.0  0.0677
  H  H52  1  0.806500  0.555500  0.843300  1.0  0.0749
  H  H53  1  0.311300  0.291100  0.779300  1.0  0.1161
  H  H54  1  0.832400  0.678600  0.480700  1.0  0.1313
  H  H55  1  0.474200  0.537900  0.781000  1.0  0.0646
  H  H56  1  0.755600  0.849200  0.645600  1.0  0.0894
  H  H57  1  0.806500  0.444500  0.156700  1.0  0.0756
  H  H58  1  0.264500  0.135700  0.232000  1.0  0.0518
  H  H59  1  0.529200  0.625300  0.925000  1.0  0.0876
  H  H60  1  0.092100  0.839000  0.471300  1.0  0.099
  H  H61  1  0.907900  0.661000  0.971300  1.0  0.0989
  H  H62  1  0.734100  0.364700  0.641900  1.0  0.1326
  H  H63  1  0.885200  0.842300  0.333600  1.0  0.1113
  H  H64  1  0.883000  0.805900  0.939200  1.0  0.1132
  H  H65  1  0.117000  0.305900  0.560800  1.0  0.1131
  H  H66  1  0.723900  0.355500  0.809400  1.0  0.1265
  H  H67  1  0.525800  0.037900  0.719000  1.0  0.0639
  H  H68  1  0.907900  0.339000  0.028700  1.0  0.0986
  H  H69  1  0.244400  0.349200  0.854400  1.0  0.0896
  H  H70  1  0.914100  0.027800  0.820000  1.0  0.1087
  H  H71  1  0.470800  0.125300  0.575000  1.0  0.0873
  H  H72  1  0.058800  0.433100  0.611400  1.0  0.0704
  H  H73  1  0.528600  0.463800  0.549400  1.0  0.0883
  H  H74  1  0.747200  0.010600  0.752500  1.0  0.1288
  H  H75  1  0.885200  0.157700  0.666400  1.0  0.1119
  H  H76  1  0.403000  0.800400  0.535300  1.0  0.0906
  H  H77  1  0.276100  0.855500  0.690600  1.0  0.1265
  H  H78  1  0.307900  0.942700  0.934100  1.0  0.1271
  H  H79  1  0.265900  0.135300  0.141900  1.0  0.1327
  H  H80  1  0.941200  0.933100  0.888600  1.0  0.0672
  H  H81  1  0.483500  0.762200  0.886700  1.0  0.1124
  H  H82  1  0.244400  0.650800  0.145600  1.0  0.0898
  H  H83  1  0.418100  0.584400  0.617800  1.0  0.1163
  H  H84  1  0.373500  0.727200  0.757600  1.0  0.0851
  H  H85  1  0.114000  0.359100  0.683400  1.0  0.0997
  H  H86  1  0.193500  0.944500  0.343300  1.0  0.0753
  H  H87  1  0.741600  0.541200  0.517900  1.0  0.0714
  H  H88  1  0.692100  0.557300  0.434100  1.0  0.1262
  H  H89  1  0.859600  0.921900  0.131800  1.0  0.1149
  H  H90  1  0.747200  0.989400  0.247500  1.0  0.1286
  H  H91  1  0.850100  0.314900  0.675400  1.0  0.09
  H  H92  1  0.688700  0.791100  0.720700  1.0  0.116
  H  H93  1  0.597000  0.699600  0.035300  1.0  0.0902
  H  H94  1  0.649400  0.410400  0.884000  1.0  0.0872
  H  H95  1  0.723900  0.644500  0.190600  1.0  0.1265
  H  H96  1  0.483500  0.237800  0.113300  1.0  0.1123
  H  H97  1  0.831600  0.977000  0.372100  1.0  0.0949
  H  H98  1  0.603200  0.390200  0.698600  1.0  0.0693
  H  H99  1  0.778400  0.304900  0.190900  1.0  0.1148
  H  H100  1  0.193500  0.055500  0.656700  1.0  0.0762
  H  H101  1  0.149900  0.185100  0.175400  1.0  0.0912
  H  H102  1  0.597000  0.300400  0.964700  1.0  0.0902
  H  H103  1  0.358600  0.899200  0.156700  1.0  0.0742
  H  H104  1  0.117000  0.694100  0.439200  1.0  0.1133
  H  H105  1  0.168400  0.523000  0.872100  1.0  0.0946
  H  H106  1  0.859600  0.078100  0.868200  1.0  0.1135
  H  H107  1  0.734100  0.635300  0.358100  1.0  0.1336
  H  H108  1  0.350600  0.910400  0.616000  1.0  0.0866
  H  H109  1  0.649400  0.589600  0.116000  1.0  0.0867
  H  H110  1  0.221600  0.195100  0.690900  1.0  0.1154
  H  H111  1  0.167600  0.821400  0.980700  1.0  0.1313
  H  H112  1  0.418100  0.415600  0.382200  1.0  0.1156
  H  H113  1  0.719400  0.864100  0.830300  1.0  0.0976
  H  H114  1  0.778400  0.695100  0.809100  1.0  0.1154
  H  H115  1  0.850100  0.685100  0.324600  1.0  0.0896
  H  H116  1  0.114800  0.657700  0.833600  1.0  0.1115
  H  H117  1  0.755600  0.150800  0.354400  1.0  0.0896
  H  H118  1  0.914100  0.972200  0.180000  1.0  0.1087
  H  H119  1  0.307900  0.057300  0.065900  1.0  0.1272
  H  H120  1  0.641400  0.600800  0.656700  1.0  0.0735
  H  H121  1  0.280600  0.635900  0.330300  1.0  0.0987
  H  H122  1  0.167600  0.178600  0.019300  1.0  0.131
  H  H123  1  0.258400  0.041200  0.982100  1.0  0.0745
  H  H124  1  0.735500  0.635700  0.268000  1.0  0.0522
  H  H125  1  0.886000  0.859100  0.816600  1.0  0.1002
  H  H126  1  0.085900  0.527800  0.680000  1.0  0.1086
  H  H127  1  0.626500  0.227200  0.742400  1.0  0.086
  H  H128  1  0.773000  0.059000  0.099800  1.0  0.0811
  H  H129  1  0.402100  0.657900  0.500800  1.0  0.1195
  H  H130  1  0.264500  0.864300  0.768000  1.0  0.0527
  H  H131  1  0.114000  0.640900  0.316600  1.0  0.0999
  H  H132  1  0.525800  0.962100  0.281000  1.0  0.0644
  H  H133  1  0.886000  0.140900  0.183400  1.0  0.0996
  H  H134  1  0.626500  0.772800  0.257600  1.0  0.0849
  H  H135  1  0.735500  0.364300  0.732000  1.0  0.0535
  H  H136  1  0.831600  0.023000  0.627900  1.0  0.0952
  H  H137  1  0.692100  0.442700  0.565900  1.0  0.1258
  H  H138  1  0.516500  0.262200  0.613300  1.0  0.1127
  H  H139  1  0.528600  0.536200  0.450600  1.0  0.0887
  H  H140  1  0.140400  0.421900  0.368200  1.0  0.1157
  H  H141  1  0.511100  0.771300  0.782800  1.0  0.0757
  H  H142  1  0.688700  0.208900  0.279300  1.0  0.1164
  H  H143  1  0.265900  0.864700  0.858100  1.0  0.1344
  H  H144  1  0.603200  0.609800  0.301400  1.0  0.0707
  H  H145  1  0.641400  0.399200  0.343300  1.0  0.0732
  H  H146  1  0.488900  0.728700  0.282800  1.0  0.0744
  H  H147  1  0.719400  0.135900  0.169700  1.0  0.0977
  H  H148  1  0.149900  0.814900  0.824600  1.0  0.0914
  C  C149  1  0.262600  0.285400  0.986000  1.0  0.1718
  C  C150  1  0.169100  0.500000  0.000000  1.0  0.6048
  C  C151  1  0.161600  0.527900  0.654500  1.0  -0.292
  C  C152  1  0.844700  0.938800  0.873500  1.0  -0.0996
  C  C153  1  0.415700  0.714400  0.884100  1.0  -0.1509
  C  C154  1  0.617700  0.816500  0.699850  1.0  -0.1723
  C  C155  1  0.746900  0.683900  0.333700  1.0  -0.189
  C  C156  1  0.624600  0.646000  0.182230  1.0  -0.2274
  C  C157  1  0.171600  0.734200  0.369300  1.0  0.0824
  C  C158  1  0.176700  0.892800  0.362930  1.0  0.1715
  C  C159  1  0.342900  0.351000  0.844940  1.0  0.1718
  C  C160  1  0.525700  0.318700  0.785500  1.0  0.1052
  C  C161  1  0.828400  0.765800  0.869300  1.0  0.0824
  C  C162  1  0.556900  0.132300  0.593370  1.0  0.1661
  C  C163  1  0.384500  0.151800  0.012500  1.0  0.0751
  C  C164  1  0.882900  0.668400  0.938000  1.0  0.1857
  C  C165  1  0.509700  0.810000  0.003700  1.0  -0.1283
  C  C166  1  0.838400  0.972100  0.154500  1.0  -0.2919
  C  C167  1  0.806100  0.690200  0.842300  1.0  -0.1837
  C  C168  1  0.574000  0.927200  0.151800  1.0  -0.2008
  C  C169  1  0.199600  0.653000  0.852870  1.0  -0.1939
  C  C170  1  0.415700  0.285600  0.115900  1.0  -0.151
  C  C171  1  0.743400  0.298000  0.507700  1.0  -0.2033
  C  C172  1  0.664500  0.338900  0.708800  1.0  -0.0945
  C  C173  1  0.508800  0.725100  0.024340  1.0  0.1621
  C  C174  1  0.694700  0.955600  0.178200  1.0  0.1356
  C  C175  1  0.823300  0.392800  0.137070  1.0  0.1726
  C  C176  1  0.232000  0.427200  0.124280  1.0  0.1599
  C  C177  1  0.737400  0.214600  0.486000  1.0  0.1697
  C  C178  1  0.253100  0.816100  0.833700  1.0  -0.1892
  C  C179  1  0.066100  0.168300  0.393550  1.0  0.6199
  C  C180  1  0.440000  0.084300  0.824300  1.0  0.1533
  C  C181  1  0.768000  0.072800  0.624280  1.0  0.1616
  C  C182  1  0.828400  0.234200  0.130700  1.0  0.0824
  C  C183  1  0.844700  0.061200  0.126500  1.0  -0.0993
  C  C184  1  0.584300  0.214400  0.615900  1.0  -0.1515
  C  C185  1  0.193900  0.809800  0.342300  1.0  -0.1853
  C  C186  1  0.262600  0.714600  0.014000  1.0  0.1739
  C  C187  1  0.199600  0.347000  0.147130  1.0  -0.1932
  C  C188  1  0.464000  0.547000  0.746900  1.0  0.1886
  C  C189  1  0.737400  0.785400  0.514000  1.0  0.1727
  C  C190  1  0.155300  0.561200  0.373500  1.0  -0.1009
  C  C191  1  0.474300  0.818700  0.714500  1.0  0.1052
  C  C192  1  0.746900  0.316100  0.666300  1.0  -0.1879
  C  C193  1  0.161600  0.472100  0.345500  1.0  -0.2921
  C  C194  1  0.382300  0.683500  0.199850  1.0  -0.1793
  C  C195  1  0.132500  0.745300  0.419000  1.0  -0.1851
  C  C196  1  0.256600  0.202000  0.007700  1.0  -0.2022
  C  C197  1  0.305300  0.455600  0.321800  1.0  0.1353
  C  C198  1  0.823300  0.607200  0.862930  1.0  0.1711
  C  C199  1  0.491200  0.774900  0.524340  1.0  0.165
  C  C200  1  0.117100  0.831600  0.438000  1.0  0.1846
  C  C201  1  0.800400  0.847000  0.352870  1.0  -0.1936
  C  C202  1  0.490300  0.310000  0.496300  1.0  -0.1285
  C  C203  1  0.617700  0.183500  0.300150  1.0  -0.1717
  C  C204  1  0.670900  0.969100  0.227200  1.0  -0.2339
  C  C205  1  0.443100  0.632300  0.906630  1.0  0.1648
  C  C206  1  0.579500  0.387000  0.862100  1.0  0.145
  C  C207  1  0.256600  0.798000  0.992300  1.0  -0.2014
  C  C208  1  0.426000  0.427200  0.348200  1.0  -0.2001
  C  C209  1  0.289900  0.726900  0.857800  1.0  0.1256
  C  C210  1  0.193900  0.190200  0.657700  1.0  -0.183
  C  C211  1  0.253100  0.183900  0.166300  1.0  -0.1887
  C  C212  1  0.670900  0.030900  0.772800  1.0  -0.2248
  C  C213  1  0.375000  0.943700  0.962100  1.0  -0.1712
  C  C214  1  0.420500  0.887000  0.637900  1.0  0.1458
  C  C215  1  0.132500  0.254700  0.581000  1.0  -0.185
  C  C216  1  0.584300  0.785600  0.384100  1.0  -0.1513
  C  C217  1  0.117100  0.168400  0.562000  1.0  0.1863
  C  C218  1  0.657100  0.149000  0.344940  1.0  0.1717
  C  C219  1  0.424300  0.215000  0.236900  1.0  -0.1413
  C  C220  1  0.882900  0.331600  0.062000  1.0  0.187
  C  C221  1  0.440000  0.915700  0.175700  1.0  0.1537
  C  C222  1  0.867500  0.754700  0.919000  1.0  -0.1819
  C  C223  1  0.474300  0.181300  0.285500  1.0  0.1055
  C  C224  1  0.324000  0.000000  0.000000  1.0  -0.0966
  C  C225  1  0.625000  0.443700  0.537900  1.0  -0.1745
  C  C226  1  0.335500  0.161100  0.208800  1.0  -0.094
  C  C227  1  0.443100  0.367700  0.093370  1.0  0.1652
  C  C228  1  0.800400  0.153000  0.647130  1.0  -0.194
  C  C229  1  0.491200  0.225100  0.475660  1.0  0.1664
  C  C230  1  0.710100  0.226900  0.642200  1.0  0.1268
  C  C231  1  0.182500  0.358600  0.655800  1.0  -0.2245
  C  C232  1  0.933900  0.331700  0.893550  1.0  0.6193
  C  C233  1  0.232000  0.572800  0.875720  1.0  0.1603
  C  C234  1  0.560000  0.415700  0.324300  1.0  0.1532
  C  C235  1  0.817500  0.141400  0.155800  1.0  -0.2247
  C  C236  1  0.375000  0.056300  0.037900  1.0  -0.1697
  C  C237  1  0.768000  0.927200  0.375720  1.0  0.1591
  C  C238  1  0.664500  0.661100  0.291200  1.0  -0.0939
  C  C239  1  0.525700  0.681300  0.214500  1.0  0.1049
  C  C240  1  0.867500  0.245300  0.081000  1.0  -0.1852
  C  C241  1  0.933900  0.668300  0.106450  1.0  0.6194
  C  C242  1  0.375400  0.146000  0.317770  1.0  -0.2267
  C  C243  1  0.490300  0.690000  0.503700  1.0  -0.1276
  C  C244  1  0.743400  0.702000  0.492300  1.0  -0.2024
  C  C245  1  0.420500  0.113000  0.362100  1.0  0.1468
  C  C246  1  0.342900  0.649000  0.155060  1.0  0.1725
  C  C247  1  0.806100  0.309800  0.157700  1.0  -0.1832
  C  C248  1  0.464000  0.453000  0.253100  1.0  0.1887
  C  C249  1  0.579500  0.613000  0.137900  1.0  0.145
  C  C250  1  0.375400  0.854000  0.682230  1.0  -0.2263
  C  C251  1  0.508800  0.274900  0.975660  1.0  0.1622
  C  C252  1  0.694700  0.044400  0.821800  1.0  0.1362
  C  C253  1  0.424300  0.785000  0.763100  1.0  -0.142
  C  C254  1  0.382300  0.316500  0.800150  1.0  -0.1719
  C  C255  1  0.710100  0.773100  0.357800  1.0  0.126
  C  C256  1  0.615500  0.348200  0.512500  1.0  0.0751
  C  C257  1  0.509700  0.190000  0.996300  1.0  -0.1289
  C  C258  1  0.624600  0.354000  0.817770  1.0  -0.2275
  C  C259  1  0.830900  0.000000  0.500000  1.0  0.6061
  C  C260  1  0.329100  0.469100  0.272800  1.0  -0.2246
  C  C261  1  0.384500  0.848200  0.987500  1.0  0.075
  C  C262  1  0.838400  0.027900  0.845500  1.0  -0.2914
  C  C263  1  0.335500  0.838900  0.791200  1.0  -0.0927
  C  C264  1  0.560000  0.584300  0.675700  1.0  0.1528
  C  C265  1  0.817500  0.858600  0.844200  1.0  -0.2268
  C  C266  1  0.171600  0.265800  0.630700  1.0  0.0821
  C  C267  1  0.329100  0.530900  0.727200  1.0  -0.23
  C  C268  1  0.615500  0.651800  0.487500  1.0  0.0753
  C  C269  1  0.066100  0.831700  0.606450  1.0  0.6181
  C  C270  1  0.676000  0.500000  0.500000  1.0  -0.098
  C  C271  1  0.332600  0.000000  0.500000  1.0  0.6113
  C  C272  1  0.182500  0.641400  0.344200  1.0  -0.2267
  C  C273  1  0.155300  0.438800  0.626500  1.0  -0.099
  C  C274  1  0.657100  0.851000  0.655060  1.0  0.1719
  C  C275  1  0.625000  0.556300  0.462100  1.0  -0.1707
  C  C276  1  0.574000  0.072800  0.848200  1.0  -0.2017
  C  C277  1  0.536000  0.047000  0.753100  1.0  0.1879
  C  C278  1  0.556900  0.867700  0.406630  1.0  0.1652
  C  C279  1  0.305300  0.544400  0.678200  1.0  0.1353
  C  C280  1  0.536000  0.953000  0.246900  1.0  0.1877
  C  C281  1  0.176700  0.107200  0.637070  1.0  0.1721
  C  C282  1  0.289900  0.273100  0.142200  1.0  0.1258
  C  C283  1  0.426000  0.572800  0.651800  1.0  -0.2021
  C  C284  1  0.575700  0.285000  0.736900  1.0  -0.1423
  C  C285  1  0.575700  0.715000  0.263100  1.0  -0.1419
  C  C286  1  0.667400  0.500000  0.000000  1.0  0.6115
  N  N287  1  0.647800  0.063300  0.596790  1.0  -0.3268
  N  N288  1  0.863000  0.405400  0.090130  1.0  -0.3358
  N  N289  1  0.614100  0.822600  0.529240  1.0  -0.3223
  N  N290  1  0.647800  0.936700  0.403210  1.0  -0.3267
  N  N291  1  0.385900  0.677400  0.029240  1.0  -0.3222
  N  N292  1  0.352200  0.436700  0.096790  1.0  -0.3263
  N  N293  1  0.137000  0.905400  0.409870  1.0  -0.3364
  N  N294  1  0.560000  0.112800  0.375550  1.0  -0.3111
  N  N295  1  0.421900  0.926800  0.223300  1.0  -0.4225
  N  N296  1  0.614100  0.177400  0.470760  1.0  -0.3221
  N  N297  1  0.385900  0.322600  0.970760  1.0  -0.3221
  N  N298  1  0.863000  0.594600  0.909870  1.0  -0.3352
  N  N299  1  0.578100  0.573200  0.723300  1.0  -0.4229
  N  N300  1  0.421900  0.073200  0.776700  1.0  -0.4203
  N  N301  1  0.137000  0.094600  0.590130  1.0  -0.3359
  N  N302  1  0.352200  0.563300  0.903210  1.0  -0.3256
  N  N303  1  0.560000  0.887200  0.624450  1.0  -0.3117
  N  N304  1  0.440000  0.612800  0.124450  1.0  -0.3131
  N  N305  1  0.578100  0.426800  0.276700  1.0  -0.4208
  N  N306  1  0.440000  0.387200  0.875550  1.0  -0.3114
  O  O307  1  0.189400  0.000000  0.500000  1.0  -0.6407
  O  O308  1  0.057800  0.087100  0.374730  1.0  -0.5542
  O  O309  1  0.810600  0.500000  0.000000  1.0  -0.6401
  O  O310  1  0.392700  0.980520  0.540070  1.0  -0.6597
  O  O311  1  0.028100  0.762800  0.629460  1.0  -0.5903
  O  O312  1  0.115500  0.168840  0.437400  1.0  -0.5716
  O  O313  1  0.686700  0.000000  0.500000  1.0  -0.6451
  O  O314  1  0.607300  0.519480  0.040070  1.0  -0.6604
  O  O315  1  0.607300  0.480520  0.959930  1.0  -0.6606
  O  O316  1  0.109000  0.531290  0.037640  1.0  -0.6618
  O  O317  1  0.115500  0.831160  0.562600  1.0  -0.5708
  O  O318  1  0.971900  0.737200  0.129460  1.0  -0.5902
  O  O319  1  0.313300  0.500000  0.000000  1.0  -0.6462
  O  O320  1  0.057800  0.912900  0.625270  1.0  -0.556
  O  O321  1  0.884500  0.668840  0.062600  1.0  -0.5718
  O  O322  1  0.942200  0.587100  0.125270  1.0  -0.5555
  O  O323  1  0.971900  0.262800  0.870540  1.0  -0.5907
  O  O324  1  0.109000  0.468710  0.962360  1.0  -0.6625
  O  O325  1  0.884500  0.331160  0.937400  1.0  -0.572
  O  O326  1  0.942200  0.412900  0.874730  1.0  -0.5543
  O  O327  1  0.891000  0.031290  0.462360  1.0  -0.6615
  O  O328  1  0.392700  0.019480  0.459930  1.0  -0.6595
  O  O329  1  0.891000  0.968710  0.537640  1.0  -0.6613
  O  O330  1  0.028100  0.237200  0.370540  1.0  -0.59
