# generated using pymatgen
data_CuSiH10W12C12(N2O15)2
_symmetry_space_group_name_H-M   'P 1'
_cell_length_a   10.60100000
_cell_length_b   13.45640000
_cell_length_c   20.03800000
_cell_angle_alpha   98.63860000
_cell_angle_beta   90.00000000
_cell_angle_gamma   113.19700000
_symmetry_Int_Tables_number   1
_chemical_formula_structural   CuSiH10W12C12(N2O15)2
_chemical_formula_sum   'Cu2 Si2 H20 W24 C24 N8 O60'
_cell_volume   2592.04098748
_cell_formula_units_Z   2
loop_
 _symmetry_equiv_pos_site_id
 _symmetry_equiv_pos_as_xyz
  1  'x, y, z'
loop_
 _atom_site_type_symbol
 _atom_site_label
 _atom_site_symmetry_multiplicity
 _atom_site_fract_x
 _atom_site_fract_y
 _atom_site_fract_z
 _atom_site_occupancy
 _atom_site_charge
  Cu  Cu1  1  0.000000  0.000000  0.000000  1.0  0.5849
  Cu  Cu2  1  0.000000  0.000000  0.500000  1.0  0.5849
  Si  Si3  1  0.502100  0.000000  0.250000  1.0  1.3533
  Si  Si4  1  0.497900  0.000000  0.750000  1.0  1.3532
  H  H5  1  0.460500  0.366200  0.567100  1.0  0.1413
  H  H6  1  0.290600  0.197000  0.518400  1.0  0.1102
  H  H7  1  0.905700  0.366200  0.067100  1.0  0.141
  H  H8  1  0.906400  0.197000  0.018400  1.0  0.11
  H  H9  1  0.346400  0.475200  0.411900  1.0  0.1274
  H  H10  1  0.766400  0.643400  0.076200  1.0  0.134
  H  H11  1  0.952600  0.178000  0.431600  1.0  0.1155
  H  H12  1  0.123000  0.356600  0.423800  1.0  0.1341
  H  H13  1  0.877000  0.643400  0.576200  1.0  0.1334
  H  H14  1  0.093600  0.803000  0.981600  1.0  0.1096
  H  H15  1  0.774600  0.822000  0.068400  1.0  0.1162
  H  H16  1  0.094300  0.633800  0.932900  1.0  0.1407
  H  H17  1  0.047400  0.822000  0.568400  1.0  0.1152
  H  H18  1  0.709400  0.803000  0.481600  1.0  0.1097
  H  H19  1  0.233600  0.356600  0.923800  1.0  0.1335
  H  H20  1  0.539500  0.633800  0.432900  1.0  0.1407
  H  H21  1  0.128800  0.475200  0.911900  1.0  0.1274
  H  H22  1  0.871200  0.524800  0.088100  1.0  0.1278
  H  H23  1  0.225400  0.178000  0.931600  1.0  0.1154
  H  H24  1  0.653600  0.524800  0.588100  1.0  0.1274
  W  W25  1  0.766000  0.048800  0.136690  1.0  2.417
  W  W26  1  0.166500  0.793280  0.710550  1.0  1.3694
  W  W27  1  0.393230  0.763020  0.328230  1.0  1.4018
  W  W28  1  0.244850  0.970720  0.367700  1.0  1.3302
  W  W29  1  0.717200  0.951200  0.363310  1.0  2.419
  W  W30  1  0.234000  0.951200  0.863310  1.0  2.4196
  W  W31  1  0.274130  0.029280  0.132300  1.0  1.3351
  W  W32  1  0.627290  0.796640  0.698720  1.0  1.3709
  W  W33  1  0.833500  0.206720  0.289450  1.0  1.371
  W  W34  1  0.630210  0.236980  0.171770  1.0  1.4078
  W  W35  1  0.755150  0.029280  0.632300  1.0  1.3367
  W  W36  1  0.373220  0.206720  0.789450  1.0  1.3711
  W  W37  1  0.725870  0.970720  0.867700  1.0  1.3293
  W  W38  1  0.626780  0.793280  0.210550  1.0  1.3664
  W  W39  1  0.588190  0.153640  0.914770  1.0  1.3125
  W  W40  1  0.372710  0.203360  0.301280  1.0  1.3794
  W  W41  1  0.565450  0.153640  0.414770  1.0  1.313
  W  W42  1  0.411810  0.846360  0.085230  1.0  1.3114
  W  W43  1  0.369790  0.763020  0.828230  1.0  1.4019
  W  W44  1  0.830650  0.203360  0.801280  1.0  1.3803
  W  W45  1  0.606770  0.236980  0.671770  1.0  1.4084
  W  W46  1  0.169350  0.796640  0.198720  1.0  1.3721
  W  W47  1  0.434550  0.846360  0.585230  1.0  1.312
  W  W48  1  0.282800  0.048800  0.636690  1.0  2.4176
  C  C49  1  0.838400  0.794800  0.051300  1.0  0.0467
  C  C50  1  0.591000  0.514200  0.552500  1.0  -0.1285
  C  C51  1  0.227200  0.215000  0.496400  1.0  0.1604
  C  C52  1  0.021200  0.405200  0.987200  1.0  0.1484
  C  C53  1  0.987800  0.215000  0.996400  1.0  0.1622
  C  C54  1  0.772800  0.785000  0.503600  1.0  0.1598
  C  C55  1  0.135900  0.303400  0.444300  1.0  -0.1519
  C  C56  1  0.056600  0.580000  0.959800  1.0  -0.1872
  C  C57  1  0.523400  0.580000  0.459800  1.0  -0.1878
  C  C58  1  0.923200  0.514200  0.052500  1.0  -0.1288
  C  C59  1  0.476600  0.420000  0.540200  1.0  -0.188
  C  C60  1  0.167500  0.303400  0.944300  1.0  -0.1512
  C  C61  1  0.616000  0.594800  0.512800  1.0  0.1485
  C  C62  1  0.832500  0.696600  0.055700  1.0  -0.1514
  C  C63  1  0.943400  0.420000  0.040200  1.0  -0.1876
  C  C64  1  0.978800  0.594800  0.012800  1.0  0.1493
  C  C65  1  0.161600  0.205200  0.948700  1.0  0.0474
  C  C66  1  0.012200  0.785000  0.003600  1.0  0.1599
  C  C67  1  0.409000  0.485800  0.447500  1.0  -0.1248
  C  C68  1  0.384000  0.405200  0.487200  1.0  0.1491
  C  C69  1  0.956400  0.794800  0.551300  1.0  0.048
  C  C70  1  0.864100  0.696600  0.555700  1.0  -0.1522
  C  C71  1  0.043600  0.205200  0.448700  1.0  0.0463
  C  C72  1  0.076800  0.485800  0.947500  1.0  -0.1256
  N  N73  1  0.049600  0.148000  0.981600  1.0  -0.3734
  N  N74  1  0.742100  0.688400  0.523300  1.0  0.0327
  N  N75  1  0.946300  0.688400  0.023300  1.0  0.0327
  N  N76  1  0.901600  0.852000  0.518400  1.0  -0.372
  N  N77  1  0.257900  0.311600  0.476700  1.0  0.032
  N  N78  1  0.098400  0.148000  0.481600  1.0  -0.3733
  N  N79  1  0.950400  0.852000  0.018400  1.0  -0.371
  N  N80  1  0.053700  0.311600  0.976700  1.0  0.0323
  O  O81  1  0.442800  0.059800  0.311800  1.0  -0.7432
  O  O82  1  0.633300  0.090400  0.222500  1.0  -0.7472
  O  O83  1  0.717400  0.221200  0.358100  1.0  -0.6972
  O  O84  1  0.491200  0.703400  0.262300  1.0  -0.664
  O  O85  1  0.232200  0.098000  0.346700  1.0  -0.6768
  O  O86  1  0.439100  0.172800  0.615600  1.0  -0.6864
  O  O87  1  0.257400  0.072800  0.822700  1.0  -0.6727
  O  O88  1  0.675100  0.136200  0.629300  1.0  -0.6882
  O  O89  1  0.184600  0.927200  0.677300  1.0  -0.6727
  O  O90  1  0.134200  0.902000  0.153300  1.0  -0.678
  O  O91  1  0.627600  0.039800  0.408200  1.0  -0.7108
  O  O92  1  0.542900  0.909600  0.277500  1.0  -0.7478
  O  O93  1  0.557200  0.940200  0.688200  1.0  -0.744
  O  O94  1  0.252500  0.147000  0.706500  1.0  -0.6764
  O  O95  1  0.383000  0.940200  0.188200  1.0  -0.7429
  O  O96  1  0.721900  0.890000  0.782000  1.0  -0.654
  O  O97  1  0.815400  0.072800  0.322700  1.0  -0.6706
  O  O98  1  0.612600  0.936200  0.562700  1.0  -0.6375
  O  O99  1  0.733700  0.172800  0.115600  1.0  -0.6861
  O  O100  1  0.236900  0.752200  0.116900  1.0  -0.6753
  O  O101  1  0.372400  0.960200  0.591800  1.0  -0.7097
  O  O102  1  0.874600  0.036600  0.073900  1.0  -0.747
  O  O103  1  0.747500  0.853000  0.293500  1.0  -0.6769
  O  O104  1  0.125400  0.963400  0.926100  1.0  -0.7475
  O  O105  1  0.894500  0.147000  0.206500  1.0  -0.6762
  O  O106  1  0.168100  0.890000  0.282000  1.0  -0.653
  O  O107  1  0.767800  0.902000  0.653300  1.0  -0.6795
  O  O108  1  0.461100  0.136200  0.129300  1.0  -0.6888
  O  O109  1  0.324900  0.863800  0.370700  1.0  -0.6891
  O  O110  1  0.278100  0.110000  0.218000  1.0  -0.6524
  O  O111  1  0.162000  0.036600  0.573900  1.0  -0.7472
  O  O112  1  0.617000  0.059800  0.811800  1.0  -0.7444
  O  O113  1  0.726800  0.253600  0.748800  1.0  -0.6861
  O  O114  1  0.273200  0.746400  0.251200  1.0  -0.6913
  O  O115  1  0.282600  0.778800  0.641900  1.0  -0.6973
  O  O116  1  0.508800  0.296600  0.737700  1.0  -0.6537
  O  O117  1  0.412200  0.039800  0.908200  1.0  -0.711
  O  O118  1  0.366700  0.909600  0.777500  1.0  -0.7468
  O  O119  1  0.587800  0.960200  0.091800  1.0  -0.7096
  O  O120  1  0.503800  0.221200  0.858100  1.0  -0.6975
  O  O121  1  0.484700  0.247800  0.383100  1.0  -0.6758
  O  O122  1  0.865800  0.098000  0.846700  1.0  -0.6784
  O  O123  1  0.676400  0.063800  0.937300  1.0  -0.638
  O  O124  1  0.560900  0.827200  0.384400  1.0  -0.6847
  O  O125  1  0.763100  0.247800  0.883100  1.0  -0.6753
  O  O126  1  0.742600  0.927200  0.177300  1.0  -0.6706
  O  O127  1  0.538900  0.863800  0.870700  1.0  -0.6886
  O  O128  1  0.496200  0.778800  0.141900  1.0  -0.6976
  O  O129  1  0.323600  0.936200  0.062700  1.0  -0.6375
  O  O130  1  0.526800  0.253600  0.248800  1.0  -0.6864
  O  O131  1  0.515300  0.752200  0.616900  1.0  -0.6751
  O  O132  1  0.266300  0.827200  0.884400  1.0  -0.6851
  O  O133  1  0.212200  0.703400  0.762300  1.0  -0.6646
  O  O134  1  0.473200  0.746400  0.751200  1.0  -0.6918
  O  O135  1  0.387400  0.063800  0.437300  1.0  -0.6376
  O  O136  1  0.787800  0.296600  0.237700  1.0  -0.654
  O  O137  1  0.105500  0.853000  0.793500  1.0  -0.6772
  O  O138  1  0.831900  0.110000  0.718000  1.0  -0.6529
  O  O139  1  0.838000  0.963400  0.426100  1.0  -0.7469
  O  O140  1  0.457100  0.090400  0.722500  1.0  -0.7467
