# generated using pymatgen
data_CoH5(C2O)4
_symmetry_space_group_name_H-M   'P 1'
_cell_length_a   6.12100000
_cell_length_b   10.78100000
_cell_length_c   13.98700000
_cell_angle_alpha   98.90100000
_cell_angle_beta   96.71500000
_cell_angle_gamma   103.86100000
_symmetry_Int_Tables_number   1
_chemical_formula_structural   CoH5(C2O)4
_chemical_formula_sum   'Co4 H20 C32 O16'
_cell_volume   873.85394601
_cell_formula_units_Z   4
loop_
 _symmetry_equiv_pos_site_id
 _symmetry_equiv_pos_as_xyz
  1  'x, y, z'
loop_
 _atom_site_type_symbol
 _atom_site_label
 _atom_site_symmetry_multiplicity
 _atom_site_fract_x
 _atom_site_fract_y
 _atom_site_fract_z
 _atom_site_occupancy
 _atom_site_charge
  Co  Co1  1  0.648680  0.276670  0.443090  1.0  0.9702
  Co  Co2  1  0.400690  0.477720  0.386380  1.0  1.0008
  Co  Co3  1  0.599310  0.522280  0.613620  1.0  0.9985
  Co  Co4  1  0.351320  0.723330  0.556910  1.0  0.9709
  H  H5  1  0.249000  0.083200  0.283500  1.0  0.1155
  H  H6  1  0.194000  0.473000  0.530000  1.0  0.4011
  H  H7  1  0.346300  0.305000  0.064500  1.0  0.1123
  H  H8  1  0.653700  0.695000  0.935500  1.0  0.1131
  H  H9  1  0.872700  0.186700  0.171200  1.0  0.1012
  H  H10  1  0.910500  0.102400  0.015400  1.0  0.1112
  H  H11  1  0.826900  0.730100  0.261000  1.0  0.1309
  H  H12  1  0.473900  0.933200  0.198800  1.0  0.1012
  H  H13  1  0.751000  0.916800  0.716500  1.0  0.1152
  H  H14  1  0.627600  0.790300  0.091400  1.0  0.1095
  H  H15  1  0.127300  0.813300  0.828800  1.0  0.101
  H  H16  1  0.689000  0.993500  0.850300  1.0  0.0929
  H  H17  1  0.749100  0.032500  0.447400  1.0  0.1175
  H  H18  1  0.372400  0.209700  0.908600  1.0  0.11
  H  H19  1  0.089500  0.897600  0.984600  1.0  0.1109
  H  H20  1  0.806000  0.527000  0.470000  1.0  0.4001
  H  H21  1  0.526100  0.066800  0.801200  1.0  0.1026
  H  H22  1  0.173100  0.269900  0.739000  1.0  0.1308
  H  H23  1  0.250900  0.967500  0.552600  1.0  0.1172
  H  H24  1  0.311000  0.006500  0.149700  1.0  0.0924
  C  C25  1  0.124300  0.029200  0.301700  1.0  -0.1477
  C  C26  1  0.771500  0.192900  0.118300  1.0  -0.0756
  C  C27  1  0.827100  0.998900  0.400900  1.0  0.0117
  C  C28  1  0.093800  0.222100  0.415500  1.0  0.6901
  C  C29  1  0.421400  0.693500  0.763000  1.0  0.6898
  C  C30  1  0.127100  0.181800  0.711100  1.0  -0.1467
  C  C31  1  0.172900  0.001100  0.599100  1.0  0.0112
  C  C32  1  0.207700  0.858900  0.975100  1.0  -0.1028
  C  C33  1  0.578600  0.306500  0.237000  1.0  0.6888
  C  C34  1  0.458600  0.261500  0.055300  1.0  -0.032
  C  C35  1  0.792300  0.141100  0.024900  1.0  -0.1067
  C  C36  1  0.009300  0.079200  0.372000  1.0  -0.119
  C  C37  1  0.664600  0.078400  0.846900  1.0  0.0537
  C  C38  1  0.228500  0.807100  0.881700  1.0  -0.0745
  C  C39  1  0.418500  0.225800  0.603900  1.0  0.7029
  C  C40  1  0.643500  0.145300  0.946000  1.0  0.0558
  C  C41  1  0.541400  0.738500  0.944700  1.0  -0.0336
  C  C42  1  0.906200  0.777900  0.584500  1.0  0.6892
  C  C43  1  0.875700  0.970800  0.698300  1.0  -0.15
  C  C44  1  0.356500  0.854700  0.054000  1.0  0.0583
  C  C45  1  0.476100  0.205800  0.961500  1.0  -0.1065
  C  C46  1  0.990700  0.920800  0.628000  1.0  -0.1187
  C  C47  1  0.397400  0.746300  0.865900  1.0  -0.077
  C  C48  1  0.237900  0.132600  0.640200  1.0  -0.1575
  C  C49  1  0.581500  0.774200  0.396100  1.0  0.7009
  C  C50  1  0.602600  0.253700  0.134100  1.0  -0.0752
  C  C51  1  0.947300  0.100500  0.740900  1.0  0.2663
  C  C52  1  0.052700  0.899500  0.259100  1.0  0.2623
  C  C53  1  0.872900  0.818200  0.288900  1.0  -0.1453
  C  C54  1  0.335400  0.921600  0.153100  1.0  0.0536
  C  C55  1  0.523900  0.794200  0.038500  1.0  -0.1074
  C  C56  1  0.762100  0.867400  0.359800  1.0  -0.1573
  O  O57  1  0.454300  0.343000  0.639600  1.0  -0.6083
  O  O58  1  0.656500  0.249500  0.301100  1.0  -0.5833
  O  O59  1  0.512300  0.602800  0.747100  1.0  -0.5939
  O  O60  1  0.688300  0.465500  0.478300  1.0  -0.9661
  O  O61  1  0.516900  0.178500  0.538550  1.0  -0.5919
  O  O62  1  0.483100  0.821500  0.461450  1.0  -0.5922
  O  O63  1  0.146700  0.842400  0.185100  1.0  -0.2658
  O  O64  1  0.311700  0.534500  0.521700  1.0  -0.9671
  O  O65  1  0.020000  0.723300  0.530840  1.0  -0.5948
  O  O66  1  0.980000  0.276700  0.469160  1.0  -0.5932
  O  O67  1  0.545700  0.657000  0.360400  1.0  -0.6066
  O  O68  1  0.343500  0.750500  0.698900  1.0  -0.5839
  O  O69  1  0.717600  0.718400  0.603470  1.0  -0.6621
  O  O70  1  0.282400  0.281600  0.396530  1.0  -0.662
  O  O71  1  0.853300  0.157600  0.814900  1.0  -0.2655
  O  O72  1  0.487700  0.397200  0.252900  1.0  -0.5918
