# generated using pymatgen
data_Co4H25C38N9O14
_symmetry_space_group_name_H-M   'P 1'
_cell_length_a   12.17720000
_cell_length_b   15.53140000
_cell_length_c   15.82670000
_cell_angle_alpha   76.01900000
_cell_angle_beta   67.57000000
_cell_angle_gamma   69.19600000
_symmetry_Int_Tables_number   1
_chemical_formula_structural   Co4H25C38N9O14
_chemical_formula_sum   'Co8 H50 C76 N18 O28'
_cell_volume   2566.87334718
_cell_formula_units_Z   2
loop_
 _symmetry_equiv_pos_site_id
 _symmetry_equiv_pos_as_xyz
  1  'x, y, z'
loop_
 _atom_site_type_symbol
 _atom_site_label
 _atom_site_symmetry_multiplicity
 _atom_site_fract_x
 _atom_site_fract_y
 _atom_site_fract_z
 _atom_site_occupancy
 _atom_site_charge
  Co  Co1  1  0.235100  0.679610  0.031050  1.0  1.0402
  Co  Co2  1  0.045360  0.035580  0.215740  1.0  0.9212
  Co  Co3  1  0.048970  0.633560  0.260760  1.0  1.0329
  Co  Co4  1  0.764900  0.320390  0.968950  1.0  1.0418
  Co  Co5  1  0.951030  0.366440  0.739240  1.0  1.0304
  Co  Co6  1  0.954640  0.964420  0.784260  1.0  0.9185
  Co  Co7  1  0.437550  0.663820  0.810360  1.0  0.9629
  Co  Co8  1  0.562450  0.336180  0.189640  1.0  0.9583
  H  H9  1  0.905800  0.166100  0.459100  1.0  0.0929
  H  H10  1  0.233500  0.834500  0.720700  1.0  0.0581
  H  H11  1  0.729200  0.974200  0.551900  1.0  0.0947
  H  H12  1  0.367700  0.084700  0.913700  1.0  0.1251
  H  H13  1  0.167300  0.200900  0.456900  1.0  0.0943
  H  H14  1  0.832700  0.799100  0.543100  1.0  0.0942
  H  H15  1  0.295900  0.859200  0.213400  1.0  0.0808
  H  H16  1  0.010600  0.157800  0.687400  1.0  0.1158
  H  H17  1  0.067400  0.558300  0.685900  1.0  0.0978
  H  H18  1  0.967600  0.673600  0.957100  1.0  0.117
  H  H19  1  0.982900  0.147200  0.030400  1.0  0.078
  H  H20  1  0.182200  0.898000  0.060900  1.0  0.0844
  H  H21  1  0.257800  0.431500  0.296300  1.0  0.0635
  H  H22  1  0.817800  0.102000  0.939100  1.0  0.0839
  H  H23  1  0.744300  0.538100  0.957300  1.0  0.0969
  H  H24  1  0.649400  0.837200  0.857300  1.0  0.1125
  H  H25  1  0.270800  0.025800  0.448100  1.0  0.0943
  H  H26  1  0.350600  0.162800  0.142700  1.0  0.1129
  H  H27  1  0.801100  0.224800  0.599400  1.0  0.1086
  H  H28  1  0.932600  0.452600  0.456300  1.0  0.1161
  H  H29  1  0.632300  0.915300  0.086300  1.0  0.1257
  H  H30  1  0.742200  0.568500  0.703700  1.0  0.0617
  H  H31  1  0.255700  0.461900  0.042700  1.0  0.0973
  H  H32  1  0.032400  0.326400  0.042900  1.0  0.1178
  H  H33  1  0.586000  0.233300  0.899300  1.0  0.1053
  H  H34  1  0.094200  0.833900  0.540900  1.0  0.0933
  H  H35  1  0.414000  0.766700  0.100700  1.0  0.1055
  H  H36  1  0.368800  0.766000  0.258200  1.0  0.087
  H  H37  1  0.067400  0.547400  0.543700  1.0  0.1151
  H  H38  1  0.921700  0.751200  0.809200  1.0  0.1001
  H  H39  1  0.808100  0.527200  0.190300  1.0  0.1129
  H  H40  1  0.766500  0.165500  0.279300  1.0  0.0599
  H  H41  1  0.968900  0.342500  0.198200  1.0  0.0931
  H  H42  1  0.078300  0.248800  0.190800  1.0  0.1001
  H  H43  1  0.359800  0.976700  0.306400  1.0  0.1132
  H  H44  1  0.631200  0.234000  0.741800  1.0  0.0873
  H  H45  1  0.640200  0.023300  0.693600  1.0  0.1124
  H  H46  1  0.989400  0.842200  0.312600  1.0  0.1174
  H  H47  1  0.120500  0.029100  0.675900  1.0  0.4292
  H  H48  1  0.932600  0.441700  0.314100  1.0  0.0986
  H  H49  1  0.031100  0.657500  0.801800  1.0  0.0956
  H  H50  1  0.165400  0.188900  0.317000  1.0  0.1122
  H  H51  1  0.191900  0.472800  0.809700  1.0  0.1139
  H  H52  1  0.017100  0.852800  0.969600  1.0  0.0781
  H  H53  1  0.198900  0.775200  0.400600  1.0  0.1086
  H  H54  1  0.834600  0.811100  0.683000  1.0  0.112
  H  H55  1  0.472300  0.522300  0.070000  1.0  0.0888
  H  H56  1  0.527700  0.477700  0.930000  1.0  0.0886
  H  H57  1  0.704100  0.140800  0.786600  1.0  0.0811
  H  H58  1  0.879500  0.970900  0.324100  1.0  0.4283
  C  C59  1  0.849800  0.138300  0.505600  1.0  -0.0523
  C  C60  1  0.980000  0.391700  0.343500  1.0  -0.0731
  C  C61  1  0.115100  0.969400  0.601900  1.0  0.6494
  C  C62  1  0.238300  0.078900  0.088100  1.0  0.6503
  C  C63  1  0.084900  0.363400  0.011600  1.0  -0.1237
  C  C64  1  0.032900  0.373500  0.871300  1.0  0.6804
  C  C65  1  0.235100  0.478700  0.919500  1.0  -0.1673
  C  C66  1  0.474500  0.205200  0.027700  1.0  -0.1322
  C  C67  1  0.953400  0.686300  0.699100  1.0  0.0119
  C  C68  1  0.046600  0.313700  0.300900  1.0  0.0102
  C  C69  1  0.150200  0.861700  0.494400  1.0  -0.0505
  C  C70  1  0.020000  0.608300  0.656500  1.0  -0.0714
  C  C71  1  0.604600  0.885400  0.057600  1.0  -0.1443
  C  C72  1  0.144300  0.387100  0.056900  1.0  0.3098
  C  C73  1  0.085600  0.834700  0.918100  1.0  0.2332
  C  C74  1  0.827800  0.062800  0.490700  1.0  -0.1275
  C  C75  1  0.526400  0.202800  0.933800  1.0  -0.2114
  C  C76  1  0.287400  0.467500  0.241500  1.0  0.2421
  C  C77  1  0.521600  0.255900  0.068500  1.0  0.6846
  C  C78  1  0.782700  0.555000  0.988900  1.0  -0.1102
  C  C79  1  0.616100  0.837500  0.920800  1.0  0.0033
  C  C80  1  0.949100  0.667800  0.434700  1.0  0.6551
  C  C81  1  0.489300  0.154400  0.890800  1.0  0.2757
  C  C82  1  0.896300  0.605200  0.080800  1.0  -0.14
  C  C83  1  0.914400  0.165300  0.081900  1.0  0.2318
  C  C84  1  0.764900  0.521300  0.080500  1.0  -0.1675
  C  C85  1  0.787800  0.172800  0.590200  1.0  -0.1191
  C  C86  1  0.143300  0.866200  0.115600  1.0  0.2252
  C  C87  1  0.038800  0.836300  0.251500  1.0  0.2093
  C  C88  1  0.019800  0.601000  0.571800  1.0  -0.103
  C  C89  1  0.690500  0.054500  0.645700  1.0  -0.1754
  C  C90  1  0.179100  0.452300  0.872000  1.0  -0.0219
  C  C91  1  0.712600  0.532500  0.758500  1.0  0.2434
  C  C92  1  0.949700  0.688000  0.795100  1.0  0.0651
  C  C93  1  0.647500  0.167200  0.751100  1.0  0.0047
  C  C94  1  0.291800  0.868600  0.340300  1.0  0.0254
  C  C95  1  0.856700  0.133800  0.884400  1.0  0.2273
  C  C96  1  0.691800  0.453800  0.126400  1.0  0.6801
  C  C97  1  0.050900  0.332200  0.565300  1.0  0.6528
  C  C98  1  0.882600  0.757200  0.655600  1.0  -0.1653
  C  C99  1  0.383900  0.162500  0.079200  1.0  0.002
  C  C100  1  0.597900  0.483300  0.880200  1.0  0.2158
  C  C101  1  0.746900  0.023900  0.561400  1.0  -0.0372
  C  C102  1  0.118400  0.250200  0.428000  1.0  -0.0381
  C  C103  1  0.525500  0.794800  0.972300  1.0  -0.1338
  C  C104  1  0.510700  0.845600  0.109200  1.0  0.2764
  C  C105  1  0.352500  0.832800  0.248900  1.0  0.0041
  C  C106  1  0.201400  0.825200  0.784700  1.0  0.2501
  C  C107  1  0.103700  0.394800  0.919200  1.0  -0.1402
  C  C108  1  0.309500  0.945500  0.354300  1.0  -0.1747
  C  C109  1  0.172200  0.937200  0.509300  1.0  -0.1261
  C  C110  1  0.881600  0.749800  0.572000  1.0  -0.033
  C  C111  1  0.308200  0.546200  0.873600  1.0  0.6803
  C  C112  1  0.884900  0.030600  0.398100  1.0  0.6508
  C  C113  1  0.253100  0.976100  0.438600  1.0  -0.0333
  C  C114  1  0.050300  0.312000  0.204900  1.0  0.0659
  C  C115  1  0.708200  0.131400  0.659700  1.0  0.0258
  C  C116  1  0.761700  0.921100  0.911900  1.0  0.6515
  C  C117  1  0.342700  0.118500  0.034900  1.0  -0.1407
  C  C118  1  0.980200  0.399000  0.428200  1.0  -0.1034
  C  C119  1  0.395400  0.114600  0.942400  1.0  -0.1445
  C  C120  1  0.217300  0.445000  0.011100  1.0  -0.1109
  C  C121  1  0.657300  0.881500  0.965100  1.0  -0.1354
  C  C122  1  0.212200  0.827200  0.409800  1.0  -0.113
  C  C123  1  0.820900  0.547700  0.128000  1.0  -0.0228
  C  C124  1  0.050700  0.327000  0.470000  1.0  -0.0992
  C  C125  1  0.798600  0.174800  0.215300  1.0  0.249
  C  C126  1  0.961200  0.163700  0.748500  1.0  0.2093
  C  C127  1  0.967100  0.626500  0.128700  1.0  0.6781
  C  C128  1  0.402100  0.516700  0.119800  1.0  0.217
  C  C129  1  0.478400  0.744100  0.931500  1.0  0.6854
  C  C130  1  0.473600  0.797200  0.066200  1.0  -0.2211
  C  C131  1  0.117400  0.242800  0.344400  1.0  -0.1734
  C  C132  1  0.949300  0.673000  0.530000  1.0  -0.1001
  C  C133  1  0.915100  0.636600  0.988400  1.0  -0.1246
  C  C134  1  0.855700  0.612900  0.943100  1.0  0.31
  N  N135  1  0.087800  0.871200  0.831300  1.0  -0.4105
  N  N136  1  0.813900  0.226700  0.076800  1.0  -0.2347
  N  N137  1  0.735600  0.233700  0.165400  1.0  -0.3155
  N  N138  1  0.922200  0.095600  0.806900  1.0  -0.3956
  N  N139  1  0.216500  0.542300  0.209400  1.0  -0.2701
  N  N140  1  0.912200  0.128800  0.168700  1.0  -0.41
  N  N141  1  0.264400  0.766300  0.834600  1.0  -0.3156
  N  N142  1  0.783500  0.457700  0.790600  1.0  -0.2723
  N  N143  1  0.147600  0.779100  0.123800  1.0  -0.2535
  N  N144  1  0.404400  0.447700  0.189400  1.0  -0.4051
  N  N145  1  0.077800  0.904400  0.193100  1.0  -0.3966
  N  N146  1  0.595600  0.552300  0.810600  1.0  -0.403
  N  N147  1  0.852400  0.220900  0.876200  1.0  -0.2531
  N  N148  1  0.706800  0.425500  0.871500  1.0  -0.2548
  N  N149  1  0.186100  0.773300  0.923200  1.0  -0.2343
  N  N150  1  0.293200  0.574500  0.128500  1.0  -0.2546
  N  N151  1  0.077300  0.759100  0.213900  1.0  -0.3278
  N  N152  1  0.922700  0.240900  0.786100  1.0  -0.3294
  O  O153  1  0.804000  0.922500  0.825000  1.0  -0.5989
  O  O154  1  0.190300  0.050400  0.046900  1.0  -0.6397
  O  O155  1  0.061300  0.651400  0.080600  1.0  -0.6566
  O  O156  1  0.041800  0.607100  0.389100  1.0  -0.6179
  O  O157  1  0.070200  0.384100  0.784300  1.0  -0.5797
  O  O158  1  0.651700  0.437200  0.211300  1.0  -0.5983
  O  O159  1  0.958200  0.392900  0.610900  1.0  -0.6179
  O  O160  1  0.196000  0.077500  0.175000  1.0  -0.598
  O  O161  1  0.538400  0.146000  0.800000  1.0  -0.2898
  O  O162  1  0.590100  0.303300  0.015300  1.0  -0.6196
  O  O163  1  0.977800  0.054900  0.345800  1.0  -0.5726
  O  O164  1  0.868000  0.721100  0.405300  1.0  -0.5144
  O  O165  1  0.136600  0.361300  0.146400  1.0  -0.2791
  O  O166  1  0.670800  0.414500  0.075300  1.0  -0.7079
  O  O167  1  0.132000  0.278900  0.594700  1.0  -0.5139
  O  O168  1  0.491600  0.248700  0.155200  1.0  -0.5891
  O  O169  1  0.938700  0.348600  0.919400  1.0  -0.6583
  O  O170  1  0.022200  0.945100  0.654200  1.0  -0.5712
  O  O171  1  0.348300  0.562800  0.788700  1.0  -0.595
  O  O172  1  0.161200  0.016300  0.623300  1.0  -0.495
  O  O173  1  0.409900  0.696700  0.984700  1.0  -0.6184
  O  O174  1  0.508400  0.751300  0.844800  1.0  -0.5894
  O  O175  1  0.809700  0.949600  0.953100  1.0  -0.6382
  O  O176  1  0.929800  0.615900  0.215700  1.0  -0.5786
  O  O177  1  0.863400  0.638700  0.853600  1.0  -0.2789
  O  O178  1  0.329200  0.585500  0.924700  1.0  -0.7093
  O  O179  1  0.838800  0.983700  0.376700  1.0  -0.4951
  O  O180  1  0.461600  0.854000  0.200000  1.0  -0.2918
