# generated using pymatgen
data_CoHC4O3
_symmetry_space_group_name_H-M   'P 1'
_cell_length_a   6.80390000
_cell_length_b   15.11330000
_cell_length_c   15.11330000
_cell_angle_alpha   62.21070000
_cell_angle_beta   81.36940000
_cell_angle_gamma   98.63060000
_symmetry_Int_Tables_number   1
_chemical_formula_structural   CoHC4O3
_chemical_formula_sum   'Co6 H6 C24 O18'
_cell_volume   1315.57461607
_cell_formula_units_Z   6
loop_
 _symmetry_equiv_pos_site_id
 _symmetry_equiv_pos_as_xyz
  1  'x, y, z'
loop_
 _atom_site_type_symbol
 _atom_site_label
 _atom_site_symmetry_multiplicity
 _atom_site_fract_x
 _atom_site_fract_y
 _atom_site_fract_z
 _atom_site_occupancy
 _atom_site_charge
  Co  Co1  1  0.116600  0.302500  0.278700  1.0  0.9729
  Co  Co2  1  0.395300  0.278700  0.418800  1.0  0.9725
  Co  Co3  1  0.116600  0.721300  0.697500  1.0  0.9729
  Co  Co4  1  0.395300  0.581200  0.721300  1.0  0.9688
  Co  Co5  1  0.814100  0.697500  0.581200  1.0  0.9731
  Co  Co6  1  0.814100  0.418800  0.302500  1.0  0.9688
  H  H7  1  0.237050  0.517150  0.000000  1.0  0.1169
  H  H8  1  0.719900  0.482850  0.517150  1.0  0.1163
  H  H9  1  0.528050  0.000000  0.575850  1.0  0.1174
  H  H10  1  0.103900  0.575850  0.424150  1.0  0.1194
  H  H11  1  0.528050  0.424150  0.000000  1.0  0.1152
  H  H12  1  0.237050  0.000000  0.482850  1.0  0.1156
  C  C13  1  0.507800  0.467800  0.439400  1.0  0.3459
  C  C14  1  0.683150  0.442450  0.000000  1.0  -0.0474
  C  C15  1  0.204100  0.456400  0.357800  1.0  0.7311
  C  C16  1  0.747700  0.543600  0.814200  1.0  0.7314
  C  C17  1  0.728900  0.905200  0.585300  1.0  -0.1671
  C  C18  1  0.040000  0.092800  0.467800  1.0  0.3444
  C  C19  1  0.561900  0.814200  0.642200  1.0  0.7284
  C  C20  1  0.314200  0.490500  0.414700  1.0  -0.1711
  C  C21  1  0.823700  0.094800  0.490500  1.0  -0.1746
  C  C22  1  0.947200  0.439400  0.092800  1.0  0.3471
  C  C23  1  0.040000  0.532200  0.907200  1.0  0.3477
  C  C24  1  0.747700  0.185800  0.456400  1.0  0.7287
  C  C25  1  0.314200  0.585300  0.509500  1.0  -0.1706
  C  C26  1  0.585400  0.501600  0.498400  1.0  -0.059
  C  C27  1  0.240700  0.557550  0.442450  1.0  -0.0435
  C  C28  1  0.507800  0.560600  0.532200  1.0  0.3445
  C  C29  1  0.823700  0.509500  0.905200  1.0  -0.1744
  C  C30  1  0.728900  0.414700  0.094800  1.0  -0.1668
  C  C31  1  0.204100  0.642200  0.543600  1.0  0.7304
  C  C32  1  0.561900  0.357800  0.185800  1.0  0.7308
  C  C33  1  0.947200  0.907200  0.560600  1.0  0.3441
  C  C34  1  0.083800  0.498400  0.000000  1.0  -0.0581
  C  C35  1  0.083800  0.000000  0.501600  1.0  -0.0608
  C  C36  1  0.683150  0.000000  0.557550  1.0  -0.0539
  O  O37  1  0.577200  0.401500  0.416900  1.0  -0.6412
  O  O38  1  0.058100  0.672500  0.504600  1.0  -0.605
  O  O39  1  0.175700  0.598500  0.818400  1.0  -0.6409
  O  O40  1  0.255200  0.384200  0.341100  1.0  -0.692
  O  O41  1  0.255200  0.658900  0.615800  1.0  -0.6917
  O  O42  1  0.871000  0.615800  0.725300  1.0  -0.691
  O  O43  1  0.871000  0.274700  0.384200  1.0  -0.69
  O  O44  1  0.596300  0.725300  0.658900  1.0  -0.6915
  O  O45  1  0.994100  0.818400  0.583100  1.0  -0.6418
  O  O46  1  0.596300  0.341100  0.274700  1.0  -0.6917
  O  O47  1  0.385600  0.822900  0.672500  1.0  -0.6061
  O  O48  1  0.175700  0.181600  0.401500  1.0  -0.6415
  O  O49  1  0.562700  0.177100  0.495400  1.0  -0.6023
  O  O50  1  0.577200  0.583100  0.598500  1.0  -0.6409
  O  O51  1  0.994100  0.416900  0.181600  1.0  -0.6412
  O  O52  1  0.385600  0.327500  0.177100  1.0  -0.6109
  O  O53  1  0.058100  0.495400  0.327500  1.0  -0.6113
  O  O54  1  0.562700  0.504600  0.822900  1.0  -0.6059
