# generated using pymatgen
data_CoHC4O3
_symmetry_space_group_name_H-M   'P 1'
_cell_length_a   6.78980000
_cell_length_b   15.09630000
_cell_length_c   15.09630000
_cell_angle_alpha   62.20660000
_cell_angle_beta   81.37750000
_cell_angle_gamma   98.62250000
_symmetry_Int_Tables_number   1
_chemical_formula_structural   CoHC4O3
_chemical_formula_sum   'Co6 H6 C24 O18'
_cell_volume   1309.95230057
_cell_formula_units_Z   6
loop_
 _symmetry_equiv_pos_site_id
 _symmetry_equiv_pos_as_xyz
  1  'x, y, z'
loop_
 _atom_site_type_symbol
 _atom_site_label
 _atom_site_symmetry_multiplicity
 _atom_site_fract_x
 _atom_site_fract_y
 _atom_site_fract_z
 _atom_site_occupancy
 _atom_site_charge
  Co  Co1  1  0.400300  0.583300  0.717400  1.0  1.0542
  Co  Co2  1  0.817000  0.699300  0.583300  1.0  1.0579
  Co  Co3  1  0.117700  0.717400  0.699300  1.0  1.0573
  Co  Co4  1  0.400300  0.282600  0.416700  1.0  1.0568
  Co  Co5  1  0.117700  0.300700  0.282600  1.0  1.058
  Co  Co6  1  0.817000  0.416700  0.300700  1.0  1.0547
  H  H7  1  0.244700  0.000000  0.483900  1.0  0.1019
  H  H8  1  0.534700  0.423100  0.000000  1.0  0.1024
  H  H9  1  0.728600  0.483900  0.516100  1.0  0.1023
  H  H10  1  0.244700  0.516100  0.000000  1.0  0.1022
  H  H11  1  0.534700  0.000000  0.576900  1.0  0.1046
  H  H12  1  0.111600  0.576900  0.423100  1.0  0.1037
  C  C13  1  0.729700  0.415000  0.093900  1.0  -0.16
  C  C14  1  0.944400  0.908100  0.560300  1.0  0.3702
  C  C15  1  0.314700  0.585000  0.508900  1.0  -0.1624
  C  C16  1  0.504700  0.468400  0.439700  1.0  0.3738
  C  C17  1  0.202600  0.644300  0.541500  1.0  0.6677
  C  C18  1  0.581700  0.503550  0.496450  1.0  -0.097
  C  C19  1  0.944400  0.439700  0.091900  1.0  0.3739
  C  C20  1  0.729700  0.906100  0.585000  1.0  -0.1605
  C  C21  1  0.036300  0.091900  0.468400  1.0  0.3702
  C  C22  1  0.078150  0.000000  0.503550  1.0  -0.0975
  C  C23  1  0.823600  0.093900  0.491100  1.0  -0.1697
  C  C24  1  0.504700  0.560300  0.531600  1.0  0.3739
  C  C25  1  0.680750  0.000000  0.558750  1.0  -0.0843
  C  C26  1  0.744100  0.541500  0.814200  1.0  0.6706
  C  C27  1  0.823600  0.508900  0.906100  1.0  -0.1689
  C  C28  1  0.680750  0.441250  0.000000  1.0  -0.0782
  C  C29  1  0.558300  0.814200  0.644300  1.0  0.6653
  C  C30  1  0.202600  0.458500  0.355700  1.0  0.6708
  C  C31  1  0.036300  0.531600  0.908100  1.0  0.3737
  C  C32  1  0.558300  0.355700  0.185800  1.0  0.6678
  C  C33  1  0.314700  0.491100  0.415000  1.0  -0.1627
  C  C34  1  0.239500  0.558750  0.441250  1.0  -0.0789
  C  C35  1  0.744100  0.185800  0.458500  1.0  0.6654
  C  C36  1  0.078150  0.496450  0.000000  1.0  -0.0958
  O  O37  1  0.598000  0.341300  0.274600  1.0  -0.7049
  O  O38  1  0.579700  0.584900  0.596700  1.0  -0.6579
  O  O39  1  0.176400  0.181600  0.403300  1.0  -0.6582
  O  O40  1  0.556800  0.176200  0.499000  1.0  -0.5899
  O  O41  1  0.256700  0.658700  0.615900  1.0  -0.7047
  O  O42  1  0.055800  0.675200  0.501000  1.0  -0.5807
  O  O43  1  0.380600  0.324800  0.176200  1.0  -0.5816
  O  O44  1  0.055800  0.499000  0.324800  1.0  -0.5817
  O  O45  1  0.872600  0.274600  0.384100  1.0  -0.703
  O  O46  1  0.380600  0.823800  0.675200  1.0  -0.5806
  O  O47  1  0.176400  0.596700  0.818400  1.0  -0.659
  O  O48  1  0.598000  0.725400  0.658700  1.0  -0.7045
  O  O49  1  0.256700  0.384100  0.341300  1.0  -0.7046
  O  O50  1  0.994800  0.415100  0.181600  1.0  -0.6583
  O  O51  1  0.994800  0.818400  0.584900  1.0  -0.6582
  O  O52  1  0.579700  0.403300  0.415100  1.0  -0.6592
  O  O53  1  0.556800  0.501000  0.823800  1.0  -0.5927
  O  O54  1  0.872600  0.615900  0.725400  1.0  -0.7038
