# generated using pymatgen
data_CoHC4O3
_symmetry_space_group_name_H-M   'P 1'
_cell_length_a   6.78800000
_cell_length_b   15.09610000
_cell_length_c   15.09610000
_cell_angle_alpha   62.20550000
_cell_angle_beta   81.37970000
_cell_angle_gamma   98.62030000
_symmetry_Int_Tables_number   1
_chemical_formula_structural   CoHC4O3
_chemical_formula_sum   'Co6 H6 C24 O18'
_cell_volume   1309.58565521
_cell_formula_units_Z   6
loop_
 _symmetry_equiv_pos_site_id
 _symmetry_equiv_pos_as_xyz
  1  'x, y, z'
loop_
 _atom_site_type_symbol
 _atom_site_label
 _atom_site_symmetry_multiplicity
 _atom_site_fract_x
 _atom_site_fract_y
 _atom_site_fract_z
 _atom_site_occupancy
 _atom_site_charge
  Co  Co1  1  0.101900  0.716500  0.700800  1.0  0.9977
  Co  Co2  1  0.101900  0.299200  0.283500  1.0  0.9975
  Co  Co3  1  0.802700  0.417300  0.299200  1.0  0.991
  Co  Co4  1  0.385400  0.582700  0.716500  1.0  0.9929
  Co  Co5  1  0.802700  0.700800  0.582700  1.0  0.9986
  Co  Co6  1  0.385400  0.283500  0.417300  1.0  0.9958
  H  H7  1  0.534050  0.000000  0.572850  1.0  0.1223
  H  H8  1  0.229150  0.511450  0.000000  1.0  0.095
  H  H9  1  0.717700  0.488550  0.511450  1.0  0.0949
  H  H10  1  0.534050  0.427150  0.000000  1.0  0.1238
  H  H11  1  0.229150  0.000000  0.488550  1.0  0.0958
  H  H12  1  0.106900  0.572850  0.427150  1.0  0.1243
  C  C13  1  0.732900  0.905000  0.585400  1.0  -0.1095
  C  C14  1  0.236400  0.558750  0.441250  1.0  -0.0036
  C  C15  1  0.564500  0.815100  0.641900  1.0  0.6729
  C  C16  1  0.318300  0.490400  0.414600  1.0  -0.1081
  C  C17  1  0.827900  0.095000  0.490400  1.0  -0.1169
  C  C18  1  0.564500  0.358100  0.184900  1.0  0.6739
  C  C19  1  0.037900  0.093700  0.468100  1.0  0.3277
  C  C20  1  0.827900  0.509600  0.905000  1.0  -0.1171
  C  C21  1  0.677650  0.000000  0.558750  1.0  -0.0105
  C  C22  1  0.080100  0.000000  0.500400  1.0  -0.0889
  C  C23  1  0.080100  0.499600  0.000000  1.0  -0.0873
  C  C24  1  0.749400  0.543000  0.815100  1.0  0.6778
  C  C25  1  0.944200  0.906300  0.561800  1.0  0.3269
  C  C26  1  0.732900  0.414600  0.095000  1.0  -0.1087
  C  C27  1  0.506000  0.468100  0.438200  1.0  0.3305
  C  C28  1  0.677650  0.441250  0.000000  1.0  -0.003
  C  C29  1  0.037900  0.531900  0.906300  1.0  0.3306
  C  C30  1  0.318300  0.585400  0.509600  1.0  -0.1073
  C  C31  1  0.206400  0.457000  0.358100  1.0  0.6763
  C  C32  1  0.944200  0.438200  0.093700  1.0  0.3289
  C  C33  1  0.206400  0.641900  0.543000  1.0  0.6722
  C  C34  1  0.580500  0.500400  0.499600  1.0  -0.0857
  C  C35  1  0.506000  0.561800  0.531900  1.0  0.3294
  C  C36  1  0.749400  0.184900  0.457000  1.0  0.6717
  O  O37  1  0.601800  0.338600  0.276100  1.0  -0.6711
  O  O38  1  0.001700  0.417300  0.182300  1.0  -0.6768
  O  O39  1  0.263200  0.385300  0.338600  1.0  -0.6708
  O  O40  1  0.377700  0.325900  0.179100  1.0  -0.6061
  O  O41  1  0.584400  0.400400  0.417300  1.0  -0.6747
  O  O42  1  0.601800  0.723900  0.661400  1.0  -0.6711
  O  O43  1  0.263200  0.661400  0.614700  1.0  -0.6708
  O  O44  1  0.877900  0.276100  0.385300  1.0  -0.6695
  O  O45  1  0.051800  0.495000  0.325900  1.0  -0.6032
  O  O46  1  0.001700  0.817700  0.582700  1.0  -0.6771
  O  O47  1  0.556800  0.179100  0.495000  1.0  -0.6017
  O  O48  1  0.877900  0.614700  0.723900  1.0  -0.6702
  O  O49  1  0.184000  0.599600  0.817700  1.0  -0.6737
  O  O50  1  0.051800  0.674100  0.505000  1.0  -0.6034
  O  O51  1  0.584400  0.582700  0.599600  1.0  -0.6768
  O  O52  1  0.184000  0.182300  0.400400  1.0  -0.6772
  O  O53  1  0.377700  0.820900  0.674100  1.0  -0.6018
  O  O54  1  0.556800  0.505000  0.820900  1.0  -0.6049
