# generated using pymatgen
data_CoHC4O3
_symmetry_space_group_name_H-M   'P 1'
_cell_length_a   6.78100000
_cell_length_b   15.09010000
_cell_length_c   15.09010000
_cell_angle_alpha   62.20270000
_cell_angle_beta   81.38530000
_cell_angle_gamma   98.61470000
_symmetry_Int_Tables_number   1
_chemical_formula_structural   CoHC4O3
_chemical_formula_sum   'Co6 H6 C24 O18'
_cell_volume   1307.23436087
_cell_formula_units_Z   6
loop_
 _symmetry_equiv_pos_site_id
 _symmetry_equiv_pos_as_xyz
  1  'x, y, z'
loop_
 _atom_site_type_symbol
 _atom_site_label
 _atom_site_symmetry_multiplicity
 _atom_site_fract_x
 _atom_site_fract_y
 _atom_site_fract_z
 _atom_site_occupancy
 _atom_site_charge
  Co  Co1  1  0.394400  0.282900  0.422700  1.0  1.0091
  Co  Co2  1  0.111500  0.294400  0.282900  1.0  1.0372
  Co  Co3  1  0.817100  0.705600  0.577300  1.0  1.0121
  Co  Co4  1  0.111500  0.717100  0.705600  1.0  1.0367
  Co  Co5  1  0.394400  0.577300  0.717100  1.0  1.0082
  Co  Co6  1  0.817100  0.422700  0.294400  1.0  1.0099
  H  H7  1  0.522950  0.423850  0.000000  1.0  0.0818
  H  H8  1  0.099100  0.576150  0.423850  1.0  0.0822
  H  H9  1  0.251800  0.516400  0.000000  1.0  0.0899
  H  H10  1  0.522950  0.000000  0.576150  1.0  0.0801
  H  H11  1  0.735400  0.483600  0.516400  1.0  0.0904
  H  H12  1  0.251800  0.000000  0.483600  1.0  0.0894
  C  C13  1  0.314800  0.493200  0.412900  1.0  -0.1615
  C  C14  1  0.085250  0.000000  0.503250  1.0  -0.137
  C  C15  1  0.038300  0.533600  0.904700  1.0  0.3752
  C  C16  1  0.821600  0.093900  0.493200  1.0  -0.171
  C  C17  1  0.689250  0.000000  0.557250  1.0  -0.0384
  C  C18  1  0.821600  0.506800  0.906100  1.0  -0.1706
  C  C19  1  0.246500  0.557250  0.442750  1.0  -0.0298
  C  C20  1  0.943000  0.438300  0.095300  1.0  0.3776
  C  C21  1  0.588500  0.503250  0.496750  1.0  -0.1337
  C  C22  1  0.943000  0.904700  0.561700  1.0  0.375
  C  C23  1  0.504700  0.466400  0.438300  1.0  0.3753
  C  C24  1  0.689250  0.442750  0.000000  1.0  -0.0365
  C  C25  1  0.744900  0.541000  0.814300  1.0  0.7065
  C  C26  1  0.727700  0.906100  0.587100  1.0  -0.1602
  C  C27  1  0.744900  0.185700  0.459000  1.0  0.703
  C  C28  1  0.203900  0.459000  0.355300  1.0  0.706
  C  C29  1  0.559200  0.814300  0.644700  1.0  0.7026
  C  C30  1  0.727700  0.412900  0.093900  1.0  -0.1598
  C  C31  1  0.203900  0.644700  0.541000  1.0  0.7045
  C  C32  1  0.038300  0.095300  0.466400  1.0  0.3753
  C  C33  1  0.504700  0.561700  0.533600  1.0  0.3774
  C  C34  1  0.085250  0.496750  0.000000  1.0  -0.1373
  C  C35  1  0.559200  0.355300  0.185700  1.0  0.7053
  C  C36  1  0.314800  0.587100  0.506800  1.0  -0.1615
  O  O37  1  0.582400  0.404500  0.414500  1.0  -0.6719
  O  O38  1  0.872000  0.611400  0.726300  1.0  -0.6423
  O  O39  1  0.061300  0.501300  0.326500  1.0  -0.6259
  O  O40  1  0.996900  0.414500  0.181000  1.0  -0.6716
  O  O41  1  0.387800  0.326500  0.172200  1.0  -0.6229
  O  O42  1  0.177900  0.181000  0.404500  1.0  -0.6714
  O  O43  1  0.260600  0.662300  0.611400  1.0  -0.6422
  O  O44  1  0.582400  0.585500  0.595500  1.0  -0.6714
  O  O45  1  0.387800  0.827800  0.673500  1.0  -0.6221
  O  O46  1  0.177900  0.595500  0.819000  1.0  -0.6713
  O  O47  1  0.560000  0.172200  0.501300  1.0  -0.6165
  O  O48  1  0.598300  0.337700  0.273700  1.0  -0.6423
  O  O49  1  0.260600  0.388600  0.337700  1.0  -0.6437
  O  O50  1  0.560000  0.498700  0.827800  1.0  -0.6205
  O  O51  1  0.996900  0.819000  0.585500  1.0  -0.672
  O  O52  1  0.598300  0.726300  0.662300  1.0  -0.6418
  O  O53  1  0.061300  0.673500  0.498700  1.0  -0.6237
  O  O54  1  0.872000  0.273700  0.388600  1.0  -0.6398
