# generated using pymatgen
data_CoHC4O3
_symmetry_space_group_name_H-M   'P 1'
_cell_length_a   6.80300000
_cell_length_b   15.11440000
_cell_length_c   15.11440000
_cell_angle_alpha   62.20980000
_cell_angle_beta   81.37120000
_cell_angle_gamma   98.62880000
_symmetry_Int_Tables_number   1
_chemical_formula_structural   CoHC4O3
_chemical_formula_sum   'Co6 H6 C24 O18'
_cell_volume   1315.60470354
_cell_formula_units_Z   6
loop_
 _symmetry_equiv_pos_site_id
 _symmetry_equiv_pos_as_xyz
  1  'x, y, z'
loop_
 _atom_site_type_symbol
 _atom_site_label
 _atom_site_symmetry_multiplicity
 _atom_site_fract_x
 _atom_site_fract_y
 _atom_site_fract_z
 _atom_site_occupancy
 _atom_site_charge
  Co  Co1  1  0.101100  0.716900  0.700600  1.0  1.0061
  Co  Co2  1  0.801700  0.700600  0.582500  1.0  1.0075
  Co  Co3  1  0.101100  0.299400  0.283100  1.0  1.0066
  Co  Co4  1  0.384200  0.582500  0.716900  1.0  1.004
  Co  Co5  1  0.801700  0.417500  0.299400  1.0  1.0012
  Co  Co6  1  0.384200  0.283100  0.417500  1.0  1.0055
  H  H7  1  0.538500  0.000000  0.568500  1.0  0.1268
  H  H8  1  0.107000  0.568500  0.431500  1.0  0.1347
  H  H9  1  0.239750  0.000000  0.483750  1.0  0.1239
  H  H10  1  0.538500  0.431500  0.000000  1.0  0.1336
  H  H11  1  0.723500  0.483750  0.516250  1.0  0.1245
  H  H12  1  0.239750  0.516250  0.000000  1.0  0.1243
  C  C13  1  0.728100  0.414800  0.094600  1.0  -0.1561
  C  C14  1  0.945700  0.905700  0.562100  1.0  0.3161
  C  C15  1  0.040000  0.094300  0.467800  1.0  0.3208
  C  C16  1  0.822700  0.509400  0.905400  1.0  -0.1636
  C  C17  1  0.203200  0.455800  0.358100  1.0  0.724
  C  C18  1  0.040000  0.532200  0.905700  1.0  0.3251
  C  C19  1  0.561300  0.813900  0.641900  1.0  0.7203
  C  C20  1  0.747400  0.544200  0.813900  1.0  0.7248
  C  C21  1  0.945700  0.437900  0.094300  1.0  0.3215
  C  C22  1  0.728100  0.905400  0.585200  1.0  -0.1569
  C  C23  1  0.671550  0.443050  0.000000  1.0  -0.0262
  C  C24  1  0.087800  0.000000  0.499200  1.0  -0.1072
  C  C25  1  0.561300  0.358100  0.186100  1.0  0.7231
  C  C26  1  0.313300  0.490600  0.414800  1.0  -0.1575
  C  C27  1  0.747400  0.186100  0.455800  1.0  0.721
  C  C28  1  0.507800  0.467800  0.437900  1.0  0.3261
  C  C29  1  0.313300  0.585200  0.509400  1.0  -0.1573
  C  C30  1  0.228500  0.556950  0.443050  1.0  -0.0299
  C  C31  1  0.587000  0.499200  0.500800  1.0  -0.1077
  C  C32  1  0.507800  0.562100  0.532200  1.0  0.3215
  C  C33  1  0.087800  0.500800  0.000000  1.0  -0.1082
  C  C34  1  0.671550  0.000000  0.556950  1.0  -0.032
  C  C35  1  0.822700  0.094600  0.490600  1.0  -0.1642
  C  C36  1  0.203200  0.641900  0.544200  1.0  0.7226
  O  O37  1  0.559700  0.179500  0.492400  1.0  -0.6187
  O  O38  1  0.052100  0.671900  0.507600  1.0  -0.617
  O  O39  1  0.255700  0.384500  0.340500  1.0  -0.6897
  O  O40  1  0.997900  0.817400  0.581500  1.0  -0.6444
  O  O41  1  0.559700  0.507600  0.820500  1.0  -0.6154
  O  O42  1  0.180500  0.601100  0.817400  1.0  -0.644
  O  O43  1  0.052100  0.492400  0.328100  1.0  -0.6186
  O  O44  1  0.596200  0.340500  0.275000  1.0  -0.69
  O  O45  1  0.380200  0.328100  0.179500  1.0  -0.6161
  O  O46  1  0.579400  0.581500  0.601100  1.0  -0.6442
  O  O47  1  0.871200  0.615500  0.725000  1.0  -0.6886
  O  O48  1  0.871200  0.275000  0.384500  1.0  -0.6878
  O  O49  1  0.579400  0.398900  0.418500  1.0  -0.6444
  O  O50  1  0.997900  0.418500  0.182600  1.0  -0.6445
  O  O51  1  0.255700  0.659500  0.615500  1.0  -0.6897
  O  O52  1  0.596200  0.725000  0.659500  1.0  -0.6894
  O  O53  1  0.380200  0.820500  0.671900  1.0  -0.6123
  O  O54  1  0.180500  0.182600  0.398900  1.0  -0.6442
