# generated using pymatgen
data_CoHC4O3
_symmetry_space_group_name_H-M   'P 1'
_cell_length_a   6.81050000
_cell_length_b   15.12520000
_cell_length_c   15.12520000
_cell_angle_alpha   62.21150000
_cell_angle_beta   81.36780000
_cell_angle_gamma   98.63220000
_symmetry_Int_Tables_number   1
_chemical_formula_structural   CoHC4O3
_chemical_formula_sum   'Co6 H6 C24 O18'
_cell_volume   1318.91406946
_cell_formula_units_Z   6
loop_
 _symmetry_equiv_pos_site_id
 _symmetry_equiv_pos_as_xyz
  1  'x, y, z'
loop_
 _atom_site_type_symbol
 _atom_site_label
 _atom_site_symmetry_multiplicity
 _atom_site_fract_x
 _atom_site_fract_y
 _atom_site_fract_z
 _atom_site_occupancy
 _atom_site_charge
  Co  Co1  1  0.106900  0.716300  0.700600  1.0  1.0135
  Co  Co2  1  0.390600  0.283700  0.416900  1.0  1.0126
  Co  Co3  1  0.390600  0.583100  0.716300  1.0  1.0102
  Co  Co4  1  0.807500  0.700600  0.583100  1.0  1.0153
  Co  Co5  1  0.807500  0.416900  0.299400  1.0  1.0076
  Co  Co6  1  0.106900  0.299400  0.283700  1.0  1.0149
  H  H7  1  0.244050  0.000000  0.485850  1.0  0.1142
  H  H8  1  0.729900  0.485850  0.514150  1.0  0.1151
  H  H9  1  0.244050  0.514150  0.000000  1.0  0.1137
  H  H10  1  0.112600  0.569400  0.430600  1.0  0.1318
  H  H11  1  0.543200  0.430600  0.000000  1.0  0.1296
  H  H12  1  0.543200  0.000000  0.569400  1.0  0.1269
  C  C13  1  0.677850  0.444250  0.000000  1.0  0.035
  C  C14  1  0.949700  0.906200  0.560200  1.0  0.3109
  C  C15  1  0.316100  0.583300  0.510800  1.0  -0.1644
  C  C16  1  0.509900  0.560200  0.533600  1.0  0.3116
  C  C17  1  0.233600  0.555750  0.444250  1.0  0.0395
  C  C18  1  0.826900  0.510800  0.905900  1.0  -0.1745
  C  C19  1  0.949700  0.439800  0.093800  1.0  0.3117
  C  C20  1  0.203400  0.453500  0.360600  1.0  0.7333
  C  C21  1  0.677850  0.000000  0.555750  1.0  0.0313
  C  C22  1  0.043500  0.093800  0.466400  1.0  0.3112
  C  C23  1  0.749900  0.546500  0.814100  1.0  0.7351
  C  C24  1  0.732800  0.416700  0.094100  1.0  -0.1638
  C  C25  1  0.732800  0.905900  0.583300  1.0  -0.1644
  C  C26  1  0.593600  0.498600  0.501400  1.0  -0.1236
  C  C27  1  0.564000  0.814100  0.639400  1.0  0.7299
  C  C28  1  0.095000  0.000000  0.498600  1.0  -0.1198
  C  C29  1  0.749900  0.185900  0.453500  1.0  0.7303
  C  C30  1  0.564000  0.360600  0.185900  1.0  0.7325
  C  C31  1  0.043500  0.533600  0.906200  1.0  0.3145
  C  C32  1  0.095000  0.501400  0.000000  1.0  -0.1236
  C  C33  1  0.509900  0.466400  0.439800  1.0  0.3144
  C  C34  1  0.316100  0.489200  0.416700  1.0  -0.1649
  C  C35  1  0.826900  0.094100  0.489200  1.0  -0.1748
  C  C36  1  0.203400  0.639400  0.546500  1.0  0.7338
  O  O37  1  0.256400  0.382400  0.343800  1.0  -0.7052
  O  O38  1  0.564400  0.180600  0.490200  1.0  -0.6192
  O  O39  1  0.181900  0.603400  0.817300  1.0  -0.6431
  O  O40  1  0.578500  0.396600  0.420700  1.0  -0.644
  O  O41  1  0.383800  0.819400  0.670800  1.0  -0.6142
  O  O42  1  0.874000  0.617600  0.726200  1.0  -0.7042
  O  O43  1  0.600200  0.343800  0.273800  1.0  -0.7044
  O  O44  1  0.054600  0.490200  0.329200  1.0  -0.6199
  O  O45  1  0.383800  0.329200  0.180600  1.0  -0.6183
  O  O46  1  0.600200  0.726200  0.656200  1.0  -0.7048
  O  O47  1  0.256400  0.656200  0.617600  1.0  -0.7045
  O  O48  1  0.874000  0.273800  0.382400  1.0  -0.7035
  O  O49  1  0.999200  0.817300  0.579300  1.0  -0.6442
  O  O50  1  0.054600  0.670800  0.509800  1.0  -0.6237
  O  O51  1  0.181900  0.182700  0.396600  1.0  -0.6442
  O  O52  1  0.578500  0.579300  0.603400  1.0  -0.6441
  O  O53  1  0.564400  0.509800  0.819400  1.0  -0.6206
  O  O54  1  0.999200  0.420700  0.182700  1.0  -0.6443
