# generated using pymatgen
data_CoHC4O3
_symmetry_space_group_name_H-M   'P 1'
_cell_length_a   6.79040000
_cell_length_b   15.11810000
_cell_length_c   15.11810000
_cell_angle_alpha   62.20070000
_cell_angle_beta   81.38930000
_cell_angle_gamma   98.61070000
_symmetry_Int_Tables_number   1
_chemical_formula_structural   CoHC4O3
_chemical_formula_sum   'Co6 H6 C24 O18'
_cell_volume   1313.93682323
_cell_formula_units_Z   6
loop_
 _symmetry_equiv_pos_site_id
 _symmetry_equiv_pos_as_xyz
  1  'x, y, z'
loop_
 _atom_site_type_symbol
 _atom_site_label
 _atom_site_symmetry_multiplicity
 _atom_site_fract_x
 _atom_site_fract_y
 _atom_site_fract_z
 _atom_site_occupancy
 _atom_site_charge
  Co  Co1  1  0.115370  0.719830  0.702720  1.0  0.9718
  Co  Co2  1  0.115370  0.297280  0.280170  1.0  0.9734
  Co  Co3  1  0.395540  0.577450  0.719830  1.0  0.969
  Co  Co4  1  0.395540  0.280170  0.422550  1.0  0.9722
  Co  Co5  1  0.818090  0.422550  0.297280  1.0  0.9723
  Co  Co6  1  0.818090  0.702720  0.577450  1.0  0.976
  H  H7  1  0.729000  0.463500  0.536500  1.0  0.0835
  H  H8  1  0.523000  0.000000  0.561000  1.0  0.0895
  H  H9  1  0.523000  0.439000  0.000000  1.0  0.0832
  H  H10  1  0.084000  0.561000  0.439000  1.0  0.0779
  H  H11  1  0.265500  0.000000  0.463500  1.0  0.0801
  H  H12  1  0.265500  0.536500  0.000000  1.0  0.0806
  C  C13  1  0.830300  0.505400  0.906500  1.0  -0.199
  C  C14  1  0.736800  0.411900  0.093500  1.0  -0.192
  C  C15  1  0.830300  0.093500  0.494600  1.0  -0.1973
  C  C16  1  0.686300  0.439900  0.000000  1.0  -0.1052
  C  C17  1  0.745300  0.539800  0.814900  1.0  0.6909
  C  C18  1  0.095600  0.000000  0.496200  1.0  0.063
  C  C19  1  0.686300  0.000000  0.560100  1.0  -0.0976
  C  C20  1  0.560200  0.814900  0.645300  1.0  0.6843
  C  C21  1  0.205500  0.645300  0.539800  1.0  0.6844
  C  C22  1  0.205500  0.460200  0.354700  1.0  0.6906
  C  C23  1  0.505300  0.465600  0.438700  1.0  0.393
  C  C24  1  0.944000  0.438700  0.095700  1.0  0.3917
  C  C25  1  0.095600  0.503800  0.000000  1.0  0.0645
  C  C26  1  0.736800  0.906500  0.588100  1.0  -0.1896
  C  C27  1  0.745300  0.185100  0.460200  1.0  0.6843
  C  C28  1  0.944000  0.904300  0.561300  1.0  0.3929
  C  C29  1  0.246400  0.560100  0.439900  1.0  -0.0981
  C  C30  1  0.039700  0.534400  0.904300  1.0  0.3932
  C  C31  1  0.560200  0.354700  0.185100  1.0  0.6853
  C  C32  1  0.039700  0.095700  0.465600  1.0  0.3929
  C  C33  1  0.505300  0.561300  0.534400  1.0  0.3915
  C  C34  1  0.324900  0.494600  0.411900  1.0  -0.1869
  C  C35  1  0.591800  0.496200  0.503800  1.0  0.0569
  C  C36  1  0.324900  0.588100  0.505400  1.0  -0.1873
  O  O37  1  0.863400  0.613000  0.728800  1.0  -0.6296
  O  O38  1  0.997100  0.817800  0.585500  1.0  -0.6742
  O  O39  1  0.250400  0.387000  0.341800  1.0  -0.6312
  O  O40  1  0.582600  0.585500  0.596700  1.0  -0.6745
  O  O41  1  0.050700  0.671300  0.502200  1.0  -0.6168
  O  O42  1  0.582600  0.403300  0.414500  1.0  -0.6718
  O  O43  1  0.250400  0.658200  0.613000  1.0  -0.6311
  O  O44  1  0.050700  0.497800  0.328700  1.0  -0.6165
  O  O45  1  0.379400  0.826500  0.671300  1.0  -0.6166
  O  O46  1  0.552900  0.502200  0.826500  1.0  -0.6206
  O  O47  1  0.179300  0.596700  0.817800  1.0  -0.6715
  O  O48  1  0.592200  0.728800  0.658200  1.0  -0.6306
  O  O49  1  0.552900  0.173500  0.497800  1.0  -0.6201
  O  O50  1  0.863400  0.271200  0.387000  1.0  -0.629
  O  O51  1  0.379400  0.328700  0.173500  1.0  -0.6222
  O  O52  1  0.997100  0.414500  0.182200  1.0  -0.6748
  O  O53  1  0.179300  0.182200  0.403300  1.0  -0.6736
  O  O54  1  0.592200  0.341800  0.271200  1.0  -0.6313
