# generated using pymatgen
data_CoHC4O3
_symmetry_space_group_name_H-M   'P 1'
_cell_length_a   6.86870000
_cell_length_b   15.11090000
_cell_length_c   15.11090000
_cell_angle_alpha   62.25330000
_cell_angle_beta   81.28510000
_cell_angle_gamma   98.71490000
_symmetry_Int_Tables_number   1
_chemical_formula_structural   CoHC4O3
_chemical_formula_sum   'Co6 H6 C24 O18'
_cell_volume   1327.08643462
_cell_formula_units_Z   6
loop_
 _symmetry_equiv_pos_site_id
 _symmetry_equiv_pos_as_xyz
  1  'x, y, z'
loop_
 _atom_site_type_symbol
 _atom_site_label
 _atom_site_symmetry_multiplicity
 _atom_site_fract_x
 _atom_site_fract_y
 _atom_site_fract_z
 _atom_site_occupancy
 _atom_site_charge
  Co  Co1  1  0.779300  0.259400  0.324100  1.0  0.9788
  Co  Co2  1  0.519900  0.416500  0.259400  1.0  0.9812
  Co  Co3  1  0.103400  0.324100  0.416500  1.0  0.9808
  Co  Co4  1  0.896600  0.675900  0.583500  1.0  0.9794
  Co  Co5  1  0.480100  0.583500  0.740600  1.0  0.9776
  Co  Co6  1  0.220700  0.740600  0.675900  1.0  0.9805
  H  H7  1  0.799200  0.472300  0.552600  1.0  0.1652
  H  H8  1  0.673100  0.024900  0.527700  1.0  0.17
  H  H9  1  0.648200  0.447400  0.024900  1.0  0.1656
  H  H10  1  0.326900  0.975100  0.472300  1.0  0.1641
  H  H11  1  0.351800  0.552600  0.975100  1.0  0.1646
  H  H12  1  0.200800  0.527700  0.447400  1.0  0.1663
  C  C13  1  0.611100  0.451400  0.461400  1.0  -0.2186
  C  C14  1  0.438600  0.470400  0.423100  1.0  0.2896
  C  C15  1  0.159700  0.087200  0.451400  1.0  -0.2197
  C  C16  1  0.781400  0.463600  0.015300  1.0  0.0427
  C  C17  1  0.388900  0.548600  0.538600  1.0  -0.2185
  C  C18  1  0.182000  0.439000  0.177900  1.0  0.7243
  C  C19  1  0.203300  0.984700  0.478900  1.0  0.0386
  C  C20  1  0.317800  0.521100  0.463600  1.0  0.0389
  C  C21  1  0.257000  0.616900  0.561000  1.0  0.7257
  C  C22  1  0.968200  0.106500  0.470400  1.0  0.2894
  C  C23  1  0.640100  0.822100  0.616900  1.0  0.7257
  C  C24  1  0.138300  0.576900  0.893500  1.0  0.2903
  C  C25  1  0.561400  0.529600  0.576900  1.0  0.2894
  C  C26  1  0.927500  0.538600  0.912800  1.0  -0.2181
  C  C27  1  0.031800  0.893500  0.529600  1.0  0.2875
  C  C28  1  0.861700  0.423100  0.106500  1.0  0.2909
  C  C29  1  0.359900  0.177900  0.383100  1.0  0.7241
  C  C30  1  0.218600  0.536400  0.984700  1.0  0.0416
  C  C31  1  0.743000  0.383100  0.439000  1.0  0.7249
  C  C32  1  0.796700  0.015300  0.521100  1.0  0.0387
  C  C33  1  0.072500  0.461400  0.087200  1.0  -0.2189
  C  C34  1  0.840300  0.912800  0.548600  1.0  -0.2183
  C  C35  1  0.682200  0.478900  0.536400  1.0  0.0425
  C  C36  1  0.818000  0.561000  0.822100  1.0  0.7251
  O  O37  1  0.904500  0.378800  0.466800  1.0  -0.6279
  O  O38  1  0.081800  0.809300  0.558800  1.0  -0.6802
  O  O39  1  0.343300  0.266300  0.351200  1.0  -0.6712
  O  O40  1  0.095500  0.621200  0.533200  1.0  -0.6278
  O  O41  1  0.305500  0.648800  0.617500  1.0  -0.6731
  O  O42  1  0.727500  0.368100  0.190700  1.0  -0.6815
  O  O43  1  0.656700  0.733700  0.648800  1.0  -0.673
  O  O44  1  0.628700  0.533200  0.845600  1.0  -0.6291
  O  O45  1  0.918200  0.190700  0.441200  1.0  -0.6811
  O  O46  1  0.474300  0.845600  0.621200  1.0  -0.6288
  O  O47  1  0.272500  0.631900  0.809300  1.0  -0.6831
  O  O48  1  0.077000  0.382500  0.266300  1.0  -0.6723
  O  O49  1  0.359400  0.441200  0.368100  1.0  -0.681
  O  O50  1  0.371300  0.466800  0.154400  1.0  -0.6281
  O  O51  1  0.640600  0.558800  0.631900  1.0  -0.6803
  O  O52  1  0.525700  0.154400  0.378800  1.0  -0.6283
  O  O53  1  0.923000  0.617500  0.733700  1.0  -0.6718
  O  O54  1  0.694500  0.351200  0.382500  1.0  -0.6733
