# generated using pymatgen
data_CoHC4O3
_symmetry_space_group_name_H-M   'P 1'
_cell_length_a   6.76770000
_cell_length_b   15.10740000
_cell_length_c   15.10740000
_cell_angle_alpha   62.18920000
_cell_angle_beta   81.41220000
_cell_angle_gamma   98.58780000
_symmetry_Int_Tables_number   1
_chemical_formula_structural   CoHC4O3
_chemical_formula_sum   'Co6 H6 C24 O18'
_cell_volume   1307.84920296
_cell_formula_units_Z   6
loop_
 _symmetry_equiv_pos_site_id
 _symmetry_equiv_pos_as_xyz
  1  'x, y, z'
loop_
 _atom_site_type_symbol
 _atom_site_label
 _atom_site_symmetry_multiplicity
 _atom_site_fract_x
 _atom_site_fract_y
 _atom_site_fract_z
 _atom_site_occupancy
 _atom_site_charge
  Co  Co1  1  0.115800  0.296200  0.280800  1.0  0.9755
  Co  Co2  1  0.115800  0.719200  0.703800  1.0  0.9744
  Co  Co3  1  0.396600  0.577000  0.719200  1.0  0.9691
  Co  Co4  1  0.819600  0.423000  0.296200  1.0  0.9971
  Co  Co5  1  0.819600  0.703800  0.577000  1.0  1.0012
  Co  Co6  1  0.396600  0.280800  0.423000  1.0  0.9739
  H  H7  1  0.251800  0.000000  0.480600  1.0  0.1058
  H  H8  1  0.732400  0.480600  0.519400  1.0  0.1053
  H  H9  1  0.526650  0.000000  0.574050  1.0  0.091
  H  H10  1  0.251800  0.519400  0.000000  1.0  0.1065
  H  H11  1  0.526650  0.425950  0.000000  1.0  0.0952
  H  H12  1  0.100700  0.574050  0.425950  1.0  0.0955
  C  C13  1  0.745600  0.541000  0.814600  1.0  0.7229
  C  C14  1  0.204600  0.644400  0.541000  1.0  0.717
  C  C15  1  0.733000  0.906900  0.587900  1.0  -0.1496
  C  C16  1  0.560200  0.814600  0.644400  1.0  0.7152
  C  C17  1  0.320900  0.587900  0.505200  1.0  -0.1453
  C  C18  1  0.088650  0.497950  0.000000  1.0  -0.079
  C  C19  1  0.826100  0.505200  0.906900  1.0  -0.1564
  C  C20  1  0.826100  0.093100  0.494800  1.0  -0.1552
  C  C21  1  0.246900  0.557850  0.442150  1.0  -0.0649
  C  C22  1  0.942400  0.901100  0.562900  1.0  0.3401
  C  C23  1  0.560200  0.355600  0.185400  1.0  0.7174
  C  C24  1  0.689050  0.442150  0.000000  1.0  -0.0864
  C  C25  1  0.041300  0.098900  0.464000  1.0  0.3395
  C  C26  1  0.745600  0.185400  0.459000  1.0  0.7159
  C  C27  1  0.942400  0.437100  0.098900  1.0  0.3397
  C  C28  1  0.505300  0.464000  0.437100  1.0  0.3403
  C  C29  1  0.204600  0.459000  0.355600  1.0  0.7232
  C  C30  1  0.590700  0.502050  0.497950  1.0  -0.0807
  C  C31  1  0.041300  0.536000  0.901100  1.0  0.3404
  C  C32  1  0.088650  0.000000  0.502050  1.0  -0.0772
  C  C33  1  0.505300  0.562900  0.536000  1.0  0.3402
  C  C34  1  0.733000  0.412100  0.093100  1.0  -0.1502
  C  C35  1  0.689050  0.000000  0.557850  1.0  -0.0954
  C  C36  1  0.320900  0.494800  0.412100  1.0  -0.1453
  O  O37  1  0.593800  0.728300  0.658600  1.0  -0.6438
  O  O38  1  0.178300  0.182700  0.403800  1.0  -0.644
  O  O39  1  0.865500  0.271700  0.386900  1.0  -0.6427
  O  O40  1  0.995600  0.817300  0.586500  1.0  -0.644
  O  O41  1  0.995600  0.413500  0.182700  1.0  -0.6438
  O  O42  1  0.252400  0.386900  0.341400  1.0  -0.6441
  O  O43  1  0.056200  0.671600  0.501000  1.0  -0.6231
  O  O44  1  0.252400  0.658600  0.613100  1.0  -0.6448
  O  O45  1  0.557200  0.172600  0.499000  1.0  -0.6203
  O  O46  1  0.582100  0.403800  0.413500  1.0  -0.6436
  O  O47  1  0.865500  0.613100  0.728300  1.0  -0.6435
  O  O48  1  0.557200  0.501000  0.827400  1.0  -0.6236
  O  O49  1  0.582100  0.586500  0.596200  1.0  -0.6434
  O  O50  1  0.384600  0.328400  0.172600  1.0  -0.6234
  O  O51  1  0.056200  0.499000  0.328400  1.0  -0.6207
  O  O52  1  0.384600  0.827400  0.671600  1.0  -0.6197
  O  O53  1  0.178300  0.596200  0.817300  1.0  -0.6434
  O  O54  1  0.593800  0.341400  0.271700  1.0  -0.6447
