# generated using pymatgen
data_CoHC4O3
_symmetry_space_group_name_H-M   'P 1'
_cell_length_a   6.81160000
_cell_length_b   15.12040000
_cell_length_c   15.12040000
_cell_angle_alpha   62.21360000
_cell_angle_beta   81.36360000
_cell_angle_gamma   98.63640000
_symmetry_Int_Tables_number   1
_chemical_formula_structural   CoHC4O3
_chemical_formula_sum   'Co6 H6 C24 O18'
_cell_volume   1318.26043297
_cell_formula_units_Z   6
loop_
 _symmetry_equiv_pos_site_id
 _symmetry_equiv_pos_as_xyz
  1  'x, y, z'
loop_
 _atom_site_type_symbol
 _atom_site_label
 _atom_site_symmetry_multiplicity
 _atom_site_fract_x
 _atom_site_fract_y
 _atom_site_fract_z
 _atom_site_occupancy
 _atom_site_charge
  Co  Co1  1  0.806800  0.698000  0.585600  1.0  1.0302
  Co  Co2  1  0.108800  0.302000  0.283600  1.0  1.0303
  Co  Co3  1  0.392400  0.585600  0.716400  1.0  1.0269
  Co  Co4  1  0.806800  0.414400  0.302000  1.0  1.0281
  Co  Co5  1  0.108800  0.716400  0.698000  1.0  1.0301
  Co  Co6  1  0.392400  0.283600  0.414400  1.0  1.0295
  H  H7  1  0.256050  0.517150  0.000000  1.0  0.0963
  H  H8  1  0.256050  0.000000  0.482850  1.0  0.0963
  H  H9  1  0.536550  0.000000  0.577350  1.0  0.1008
  H  H10  1  0.536550  0.422650  0.000000  1.0  0.1018
  H  H11  1  0.738900  0.482850  0.517150  1.0  0.0928
  H  H12  1  0.113900  0.577350  0.422650  1.0  0.1022
  C  C13  1  0.748500  0.548200  0.813100  1.0  0.7063
  C  C14  1  0.683500  0.000000  0.556500  1.0  -0.0331
  C  C15  1  0.309100  0.581200  0.513200  1.0  -0.1845
  C  C16  1  0.946100  0.906100  0.558000  1.0  0.3543
  C  C17  1  0.580900  0.499350  0.500650  1.0  0.0371
  C  C18  1  0.748500  0.186900  0.451800  1.0  0.7039
  C  C19  1  0.727900  0.905600  0.581200  1.0  -0.1818
  C  C20  1  0.240000  0.556500  0.443500  1.0  -0.027
  C  C21  1  0.561600  0.813100  0.638700  1.0  0.7033
  C  C22  1  0.727900  0.418800  0.094400  1.0  -0.181
  C  C23  1  0.561600  0.361300  0.186900  1.0  0.7067
  C  C24  1  0.683500  0.443500  0.000000  1.0  -0.0261
  C  C25  1  0.040000  0.535900  0.906100  1.0  0.3561
  C  C26  1  0.040000  0.093900  0.464100  1.0  0.3549
  C  C27  1  0.200300  0.638700  0.548200  1.0  0.7064
  C  C28  1  0.081550  0.500650  0.000000  1.0  0.0404
  C  C29  1  0.504100  0.464100  0.442000  1.0  0.356
  C  C30  1  0.309100  0.486800  0.418800  1.0  -0.1838
  C  C31  1  0.200300  0.451800  0.361300  1.0  0.706
  C  C32  1  0.946100  0.442000  0.093900  1.0  0.3553
  C  C33  1  0.081550  0.000000  0.499350  1.0  0.0399
  C  C34  1  0.822300  0.094400  0.486800  1.0  -0.184
  C  C35  1  0.822300  0.513200  0.905600  1.0  -0.1845
  C  C36  1  0.504100  0.558000  0.535900  1.0  0.3558
  O  O37  1  0.563800  0.511000  0.820900  1.0  -0.6226
  O  O38  1  0.254400  0.383200  0.343100  1.0  -0.7583
  O  O39  1  0.176100  0.180500  0.398000  1.0  -0.6284
  O  O40  1  0.574100  0.398000  0.421500  1.0  -0.6281
  O  O41  1  0.871200  0.616800  0.726300  1.0  -0.7572
  O  O42  1  0.052800  0.489000  0.331900  1.0  -0.628
  O  O43  1  0.995600  0.819500  0.578500  1.0  -0.6289
  O  O44  1  0.384700  0.820900  0.668100  1.0  -0.6233
  O  O45  1  0.254400  0.656900  0.616800  1.0  -0.7585
  O  O46  1  0.052800  0.668100  0.511000  1.0  -0.6235
  O  O47  1  0.597500  0.343100  0.273700  1.0  -0.7588
  O  O48  1  0.574100  0.578500  0.602000  1.0  -0.6278
  O  O49  1  0.176100  0.602000  0.819500  1.0  -0.627
  O  O50  1  0.384700  0.331900  0.179100  1.0  -0.6251
  O  O51  1  0.597500  0.726300  0.656900  1.0  -0.7582
  O  O52  1  0.563800  0.179100  0.489000  1.0  -0.6228
  O  O53  1  0.995600  0.421500  0.180500  1.0  -0.6284
  O  O54  1  0.871200  0.273700  0.383200  1.0  -0.7572
