# generated using pymatgen
data_NiHC4O3
_symmetry_space_group_name_H-M   'P 1'
_cell_length_a   6.75450000
_cell_length_b   15.05110000
_cell_length_c   15.05110000
_cell_angle_alpha   62.19690000
_cell_angle_beta   81.39690000
_cell_angle_gamma   98.60310000
_symmetry_Int_Tables_number   1
_chemical_formula_structural   NiHC4O3
_chemical_formula_sum   'Ni6 H6 C24 O18'
_cell_volume   1295.48351069
_cell_formula_units_Z   6
loop_
 _symmetry_equiv_pos_site_id
 _symmetry_equiv_pos_as_xyz
  1  'x, y, z'
loop_
 _atom_site_type_symbol
 _atom_site_label
 _atom_site_symmetry_multiplicity
 _atom_site_fract_x
 _atom_site_fract_y
 _atom_site_fract_z
 _atom_site_occupancy
 _atom_site_charge
  Ni  Ni1  1  0.812800  0.695100  0.586000  1.0  0.8903
  Ni  Ni2  1  0.398800  0.281100  0.414000  1.0  0.8838
  Ni  Ni3  1  0.117700  0.718900  0.695100  1.0  0.8863
  Ni  Ni4  1  0.117700  0.304900  0.281100  1.0  0.8898
  Ni  Ni5  1  0.812800  0.414000  0.304900  1.0  0.8847
  Ni  Ni6  1  0.398800  0.586000  0.718900  1.0  0.8818
  H  H7  1  0.117000  0.565500  0.434500  1.0  0.2282
  H  H8  1  0.741000  0.490500  0.509500  1.0  0.1256
  H  H9  1  0.250500  0.000000  0.490500  1.0  0.1262
  H  H10  1  0.551500  0.434500  0.000000  1.0  0.2326
  H  H11  1  0.551500  0.000000  0.565500  1.0  0.2321
  H  H12  1  0.250500  0.509500  0.000000  1.0  0.1245
  C  C13  1  0.675450  0.000000  0.559650  1.0  0.0634
  C  C14  1  0.818300  0.090700  0.482800  1.0  -0.1553
  C  C15  1  0.675450  0.440350  0.000000  1.0  0.0704
  C  C16  1  0.095850  0.507550  0.000000  1.0  -0.073
  C  C17  1  0.747400  0.541400  0.813200  1.0  0.5742
  C  C18  1  0.044700  0.536300  0.906200  1.0  0.3797
  C  C19  1  0.206000  0.645400  0.541400  1.0  0.5706
  C  C20  1  0.950900  0.442500  0.093800  1.0  0.368
  C  C21  1  0.588300  0.492450  0.507550  1.0  -0.07
  C  C22  1  0.560600  0.813200  0.645400  1.0  0.5729
  C  C23  1  0.044700  0.093800  0.463700  1.0  0.378
  C  C24  1  0.727600  0.909300  0.573500  1.0  -0.165
  C  C25  1  0.747400  0.186800  0.458600  1.0  0.5723
  C  C26  1  0.818300  0.517200  0.909300  1.0  -0.156
  C  C27  1  0.950900  0.906200  0.557500  1.0  0.3689
  C  C28  1  0.095850  0.000000  0.492450  1.0  -0.0664
  C  C29  1  0.301100  0.573500  0.517200  1.0  -0.1633
  C  C30  1  0.727600  0.426500  0.090700  1.0  -0.1637
  C  C31  1  0.560600  0.354600  0.186800  1.0  0.5711
  C  C32  1  0.235100  0.559650  0.440350  1.0  0.0504
  C  C33  1  0.206000  0.458600  0.354600  1.0  0.5748
  C  C34  1  0.508400  0.463700  0.442500  1.0  0.3809
  C  C35  1  0.508400  0.557500  0.536300  1.0  0.3786
  C  C36  1  0.301100  0.482800  0.426500  1.0  -0.1634
  O  O37  1  0.034200  0.664400  0.508800  1.0  -0.5534
  O  O38  1  0.594600  0.347200  0.272400  1.0  -0.6655
  O  O39  1  0.164000  0.181900  0.397900  1.0  -0.6234
  O  O40  1  0.543000  0.173200  0.491200  1.0  -0.5615
  O  O41  1  0.594600  0.727600  0.652800  1.0  -0.6669
  O  O42  1  0.561900  0.397900  0.420200  1.0  -0.6231
  O  O43  1  0.867000  0.619600  0.727600  1.0  -0.6658
  O  O44  1  0.369800  0.335600  0.173200  1.0  -0.5582
  O  O45  1  0.247400  0.652800  0.619600  1.0  -0.6652
  O  O46  1  0.543000  0.508800  0.826800  1.0  -0.5635
  O  O47  1  0.867000  0.272400  0.380400  1.0  -0.6656
  O  O48  1  0.982100  0.818100  0.579800  1.0  -0.6231
  O  O49  1  0.369800  0.826800  0.664400  1.0  -0.5588
  O  O50  1  0.247400  0.380400  0.347200  1.0  -0.6669
  O  O51  1  0.561900  0.579800  0.602100  1.0  -0.6222
  O  O52  1  0.982100  0.420200  0.181900  1.0  -0.6219
  O  O53  1  0.034200  0.491200  0.335600  1.0  -0.5575
  O  O54  1  0.164000  0.602100  0.818100  1.0  -0.6221
