# generated using pymatgen
data_NiHC4O3
_symmetry_space_group_name_H-M   'P 1'
_cell_length_a   6.76130000
_cell_length_b   15.06630000
_cell_length_c   15.06630000
_cell_angle_alpha   62.19690000
_cell_angle_beta   81.39690000
_cell_angle_gamma   98.60310000
_symmetry_Int_Tables_number   1
_chemical_formula_structural   NiHC4O3
_chemical_formula_sum   'Ni6 H6 C24 O18'
_cell_volume   1299.40827707
_cell_formula_units_Z   6
loop_
 _symmetry_equiv_pos_site_id
 _symmetry_equiv_pos_as_xyz
  1  'x, y, z'
loop_
 _atom_site_type_symbol
 _atom_site_label
 _atom_site_symmetry_multiplicity
 _atom_site_fract_x
 _atom_site_fract_y
 _atom_site_fract_z
 _atom_site_occupancy
 _atom_site_charge
  Ni  Ni1  1  0.116200  0.719000  0.699400  1.0  0.8567
  Ni  Ni2  1  0.815600  0.699400  0.581600  1.0  0.8584
  Ni  Ni3  1  0.397200  0.581600  0.719000  1.0  0.8529
  Ni  Ni4  1  0.397200  0.281000  0.418400  1.0  0.8566
  Ni  Ni5  1  0.116200  0.300600  0.281000  1.0  0.8589
  Ni  Ni6  1  0.815600  0.418400  0.300600  1.0  0.8549
  H  H7  1  0.724000  0.495000  0.505000  1.0  0.0862
  H  H8  1  0.528000  0.430000  0.000000  1.0  0.1144
  H  H9  1  0.528000  0.000000  0.570000  1.0  0.1123
  H  H10  1  0.229000  0.505000  0.000000  1.0  0.0858
  H  H11  1  0.229000  0.000000  0.495000  1.0  0.0874
  H  H12  1  0.098000  0.570000  0.430000  1.0  0.1198
  C  C13  1  0.050500  0.093500  0.461000  1.0  0.2514
  C  C14  1  0.194900  0.455400  0.357700  1.0  0.6623
  C  C15  1  0.739500  0.186900  0.455400  1.0  0.6586
  C  C16  1  0.511500  0.554500  0.539000  1.0  0.2523
  C  C17  1  0.194900  0.642300  0.544600  1.0  0.6598
  C  C18  1  0.239600  0.552900  0.447100  1.0  0.1731
  C  C19  1  0.739500  0.544600  0.813100  1.0  0.6614
  C  C20  1  0.296100  0.574700  0.515400  1.0  -0.0753
  C  C21  1  0.686700  0.000000  0.552900  1.0  0.1402
  C  C22  1  0.050500  0.539000  0.906500  1.0  0.2529
  C  C23  1  0.811500  0.515400  0.909900  1.0  -0.0766
  C  C24  1  0.811500  0.090100  0.484600  1.0  -0.0758
  C  C25  1  0.721400  0.425300  0.090100  1.0  -0.0655
  C  C26  1  0.087900  0.000000  0.492300  1.0  -0.0965
  C  C27  1  0.087900  0.507700  0.000000  1.0  -0.0963
  C  C28  1  0.957000  0.906500  0.554500  1.0  0.2499
  C  C29  1  0.552600  0.813100  0.642300  1.0  0.6577
  C  C30  1  0.957000  0.445500  0.093500  1.0  0.2512
  C  C31  1  0.580200  0.492300  0.507700  1.0  -0.0991
  C  C32  1  0.511500  0.461000  0.445500  1.0  0.252
  C  C33  1  0.721400  0.909900  0.574700  1.0  -0.0662
  C  C34  1  0.552600  0.357700  0.186900  1.0  0.6595
  C  C35  1  0.296100  0.484600  0.425300  1.0  -0.0761
  C  C36  1  0.686700  0.447100  0.000000  1.0  0.1351
  O  O37  1  0.159700  0.593600  0.825500  1.0  -0.5975
  O  O38  1  0.372900  0.827800  0.668100  1.0  -0.5631
  O  O39  1  0.372900  0.331900  0.172200  1.0  -0.5665
  O  O40  1  0.545100  0.504100  0.827800  1.0  -0.5665
  O  O41  1  0.985200  0.825500  0.580900  1.0  -0.596
  O  O42  1  0.985200  0.419100  0.174500  1.0  -0.5954
  O  O43  1  0.879600  0.270200  0.382400  1.0  -0.659
  O  O44  1  0.609400  0.347400  0.270200  1.0  -0.6599
  O  O45  1  0.566100  0.580900  0.593600  1.0  -0.5955
  O  O46  1  0.545100  0.172200  0.495900  1.0  -0.5651
  O  O47  1  0.566100  0.406400  0.419100  1.0  -0.5979
  O  O48  1  0.262000  0.382400  0.347400  1.0  -0.6601
  O  O49  1  0.041000  0.495900  0.331900  1.0  -0.5665
  O  O50  1  0.041000  0.668100  0.504100  1.0  -0.5677
  O  O51  1  0.159700  0.174500  0.406400  1.0  -0.598
  O  O52  1  0.262000  0.652600  0.617600  1.0  -0.6598
  O  O53  1  0.879600  0.617600  0.729800  1.0  -0.6598
  O  O54  1  0.609400  0.729800  0.652600  1.0  -0.66
