# generated using pymatgen
data_NiHC4O3
_symmetry_space_group_name_H-M   'P 1'
_cell_length_a   6.72920000
_cell_length_b   15.06190000
_cell_length_c   15.06190000
_cell_angle_alpha   62.17760000
_cell_angle_beta   81.43540000
_cell_angle_gamma   98.56460000
_symmetry_Int_Tables_number   1
_chemical_formula_structural   NiHC4O3
_chemical_formula_sum   'Ni6 H6 C24 O18'
_cell_volume   1292.74578841
_cell_formula_units_Z   6
loop_
 _symmetry_equiv_pos_site_id
 _symmetry_equiv_pos_as_xyz
  1  'x, y, z'
loop_
 _atom_site_type_symbol
 _atom_site_label
 _atom_site_symmetry_multiplicity
 _atom_site_fract_x
 _atom_site_fract_y
 _atom_site_fract_z
 _atom_site_occupancy
 _atom_site_charge
  Ni  Ni1  1  0.116300  0.718700  0.704200  1.0  0.9008
  Ni  Ni2  1  0.116300  0.295800  0.281300  1.0  0.9042
  Ni  Ni3  1  0.820500  0.422900  0.295800  1.0  0.8971
  Ni  Ni4  1  0.820500  0.704200  0.577100  1.0  0.9047
  Ni  Ni5  1  0.397600  0.281300  0.422900  1.0  0.8983
  Ni  Ni6  1  0.397600  0.577100  0.718700  1.0  0.8939
  H  H7  1  0.534400  0.000000  0.571800  1.0  0.073
  H  H8  1  0.259500  0.518500  0.000000  1.0  0.0868
  H  H9  1  0.741000  0.481500  0.518500  1.0  0.088
  H  H10  1  0.259500  0.000000  0.481500  1.0  0.0863
  H  H11  1  0.534400  0.428200  0.000000  1.0  0.0758
  H  H12  1  0.106200  0.571800  0.428200  1.0  0.076
  C  C13  1  0.556900  0.354900  0.186200  1.0  0.6971
  C  C14  1  0.743100  0.186200  0.458900  1.0  0.694
  C  C15  1  0.588300  0.501450  0.498550  1.0  0.0264
  C  C16  1  0.202000  0.645100  0.541100  1.0  0.6957
  C  C17  1  0.202000  0.458900  0.354900  1.0  0.6975
  C  C18  1  0.743100  0.541100  0.813800  1.0  0.6974
  C  C19  1  0.730700  0.413100  0.092000  1.0  -0.1569
  C  C20  1  0.685900  0.441700  0.000000  1.0  -0.1026
  C  C21  1  0.041100  0.536100  0.901800  1.0  0.4214
  C  C22  1  0.942900  0.437900  0.098200  1.0  0.4228
  C  C23  1  0.086850  0.498550  0.000000  1.0  0.0257
  C  C24  1  0.822700  0.092000  0.494900  1.0  -0.1597
  C  C25  1  0.685900  0.000000  0.558300  1.0  -0.1096
  C  C26  1  0.041100  0.098200  0.463900  1.0  0.4223
  C  C27  1  0.086850  0.000000  0.501450  1.0  0.0267
  C  C28  1  0.730700  0.908000  0.586900  1.0  -0.156
  C  C29  1  0.317600  0.586900  0.505100  1.0  -0.1485
  C  C30  1  0.244200  0.558300  0.441700  1.0  -0.1041
  C  C31  1  0.556900  0.813800  0.645100  1.0  0.6937
  C  C32  1  0.942900  0.901800  0.562100  1.0  0.4217
  C  C33  1  0.317600  0.494900  0.413100  1.0  -0.1492
  C  C34  1  0.822700  0.505100  0.908000  1.0  -0.1606
  C  C35  1  0.505000  0.463900  0.437900  1.0  0.4214
  C  C36  1  0.505000  0.562100  0.536100  1.0  0.4233
  O  O37  1  0.582000  0.405600  0.412600  1.0  -0.6511
  O  O38  1  0.593900  0.727500  0.657800  1.0  -0.6534
  O  O39  1  0.176400  0.181800  0.405600  1.0  -0.6513
  O  O40  1  0.553200  0.501000  0.827400  1.0  -0.6008
  O  O41  1  0.866400  0.614700  0.727500  1.0  -0.6527
  O  O42  1  0.052200  0.671600  0.501000  1.0  -0.6019
  O  O43  1  0.176400  0.594400  0.818200  1.0  -0.6511
  O  O44  1  0.582000  0.587400  0.594400  1.0  -0.6504
  O  O45  1  0.251700  0.657800  0.614700  1.0  -0.6538
  O  O46  1  0.553200  0.172600  0.499000  1.0  -0.5971
  O  O47  1  0.251700  0.385300  0.342200  1.0  -0.6537
  O  O48  1  0.380600  0.328400  0.172600  1.0  -0.6033
  O  O49  1  0.994600  0.818200  0.587400  1.0  -0.6515
  O  O50  1  0.593900  0.342200  0.272500  1.0  -0.6537
  O  O51  1  0.994600  0.412600  0.181800  1.0  -0.6507
  O  O52  1  0.866400  0.272500  0.385300  1.0  -0.6518
  O  O53  1  0.380600  0.827400  0.671600  1.0  -0.5977
  O  O54  1  0.052200  0.499000  0.328400  1.0  -0.5987
