# generated using pymatgen
data_CoHC4O3
_symmetry_space_group_name_H-M   'P 1'
_cell_length_a   6.88200000
_cell_length_b   15.11580000
_cell_length_c   15.11580000
_cell_angle_alpha   62.26050000
_cell_angle_beta   81.27090000
_cell_angle_gamma   98.72910000
_symmetry_Int_Tables_number   1
_chemical_formula_structural   CoHC4O3
_chemical_formula_sum   'Co6 H6 C24 O18'
_cell_volume   1330.41719412
_cell_formula_units_Z   6
loop_
 _symmetry_equiv_pos_site_id
 _symmetry_equiv_pos_as_xyz
  1  'x, y, z'
loop_
 _atom_site_type_symbol
 _atom_site_label
 _atom_site_symmetry_multiplicity
 _atom_site_fract_x
 _atom_site_fract_y
 _atom_site_fract_z
 _atom_site_occupancy
 _atom_site_charge
  Co  Co1  1  0.486600  0.587700  0.731900  1.0  0.9791
  Co  Co2  1  0.513400  0.412300  0.268100  1.0  0.9818
  Co  Co3  1  0.101100  0.319600  0.412300  1.0  0.9863
  Co  Co4  1  0.218500  0.731900  0.680400  1.0  0.9853
  Co  Co5  1  0.781500  0.268100  0.319600  1.0  0.9853
  Co  Co6  1  0.898900  0.680400  0.587700  1.0  0.9868
  H  H7  1  0.639500  0.442200  0.025700  1.0  0.1134
  H  H8  1  0.665200  0.025700  0.532100  1.0  0.1142
  H  H9  1  0.802700  0.467900  0.557800  1.0  0.1151
  H  H10  1  0.360500  0.557800  0.974300  1.0  0.1141
  H  H11  1  0.334800  0.974300  0.467900  1.0  0.1132
  H  H12  1  0.197300  0.532100  0.442200  1.0  0.1165
  C  C13  1  0.967000  0.103900  0.467500  1.0  0.3104
  C  C14  1  0.259300  0.616400  0.559300  1.0  0.7255
  C  C15  1  0.434500  0.467500  0.428600  1.0  0.3154
  C  C16  1  0.136900  0.571400  0.896100  1.0  0.3115
  C  C17  1  0.198200  0.987900  0.480900  1.0  -0.07
  C  C18  1  0.166000  0.087800  0.450500  1.0  -0.1301
  C  C19  1  0.565500  0.532500  0.571400  1.0  0.3153
  C  C20  1  0.616500  0.450500  0.461700  1.0  -0.1297
  C  C21  1  0.818600  0.559300  0.824300  1.0  0.7278
  C  C22  1  0.801800  0.012100  0.519100  1.0  -0.0691
  C  C23  1  0.642900  0.824300  0.616400  1.0  0.7265
  C  C24  1  0.740700  0.383600  0.440700  1.0  0.7253
  C  C25  1  0.033000  0.896100  0.532500  1.0  0.31
  C  C26  1  0.679100  0.480900  0.531200  1.0  -0.064
  C  C27  1  0.357100  0.175700  0.383600  1.0  0.7251
  C  C28  1  0.789700  0.468800  0.012100  1.0  -0.0687
  C  C29  1  0.210300  0.531200  0.987900  1.0  -0.0677
  C  C30  1  0.181400  0.440700  0.175700  1.0  0.7273
  C  C31  1  0.320900  0.519100  0.468800  1.0  -0.0621
  C  C32  1  0.383500  0.549500  0.538300  1.0  -0.1305
  C  C33  1  0.863100  0.428600  0.103900  1.0  0.3117
  C  C34  1  0.921800  0.538300  0.912200  1.0  -0.1308
  C  C35  1  0.078200  0.461700  0.087800  1.0  -0.1323
  C  C36  1  0.834000  0.912200  0.549500  1.0  -0.1331
  O  O37  1  0.666000  0.736600  0.644800  1.0  -0.6578
  O  O38  1  0.914700  0.192000  0.439500  1.0  -0.6881
  O  O39  1  0.354200  0.439500  0.368500  1.0  -0.6893
  O  O40  1  0.334000  0.263400  0.355200  1.0  -0.6573
  O  O41  1  0.526100  0.155600  0.373100  1.0  -0.5919
  O  O42  1  0.473900  0.844400  0.626900  1.0  -0.5946
  O  O43  1  0.629500  0.528700  0.844400  1.0  -0.5925
  O  O44  1  0.929400  0.618600  0.736600  1.0  -0.657
  O  O45  1  0.370500  0.471300  0.155600  1.0  -0.5936
  O  O46  1  0.277300  0.631500  0.808000  1.0  -0.6877
  O  O47  1  0.085300  0.808000  0.560500  1.0  -0.6899
  O  O48  1  0.100800  0.626900  0.528700  1.0  -0.5933
  O  O49  1  0.645800  0.560500  0.631500  1.0  -0.6888
  O  O50  1  0.689200  0.355200  0.381400  1.0  -0.6568
  O  O51  1  0.070600  0.381400  0.263400  1.0  -0.6569
  O  O52  1  0.899200  0.373100  0.471300  1.0  -0.5936
  O  O53  1  0.310800  0.644800  0.618600  1.0  -0.6582
  O  O54  1  0.722700  0.368500  0.192000  1.0  -0.6873
