# generated using pymatgen
data_NiHC4O3
_symmetry_space_group_name_H-M   'P 1'
_cell_length_a   6.73900000
_cell_length_b   15.03490000
_cell_length_c   15.03490000
_cell_angle_alpha   62.19160000
_cell_angle_beta   81.40740000
_cell_angle_gamma   98.59260000
_symmetry_Int_Tables_number   1
_chemical_formula_structural   NiHC4O3
_chemical_formula_sum   'Ni6 H6 C24 O18'
_cell_volume   1289.80081851
_cell_formula_units_Z   6
loop_
 _symmetry_equiv_pos_site_id
 _symmetry_equiv_pos_as_xyz
  1  'x, y, z'
loop_
 _atom_site_type_symbol
 _atom_site_label
 _atom_site_symmetry_multiplicity
 _atom_site_fract_x
 _atom_site_fract_y
 _atom_site_fract_z
 _atom_site_occupancy
 _atom_site_charge
  Ni  Ni1  1  0.390800  0.280400  0.417800  1.0  0.8985
  Ni  Ni2  1  0.110400  0.301800  0.280400  1.0  0.9043
  Ni  Ni3  1  0.808600  0.417800  0.301800  1.0  0.8979
  Ni  Ni4  1  0.110400  0.719600  0.698200  1.0  0.9003
  Ni  Ni5  1  0.390800  0.582200  0.719600  1.0  0.8962
  Ni  Ni6  1  0.808600  0.698200  0.582200  1.0  0.9047
  H  H7  1  0.222550  0.506650  0.000000  1.0  0.0776
  H  H8  1  0.715900  0.493350  0.506650  1.0  0.0804
  H  H9  1  0.544150  0.000000  0.563550  1.0  0.1322
  H  H10  1  0.222550  0.000000  0.493350  1.0  0.0803
  H  H11  1  0.544150  0.436450  0.000000  1.0  0.1316
  H  H12  1  0.107700  0.563550  0.436450  1.0  0.1304
  C  C13  1  0.085900  0.000000  0.498300  1.0  -0.016
  C  C14  1  0.298700  0.483600  0.425500  1.0  -0.1288
  C  C15  1  0.550700  0.810900  0.642800  1.0  0.609
  C  C16  1  0.193500  0.642800  0.546300  1.0  0.61
  C  C17  1  0.193500  0.453700  0.357200  1.0  0.612
  C  C18  1  0.724200  0.909100  0.574500  1.0  -0.1233
  C  C19  1  0.739800  0.546300  0.810900  1.0  0.6115
  C  C20  1  0.038600  0.532300  0.908500  1.0  0.3489
  C  C21  1  0.235400  0.555600  0.444400  1.0  0.0295
  C  C22  1  0.947100  0.440800  0.091500  1.0  0.3609
  C  C23  1  0.679800  0.444400  0.000000  1.0  0.0211
  C  C24  1  0.815100  0.090900  0.483600  1.0  -0.1264
  C  C25  1  0.584200  0.498300  0.501700  1.0  -0.0173
  C  C26  1  0.038600  0.091500  0.467700  1.0  0.3497
  C  C27  1  0.550700  0.357200  0.189100  1.0  0.6103
  C  C28  1  0.739800  0.189100  0.453700  1.0  0.6094
  C  C29  1  0.085900  0.501700  0.000000  1.0  -0.0136
  C  C30  1  0.298700  0.574500  0.516400  1.0  -0.1286
  C  C31  1  0.947100  0.908500  0.559200  1.0  0.3593
  C  C32  1  0.815100  0.516400  0.909100  1.0  -0.1268
  C  C33  1  0.506300  0.467700  0.440800  1.0  0.3597
  C  C34  1  0.724200  0.425500  0.090900  1.0  -0.1238
  C  C35  1  0.679800  0.000000  0.555600  1.0  0.0175
  C  C36  1  0.506300  0.559200  0.532300  1.0  0.3608
  O  O37  1  0.985100  0.417200  0.184900  1.0  -0.6173
  O  O38  1  0.985100  0.815100  0.582800  1.0  -0.6176
  O  O39  1  0.864600  0.275300  0.381500  1.0  -0.6963
  O  O40  1  0.170000  0.184900  0.397900  1.0  -0.6172
  O  O41  1  0.567900  0.397900  0.417200  1.0  -0.6178
  O  O42  1  0.589300  0.343200  0.275300  1.0  -0.6987
  O  O43  1  0.033200  0.497700  0.327100  1.0  -0.5328
  O  O44  1  0.535500  0.175200  0.497700  1.0  -0.5398
  O  O45  1  0.535500  0.502300  0.824800  1.0  -0.5422
  O  O46  1  0.589300  0.724700  0.656800  1.0  -0.6971
  O  O47  1  0.170000  0.602100  0.815100  1.0  -0.6177
  O  O48  1  0.567900  0.582800  0.602100  1.0  -0.6166
  O  O49  1  0.033200  0.672900  0.502300  1.0  -0.5285
  O  O50  1  0.360300  0.824800  0.672900  1.0  -0.5333
  O  O51  1  0.246100  0.381500  0.343200  1.0  -0.6972
  O  O52  1  0.246100  0.656800  0.618500  1.0  -0.6984
  O  O53  1  0.360300  0.327100  0.175200  1.0  -0.5345
  O  O54  1  0.864600  0.618500  0.724700  1.0  -0.6963
