# generated using pymatgen
data_CoHC4O3
_symmetry_space_group_name_H-M   'P 1'
_cell_length_a   6.77670000
_cell_length_b   15.09990000
_cell_length_c   15.09990000
_cell_angle_alpha   62.19710000
_cell_angle_beta   81.39650000
_cell_angle_gamma   98.60350000
_symmetry_Int_Tables_number   1
_chemical_formula_structural   CoHC4O3
_chemical_formula_sum   'Co6 H6 C24 O18'
_cell_volume   1308.18053592
_cell_formula_units_Z   6
loop_
 _symmetry_equiv_pos_site_id
 _symmetry_equiv_pos_as_xyz
  1  'x, y, z'
loop_
 _atom_site_type_symbol
 _atom_site_label
 _atom_site_symmetry_multiplicity
 _atom_site_fract_x
 _atom_site_fract_y
 _atom_site_fract_z
 _atom_site_occupancy
 _atom_site_charge
  Co  Co1  1  0.392500  0.578000  0.720500  1.0  1.0564
  Co  Co2  1  0.814500  0.422000  0.298500  1.0  1.0585
  Co  Co3  1  0.113000  0.298500  0.279500  1.0  1.0619
  Co  Co4  1  0.113000  0.720500  0.701500  1.0  1.0594
  Co  Co5  1  0.814500  0.701500  0.578000  1.0  1.0622
  Co  Co6  1  0.392500  0.279500  0.422000  1.0  1.0584
  H  H7  1  0.536500  0.000000  0.571500  1.0  0.0846
  H  H8  1  0.536500  0.428500  0.000000  1.0  0.0857
  H  H9  1  0.242850  0.519550  0.000000  1.0  0.1058
  H  H10  1  0.108000  0.571500  0.428500  1.0  0.0827
  H  H11  1  0.723300  0.480450  0.519550  1.0  0.1068
  H  H12  1  0.242850  0.000000  0.480450  1.0  0.1052
  C  C13  1  0.551700  0.354800  0.187900  1.0  0.6757
  C  C14  1  0.316600  0.588200  0.504600  1.0  -0.1852
  C  C15  1  0.940500  0.438600  0.094100  1.0  0.3373
  C  C16  1  0.821200  0.504600  0.907200  1.0  -0.196
  C  C17  1  0.316600  0.495400  0.411800  1.0  -0.1845
  C  C18  1  0.739600  0.187900  0.457300  1.0  0.6744
  C  C19  1  0.675000  0.000000  0.556800  1.0  -0.0635
  C  C20  1  0.821200  0.092800  0.495400  1.0  -0.1954
  C  C21  1  0.739600  0.542700  0.812100  1.0  0.6772
  C  C22  1  0.231800  0.556800  0.443200  1.0  -0.0523
  C  C23  1  0.940500  0.905900  0.561400  1.0  0.337
  C  C24  1  0.501900  0.561400  0.532700  1.0  0.3383
  C  C25  1  0.675000  0.443200  0.000000  1.0  -0.0579
  C  C26  1  0.196900  0.645200  0.542700  1.0  0.675
  C  C27  1  0.728400  0.411800  0.092800  1.0  -0.1794
  C  C28  1  0.551700  0.812100  0.645200  1.0  0.6738
  C  C29  1  0.034600  0.532700  0.905900  1.0  0.3414
  C  C30  1  0.082350  0.503050  0.000000  1.0  -0.1131
  C  C31  1  0.728400  0.907200  0.588200  1.0  -0.1787
  C  C32  1  0.034600  0.094100  0.467300  1.0  0.3374
  C  C33  1  0.501900  0.467300  0.438600  1.0  0.3408
  C  C34  1  0.196900  0.457300  0.354800  1.0  0.677
  C  C35  1  0.082350  0.000000  0.496950  1.0  -0.1124
  C  C36  1  0.579300  0.496950  0.503050  1.0  -0.113
  O  O37  1  0.548000  0.178800  0.499200  1.0  -0.586
  O  O38  1  0.178400  0.598300  0.817900  1.0  -0.6576
  O  O39  1  0.594400  0.342500  0.273700  1.0  -0.6517
  O  O40  1  0.178400  0.182100  0.401700  1.0  -0.6581
  O  O41  1  0.594400  0.726300  0.657500  1.0  -0.6511
  O  O42  1  0.996300  0.817900  0.583800  1.0  -0.6582
  O  O43  1  0.251900  0.383800  0.342500  1.0  -0.6517
  O  O44  1  0.868100  0.616200  0.726300  1.0  -0.6514
  O  O45  1  0.047200  0.678000  0.500800  1.0  -0.5823
  O  O46  1  0.868100  0.273700  0.383800  1.0  -0.6508
  O  O47  1  0.548000  0.500800  0.821200  1.0  -0.5896
  O  O48  1  0.369200  0.322000  0.178800  1.0  -0.5957
  O  O49  1  0.580100  0.401700  0.416200  1.0  -0.658
  O  O50  1  0.369200  0.821200  0.678000  1.0  -0.5832
  O  O51  1  0.251900  0.657500  0.616200  1.0  -0.6519
  O  O52  1  0.047200  0.499200  0.322000  1.0  -0.5882
  O  O53  1  0.996300  0.416200  0.182100  1.0  -0.6581
  O  O54  1  0.580100  0.583800  0.598300  1.0  -0.6583
