# generated using pymatgen
data_Zn3H30C53(NO4)4
_symmetry_space_group_name_H-M   'P 1'
_cell_length_a   15.16900000
_cell_length_b   15.45300000
_cell_length_c   16.45040000
_cell_angle_alpha   67.46900000
_cell_angle_beta   80.55900000
_cell_angle_gamma   61.98200000
_symmetry_Int_Tables_number   1
_chemical_formula_structural   Zn3H30C53(NO4)4
_chemical_formula_sum   'Zn6 H60 C106 N8 O32'
_cell_volume   3143.71542877
_cell_formula_units_Z   2
loop_
 _symmetry_equiv_pos_site_id
 _symmetry_equiv_pos_as_xyz
  1  'x, y, z'
loop_
 _atom_site_type_symbol
 _atom_site_label
 _atom_site_symmetry_multiplicity
 _atom_site_fract_x
 _atom_site_fract_y
 _atom_site_fract_z
 _atom_site_occupancy
 _atom_site_charge
  Zn  Zn1  1  0.989740  0.508140  0.664480  1.0  0.8454
  Zn  Zn2  1  0.187280  0.135670  0.916240  1.0  0.9137
  Zn  Zn3  1  0.010260  0.491860  0.335520  1.0  0.844
  Zn  Zn4  1  0.577070  0.133740  0.289830  1.0  0.9104
  Zn  Zn5  1  0.812720  0.864330  0.083760  1.0  0.9127
  Zn  Zn6  1  0.422930  0.866260  0.710170  1.0  0.911
  H  H7  1  0.389600  0.398200  0.873000  1.0  0.122
  H  H8  1  0.174800  0.752300  0.743600  1.0  0.1334
  H  H9  1  0.177800  0.078500  0.460400  1.0  0.1254
  H  H10  1  0.913700  0.435700  0.506400  1.0  0.1017
  H  H11  1  0.765400  0.151100  0.516200  1.0  0.1205
  H  H12  1  0.462900  0.464200  0.148700  1.0  0.1133
  H  H13  1  0.386100  0.401800  0.388100  1.0  0.1056
  H  H14  1  0.086300  0.564300  0.493600  1.0  0.1017
  H  H15  1  0.711800  0.664000  0.762600  1.0  0.2704
  H  H16  1  0.087700  0.945500  0.398900  1.0  0.1115
  H  H17  1  0.914200  0.669900  0.901300  1.0  0.1274
  H  H18  1  0.031900  0.234600  0.423900  1.0  0.1108
  H  H19  1  0.639300  0.764300  0.843400  1.0  0.1204
  H  H20  1  0.397300  0.483700  0.720500  1.0  0.1254
  H  H21  1  0.505600  0.376200  0.602100  1.0  0.1131
  H  H22  1  0.540200  0.356500  0.322900  1.0  0.1163
  H  H23  1  0.330400  0.978800  0.533700  1.0  0.0929
  H  H24  1  0.288200  0.336000  0.237400  1.0  0.2721
  H  H25  1  0.121200  0.657800  0.649500  1.0  0.1065
  H  H26  1  0.851400  0.715600  0.414700  1.0  0.1076
  H  H27  1  0.537100  0.535800  0.851300  1.0  0.114
  H  H28  1  0.659600  0.340800  0.534000  1.0  0.126
  H  H29  1  0.514500  0.932300  0.435800  1.0  0.1093
  H  H30  1  0.085800  0.330100  0.098700  1.0  0.1261
  H  H31  1  0.788800  0.611400  0.270200  1.0  0.0973
  H  H32  1  0.485500  0.067700  0.564200  1.0  0.1094
  H  H33  1  0.043300  0.028400  0.694200  1.0  0.1163
  H  H34  1  0.825200  0.247700  0.256400  1.0  0.1345
  H  H35  1  0.196500  0.931900  0.765300  1.0  0.1127
  H  H36  1  0.800800  0.491500  0.815200  1.0  0.1159
  H  H37  1  0.833200  0.336800  0.105600  1.0  0.115
  H  H38  1  0.243800  0.524100  0.428800  1.0  0.1363
  H  H39  1  0.355200  0.317700  0.003200  1.0  0.1185
  H  H40  1  0.199200  0.508500  0.184800  1.0  0.1149
  H  H41  1  0.340400  0.659200  0.466000  1.0  0.125
  H  H42  1  0.494400  0.623800  0.397900  1.0  0.1142
  H  H43  1  0.808800  0.402000  0.969000  1.0  0.1375
  H  H44  1  0.613900  0.598200  0.611900  1.0  0.1079
  H  H45  1  0.956700  0.971600  0.305800  1.0  0.1166
  H  H46  1  0.602700  0.516300  0.279500  1.0  0.125
  H  H47  1  0.644800  0.682300  0.996800  1.0  0.1185
  H  H48  1  0.878800  0.342200  0.350500  1.0  0.1056
  H  H49  1  0.148600  0.284400  0.585300  1.0  0.1082
  H  H50  1  0.632100  0.652800  0.326400  1.0  0.1179
  H  H51  1  0.493400  0.911800  0.809400  1.0  0.2498
  H  H52  1  0.968100  0.765400  0.576100  1.0  0.1106
  H  H53  1  0.166800  0.663200  0.894400  1.0  0.1146
  H  H54  1  0.360700  0.235700  0.156600  1.0  0.1198
  H  H55  1  0.822200  0.921500  0.539600  1.0  0.1244
  H  H56  1  0.803500  0.068100  0.234700  1.0  0.1131
  H  H57  1  0.191200  0.598000  0.031000  1.0  0.1372
  H  H58  1  0.234600  0.848900  0.483800  1.0  0.1198
  H  H59  1  0.367900  0.347200  0.673600  1.0  0.1177
  H  H60  1  0.669600  0.021200  0.466300  1.0  0.093
  H  H61  1  0.610400  0.601800  0.127000  1.0  0.1211
  H  H62  1  0.506600  0.088200  0.190600  1.0  0.2497
  H  H63  1  0.211200  0.388600  0.729800  1.0  0.0971
  H  H64  1  0.756200  0.475900  0.571200  1.0  0.1363
  H  H65  1  0.459800  0.643500  0.677100  1.0  0.1156
  H  H66  1  0.912300  0.054500  0.601100  1.0  0.112
  C  C67  1  0.687200  0.611600  0.364700  1.0  -0.116
  C  C68  1  0.360100  0.181700  0.488900  1.0  -0.1285
  C  C69  1  0.312800  0.388400  0.635300  1.0  -0.116
  C  C70  1  0.784000  0.758200  0.419000  1.0  -0.0009
  C  C71  1  0.406300  0.169700  0.403800  1.0  0.6919
  C  C72  1  0.426700  0.395500  0.502300  1.0  0.0399
  C  C73  1  0.808700  0.663200  0.579900  1.0  0.6988
  C  C74  1  0.113000  0.717800  0.601200  1.0  -0.1354
  C  C75  1  0.213200  0.626600  0.860500  1.0  -0.096
  C  C76  1  0.378800  0.109600  0.651500  1.0  -0.0497
  C  C77  1  0.488100  0.625500  0.454600  1.0  -0.1032
  C  C78  1  0.543400  0.395700  0.059000  1.0  -0.112
  C  C79  1  0.725600  0.828200  0.341160  1.0  -0.1697
  C  C80  1  0.091500  0.064800  0.569600  1.0  0.072
  C  C81  1  0.725200  0.533500  0.000600  1.0  -0.0282
  C  C82  1  0.194200  0.744500  0.573200  1.0  0.1646
  C  C83  1  0.417100  0.711400  0.869400  1.0  0.7194
  C  C84  1  0.782300  0.585500  0.330900  1.0  0.1516
  C  C85  1  0.991200  0.544800  0.811700  1.0  0.6903
  C  C86  1  0.805800  0.255500  0.426800  1.0  0.1642
  C  C87  1  0.444500  0.035900  0.732800  1.0  0.6837
  C  C88  1  0.521900  0.521300  0.910700  1.0  -0.0744
  C  C89  1  0.217700  0.414500  0.669100  1.0  0.1515
  C  C90  1  0.180500  0.049000  0.521500  1.0  -0.123
  C  C91  1  0.582900  0.288600  0.130600  1.0  0.7188
  C  C92  1  0.555500  0.964100  0.267200  1.0  0.681
  C  C93  1  0.257400  0.248400  0.498000  1.0  -0.1102
  C  C94  1  0.654400  0.531400  0.152500  1.0  -0.1147
  C  C95  1  0.639900  0.818300  0.511100  1.0  -0.1282
  C  C96  1  0.143300  0.518500  0.529100  1.0  0.1516
  C  C97  1  0.193000  0.960300  0.704200  1.0  0.1466
  C  C98  1  0.672700  0.576900  0.455600  1.0  0.0554
  C  C99  1  0.783500  0.318900  0.231100  1.0  -0.1695
  C  C100  1  0.559400  0.611600  0.581900  1.0  -0.0897
  C  C101  1  0.275900  0.521000  0.901700  1.0  0.015
  C  C102  1  0.605800  0.351200  0.505100  1.0  -0.1715
  C  C103  1  0.899200  0.980900  0.338900  1.0  -0.1071
  C  C104  1  0.593700  0.830300  0.596200  1.0  0.6912
  C  C105  1  0.418700  0.112400  0.568300  1.0  -0.0329
  C  C106  1  0.274400  0.171800  0.658840  1.0  -0.1707
  C  C107  1  0.100800  0.019100  0.661100  1.0  -0.106
  C  C108  1  0.466500  0.637900  0.621900  1.0  -0.128
  C  C109  1  0.946400  0.583600  0.034300  1.0  -0.0667
  C  C110  1  0.564700  0.415100  0.970900  1.0  -0.0799
  C  C111  1  0.345600  0.468600  0.847500  1.0  -0.1121
  C  C112  1  0.350700  0.520200  0.754400  1.0  -0.1533
  C  C113  1  0.216500  0.681100  0.768900  1.0  -0.1703
  C  C114  1  0.619500  0.334600  0.928200  1.0  0.734
  C  C115  1  0.324000  0.358300  0.038500  1.0  -0.1138
  C  C116  1  0.008800  0.455200  0.188300  1.0  0.6911
  C  C117  1  0.231800  0.471000  0.147400  1.0  0.0625
  C  C118  1  0.742600  0.751600  0.502000  1.0  -0.11
  C  C119  1  0.908500  0.935200  0.430400  1.0  0.0715
  C  C120  1  0.856700  0.481500  0.470900  1.0  0.1521
  C  C121  1  0.226200  0.525400  0.054500  1.0  -0.1739
  C  C122  1  0.182600  0.830200  0.501000  1.0  -0.1111
  C  C123  1  0.880300  0.673700  0.063200  1.0  0.7178
  C  C124  1  0.713900  0.376800  0.283500  1.0  0.1404
  C  C125  1  0.272400  0.988700  0.566200  1.0  0.1688
  C  C126  1  0.006600  0.872000  0.480200  1.0  0.0287
  C  C127  1  0.993400  0.128000  0.519800  1.0  0.0296
  C  C128  1  0.053600  0.416400  0.965700  1.0  -0.0689
  C  C129  1  0.456600  0.604300  0.941000  1.0  -0.1121
  C  C130  1  0.676000  0.641700  0.961500  1.0  -0.1165
  C  C131  1  0.052100  0.397900  0.059300  1.0  -0.0239
  C  C132  1  0.274800  0.466500  0.999400  1.0  -0.0276
  C  C133  1  0.382400  0.656100  0.579200  1.0  0.1316
  C  C134  1  0.786800  0.373400  0.139500  1.0  -0.098
  C  C135  1  0.999700  0.518800  0.908700  1.0  -0.1008
  C  C136  1  0.119700  0.326300  0.936800  1.0  0.7177
  C  C137  1  0.435300  0.584900  0.029100  1.0  -0.0819
  C  C138  1  0.978900  0.217900  0.444100  1.0  -0.0987
  C  C139  1  0.775900  0.828200  0.255300  1.0  0.6805
  C  C140  1  0.327300  0.423100  0.544400  1.0  0.0551
  C  C141  1  0.727600  0.011300  0.433800  1.0  0.1735
  C  C142  1  0.807000  0.039700  0.295800  1.0  0.1463
  C  C143  1  0.887000  0.282200  0.398800  1.0  -0.1352
  C  C144  1  0.761300  0.505600  0.510700  1.0  -0.1397
  C  C145  1  0.617600  0.343900  0.420800  1.0  0.1322
  C  C146  1  0.216000  0.241800  0.581000  1.0  -0.0007
  C  C147  1  0.440600  0.388400  0.418100  1.0  -0.0895
  C  C148  1  0.000300  0.481200  0.091300  1.0  -0.1002
  C  C149  1  0.947900  0.602100  0.940700  1.0  -0.0242
  C  C150  1  0.394200  0.648800  0.494900  1.0  -0.1702
  C  C151  1  0.621200  0.890400  0.348500  1.0  -0.0499
  C  C152  1  0.672300  0.691700  0.868800  1.0  0.0811
  C  C153  1  0.478100  0.478700  0.089300  1.0  -0.0773
  C  C154  1  0.581300  0.887600  0.431700  1.0  -0.0325
  C  C155  1  0.773800  0.474600  0.945500  1.0  -0.1728
  C  C156  1  0.573300  0.604500  0.497700  1.0  0.0399
  C  C157  1  0.817400  0.169800  0.499000  1.0  -0.112
  C  C158  1  0.286100  0.623200  0.716500  1.0  0.1402
  C  C159  1  0.380500  0.665400  0.071800  1.0  0.7357
  C  C160  1  0.224100  0.171800  0.744700  1.0  0.6833
  C  C161  1  0.091800  0.891300  0.451400  1.0  -0.0985
  C  C162  1  0.819500  0.951000  0.478500  1.0  -0.1233
  C  C163  1  0.191300  0.336800  0.420100  1.0  0.7003
  C  C164  1  0.238700  0.494400  0.489300  1.0  -0.1401
  C  C165  1  0.649300  0.479800  0.245600  1.0  -0.1561
  C  C166  1  0.533500  0.362100  0.378100  1.0  -0.1288
  C  C167  1  0.327700  0.308300  0.131200  1.0  0.0774
  C  C168  1  0.768200  0.529000  0.852600  1.0  0.0593
  C  C169  1  0.511900  0.374500  0.545400  1.0  -0.1046
  C  C170  1  0.908200  0.108700  0.548600  1.0  -0.0971
  C  C171  1  0.724100  0.479000  0.098300  1.0  0.0149
  C  C172  1  0.021100  0.782100  0.555900  1.0  -0.098
  N  N173  1  0.287500  0.678100  0.623610  1.0  -0.2567
  N  N174  1  0.712500  0.321900  0.376390  1.0  -0.2564
  N  N175  1  0.280700  0.943700  0.655940  1.0  -0.3614
  N  N176  1  0.719300  0.056300  0.344060  1.0  -0.36
  N  N177  1  0.716400  0.633600  0.818850  1.0  -0.2255
  N  N178  1  0.283600  0.366400  0.181150  1.0  -0.2235
  N  N179  1  0.867100  0.523400  0.382370  1.0  -0.3467
  N  N180  1  0.132900  0.476600  0.617630  1.0  -0.3462
  O  O181  1  0.226130  0.381730  0.352360  1.0  -0.5578
  O  O182  1  0.340700  0.787690  0.883580  1.0  -0.5376
  O  O183  1  0.904260  0.747180  0.041580  1.0  -0.5845
  O  O184  1  0.999800  0.529650  0.208210  1.0  -0.5867
  O  O185  1  0.026340  0.367990  0.243810  1.0  -0.4948
  O  O186  1  0.496810  0.153380  0.398060  1.0  -0.5813
  O  O187  1  0.534690  0.277960  0.201560  1.0  -0.5918
  O  O188  1  0.579170  0.345640  0.861050  1.0  -0.5338
  O  O189  1  0.000200  0.470350  0.791790  1.0  -0.5866
  O  O190  1  0.973660  0.632010  0.756190  1.0  -0.495
  O  O191  1  0.544850  0.055270  0.235780  1.0  -0.661
  O  O192  1  0.901490  0.633990  0.568820  1.0  -0.5894
  O  O193  1  0.130730  0.216540  0.750860  1.0  -0.5611
  O  O194  1  0.095740  0.252820  0.958420  1.0  -0.5862
  O  O195  1  0.098510  0.366010  0.431180  1.0  -0.5895
  O  O196  1  0.455150  0.944730  0.764220  1.0  -0.6614
  O  O197  1  0.802670  0.678130  0.105460  1.0  -0.552
  O  O198  1  0.495950  0.065740  0.757950  1.0  -0.5206
  O  O199  1  0.659300  0.212310  0.116420  1.0  -0.537
  O  O200  1  0.773870  0.618270  0.647640  1.0  -0.5595
  O  O201  1  0.504050  0.934260  0.242050  1.0  -0.5211
  O  O202  1  0.643530  0.823040  0.653460  1.0  -0.583
  O  O203  1  0.280480  0.118740  0.812980  1.0  -0.601
  O  O204  1  0.356470  0.176960  0.346540  1.0  -0.5852
  O  O205  1  0.197330  0.321870  0.894540  1.0  -0.5525
  O  O206  1  0.697400  0.256650  0.965380  1.0  -0.5203
  O  O207  1  0.869270  0.783460  0.249140  1.0  -0.5578
  O  O208  1  0.465310  0.722040  0.798440  1.0  -0.5915
  O  O209  1  0.302600  0.743350  0.034620  1.0  -0.5153
  O  O210  1  0.503190  0.846620  0.601940  1.0  -0.5812
  O  O211  1  0.719520  0.881260  0.187020  1.0  -0.6028
  O  O212  1  0.420830  0.654360  0.138950  1.0  -0.5343
