# generated using pymatgen
data_UH6C12ClO6
_symmetry_space_group_name_H-M   'P 1'
_cell_length_a   17.40250000
_cell_length_b   9.98870000
_cell_length_c   25.59460000
_cell_angle_alpha   90.00000000
_cell_angle_beta   98.56800000
_cell_angle_gamma   90.00000000
_symmetry_Int_Tables_number   1
_chemical_formula_structural   UH6C12ClO6
_chemical_formula_sum   'U8 H48 C96 Cl8 O48'
_cell_volume   4399.41439965
_cell_formula_units_Z   8
loop_
 _symmetry_equiv_pos_site_id
 _symmetry_equiv_pos_as_xyz
  1  'x, y, z'
loop_
 _atom_site_type_symbol
 _atom_site_label
 _atom_site_symmetry_multiplicity
 _atom_site_fract_x
 _atom_site_fract_y
 _atom_site_fract_z
 _atom_site_occupancy
 _atom_site_charge
  U  U1  1  0.533310  0.438260  0.860600  1.0  2.2111
  U  U2  1  0.033310  0.938260  0.860600  1.0  2.2111
  U  U3  1  0.466690  0.438260  0.639400  1.0  2.2127
  U  U4  1  0.966690  0.938260  0.639400  1.0  2.2127
  U  U5  1  0.466690  0.561740  0.139400  1.0  2.2127
  U  U6  1  0.966690  0.061740  0.139400  1.0  2.2127
  U  U7  1  0.533310  0.561740  0.360600  1.0  2.2113
  U  U8  1  0.033310  0.061740  0.360600  1.0  2.2113
  H  H9  1  0.718300  0.813400  0.912700  1.0  0.1284
  H  H10  1  0.587800  0.985600  0.940100  1.0  0.1321
  H  H11  1  0.528900  0.821600  0.828900  1.0  0.1222
  H  H12  1  0.528300  0.054300  0.828700  1.0  0.1182
  H  H13  1  0.428600  0.193700  0.005300  1.0  0.1064
  H  H14  1  0.700700  0.555100  0.029500  1.0  0.1266
  H  H15  1  0.218300  0.313400  0.912700  1.0  0.1284
  H  H16  1  0.087800  0.485600  0.940100  1.0  0.1321
  H  H17  1  0.028900  0.321600  0.828900  1.0  0.1222
  H  H18  1  0.028300  0.554300  0.828700  1.0  0.1182
  H  H19  1  0.928600  0.693700  0.005300  1.0  0.1064
  H  H20  1  0.200700  0.055100  0.029500  1.0  0.1266
  H  H21  1  0.281700  0.813400  0.587300  1.0  0.1288
  H  H22  1  0.412200  0.985600  0.559900  1.0  0.1327
  H  H23  1  0.471100  0.821600  0.671100  1.0  0.1229
  H  H24  1  0.471700  0.054300  0.671300  1.0  0.1185
  H  H25  1  0.571400  0.193700  0.494700  1.0  0.1059
  H  H26  1  0.299300  0.555100  0.470500  1.0  0.1263
  H  H27  1  0.781700  0.313400  0.587300  1.0  0.1288
  H  H28  1  0.912200  0.485600  0.559900  1.0  0.1327
  H  H29  1  0.971100  0.321600  0.671100  1.0  0.1229
  H  H30  1  0.971700  0.554300  0.671300  1.0  0.1185
  H  H31  1  0.071400  0.693700  0.494700  1.0  0.1059
  H  H32  1  0.799300  0.055100  0.470500  1.0  0.1263
  H  H33  1  0.281700  0.186600  0.087300  1.0  0.1293
  H  H34  1  0.412200  0.014400  0.059900  1.0  0.133
  H  H35  1  0.471100  0.178400  0.171100  1.0  0.1229
  H  H36  1  0.471700  0.945700  0.171300  1.0  0.1183
  H  H37  1  0.571400  0.806300  0.994700  1.0  0.1059
  H  H38  1  0.299300  0.444900  0.970500  1.0  0.1268
  H  H39  1  0.781700  0.686600  0.087300  1.0  0.1293
  H  H40  1  0.912200  0.514400  0.059900  1.0  0.133
  H  H41  1  0.971100  0.678400  0.171100  1.0  0.1229
  H  H42  1  0.971700  0.445700  0.171300  1.0  0.1183
  H  H43  1  0.071400  0.306300  0.994700  1.0  0.1059
  H  H44  1  0.799300  0.944900  0.970500  1.0  0.1268
  H  H45  1  0.718300  0.186600  0.412700  1.0  0.1285
  H  H46  1  0.587800  0.014400  0.440100  1.0  0.1322
  H  H47  1  0.528900  0.178400  0.328900  1.0  0.1219
  H  H48  1  0.528300  0.945700  0.328700  1.0  0.1184
  H  H49  1  0.428600  0.806300  0.505300  1.0  0.106
  H  H50  1  0.700700  0.444900  0.529500  1.0  0.1266
  H  H51  1  0.218300  0.686600  0.412700  1.0  0.1285
  H  H52  1  0.087800  0.514400  0.440100  1.0  0.1322
  H  H53  1  0.028900  0.678400  0.328900  1.0  0.1219
  H  H54  1  0.028300  0.445700  0.328700  1.0  0.1184
  H  H55  1  0.928600  0.306300  0.505300  1.0  0.106
  H  H56  1  0.200700  0.944900  0.529500  1.0  0.1266
  C  C57  1  0.647700  0.586600  0.927800  1.0  0.6885
  C  C58  1  0.518600  0.223400  0.931650  1.0  0.6761
  C  C59  1  0.731100  0.787500  0.947850  1.0  -0.0448
  C  C60  1  0.701700  0.669500  0.965250  1.0  -0.1276
  C  C61  1  0.508500  0.107900  0.967600  1.0  -0.1203
  C  C62  1  0.552600  0.991000  0.964050  1.0  -0.042
  C  C63  1  0.517200  0.868100  0.797260  1.0  -0.0329
  C  C64  1  0.517000  0.007500  0.797100  1.0  -0.0364
  C  C65  1  0.457200  0.115700  0.003190  1.0  -0.0045
  C  C66  1  0.720700  0.633800  0.017490  1.0  -0.0318
  C  C67  1  0.147700  0.086600  0.927800  1.0  0.6885
  C  C68  1  0.018600  0.723400  0.931650  1.0  0.6761
  C  C69  1  0.231100  0.287500  0.947850  1.0  -0.0448
  C  C70  1  0.201700  0.169500  0.965250  1.0  -0.1276
  C  C71  1  0.008500  0.607900  0.967600  1.0  -0.1203
  C  C72  1  0.052600  0.491000  0.964050  1.0  -0.042
  C  C73  1  0.017200  0.368100  0.797260  1.0  -0.0329
  C  C74  1  0.017000  0.507500  0.797100  1.0  -0.0364
  C  C75  1  0.957200  0.615700  0.003190  1.0  -0.0045
  C  C76  1  0.220700  0.133800  0.017490  1.0  -0.0318
  C  C77  1  0.352300  0.586600  0.572200  1.0  0.6858
  C  C78  1  0.481400  0.223400  0.568350  1.0  0.6763
  C  C79  1  0.268900  0.787500  0.552150  1.0  -0.0445
  C  C80  1  0.298300  0.669500  0.534750  1.0  -0.1255
  C  C81  1  0.491500  0.107900  0.532400  1.0  -0.1191
  C  C82  1  0.447400  0.991000  0.535950  1.0  -0.041
  C  C83  1  0.482800  0.868100  0.702740  1.0  -0.0348
  C  C84  1  0.483000  0.007500  0.702900  1.0  -0.0362
  C  C85  1  0.542800  0.115700  0.496810  1.0  -0.0052
  C  C86  1  0.279300  0.633800  0.482510  1.0  -0.0326
  C  C87  1  0.852300  0.086600  0.572200  1.0  0.6858
  C  C88  1  0.981400  0.723400  0.568350  1.0  0.6763
  C  C89  1  0.768900  0.287500  0.552150  1.0  -0.0445
  C  C90  1  0.798300  0.169500  0.534750  1.0  -0.1255
  C  C91  1  0.991500  0.607900  0.532400  1.0  -0.1191
  C  C92  1  0.947400  0.491000  0.535950  1.0  -0.041
  C  C93  1  0.982800  0.368100  0.702740  1.0  -0.0348
  C  C94  1  0.983000  0.507500  0.702900  1.0  -0.0362
  C  C95  1  0.042800  0.615700  0.496810  1.0  -0.0052
  C  C96  1  0.779300  0.133800  0.482510  1.0  -0.0326
  C  C97  1  0.352300  0.413400  0.072200  1.0  0.6836
  C  C98  1  0.481400  0.776600  0.068350  1.0  0.6764
  C  C99  1  0.268900  0.212500  0.052150  1.0  -0.0438
  C  C100  1  0.298300  0.330500  0.034750  1.0  -0.125
  C  C101  1  0.491500  0.892100  0.032400  1.0  -0.1196
  C  C102  1  0.447400  0.009000  0.035950  1.0  -0.0383
  C  C103  1  0.482800  0.131900  0.202740  1.0  -0.0348
  C  C104  1  0.483000  0.992500  0.202900  1.0  -0.0358
  C  C105  1  0.542800  0.884300  0.996810  1.0  -0.008
  C  C106  1  0.279300  0.366200  0.982510  1.0  -0.0316
  C  C107  1  0.852300  0.913400  0.072200  1.0  0.6836
  C  C108  1  0.981400  0.276600  0.068350  1.0  0.6764
  C  C109  1  0.768900  0.712500  0.052150  1.0  -0.0438
  C  C110  1  0.798300  0.830500  0.034750  1.0  -0.125
  C  C111  1  0.991500  0.392100  0.032400  1.0  -0.1196
  C  C112  1  0.947400  0.509000  0.035950  1.0  -0.0383
  C  C113  1  0.982800  0.631900  0.202740  1.0  -0.0348
  C  C114  1  0.983000  0.492500  0.202900  1.0  -0.0358
  C  C115  1  0.042800  0.384300  0.996810  1.0  -0.008
  C  C116  1  0.779300  0.866200  0.982510  1.0  -0.0316
  C  C117  1  0.647700  0.413400  0.427800  1.0  0.6869
  C  C118  1  0.518600  0.776600  0.431650  1.0  0.6761
  C  C119  1  0.731100  0.212500  0.447850  1.0  -0.0442
  C  C120  1  0.701700  0.330500  0.465250  1.0  -0.1249
  C  C121  1  0.508500  0.892100  0.467600  1.0  -0.1209
  C  C122  1  0.552600  0.009000  0.464050  1.0  -0.0398
  C  C123  1  0.517200  0.131900  0.297260  1.0  -0.0335
  C  C124  1  0.517000  0.992500  0.297100  1.0  -0.0356
  C  C125  1  0.457200  0.884300  0.503190  1.0  -0.0074
  C  C126  1  0.720700  0.366200  0.517490  1.0  -0.0318
  C  C127  1  0.147700  0.913400  0.427800  1.0  0.6869
  C  C128  1  0.018600  0.276600  0.431650  1.0  0.6761
  C  C129  1  0.231100  0.712500  0.447850  1.0  -0.0442
  C  C130  1  0.201700  0.830500  0.465250  1.0  -0.1249
  C  C131  1  0.008500  0.392100  0.467600  1.0  -0.1209
  C  C132  1  0.052600  0.509000  0.464050  1.0  -0.0398
  C  C133  1  0.017200  0.631900  0.297260  1.0  -0.0335
  C  C134  1  0.017000  0.492500  0.297100  1.0  -0.0356
  C  C135  1  0.957200  0.384300  0.503190  1.0  -0.0074
  C  C136  1  0.220700  0.866200  0.517490  1.0  -0.0318
  C  C137  1  0.500000  0.649100  0.750000  1.0  0.7547
  C  C138  1  0.500000  0.227000  0.750000  1.0  0.7726
  C  C139  1  0.500000  0.799000  0.750000  1.0  -0.1051
  C  C140  1  0.500000  0.076200  0.750000  1.0  -0.0941
  C  C141  1  0.000000  0.149100  0.750000  1.0  0.7547
  C  C142  1  0.000000  0.727000  0.750000  1.0  0.7726
  C  C143  1  0.000000  0.299000  0.750000  1.0  -0.1051
  C  C144  1  0.000000  0.576200  0.750000  1.0  -0.0941
  C  C145  1  0.500000  0.350900  0.250000  1.0  0.7556
  C  C146  1  0.500000  0.773000  0.250000  1.0  0.7724
  C  C147  1  0.500000  0.201000  0.250000  1.0  -0.1048
  C  C148  1  0.500000  0.923800  0.250000  1.0  -0.094
  C  C149  1  0.000000  0.850900  0.250000  1.0  0.7556
  C  C150  1  0.000000  0.273000  0.250000  1.0  0.7724
  C  C151  1  0.000000  0.701000  0.250000  1.0  -0.1048
  C  C152  1  0.000000  0.423800  0.250000  1.0  -0.094
  Cl  Cl153  1  0.664110  0.379080  0.819750  1.0  -0.4259
  Cl  Cl154  1  0.164110  0.879080  0.819750  1.0  -0.4259
  Cl  Cl155  1  0.335890  0.379080  0.680250  1.0  -0.4261
  Cl  Cl156  1  0.835890  0.879080  0.680250  1.0  -0.4261
  Cl  Cl157  1  0.335890  0.620920  0.180250  1.0  -0.4259
  Cl  Cl158  1  0.835890  0.120920  0.180250  1.0  -0.4259
  Cl  Cl159  1  0.664110  0.620920  0.319750  1.0  -0.4255
  Cl  Cl160  1  0.164110  0.120920  0.319750  1.0  -0.4255
  O  O161  1  0.493950  0.285400  0.792530  1.0  -0.7324
  O  O162  1  0.506140  0.590000  0.793400  1.0  -0.7321
  O  O163  1  0.566900  0.216500  0.899770  1.0  -0.6607
  O  O164  1  0.625370  0.473500  0.942300  1.0  -0.6746
  O  O165  1  0.623030  0.630800  0.882130  1.0  -0.6615
  O  O166  1  0.479180  0.327500  0.933910  1.0  -0.6459
  O  O167  1  0.993950  0.785400  0.792530  1.0  -0.7324
  O  O168  1  0.006140  0.090000  0.793400  1.0  -0.7321
  O  O169  1  0.066900  0.716500  0.899770  1.0  -0.6607
  O  O170  1  0.125370  0.973500  0.942300  1.0  -0.6746
  O  O171  1  0.123030  0.130800  0.882130  1.0  -0.6615
  O  O172  1  0.979180  0.827500  0.933910  1.0  -0.6459
  O  O173  1  0.506050  0.285400  0.707470  1.0  -0.733
  O  O174  1  0.493860  0.590000  0.706600  1.0  -0.7363
  O  O175  1  0.433100  0.216500  0.600230  1.0  -0.6585
  O  O176  1  0.374630  0.473500  0.557700  1.0  -0.6736
  O  O177  1  0.376970  0.630800  0.617870  1.0  -0.6612
  O  O178  1  0.520820  0.327500  0.566090  1.0  -0.6453
  O  O179  1  0.006050  0.785400  0.707470  1.0  -0.733
  O  O180  1  0.993860  0.090000  0.706600  1.0  -0.7363
  O  O181  1  0.933100  0.716500  0.600230  1.0  -0.6585
  O  O182  1  0.874630  0.973500  0.557700  1.0  -0.6736
  O  O183  1  0.876970  0.130800  0.617870  1.0  -0.6612
  O  O184  1  0.020820  0.827500  0.566090  1.0  -0.6453
  O  O185  1  0.506050  0.714600  0.207470  1.0  -0.734
  O  O186  1  0.493860  0.410000  0.206600  1.0  -0.7331
  O  O187  1  0.433100  0.783500  0.100230  1.0  -0.6574
  O  O188  1  0.374630  0.526500  0.057700  1.0  -0.675
  O  O189  1  0.376970  0.369200  0.117870  1.0  -0.6614
  O  O190  1  0.520820  0.672500  0.066090  1.0  -0.648
  O  O191  1  0.006050  0.214600  0.207470  1.0  -0.734
  O  O192  1  0.993860  0.910000  0.206600  1.0  -0.7331
  O  O193  1  0.933100  0.283500  0.100230  1.0  -0.6574
  O  O194  1  0.874630  0.026500  0.057700  1.0  -0.675
  O  O195  1  0.876970  0.869200  0.117870  1.0  -0.6614
  O  O196  1  0.020820  0.172500  0.066090  1.0  -0.648
  O  O197  1  0.493950  0.714600  0.292530  1.0  -0.7316
  O  O198  1  0.506140  0.410000  0.293400  1.0  -0.737
  O  O199  1  0.566900  0.783500  0.399770  1.0  -0.6604
  O  O200  1  0.625370  0.526500  0.442300  1.0  -0.6743
  O  O201  1  0.623030  0.369200  0.382130  1.0  -0.6611
  O  O202  1  0.479180  0.672500  0.433910  1.0  -0.6479
  O  O203  1  0.993950  0.214600  0.292530  1.0  -0.7316
  O  O204  1  0.006140  0.910000  0.293400  1.0  -0.737
  O  O205  1  0.066900  0.283500  0.399770  1.0  -0.6604
  O  O206  1  0.125370  0.026500  0.442300  1.0  -0.6743
  O  O207  1  0.123030  0.869200  0.382130  1.0  -0.6611
  O  O208  1  0.979180  0.172500  0.433910  1.0  -0.6479
