# generated using pymatgen
data_UH6C12ClO6
_symmetry_space_group_name_H-M   'P 1'
_cell_length_a   9.79180000
_cell_length_b   9.94540000
_cell_length_c   12.73610000
_cell_angle_alpha   84.21600000
_cell_angle_beta   76.64200000
_cell_angle_gamma   64.07000000
_symmetry_Int_Tables_number   1
_chemical_formula_structural   UH6C12ClO6
_chemical_formula_sum   'U2 H12 C24 Cl2 O12'
_cell_volume   1085.24630800
_cell_formula_units_Z   2
loop_
 _symmetry_equiv_pos_site_id
 _symmetry_equiv_pos_as_xyz
  1  'x, y, z'
loop_
 _atom_site_type_symbol
 _atom_site_label
 _atom_site_symmetry_multiplicity
 _atom_site_fract_x
 _atom_site_fract_y
 _atom_site_fract_z
 _atom_site_occupancy
 _atom_site_charge
  U  U1  1  0.559480  0.991670  0.274890  1.0  2.2917
  U  U2  1  0.440520  0.008330  0.725110  1.0  2.2925
  H  H3  1  0.531700  0.398900  0.335800  1.0  0.0976
  H  H4  1  0.462600  0.372800  0.658800  1.0  0.1127
  H  H5  1  0.905400  0.740500  0.931000  1.0  0.1119
  H  H6  1  0.931900  0.461200  0.182200  1.0  0.1111
  H  H7  1  0.359800  0.366600  0.991100  1.0  0.0874
  H  H8  1  0.678600  0.417500  0.111200  1.0  0.103
  H  H9  1  0.468300  0.601100  0.664200  1.0  0.0975
  H  H10  1  0.537400  0.627200  0.341200  1.0  0.1131
  H  H11  1  0.094600  0.259500  0.069000  1.0  0.112
  H  H12  1  0.068100  0.538800  0.817800  1.0  0.1109
  H  H13  1  0.640200  0.633400  0.008900  1.0  0.087
  H  H14  1  0.321400  0.582500  0.888800  1.0  0.1033
  C  C15  1  0.495500  0.363500  0.496800  1.0  -0.1229
  C  C16  1  0.492200  0.215300  0.492300  1.0  0.7431
  C  C17  1  0.518700  0.440000  0.401900  1.0  -0.0425
  C  C18  1  0.477400  0.424000  0.595100  1.0  -0.0369
  C  C19  1  0.788500  0.751900  0.140300  1.0  0.7032
  C  C20  1  0.901200  0.622100  0.067600  1.0  -0.0832
  C  C21  1  0.942800  0.644300  0.959300  1.0  -0.0473
  C  C22  1  0.959100  0.477100  0.108700  1.0  -0.0335
  C  C23  1  0.521900  0.371000  0.061700  1.0  -0.1242
  C  C24  1  0.540400  0.232700  0.129900  1.0  0.685
  C  C25  1  0.416100  0.420200  0.994900  1.0  -0.0285
  C  C26  1  0.606800  0.450300  0.066900  1.0  -0.0325
  C  C27  1  0.504500  0.636500  0.503200  1.0  -0.1225
  C  C28  1  0.507800  0.784700  0.507700  1.0  0.7427
  C  C29  1  0.481300  0.560000  0.598100  1.0  -0.0434
  C  C30  1  0.522600  0.576000  0.404900  1.0  -0.0349
  C  C31  1  0.211500  0.248100  0.859700  1.0  0.7021
  C  C32  1  0.098800  0.377900  0.932400  1.0  -0.0867
  C  C33  1  0.057200  0.355700  0.040700  1.0  -0.0444
  C  C34  1  0.040900  0.522900  0.891300  1.0  -0.0337
  C  C35  1  0.478100  0.629000  0.938300  1.0  -0.1229
  C  C36  1  0.459600  0.767300  0.870100  1.0  0.6842
  C  C37  1  0.583900  0.579800  0.005100  1.0  -0.0294
  C  C38  1  0.393200  0.549700  0.933100  1.0  -0.0275
  Cl  Cl39  1  0.816300  0.925000  0.352290  1.0  -0.429
  Cl  Cl40  1  0.183700  0.075000  0.647710  1.0  -0.4276
  O  O41  1  0.643000  0.185800  0.188000  1.0  -0.6656
  O  O42  1  0.460300  0.167200  0.128300  1.0  -0.629
  O  O43  1  0.477200  0.178600  0.405300  1.0  -0.745
  O  O44  1  0.733500  0.722100  0.236300  1.0  -0.6766
  O  O45  1  0.749600  0.880100  0.106800  1.0  -0.6169
  O  O46  1  0.502900  0.136000  0.576000  1.0  -0.7369
  O  O47  1  0.357000  0.814200  0.812000  1.0  -0.6646
  O  O48  1  0.539700  0.832800  0.871700  1.0  -0.6295
  O  O49  1  0.522800  0.821400  0.594700  1.0  -0.7467
  O  O50  1  0.266500  0.277900  0.763700  1.0  -0.6764
  O  O51  1  0.250400  0.119900  0.893200  1.0  -0.6152
  O  O52  1  0.497100  0.864000  0.424000  1.0  -0.7365
