# generated using pymatgen
data_CdH30C36N4(ClO2)2
_symmetry_space_group_name_H-M   'P 1'
_cell_length_a   18.36900000
_cell_length_b   17.30500000
_cell_length_c   28.13300000
_cell_angle_alpha   90.00000000
_cell_angle_beta   91.08300000
_cell_angle_gamma   90.00000000
_symmetry_Int_Tables_number   1
_chemical_formula_structural   CdH30C36N4(ClO2)2
_chemical_formula_sum   'Cd8 H240 C288 N32 Cl16 O32'
_cell_volume   8941.19520374
_cell_formula_units_Z   8
loop_
 _symmetry_equiv_pos_site_id
 _symmetry_equiv_pos_as_xyz
  1  'x, y, z'
loop_
 _atom_site_type_symbol
 _atom_site_label
 _atom_site_symmetry_multiplicity
 _atom_site_fract_x
 _atom_site_fract_y
 _atom_site_fract_z
 _atom_site_occupancy
 _atom_site_charge
  Cd  Cd1  1  0.440300  0.737610  0.524420  1.0  0.7793
  Cd  Cd2  1  0.940300  0.237610  0.524420  1.0  0.7793
  Cd  Cd3  1  0.440300  0.262390  0.024420  1.0  0.7795
  Cd  Cd4  1  0.940300  0.762390  0.024420  1.0  0.7795
  Cd  Cd5  1  0.559700  0.737610  0.975580  1.0  0.7788
  Cd  Cd6  1  0.059700  0.237610  0.975580  1.0  0.7788
  Cd  Cd7  1  0.559700  0.262390  0.475580  1.0  0.7791
  Cd  Cd8  1  0.059700  0.762390  0.475580  1.0  0.7791
  H  H9  1  0.425900  0.164300  0.123500  1.0  0.0616
  H  H10  1  0.490600  0.089900  0.176600  1.0  0.1035
  H  H11  1  0.601300  0.220200  0.056800  1.0  0.07
  H  H12  1  0.670900  0.142400  0.104200  1.0  0.1087
  H  H13  1  0.493000  0.905900  0.499200  1.0  0.066
  H  H14  1  0.565500  0.979700  0.451300  1.0  0.1122
  H  H15  1  0.608400  0.789000  0.376500  1.0  0.1186
  H  H16  1  0.542200  0.719600  0.429600  1.0  0.0742
  H  H17  1  0.696800  0.988300  0.432300  1.0  0.0991
  H  H18  1  0.500600  0.921100  0.341900  1.0  0.0875
  H  H19  1  0.480800  0.877600  0.294500  1.0  0.1146
  H  H20  1  0.503200  0.965000  0.293200  1.0  0.1115
  H  H21  1  0.871800  0.048200  0.320800  1.0  0.1182
  H  H22  1  0.874700  0.091200  0.271900  1.0  0.1451
  H  H23  1  0.845000  0.006400  0.274300  1.0  0.1282
  H  H24  1  0.834000  0.992000  0.440300  1.0  0.1184
  H  H25  1  0.909500  0.063100  0.488400  1.0  0.0656
  H  H26  1  0.852400  0.253500  0.424300  1.0  0.0643
  H  H27  1  0.777500  0.187100  0.372100  1.0  0.1151
  H  H28  1  0.681600  0.004800  0.116800  1.0  0.105
  H  H29  1  0.657500  0.170600  0.273100  1.0  0.0956
  H  H30  1  0.576300  0.198400  0.271300  1.0  0.1055
  H  H31  1  0.620000  0.191000  0.224200  1.0  0.0875
  H  H32  1  0.680500  0.812900  0.259700  1.0  0.123
  H  H33  1  0.757700  0.774900  0.265100  1.0  0.1275
  H  H34  1  0.724200  0.790700  0.214400  1.0  0.115
  H  H35  1  0.861700  0.892200  0.186900  1.0  0.1137
  H  H36  1  0.936100  0.832000  0.134100  1.0  0.0655
  H  H37  1  0.780200  0.819400  0.038600  1.0  0.0677
  H  H38  1  0.702400  0.884600  0.086800  1.0  0.1045
  H  H39  1  0.925900  0.664300  0.123500  1.0  0.0616
  H  H40  1  0.990600  0.589900  0.176600  1.0  0.1035
  H  H41  1  0.101300  0.720200  0.056800  1.0  0.07
  H  H42  1  0.170900  0.642400  0.104200  1.0  0.1087
  H  H43  1  0.993000  0.405900  0.499200  1.0  0.066
  H  H44  1  0.065500  0.479700  0.451300  1.0  0.1122
  H  H45  1  0.108400  0.289000  0.376500  1.0  0.1186
  H  H46  1  0.042200  0.219600  0.429600  1.0  0.0742
  H  H47  1  0.196800  0.488300  0.432300  1.0  0.0991
  H  H48  1  0.000600  0.421100  0.341900  1.0  0.0875
  H  H49  1  0.980800  0.377600  0.294500  1.0  0.1146
  H  H50  1  0.003200  0.465000  0.293200  1.0  0.1115
  H  H51  1  0.371800  0.548200  0.320800  1.0  0.1182
  H  H52  1  0.374700  0.591200  0.271900  1.0  0.1451
  H  H53  1  0.345000  0.506400  0.274300  1.0  0.1282
  H  H54  1  0.334000  0.492000  0.440300  1.0  0.1184
  H  H55  1  0.409500  0.563100  0.488400  1.0  0.0656
  H  H56  1  0.352400  0.753500  0.424300  1.0  0.0643
  H  H57  1  0.277500  0.687100  0.372100  1.0  0.1151
  H  H58  1  0.181600  0.504800  0.116800  1.0  0.105
  H  H59  1  0.157500  0.670600  0.273100  1.0  0.0956
  H  H60  1  0.076300  0.698400  0.271300  1.0  0.1055
  H  H61  1  0.120000  0.691000  0.224200  1.0  0.0875
  H  H62  1  0.180500  0.312900  0.259700  1.0  0.123
  H  H63  1  0.257700  0.274900  0.265100  1.0  0.1275
  H  H64  1  0.224200  0.290700  0.214400  1.0  0.115
  H  H65  1  0.361700  0.392200  0.186900  1.0  0.1137
  H  H66  1  0.436100  0.332000  0.134100  1.0  0.0654
  H  H67  1  0.280200  0.319400  0.038600  1.0  0.0677
  H  H68  1  0.202400  0.384600  0.086800  1.0  0.1045
  H  H69  1  0.425900  0.835700  0.623500  1.0  0.0615
  H  H70  1  0.490600  0.910100  0.676600  1.0  0.1035
  H  H71  1  0.601300  0.779800  0.556800  1.0  0.0691
  H  H72  1  0.670900  0.857600  0.604200  1.0  0.109
  H  H73  1  0.493000  0.094100  0.999200  1.0  0.066
  H  H74  1  0.565500  0.020300  0.951300  1.0  0.1124
  H  H75  1  0.608400  0.211000  0.876500  1.0  0.1192
  H  H76  1  0.542200  0.280400  0.929600  1.0  0.0745
  H  H77  1  0.696800  0.011700  0.932300  1.0  0.0991
  H  H78  1  0.500600  0.078900  0.841900  1.0  0.0874
  H  H79  1  0.480800  0.122400  0.794500  1.0  0.114
  H  H80  1  0.503200  0.035000  0.793200  1.0  0.1125
  H  H81  1  0.871800  0.951800  0.820800  1.0  0.1179
  H  H82  1  0.874700  0.908800  0.771900  1.0  0.1445
  H  H83  1  0.845000  0.993600  0.774300  1.0  0.1286
  H  H84  1  0.834000  0.008000  0.940300  1.0  0.1183
  H  H85  1  0.909500  0.936900  0.988400  1.0  0.066
  H  H86  1  0.852400  0.746500  0.924300  1.0  0.064
  H  H87  1  0.777500  0.812900  0.872100  1.0  0.1146
  H  H88  1  0.681600  0.995200  0.616800  1.0  0.1051
  H  H89  1  0.657500  0.829400  0.773100  1.0  0.0959
  H  H90  1  0.576300  0.801600  0.771300  1.0  0.1055
  H  H91  1  0.620000  0.809000  0.724200  1.0  0.0877
  H  H92  1  0.680500  0.187100  0.759700  1.0  0.1228
  H  H93  1  0.757700  0.225100  0.765100  1.0  0.1271
  H  H94  1  0.724200  0.209300  0.714400  1.0  0.1143
  H  H95  1  0.861700  0.107800  0.686900  1.0  0.1137
  H  H96  1  0.936100  0.168000  0.634100  1.0  0.0652
  H  H97  1  0.780200  0.180600  0.538600  1.0  0.0674
  H  H98  1  0.702400  0.115400  0.586800  1.0  0.1042
  H  H99  1  0.925900  0.335700  0.623500  1.0  0.0615
  H  H100  1  0.990600  0.410100  0.676600  1.0  0.1035
  H  H101  1  0.101300  0.279800  0.556800  1.0  0.0691
  H  H102  1  0.170900  0.357600  0.604200  1.0  0.109
  H  H103  1  0.993000  0.594100  0.999200  1.0  0.066
  H  H104  1  0.065500  0.520300  0.951300  1.0  0.1124
  H  H105  1  0.108400  0.711000  0.876500  1.0  0.1192
  H  H106  1  0.042200  0.780400  0.929600  1.0  0.0745
  H  H107  1  0.196800  0.511700  0.932300  1.0  0.0991
  H  H108  1  0.000600  0.578900  0.841900  1.0  0.0874
  H  H109  1  0.980800  0.622400  0.794500  1.0  0.114
  H  H110  1  0.003200  0.535000  0.793200  1.0  0.1125
  H  H111  1  0.371800  0.451800  0.820800  1.0  0.1179
  H  H112  1  0.374700  0.408800  0.771900  1.0  0.1445
  H  H113  1  0.345000  0.493600  0.774300  1.0  0.1286
  H  H114  1  0.334000  0.508000  0.940300  1.0  0.1183
  H  H115  1  0.409500  0.436900  0.988400  1.0  0.066
  H  H116  1  0.352400  0.246500  0.924300  1.0  0.064
  H  H117  1  0.277500  0.312900  0.872100  1.0  0.1146
  H  H118  1  0.181600  0.495200  0.616800  1.0  0.1051
  H  H119  1  0.157500  0.329400  0.773100  1.0  0.0959
  H  H120  1  0.076300  0.301600  0.771300  1.0  0.1055
  H  H121  1  0.120000  0.309000  0.724200  1.0  0.0877
  H  H122  1  0.180500  0.687100  0.759700  1.0  0.1228
  H  H123  1  0.257700  0.725100  0.765100  1.0  0.1271
  H  H124  1  0.224200  0.709300  0.714400  1.0  0.1143
  H  H125  1  0.361700  0.607800  0.686900  1.0  0.1137
  H  H126  1  0.436100  0.668000  0.634100  1.0  0.0652
  H  H127  1  0.280200  0.680600  0.538600  1.0  0.0674
  H  H128  1  0.202400  0.615400  0.586800  1.0  0.1042
  H  H129  1  0.574100  0.164300  0.376500  1.0  0.0629
  H  H130  1  0.509400  0.089900  0.323400  1.0  0.1035
  H  H131  1  0.398700  0.220200  0.443200  1.0  0.0703
  H  H132  1  0.329100  0.142400  0.395800  1.0  0.1107
  H  H133  1  0.507000  0.905900  0.000800  1.0  0.066
  H  H134  1  0.434500  0.979700  0.048700  1.0  0.1131
  H  H135  1  0.391600  0.789000  0.123500  1.0  0.1187
  H  H136  1  0.457800  0.719600  0.070400  1.0  0.075
  H  H137  1  0.303200  0.988300  0.067700  1.0  0.0983
  H  H138  1  0.499400  0.921100  0.158100  1.0  0.0865
  H  H139  1  0.519200  0.877600  0.205500  1.0  0.115
  H  H140  1  0.496800  0.965000  0.206800  1.0  0.1123
  H  H141  1  0.128200  0.048200  0.179200  1.0  0.1172
  H  H142  1  0.125300  0.091200  0.228100  1.0  0.1451
  H  H143  1  0.155000  0.006400  0.225700  1.0  0.126
  H  H144  1  0.166000  0.992000  0.059700  1.0  0.1182
  H  H145  1  0.090500  0.063100  0.011600  1.0  0.0653
  H  H146  1  0.147600  0.253500  0.075700  1.0  0.0648
  H  H147  1  0.222500  0.187100  0.127900  1.0  0.1146
  H  H148  1  0.318400  0.004800  0.383200  1.0  0.1045
  H  H149  1  0.342500  0.170600  0.226900  1.0  0.0956
  H  H150  1  0.423700  0.198400  0.228700  1.0  0.1052
  H  H151  1  0.380000  0.191000  0.275800  1.0  0.0854
  H  H152  1  0.319500  0.812900  0.240300  1.0  0.1228
  H  H153  1  0.242300  0.774900  0.234900  1.0  0.1274
  H  H154  1  0.275800  0.790700  0.285600  1.0  0.1156
  H  H155  1  0.138300  0.892200  0.313100  1.0  0.1131
  H  H156  1  0.063900  0.832000  0.365900  1.0  0.0646
  H  H157  1  0.219800  0.819400  0.461400  1.0  0.0674
  H  H158  1  0.297600  0.884600  0.413200  1.0  0.1045
  H  H159  1  0.074100  0.664300  0.376500  1.0  0.0629
  H  H160  1  0.009400  0.589900  0.323400  1.0  0.1035
  H  H161  1  0.898700  0.720200  0.443200  1.0  0.0703
  H  H162  1  0.829100  0.642400  0.395800  1.0  0.1107
  H  H163  1  0.007000  0.405900  0.000800  1.0  0.066
  H  H164  1  0.934500  0.479700  0.048700  1.0  0.1131
  H  H165  1  0.891600  0.289000  0.123500  1.0  0.1187
  H  H166  1  0.957800  0.219600  0.070400  1.0  0.075
  H  H167  1  0.803200  0.488300  0.067700  1.0  0.0983
  H  H168  1  0.999400  0.421100  0.158100  1.0  0.0865
  H  H169  1  0.019200  0.377600  0.205500  1.0  0.115
  H  H170  1  0.996800  0.465000  0.206800  1.0  0.1123
  H  H171  1  0.628200  0.548200  0.179200  1.0  0.1172
  H  H172  1  0.625300  0.591200  0.228100  1.0  0.1451
  H  H173  1  0.655000  0.506400  0.225700  1.0  0.126
  H  H174  1  0.666000  0.492000  0.059700  1.0  0.1182
  H  H175  1  0.590500  0.563100  0.011600  1.0  0.0653
  H  H176  1  0.647600  0.753500  0.075700  1.0  0.0648
  H  H177  1  0.722500  0.687100  0.127900  1.0  0.1146
  H  H178  1  0.818400  0.504800  0.383200  1.0  0.1045
  H  H179  1  0.842500  0.670600  0.226900  1.0  0.0956
  H  H180  1  0.923700  0.698400  0.228700  1.0  0.1052
  H  H181  1  0.880000  0.691000  0.275800  1.0  0.0854
  H  H182  1  0.819500  0.312900  0.240300  1.0  0.1228
  H  H183  1  0.742300  0.274900  0.234900  1.0  0.1274
  H  H184  1  0.775800  0.290700  0.285600  1.0  0.1156
  H  H185  1  0.638300  0.392200  0.313100  1.0  0.1131
  H  H186  1  0.563900  0.332000  0.365900  1.0  0.0647
  H  H187  1  0.719800  0.319400  0.461400  1.0  0.0674
  H  H188  1  0.797600  0.384600  0.413200  1.0  0.1045
  H  H189  1  0.574100  0.835700  0.876500  1.0  0.0635
  H  H190  1  0.509400  0.910100  0.823400  1.0  0.1034
  H  H191  1  0.398700  0.779800  0.943200  1.0  0.07
  H  H192  1  0.329100  0.857600  0.895800  1.0  0.1105
  H  H193  1  0.507000  0.094100  0.500800  1.0  0.0657
  H  H194  1  0.434500  0.020300  0.548700  1.0  0.1128
  H  H195  1  0.391600  0.211000  0.623500  1.0  0.1188
  H  H196  1  0.457800  0.280400  0.570400  1.0  0.0745
  H  H197  1  0.303200  0.011700  0.567700  1.0  0.0984
  H  H198  1  0.499400  0.078900  0.658100  1.0  0.0866
  H  H199  1  0.519200  0.122400  0.705500  1.0  0.1146
  H  H200  1  0.496800  0.035000  0.706800  1.0  0.1127
  H  H201  1  0.128200  0.951800  0.679200  1.0  0.1171
  H  H202  1  0.125300  0.908800  0.728100  1.0  0.1459
  H  H203  1  0.155000  0.993600  0.725700  1.0  0.1254
  H  H204  1  0.166000  0.008000  0.559700  1.0  0.1185
  H  H205  1  0.090500  0.936900  0.511600  1.0  0.0655
  H  H206  1  0.147600  0.746500  0.575700  1.0  0.0653
  H  H207  1  0.222500  0.812900  0.627900  1.0  0.115
  H  H208  1  0.318400  0.995200  0.883200  1.0  0.1049
  H  H209  1  0.342500  0.829400  0.726900  1.0  0.0951
  H  H210  1  0.423700  0.801600  0.728700  1.0  0.1047
  H  H211  1  0.380000  0.809000  0.775800  1.0  0.0864
  H  H212  1  0.319500  0.187100  0.740300  1.0  0.1225
  H  H213  1  0.242300  0.225100  0.734900  1.0  0.1276
  H  H214  1  0.275800  0.209300  0.785600  1.0  0.1156
  H  H215  1  0.138300  0.107800  0.813100  1.0  0.1132
  H  H216  1  0.063900  0.168000  0.865900  1.0  0.0644
  H  H217  1  0.219800  0.180600  0.961400  1.0  0.0673
  H  H218  1  0.297600  0.115400  0.913200  1.0  0.1048
  H  H219  1  0.074100  0.335700  0.876500  1.0  0.0635
  H  H220  1  0.009400  0.410100  0.823400  1.0  0.1034
  H  H221  1  0.898700  0.279800  0.943200  1.0  0.07
  H  H222  1  0.829100  0.357600  0.895800  1.0  0.1105
  H  H223  1  0.007000  0.594100  0.500800  1.0  0.0657
  H  H224  1  0.934500  0.520300  0.548700  1.0  0.1128
  H  H225  1  0.891600  0.711000  0.623500  1.0  0.1188
  H  H226  1  0.957800  0.780400  0.570400  1.0  0.0745
  H  H227  1  0.803200  0.511700  0.567700  1.0  0.0984
  H  H228  1  0.999400  0.578900  0.658100  1.0  0.0866
  H  H229  1  0.019200  0.622400  0.705500  1.0  0.1146
  H  H230  1  0.996800  0.535000  0.706800  1.0  0.1127
  H  H231  1  0.628200  0.451800  0.679200  1.0  0.1171
  H  H232  1  0.625300  0.408800  0.728100  1.0  0.1459
  H  H233  1  0.655000  0.493600  0.725700  1.0  0.1254
  H  H234  1  0.666000  0.508000  0.559700  1.0  0.1185
  H  H235  1  0.590500  0.436900  0.511600  1.0  0.0655
  H  H236  1  0.647600  0.246500  0.575700  1.0  0.0653
  H  H237  1  0.722500  0.312900  0.627900  1.0  0.115
  H  H238  1  0.818400  0.495200  0.883200  1.0  0.1049
  H  H239  1  0.842500  0.329400  0.726900  1.0  0.0951
  H  H240  1  0.923700  0.301600  0.728700  1.0  0.1047
  H  H241  1  0.880000  0.309000  0.775800  1.0  0.0864
  H  H242  1  0.819500  0.687100  0.740300  1.0  0.1225
  H  H243  1  0.742300  0.725100  0.734900  1.0  0.1276
  H  H244  1  0.775800  0.709300  0.785600  1.0  0.1156
  H  H245  1  0.638300  0.607800  0.813100  1.0  0.1132
  H  H246  1  0.563900  0.668000  0.865900  1.0  0.0644
  H  H247  1  0.719800  0.680600  0.961400  1.0  0.0673
  H  H248  1  0.797600  0.615400  0.913200  1.0  0.1048
  C  C249  1  0.475900  0.160000  0.119970  1.0  0.1631
  C  C250  1  0.514400  0.114100  0.151760  1.0  -0.2279
  C  C251  1  0.589800  0.104500  0.146260  1.0  0.0454
  C  C252  1  0.578800  0.191900  0.080470  1.0  0.1619
  C  C253  1  0.621100  0.146000  0.109230  1.0  -0.2138
  C  C254  1  0.517900  0.882000  0.474790  1.0  0.1609
  C  C255  1  0.560200  0.927100  0.445460  1.0  -0.24
  C  C256  1  0.594400  0.893200  0.407700  1.0  0.0935
  C  C257  1  0.586400  0.814000  0.401720  1.0  -0.2184
  C  C258  1  0.545800  0.772800  0.433460  1.0  0.1477
  C  C259  1  0.640900  0.941800  0.377100  1.0  0.0023
  C  C260  1  0.692900  0.988500  0.399330  1.0  -0.1021
  C  C261  1  0.739500  0.035700  0.373640  1.0  0.0025
  C  C262  1  0.732800  0.036200  0.324260  1.0  0.1599
  C  C263  1  0.635900  0.942000  0.327770  1.0  0.2227
  C  C264  1  0.680700  0.988600  0.300970  1.0  -0.0236
  C  C265  1  0.511500  0.916300  0.308760  1.0  -0.0606
  C  C266  1  0.847700  0.055100  0.290530  1.0  -0.0529
  C  C267  1  0.794300  0.081800  0.401280  1.0  0.0953
  C  C268  1  0.836400  0.045300  0.436490  1.0  -0.2297
  C  C269  1  0.881400  0.088500  0.465370  1.0  0.157
  C  C270  1  0.848200  0.200200  0.427490  1.0  0.1789
  C  C271  1  0.802400  0.160800  0.396160  1.0  -0.2018
  C  C272  1  0.677100  0.989800  0.248130  1.0  -0.0885
  C  C273  1  0.719900  0.939900  0.221930  1.0  0.2095
  C  C274  1  0.723300  0.945200  0.172420  1.0  -0.0327
  C  C275  1  0.679900  0.000600  0.149730  1.0  -0.1748
  C  C276  1  0.634200  0.049800  0.174500  1.0  -0.0091
  C  C277  1  0.634000  0.044500  0.223830  1.0  0.181
  C  C278  1  0.612600  0.169100  0.255110  1.0  -0.0386
  C  C279  1  0.728100  0.809600  0.246400  1.0  -0.0473
  C  C280  1  0.772500  0.897800  0.142770  1.0  0.0744
  C  C281  1  0.844200  0.879600  0.156630  1.0  -0.2293
  C  C282  1  0.888300  0.842700  0.124650  1.0  0.1546
  C  C283  1  0.797200  0.835900  0.068250  1.0  0.1672
  C  C284  1  0.749700  0.874300  0.097410  1.0  -0.2094
  C  C285  1  0.975900  0.660000  0.119970  1.0  0.1631
  C  C286  1  0.014400  0.614100  0.151760  1.0  -0.2279
  C  C287  1  0.089800  0.604500  0.146260  1.0  0.0454
  C  C288  1  0.078800  0.691900  0.080470  1.0  0.1619
  C  C289  1  0.121100  0.646000  0.109230  1.0  -0.2138
  C  C290  1  0.017900  0.382000  0.474790  1.0  0.1609
  C  C291  1  0.060200  0.427100  0.445460  1.0  -0.24
  C  C292  1  0.094400  0.393200  0.407700  1.0  0.0935
  C  C293  1  0.086400  0.314000  0.401720  1.0  -0.2184
  C  C294  1  0.045800  0.272800  0.433460  1.0  0.1477
  C  C295  1  0.140900  0.441800  0.377100  1.0  0.0023
  C  C296  1  0.192900  0.488500  0.399330  1.0  -0.1021
  C  C297  1  0.239500  0.535700  0.373640  1.0  0.0025
  C  C298  1  0.232800  0.536200  0.324260  1.0  0.1599
  C  C299  1  0.135900  0.442000  0.327770  1.0  0.2227
  C  C300  1  0.180700  0.488600  0.300970  1.0  -0.0236
  C  C301  1  0.011500  0.416300  0.308760  1.0  -0.0606
  C  C302  1  0.347700  0.555100  0.290530  1.0  -0.0529
  C  C303  1  0.294300  0.581800  0.401280  1.0  0.0953
  C  C304  1  0.336400  0.545300  0.436490  1.0  -0.2297
  C  C305  1  0.381400  0.588500  0.465370  1.0  0.157
  C  C306  1  0.348200  0.700200  0.427490  1.0  0.1789
  C  C307  1  0.302400  0.660800  0.396160  1.0  -0.2018
  C  C308  1  0.177100  0.489800  0.248130  1.0  -0.0885
  C  C309  1  0.219900  0.439900  0.221930  1.0  0.2095
  C  C310  1  0.223300  0.445200  0.172420  1.0  -0.0327
  C  C311  1  0.179900  0.500600  0.149730  1.0  -0.1748
  C  C312  1  0.134200  0.549800  0.174500  1.0  -0.0091
  C  C313  1  0.134000  0.544500  0.223830  1.0  0.181
  C  C314  1  0.112600  0.669100  0.255110  1.0  -0.0386
  C  C315  1  0.228100  0.309600  0.246400  1.0  -0.0473
  C  C316  1  0.272500  0.397800  0.142770  1.0  0.0744
  C  C317  1  0.344200  0.379600  0.156630  1.0  -0.2293
  C  C318  1  0.388300  0.342700  0.124650  1.0  0.1546
  C  C319  1  0.297200  0.335900  0.068250  1.0  0.1672
  C  C320  1  0.249700  0.374300  0.097410  1.0  -0.2094
  C  C321  1  0.475900  0.840000  0.619970  1.0  0.1633
  C  C322  1  0.514400  0.885900  0.651760  1.0  -0.2287
  C  C323  1  0.589800  0.895500  0.646260  1.0  0.0448
  C  C324  1  0.578800  0.808100  0.580470  1.0  0.1604
  C  C325  1  0.621100  0.854000  0.609230  1.0  -0.2145
  C  C326  1  0.517900  0.118000  0.974790  1.0  0.1606
  C  C327  1  0.560200  0.072900  0.945460  1.0  -0.24
  C  C328  1  0.594400  0.106800  0.907700  1.0  0.0933
  C  C329  1  0.586400  0.186000  0.901720  1.0  -0.2189
  C  C330  1  0.545800  0.227200  0.933460  1.0  0.1473
  C  C331  1  0.640900  0.058200  0.877100  1.0  0.0029
  C  C332  1  0.692900  0.011500  0.899330  1.0  -0.1016
  C  C333  1  0.739500  0.964300  0.873640  1.0  0.0035
  C  C334  1  0.732800  0.963800  0.824260  1.0  0.1604
  C  C335  1  0.635900  0.058000  0.827770  1.0  0.2224
  C  C336  1  0.680700  0.011400  0.800970  1.0  -0.0237
  C  C337  1  0.511500  0.083700  0.808760  1.0  -0.0593
  C  C338  1  0.847700  0.944900  0.790530  1.0  -0.0523
  C  C339  1  0.794300  0.918200  0.901280  1.0  0.0951
  C  C340  1  0.836400  0.954700  0.936490  1.0  -0.2304
  C  C341  1  0.881400  0.911500  0.965370  1.0  0.1563
  C  C342  1  0.848200  0.799800  0.927490  1.0  0.1801
  C  C343  1  0.802400  0.839200  0.896160  1.0  -0.2026
  C  C344  1  0.677100  0.010200  0.748130  1.0  -0.0886
  C  C345  1  0.719900  0.060100  0.721930  1.0  0.2098
  C  C346  1  0.723300  0.054800  0.672420  1.0  -0.0319
  C  C347  1  0.679900  0.999400  0.649730  1.0  -0.1736
  C  C348  1  0.634200  0.950200  0.674500  1.0  -0.0104
  C  C349  1  0.634000  0.955500  0.723830  1.0  0.181
  C  C350  1  0.612600  0.830900  0.755110  1.0  -0.0401
  C  C351  1  0.728100  0.190400  0.746400  1.0  -0.047
  C  C352  1  0.772500  0.102200  0.642770  1.0  0.0741
  C  C353  1  0.844200  0.120400  0.656630  1.0  -0.2284
  C  C354  1  0.888300  0.157300  0.624650  1.0  0.1545
  C  C355  1  0.797200  0.164100  0.568250  1.0  0.1671
  C  C356  1  0.749700  0.125700  0.597410  1.0  -0.2097
  C  C357  1  0.975900  0.340000  0.619970  1.0  0.1633
  C  C358  1  0.014400  0.385900  0.651760  1.0  -0.2287
  C  C359  1  0.089800  0.395500  0.646260  1.0  0.0448
  C  C360  1  0.078800  0.308100  0.580470  1.0  0.1604
  C  C361  1  0.121100  0.354000  0.609230  1.0  -0.2145
  C  C362  1  0.017900  0.618000  0.974790  1.0  0.1606
  C  C363  1  0.060200  0.572900  0.945460  1.0  -0.24
  C  C364  1  0.094400  0.606800  0.907700  1.0  0.0933
  C  C365  1  0.086400  0.686000  0.901720  1.0  -0.2189
  C  C366  1  0.045800  0.727200  0.933460  1.0  0.1473
  C  C367  1  0.140900  0.558200  0.877100  1.0  0.0029
  C  C368  1  0.192900  0.511500  0.899330  1.0  -0.1016
  C  C369  1  0.239500  0.464300  0.873640  1.0  0.0035
  C  C370  1  0.232800  0.463800  0.824260  1.0  0.1604
  C  C371  1  0.135900  0.558000  0.827770  1.0  0.2224
  C  C372  1  0.180700  0.511400  0.800970  1.0  -0.0237
  C  C373  1  0.011500  0.583700  0.808760  1.0  -0.0593
  C  C374  1  0.347700  0.444900  0.790530  1.0  -0.0523
  C  C375  1  0.294300  0.418200  0.901280  1.0  0.0951
  C  C376  1  0.336400  0.454700  0.936490  1.0  -0.2304
  C  C377  1  0.381400  0.411500  0.965370  1.0  0.1563
  C  C378  1  0.348200  0.299800  0.927490  1.0  0.1801
  C  C379  1  0.302400  0.339200  0.896160  1.0  -0.2026
  C  C380  1  0.177100  0.510200  0.748130  1.0  -0.0886
  C  C381  1  0.219900  0.560100  0.721930  1.0  0.2098
  C  C382  1  0.223300  0.554800  0.672420  1.0  -0.0319
  C  C383  1  0.179900  0.499400  0.649730  1.0  -0.1736
  C  C384  1  0.134200  0.450200  0.674500  1.0  -0.0104
  C  C385  1  0.134000  0.455500  0.723830  1.0  0.181
  C  C386  1  0.112600  0.330900  0.755110  1.0  -0.0401
  C  C387  1  0.228100  0.690400  0.746400  1.0  -0.047
  C  C388  1  0.272500  0.602200  0.642770  1.0  0.0741
  C  C389  1  0.344200  0.620400  0.656630  1.0  -0.2284
  C  C390  1  0.388300  0.657300  0.624650  1.0  0.1545
  C  C391  1  0.297200  0.664100  0.568250  1.0  0.1671
  C  C392  1  0.249700  0.625700  0.597410  1.0  -0.2097
  C  C393  1  0.524100  0.160000  0.380030  1.0  0.1659
  C  C394  1  0.485600  0.114100  0.348240  1.0  -0.229
  C  C395  1  0.410200  0.104500  0.353740  1.0  0.0458
  C  C396  1  0.421200  0.191900  0.419530  1.0  0.1621
  C  C397  1  0.378900  0.146000  0.390770  1.0  -0.2152
  C  C398  1  0.482100  0.882000  0.025210  1.0  0.1614
  C  C399  1  0.439800  0.927100  0.054540  1.0  -0.2399
  C  C400  1  0.405600  0.893200  0.092300  1.0  0.0924
  C  C401  1  0.413600  0.814000  0.098280  1.0  -0.2172
  C  C402  1  0.454200  0.772800  0.066540  1.0  0.1482
  C  C403  1  0.359100  0.941800  0.122900  1.0  0.0023
  C  C404  1  0.307100  0.988500  0.100670  1.0  -0.1029
  C  C405  1  0.260500  0.035700  0.126360  1.0  0.0028
  C  C406  1  0.267200  0.036200  0.175740  1.0  0.1596
  C  C407  1  0.364100  0.942000  0.172230  1.0  0.2217
  C  C408  1  0.319300  0.988600  0.199030  1.0  -0.023
  C  C409  1  0.488500  0.916300  0.191240  1.0  -0.0612
  C  C410  1  0.152300  0.055100  0.209470  1.0  -0.052
  C  C411  1  0.205700  0.081800  0.098720  1.0  0.096
  C  C412  1  0.163600  0.045300  0.063510  1.0  -0.2295
  C  C413  1  0.118600  0.088500  0.034630  1.0  0.1558
  C  C414  1  0.151800  0.200200  0.072510  1.0  0.1789
  C  C415  1  0.197600  0.160800  0.103840  1.0  -0.2019
  C  C416  1  0.322900  0.989800  0.251870  1.0  -0.0895
  C  C417  1  0.280100  0.939900  0.278070  1.0  0.21
  C  C418  1  0.276700  0.945200  0.327580  1.0  -0.0327
  C  C419  1  0.320100  0.000600  0.350270  1.0  -0.1748
  C  C420  1  0.365800  0.049800  0.325500  1.0  -0.012
  C  C421  1  0.366000  0.044500  0.276170  1.0  0.1811
  C  C422  1  0.387400  0.169100  0.244890  1.0  -0.0391
  C  C423  1  0.271900  0.809600  0.253600  1.0  -0.0484
  C  C424  1  0.227500  0.897800  0.357230  1.0  0.0744
  C  C425  1  0.155800  0.879600  0.343370  1.0  -0.2301
  C  C426  1  0.111700  0.842700  0.375350  1.0  0.1553
  C  C427  1  0.202800  0.835900  0.431750  1.0  0.1663
  C  C428  1  0.250300  0.874300  0.402590  1.0  -0.2085
  C  C429  1  0.024100  0.660000  0.380030  1.0  0.1659
  C  C430  1  0.985600  0.614100  0.348240  1.0  -0.229
  C  C431  1  0.910200  0.604500  0.353740  1.0  0.0458
  C  C432  1  0.921200  0.691900  0.419530  1.0  0.1621
  C  C433  1  0.878900  0.646000  0.390770  1.0  -0.2152
  C  C434  1  0.982100  0.382000  0.025210  1.0  0.1614
  C  C435  1  0.939800  0.427100  0.054540  1.0  -0.2399
  C  C436  1  0.905600  0.393200  0.092300  1.0  0.0924
  C  C437  1  0.913600  0.314000  0.098280  1.0  -0.2172
  C  C438  1  0.954200  0.272800  0.066540  1.0  0.1482
  C  C439  1  0.859100  0.441800  0.122900  1.0  0.0023
  C  C440  1  0.807100  0.488500  0.100670  1.0  -0.1029
  C  C441  1  0.760500  0.535700  0.126360  1.0  0.0028
  C  C442  1  0.767200  0.536200  0.175740  1.0  0.1596
  C  C443  1  0.864100  0.442000  0.172230  1.0  0.2217
  C  C444  1  0.819300  0.488600  0.199030  1.0  -0.023
  C  C445  1  0.988500  0.416300  0.191240  1.0  -0.0612
  C  C446  1  0.652300  0.555100  0.209470  1.0  -0.052
  C  C447  1  0.705700  0.581800  0.098720  1.0  0.096
  C  C448  1  0.663600  0.545300  0.063510  1.0  -0.2295
  C  C449  1  0.618600  0.588500  0.034630  1.0  0.1558
  C  C450  1  0.651800  0.700200  0.072510  1.0  0.1789
  C  C451  1  0.697600  0.660800  0.103840  1.0  -0.2019
  C  C452  1  0.822900  0.489800  0.251870  1.0  -0.0895
  C  C453  1  0.780100  0.439900  0.278070  1.0  0.21
  C  C454  1  0.776700  0.445200  0.327580  1.0  -0.0327
  C  C455  1  0.820100  0.500600  0.350270  1.0  -0.1748
  C  C456  1  0.865800  0.549800  0.325500  1.0  -0.012
  C  C457  1  0.866000  0.544500  0.276170  1.0  0.1811
  C  C458  1  0.887400  0.669100  0.244890  1.0  -0.0391
  C  C459  1  0.771900  0.309600  0.253600  1.0  -0.0484
  C  C460  1  0.727500  0.397800  0.357230  1.0  0.0744
  C  C461  1  0.655800  0.379600  0.343370  1.0  -0.2301
  C  C462  1  0.611700  0.342700  0.375350  1.0  0.1553
  C  C463  1  0.702800  0.335900  0.431750  1.0  0.1663
  C  C464  1  0.750300  0.374300  0.402590  1.0  -0.2085
  C  C465  1  0.524100  0.840000  0.880030  1.0  0.1656
  C  C466  1  0.485600  0.885900  0.848240  1.0  -0.2293
  C  C467  1  0.410200  0.895500  0.853740  1.0  0.0451
  C  C468  1  0.421200  0.808100  0.919530  1.0  0.1625
  C  C469  1  0.378900  0.854000  0.890770  1.0  -0.2139
  C  C470  1  0.482100  0.118000  0.525210  1.0  0.1613
  C  C471  1  0.439800  0.072900  0.554540  1.0  -0.2408
  C  C472  1  0.405600  0.106800  0.592300  1.0  0.0926
  C  C473  1  0.413600  0.186000  0.598280  1.0  -0.2174
  C  C474  1  0.454200  0.227200  0.566540  1.0  0.1476
  C  C475  1  0.359100  0.058200  0.622900  1.0  0.0024
  C  C476  1  0.307100  0.011500  0.600670  1.0  -0.1034
  C  C477  1  0.260500  0.964300  0.626360  1.0  0.0031
  C  C478  1  0.267200  0.963800  0.675740  1.0  0.1601
  C  C479  1  0.364100  0.058000  0.672230  1.0  0.2216
  C  C480  1  0.319300  0.011400  0.699030  1.0  -0.023
  C  C481  1  0.488500  0.083700  0.691240  1.0  -0.0599
  C  C482  1  0.152300  0.944900  0.709470  1.0  -0.0509
  C  C483  1  0.205700  0.918200  0.598720  1.0  0.0962
  C  C484  1  0.163600  0.954700  0.563510  1.0  -0.2287
  C  C485  1  0.118600  0.911500  0.534630  1.0  0.1561
  C  C486  1  0.151800  0.799800  0.572510  1.0  0.1793
  C  C487  1  0.197600  0.839200  0.603840  1.0  -0.2025
  C  C488  1  0.322900  0.010200  0.751870  1.0  -0.0894
  C  C489  1  0.280100  0.060100  0.778070  1.0  0.21
  C  C490  1  0.276700  0.054800  0.827580  1.0  -0.0323
  C  C491  1  0.320100  0.999400  0.850270  1.0  -0.1749
  C  C492  1  0.365800  0.950200  0.825500  1.0  -0.0123
  C  C493  1  0.366000  0.955500  0.776170  1.0  0.1812
  C  C494  1  0.387400  0.830900  0.744890  1.0  -0.04
  C  C495  1  0.271900  0.190400  0.753600  1.0  -0.0474
  C  C496  1  0.227500  0.102200  0.857230  1.0  0.0737
  C  C497  1  0.155800  0.120400  0.843370  1.0  -0.2301
  C  C498  1  0.111700  0.157300  0.875350  1.0  0.1563
  C  C499  1  0.202800  0.164100  0.931750  1.0  0.1664
  C  C500  1  0.250300  0.125700  0.902590  1.0  -0.2084
  C  C501  1  0.024100  0.340000  0.880030  1.0  0.1656
  C  C502  1  0.985600  0.385900  0.848240  1.0  -0.2293
  C  C503  1  0.910200  0.395500  0.853740  1.0  0.0451
  C  C504  1  0.921200  0.308100  0.919530  1.0  0.1625
  C  C505  1  0.878900  0.354000  0.890770  1.0  -0.2139
  C  C506  1  0.982100  0.618000  0.525210  1.0  0.1613
  C  C507  1  0.939800  0.572900  0.554540  1.0  -0.2408
  C  C508  1  0.905600  0.606800  0.592300  1.0  0.0926
  C  C509  1  0.913600  0.686000  0.598280  1.0  -0.2174
  C  C510  1  0.954200  0.727200  0.566540  1.0  0.1476
  C  C511  1  0.859100  0.558200  0.622900  1.0  0.0024
  C  C512  1  0.807100  0.511500  0.600670  1.0  -0.1034
  C  C513  1  0.760500  0.464300  0.626360  1.0  0.0031
  C  C514  1  0.767200  0.463800  0.675740  1.0  0.1601
  C  C515  1  0.864100  0.558000  0.672230  1.0  0.2216
  C  C516  1  0.819300  0.511400  0.699030  1.0  -0.023
  C  C517  1  0.988500  0.583700  0.691240  1.0  -0.0599
  C  C518  1  0.652300  0.444900  0.709470  1.0  -0.0509
  C  C519  1  0.705700  0.418200  0.598720  1.0  0.0962
  C  C520  1  0.663600  0.454700  0.563510  1.0  -0.2287
  C  C521  1  0.618600  0.411500  0.534630  1.0  0.1561
  C  C522  1  0.651800  0.299800  0.572510  1.0  0.1793
  C  C523  1  0.697600  0.339200  0.603840  1.0  -0.2025
  C  C524  1  0.822900  0.510200  0.751870  1.0  -0.0894
  C  C525  1  0.780100  0.560100  0.778070  1.0  0.21
  C  C526  1  0.776700  0.554800  0.827580  1.0  -0.0323
  C  C527  1  0.820100  0.499400  0.850270  1.0  -0.1749
  C  C528  1  0.865800  0.450200  0.825500  1.0  -0.0123
  C  C529  1  0.866000  0.455500  0.776170  1.0  0.1812
  C  C530  1  0.887400  0.330900  0.744890  1.0  -0.04
  C  C531  1  0.771900  0.690400  0.753600  1.0  -0.0474
  C  C532  1  0.727500  0.602200  0.857230  1.0  0.0737
  C  C533  1  0.655800  0.620400  0.843370  1.0  -0.2301
  C  C534  1  0.611700  0.657300  0.875350  1.0  0.1563
  C  C535  1  0.702800  0.664100  0.931750  1.0  0.1664
  C  C536  1  0.750300  0.625700  0.902590  1.0  -0.2084
  N  N537  1  0.511300  0.805600  0.469460  1.0  -0.3563
  N  N538  1  0.887000  0.165100  0.462170  1.0  -0.3572
  N  N539  1  0.866700  0.821200  0.080550  1.0  -0.3569
  N  N540  1  0.506310  0.198100  0.084760  1.0  -0.3625
  N  N541  1  0.011300  0.305600  0.469460  1.0  -0.3563
  N  N542  1  0.387000  0.665100  0.462170  1.0  -0.3572
  N  N543  1  0.366700  0.321200  0.080550  1.0  -0.3569
  N  N544  1  0.006310  0.698100  0.084760  1.0  -0.3625
  N  N545  1  0.511300  0.194400  0.969460  1.0  -0.3564
  N  N546  1  0.887000  0.834900  0.962170  1.0  -0.3569
  N  N547  1  0.866700  0.178800  0.580550  1.0  -0.357
  N  N548  1  0.506310  0.801900  0.584760  1.0  -0.3639
  N  N549  1  0.011300  0.694400  0.969460  1.0  -0.3564
  N  N550  1  0.387000  0.334900  0.962170  1.0  -0.3569
  N  N551  1  0.366700  0.678800  0.580550  1.0  -0.357
  N  N552  1  0.006310  0.301900  0.584760  1.0  -0.3639
  N  N553  1  0.488700  0.805600  0.030540  1.0  -0.3573
  N  N554  1  0.113000  0.165100  0.037830  1.0  -0.3576
  N  N555  1  0.133300  0.821200  0.419450  1.0  -0.3549
  N  N556  1  0.493690  0.198100  0.415240  1.0  -0.3625
  N  N557  1  0.988700  0.305600  0.030540  1.0  -0.3573
  N  N558  1  0.613000  0.665100  0.037830  1.0  -0.3576
  N  N559  1  0.633300  0.321200  0.419450  1.0  -0.3549
  N  N560  1  0.993690  0.698100  0.415240  1.0  -0.3625
  N  N561  1  0.488700  0.194400  0.530540  1.0  -0.3572
  N  N562  1  0.113000  0.834900  0.537830  1.0  -0.3578
  N  N563  1  0.133300  0.178800  0.919450  1.0  -0.356
  N  N564  1  0.493690  0.801900  0.915240  1.0  -0.3619
  N  N565  1  0.988700  0.694400  0.530540  1.0  -0.3572
  N  N566  1  0.613000  0.334900  0.537830  1.0  -0.3578
  N  N567  1  0.633300  0.678800  0.919450  1.0  -0.356
  N  N568  1  0.993690  0.301900  0.915240  1.0  -0.3619
  Cl  Cl569  1  0.540950  0.626990  0.531460  1.0  -0.6005
  Cl  Cl570  1  0.347910  0.850100  0.518190  1.0  -0.5935
  Cl  Cl571  1  0.040950  0.126990  0.531460  1.0  -0.6005
  Cl  Cl572  1  0.847910  0.350100  0.518190  1.0  -0.5935
  Cl  Cl573  1  0.540950  0.373010  0.031460  1.0  -0.6003
  Cl  Cl574  1  0.347910  0.149900  0.018190  1.0  -0.5933
  Cl  Cl575  1  0.040950  0.873010  0.031460  1.0  -0.6003
  Cl  Cl576  1  0.847910  0.649900  0.018190  1.0  -0.5933
  Cl  Cl577  1  0.459050  0.626990  0.968540  1.0  -0.6005
  Cl  Cl578  1  0.652090  0.850100  0.981810  1.0  -0.593
  Cl  Cl579  1  0.959050  0.126990  0.968540  1.0  -0.6005
  Cl  Cl580  1  0.152090  0.350100  0.981810  1.0  -0.593
  Cl  Cl581  1  0.459050  0.373010  0.468540  1.0  -0.6003
  Cl  Cl582  1  0.652090  0.149900  0.481810  1.0  -0.5926
  Cl  Cl583  1  0.959050  0.873010  0.468540  1.0  -0.6003
  Cl  Cl584  1  0.152090  0.649900  0.481810  1.0  -0.5926
  O  O585  1  0.587140  0.894250  0.303850  1.0  -0.2895
  O  O586  1  0.774850  0.084480  0.297570  1.0  -0.2768
  O  O587  1  0.761350  0.885470  0.246340  1.0  -0.2618
  O  O588  1  0.589010  0.090990  0.250170  1.0  -0.2916
  O  O589  1  0.087140  0.394250  0.303850  1.0  -0.2895
  O  O590  1  0.274850  0.584480  0.297570  1.0  -0.2768
  O  O591  1  0.261350  0.385470  0.246340  1.0  -0.2618
  O  O592  1  0.089010  0.590990  0.250170  1.0  -0.2916
  O  O593  1  0.587140  0.105750  0.803850  1.0  -0.2903
  O  O594  1  0.774850  0.915520  0.797570  1.0  -0.277
  O  O595  1  0.761350  0.114530  0.746340  1.0  -0.2615
  O  O596  1  0.589010  0.909010  0.750170  1.0  -0.2921
  O  O597  1  0.087140  0.605750  0.803850  1.0  -0.2903
  O  O598  1  0.274850  0.415520  0.797570  1.0  -0.277
  O  O599  1  0.261350  0.614530  0.746340  1.0  -0.2615
  O  O600  1  0.089010  0.409010  0.750170  1.0  -0.2921
  O  O601  1  0.412860  0.894250  0.196150  1.0  -0.29
  O  O602  1  0.225150  0.084480  0.202430  1.0  -0.2782
  O  O603  1  0.238650  0.885470  0.253660  1.0  -0.2618
  O  O604  1  0.410990  0.090990  0.249830  1.0  -0.2894
  O  O605  1  0.912860  0.394250  0.196150  1.0  -0.29
  O  O606  1  0.725150  0.584480  0.202430  1.0  -0.2782
  O  O607  1  0.738650  0.385470  0.253660  1.0  -0.2618
  O  O608  1  0.910990  0.590990  0.249830  1.0  -0.2894
  O  O609  1  0.412860  0.105750  0.696150  1.0  -0.2889
  O  O610  1  0.225150  0.915520  0.702430  1.0  -0.2766
  O  O611  1  0.238650  0.114530  0.753660  1.0  -0.2613
  O  O612  1  0.410990  0.909010  0.749830  1.0  -0.2902
  O  O613  1  0.912860  0.605750  0.696150  1.0  -0.2889
  O  O614  1  0.725150  0.415520  0.702430  1.0  -0.2766
  O  O615  1  0.738650  0.614530  0.753660  1.0  -0.2613
  O  O616  1  0.910990  0.409010  0.749830  1.0  -0.2902
