# generated using pymatgen
data_AgH30C36(NO)4
_symmetry_space_group_name_H-M   'P 1'
_cell_length_a   17.09800000
_cell_length_b   26.43500000
_cell_length_c   12.83800000
_cell_angle_alpha   90.00000000
_cell_angle_beta   129.16600000
_cell_angle_gamma   90.00000000
_symmetry_Int_Tables_number   1
_chemical_formula_structural   AgH30C36(NO)4
_chemical_formula_sum   'Ag4 H120 C144 N16 O16'
_cell_volume   4498.86180882
_cell_formula_units_Z   4
loop_
 _symmetry_equiv_pos_site_id
 _symmetry_equiv_pos_as_xyz
  1  'x, y, z'
loop_
 _atom_site_type_symbol
 _atom_site_label
 _atom_site_symmetry_multiplicity
 _atom_site_fract_x
 _atom_site_fract_y
 _atom_site_fract_z
 _atom_site_occupancy
 _atom_site_charge
  Ag  Ag1  1  0.500000  0.032430  0.750000  1.0  0.3821
  Ag  Ag2  1  0.000000  0.532430  0.750000  1.0  0.3821
  Ag  Ag3  1  0.500000  0.967570  0.250000  1.0  0.3815
  Ag  Ag4  1  0.000000  0.467570  0.250000  1.0  0.3815
  H  H5  1  0.409000  0.945800  0.531500  1.0  0.0435
  H  H6  1  0.268300  0.895700  0.387000  1.0  0.0903
  H  H7  1  0.134100  0.971100  0.503400  1.0  0.0954
  H  H8  1  0.276700  0.016600  0.647200  1.0  0.0516
  H  H9  1  0.163000  0.776600  0.209600  1.0  0.1101
  H  H10  1  0.116500  0.784500  0.059400  1.0  0.128
  H  H11  1  0.136800  0.729700  0.118100  1.0  0.1047
  H  H12  1  0.234600  0.840800  0.589000  1.0  0.0796
  H  H13  1  0.278800  0.788900  0.588900  1.0  0.0895
  H  H14  1  0.169400  0.791500  0.542900  1.0  0.093
  H  H15  1  0.120300  0.554200  0.062400  1.0  0.053
  H  H16  1  0.127300  0.606000  0.205900  1.0  0.0682
  H  H17  1  0.903000  0.687600  0.894600  1.0  0.1021
  H  H18  1  0.904400  0.633400  0.757800  1.0  0.0538
  H  H19  1  0.909000  0.445800  0.531500  1.0  0.0435
  H  H20  1  0.768300  0.395700  0.387000  1.0  0.0903
  H  H21  1  0.634100  0.471100  0.503400  1.0  0.0954
  H  H22  1  0.776700  0.516600  0.647200  1.0  0.0516
  H  H23  1  0.663000  0.276600  0.209600  1.0  0.1101
  H  H24  1  0.616500  0.284500  0.059400  1.0  0.128
  H  H25  1  0.636800  0.229700  0.118100  1.0  0.1047
  H  H26  1  0.734600  0.340800  0.589000  1.0  0.0796
  H  H27  1  0.778800  0.288900  0.588900  1.0  0.0895
  H  H28  1  0.669400  0.291500  0.542900  1.0  0.093
  H  H29  1  0.620300  0.054200  0.062400  1.0  0.053
  H  H30  1  0.627300  0.106000  0.205900  1.0  0.0682
  H  H31  1  0.403000  0.187600  0.894600  1.0  0.1021
  H  H32  1  0.404400  0.133400  0.757800  1.0  0.0538
  H  H33  1  0.591000  0.945800  0.968500  1.0  0.0437
  H  H34  1  0.731700  0.895700  0.113000  1.0  0.0902
  H  H35  1  0.865900  0.971100  0.996600  1.0  0.0948
  H  H36  1  0.723300  0.016600  0.852800  1.0  0.0521
  H  H37  1  0.837000  0.776600  0.290400  1.0  0.1093
  H  H38  1  0.883500  0.784500  0.440600  1.0  0.1287
  H  H39  1  0.863200  0.729700  0.381900  1.0  0.1041
  H  H40  1  0.765400  0.840800  0.911000  1.0  0.0794
  H  H41  1  0.721200  0.788900  0.911100  1.0  0.0901
  H  H42  1  0.830600  0.791500  0.957100  1.0  0.0918
  H  H43  1  0.879700  0.554200  0.437600  1.0  0.0522
  H  H44  1  0.872700  0.606000  0.294100  1.0  0.0695
  H  H45  1  0.097000  0.687600  0.605400  1.0  0.1019
  H  H46  1  0.095600  0.633400  0.742200  1.0  0.0535
  H  H47  1  0.091000  0.445800  0.968500  1.0  0.0437
  H  H48  1  0.231700  0.395700  0.113000  1.0  0.0902
  H  H49  1  0.365900  0.471100  0.996600  1.0  0.0948
  H  H50  1  0.223300  0.516600  0.852800  1.0  0.0521
  H  H51  1  0.337000  0.276600  0.290400  1.0  0.1093
  H  H52  1  0.383500  0.284500  0.440600  1.0  0.1287
  H  H53  1  0.363200  0.229700  0.381900  1.0  0.1041
  H  H54  1  0.265400  0.340800  0.911000  1.0  0.0794
  H  H55  1  0.221200  0.288900  0.911100  1.0  0.0901
  H  H56  1  0.330600  0.291500  0.957100  1.0  0.0918
  H  H57  1  0.379700  0.054200  0.437600  1.0  0.0522
  H  H58  1  0.372700  0.106000  0.294100  1.0  0.0695
  H  H59  1  0.597000  0.187600  0.605400  1.0  0.1019
  H  H60  1  0.595600  0.133400  0.742200  1.0  0.0535
  H  H61  1  0.000000  0.957600  0.250000  1.0  0.0731
  H  H62  1  0.000000  0.623200  0.250000  1.0  0.0556
  H  H63  1  0.500000  0.457600  0.250000  1.0  0.0731
  H  H64  1  0.500000  0.123200  0.250000  1.0  0.0556
  H  H65  1  0.591000  0.054200  0.468500  1.0  0.0438
  H  H66  1  0.731700  0.104300  0.613000  1.0  0.0897
  H  H67  1  0.865900  0.028900  0.496600  1.0  0.0944
  H  H68  1  0.723300  0.983400  0.352800  1.0  0.0519
  H  H69  1  0.837000  0.223400  0.790400  1.0  0.1099
  H  H70  1  0.883500  0.215500  0.940600  1.0  0.1291
  H  H71  1  0.863200  0.270300  0.881900  1.0  0.1045
  H  H72  1  0.765400  0.159200  0.411000  1.0  0.0797
  H  H73  1  0.721200  0.211100  0.411100  1.0  0.0895
  H  H74  1  0.830600  0.208500  0.457100  1.0  0.0918
  H  H75  1  0.879700  0.445800  0.937600  1.0  0.0525
  H  H76  1  0.872700  0.394000  0.794100  1.0  0.0688
  H  H77  1  0.097000  0.312400  0.105400  1.0  0.1018
  H  H78  1  0.095600  0.366600  0.242200  1.0  0.0534
  H  H79  1  0.091000  0.554200  0.468500  1.0  0.0438
  H  H80  1  0.231700  0.604300  0.613000  1.0  0.0897
  H  H81  1  0.365900  0.528900  0.496600  1.0  0.0944
  H  H82  1  0.223300  0.483400  0.352800  1.0  0.0519
  H  H83  1  0.337000  0.723400  0.790400  1.0  0.1099
  H  H84  1  0.383500  0.715500  0.940600  1.0  0.1291
  H  H85  1  0.363200  0.770300  0.881900  1.0  0.1045
  H  H86  1  0.265400  0.659200  0.411000  1.0  0.0797
  H  H87  1  0.221200  0.711100  0.411100  1.0  0.0895
  H  H88  1  0.330600  0.708500  0.457100  1.0  0.0918
  H  H89  1  0.379700  0.945800  0.937600  1.0  0.0525
  H  H90  1  0.372700  0.894000  0.794100  1.0  0.0688
  H  H91  1  0.597000  0.812400  0.105400  1.0  0.1018
  H  H92  1  0.595600  0.866600  0.242200  1.0  0.0534
  H  H93  1  0.409000  0.054200  0.031500  1.0  0.0435
  H  H94  1  0.268300  0.104300  0.887000  1.0  0.0895
  H  H95  1  0.134100  0.028900  0.003400  1.0  0.0954
  H  H96  1  0.276700  0.983400  0.147200  1.0  0.0519
  H  H97  1  0.163000  0.223400  0.709600  1.0  0.1095
  H  H98  1  0.116500  0.215500  0.559400  1.0  0.1279
  H  H99  1  0.136800  0.270300  0.618100  1.0  0.1032
  H  H100  1  0.234600  0.159200  0.089000  1.0  0.0804
  H  H101  1  0.278800  0.211100  0.088900  1.0  0.0893
  H  H102  1  0.169400  0.208500  0.042900  1.0  0.0927
  H  H103  1  0.120300  0.445800  0.562400  1.0  0.0525
  H  H104  1  0.127300  0.394000  0.705900  1.0  0.0677
  H  H105  1  0.903000  0.312400  0.394600  1.0  0.1012
  H  H106  1  0.904400  0.366600  0.257800  1.0  0.0539
  H  H107  1  0.909000  0.554200  0.031500  1.0  0.0435
  H  H108  1  0.768300  0.604300  0.887000  1.0  0.0895
  H  H109  1  0.634100  0.528900  0.003400  1.0  0.0954
  H  H110  1  0.776700  0.483400  0.147200  1.0  0.0519
  H  H111  1  0.663000  0.723400  0.709600  1.0  0.1095
  H  H112  1  0.616500  0.715500  0.559400  1.0  0.1279
  H  H113  1  0.636800  0.770300  0.618100  1.0  0.1032
  H  H114  1  0.734600  0.659200  0.089000  1.0  0.0804
  H  H115  1  0.778800  0.711100  0.088900  1.0  0.0893
  H  H116  1  0.669400  0.708500  0.042900  1.0  0.0927
  H  H117  1  0.620300  0.945800  0.562400  1.0  0.0525
  H  H118  1  0.627300  0.894000  0.705900  1.0  0.0677
  H  H119  1  0.403000  0.812400  0.394600  1.0  0.1012
  H  H120  1  0.404400  0.866600  0.257800  1.0  0.0539
  H  H121  1  0.000000  0.042400  0.750000  1.0  0.0748
  H  H122  1  0.000000  0.376800  0.750000  1.0  0.055
  H  H123  1  0.500000  0.542400  0.750000  1.0  0.0748
  H  H124  1  0.500000  0.876800  0.750000  1.0  0.055
  C  C125  1  0.353200  0.950500  0.527300  1.0  0.1562
  C  C126  1  0.268100  0.920000  0.439200  1.0  -0.2376
  C  C127  1  0.185200  0.926300  0.430700  1.0  0.0449
  C  C128  1  0.190100  0.964400  0.509200  1.0  -0.2493
  C  C129  1  0.275600  0.992100  0.594200  1.0  0.1284
  C  C130  1  0.090900  0.897300  0.334700  1.0  -0.0296
  C  C131  1  0.090000  0.844600  0.331500  1.0  0.1955
  C  C132  1  0.008900  0.735200  0.163200  1.0  0.1808
  C  C133  1  0.116600  0.763300  0.120200  1.0  -0.0696
  C  C134  1  0.218800  0.809100  0.543300  1.0  -0.0074
  C  C135  1  0.075500  0.581200  0.028200  1.0  0.1504
  C  C136  1  0.078800  0.611800  0.114100  1.0  -0.212
  C  C137  1  0.012900  0.651600  0.071700  1.0  0.0795
  C  C138  1  0.946900  0.660100  0.931100  1.0  -0.2131
  C  C139  1  0.948600  0.627700  0.850000  1.0  0.1374
  C  C140  1  0.007900  0.682100  0.163300  1.0  0.0067
  C  C141  1  0.853200  0.450500  0.527300  1.0  0.1562
  C  C142  1  0.768100  0.420000  0.439200  1.0  -0.2376
  C  C143  1  0.685200  0.426300  0.430700  1.0  0.0449
  C  C144  1  0.690100  0.464400  0.509200  1.0  -0.2493
  C  C145  1  0.775600  0.492100  0.594200  1.0  0.1284
  C  C146  1  0.590900  0.397300  0.334700  1.0  -0.0296
  C  C147  1  0.590000  0.344600  0.331500  1.0  0.1955
  C  C148  1  0.508900  0.235200  0.163200  1.0  0.1808
  C  C149  1  0.616600  0.263300  0.120200  1.0  -0.0696
  C  C150  1  0.718800  0.309100  0.543300  1.0  -0.0074
  C  C151  1  0.575500  0.081200  0.028200  1.0  0.1504
  C  C152  1  0.578800  0.111800  0.114100  1.0  -0.212
  C  C153  1  0.512900  0.151600  0.071700  1.0  0.0795
  C  C154  1  0.446900  0.160100  0.931100  1.0  -0.2131
  C  C155  1  0.448600  0.127700  0.850000  1.0  0.1374
  C  C156  1  0.507900  0.182100  0.163300  1.0  0.0067
  C  C157  1  0.646800  0.950500  0.972700  1.0  0.1553
  C  C158  1  0.731900  0.920000  0.060800  1.0  -0.2379
  C  C159  1  0.814800  0.926300  0.069300  1.0  0.0449
  C  C160  1  0.809900  0.964400  0.990800  1.0  -0.2477
  C  C161  1  0.724400  0.992100  0.905800  1.0  0.1288
  C  C162  1  0.909100  0.897300  0.165300  1.0  -0.0284
  C  C163  1  0.910000  0.844600  0.168500  1.0  0.1945
  C  C164  1  0.991100  0.735200  0.336800  1.0  0.1816
  C  C165  1  0.883400  0.763300  0.379800  1.0  -0.0688
  C  C166  1  0.781200  0.809100  0.956700  1.0  -0.0045
  C  C167  1  0.924500  0.581200  0.471800  1.0  0.1501
  C  C168  1  0.921200  0.611800  0.385900  1.0  -0.2125
  C  C169  1  0.987100  0.651600  0.428300  1.0  0.079
  C  C170  1  0.053100  0.660100  0.568900  1.0  -0.2154
  C  C171  1  0.051400  0.627700  0.650000  1.0  0.1352
  C  C172  1  0.992100  0.682100  0.336700  1.0  0.0069
  C  C173  1  0.146800  0.450500  0.972700  1.0  0.1553
  C  C174  1  0.231900  0.420000  0.060800  1.0  -0.2379
  C  C175  1  0.314800  0.426300  0.069300  1.0  0.0449
  C  C176  1  0.309900  0.464400  0.990800  1.0  -0.2477
  C  C177  1  0.224400  0.492100  0.905800  1.0  0.1288
  C  C178  1  0.409100  0.397300  0.165300  1.0  -0.0284
  C  C179  1  0.410000  0.344600  0.168500  1.0  0.1945
  C  C180  1  0.491100  0.235200  0.336800  1.0  0.1816
  C  C181  1  0.383400  0.263300  0.379800  1.0  -0.0688
  C  C182  1  0.281200  0.309100  0.956700  1.0  -0.0045
  C  C183  1  0.424500  0.081200  0.471800  1.0  0.1501
  C  C184  1  0.421200  0.111800  0.385900  1.0  -0.2125
  C  C185  1  0.487100  0.151600  0.428300  1.0  0.079
  C  C186  1  0.553100  0.160100  0.568900  1.0  -0.2154
  C  C187  1  0.551400  0.127700  0.650000  1.0  0.1352
  C  C188  1  0.492100  0.182100  0.336700  1.0  0.0069
  C  C189  1  0.000000  0.922400  0.250000  1.0  -0.1156
  C  C190  1  0.000000  0.817300  0.250000  1.0  -0.0516
  C  C191  1  0.000000  0.760500  0.250000  1.0  -0.1257
  C  C192  1  0.000000  0.658400  0.250000  1.0  -0.1258
  C  C193  1  0.500000  0.422400  0.250000  1.0  -0.1156
  C  C194  1  0.500000  0.317300  0.250000  1.0  -0.0516
  C  C195  1  0.500000  0.260500  0.250000  1.0  -0.1257
  C  C196  1  0.500000  0.158400  0.250000  1.0  -0.1258
  C  C197  1  0.646800  0.049500  0.472700  1.0  0.1554
  C  C198  1  0.731900  0.080000  0.560800  1.0  -0.2388
  C  C199  1  0.814800  0.073700  0.569300  1.0  0.0444
  C  C200  1  0.809900  0.035600  0.490800  1.0  -0.2459
  C  C201  1  0.724400  0.007900  0.405800  1.0  0.1274
  C  C202  1  0.909100  0.102700  0.665300  1.0  -0.0283
  C  C203  1  0.910000  0.155400  0.668500  1.0  0.1981
  C  C204  1  0.991100  0.264800  0.836800  1.0  0.1816
  C  C205  1  0.883400  0.236700  0.879800  1.0  -0.0681
  C  C206  1  0.781200  0.190900  0.456700  1.0  -0.0055
  C  C207  1  0.924500  0.418800  0.971800  1.0  0.1492
  C  C208  1  0.921200  0.388200  0.885900  1.0  -0.2128
  C  C209  1  0.987100  0.348400  0.928300  1.0  0.0791
  C  C210  1  0.053100  0.339900  0.068900  1.0  -0.2154
  C  C211  1  0.051400  0.372300  0.150000  1.0  0.1356
  C  C212  1  0.992100  0.317900  0.836700  1.0  0.0069
  C  C213  1  0.146800  0.549500  0.472700  1.0  0.1554
  C  C214  1  0.231900  0.580000  0.560800  1.0  -0.2388
  C  C215  1  0.314800  0.573700  0.569300  1.0  0.0444
  C  C216  1  0.309900  0.535600  0.490800  1.0  -0.2459
  C  C217  1  0.224400  0.507900  0.405800  1.0  0.1274
  C  C218  1  0.409100  0.602700  0.665300  1.0  -0.0283
  C  C219  1  0.410000  0.655400  0.668500  1.0  0.1981
  C  C220  1  0.491100  0.764800  0.836800  1.0  0.1816
  C  C221  1  0.383400  0.736700  0.879800  1.0  -0.0681
  C  C222  1  0.281200  0.690900  0.456700  1.0  -0.0055
  C  C223  1  0.424500  0.918800  0.971800  1.0  0.1492
  C  C224  1  0.421200  0.888200  0.885900  1.0  -0.2128
  C  C225  1  0.487100  0.848400  0.928300  1.0  0.0791
  C  C226  1  0.553100  0.839900  0.068900  1.0  -0.2154
  C  C227  1  0.551400  0.872300  0.150000  1.0  0.1356
  C  C228  1  0.492100  0.817900  0.836700  1.0  0.0069
  C  C229  1  0.353200  0.049500  0.027300  1.0  0.1549
  C  C230  1  0.268100  0.080000  0.939200  1.0  -0.2384
  C  C231  1  0.185200  0.073700  0.930700  1.0  0.0442
  C  C232  1  0.190100  0.035600  0.009200  1.0  -0.2474
  C  C233  1  0.275600  0.007900  0.094200  1.0  0.1286
  C  C234  1  0.090900  0.102700  0.834700  1.0  -0.0298
  C  C235  1  0.090000  0.155400  0.831500  1.0  0.1934
  C  C236  1  0.008900  0.264800  0.663200  1.0  0.1808
  C  C237  1  0.116600  0.236700  0.620200  1.0  -0.0706
  C  C238  1  0.218800  0.190900  0.043300  1.0  -0.0077
  C  C239  1  0.075500  0.418800  0.528200  1.0  0.1496
  C  C240  1  0.078800  0.388200  0.614100  1.0  -0.2124
  C  C241  1  0.012900  0.348400  0.571700  1.0  0.0794
  C  C242  1  0.946900  0.339900  0.431100  1.0  -0.2141
  C  C243  1  0.948600  0.372300  0.350000  1.0  0.1377
  C  C244  1  0.007900  0.317900  0.663300  1.0  0.0068
  C  C245  1  0.853200  0.549500  0.027300  1.0  0.1549
  C  C246  1  0.768100  0.580000  0.939200  1.0  -0.2384
  C  C247  1  0.685200  0.573700  0.930700  1.0  0.0442
  C  C248  1  0.690100  0.535600  0.009200  1.0  -0.2474
  C  C249  1  0.775600  0.507900  0.094200  1.0  0.1286
  C  C250  1  0.590900  0.602700  0.834700  1.0  -0.0298
  C  C251  1  0.590000  0.655400  0.831500  1.0  0.1934
  C  C252  1  0.508900  0.764800  0.663200  1.0  0.1808
  C  C253  1  0.616600  0.736700  0.620200  1.0  -0.0706
  C  C254  1  0.718800  0.690900  0.043300  1.0  -0.0077
  C  C255  1  0.575500  0.918800  0.528200  1.0  0.1496
  C  C256  1  0.578800  0.888200  0.614100  1.0  -0.2124
  C  C257  1  0.512900  0.848400  0.571700  1.0  0.0794
  C  C258  1  0.446900  0.839900  0.431100  1.0  -0.2141
  C  C259  1  0.448600  0.872300  0.350000  1.0  0.1377
  C  C260  1  0.507900  0.817900  0.663300  1.0  0.0068
  C  C261  1  0.000000  0.077600  0.750000  1.0  -0.1146
  C  C262  1  0.000000  0.182700  0.750000  1.0  -0.0511
  C  C263  1  0.000000  0.239500  0.750000  1.0  -0.1257
  C  C264  1  0.000000  0.341600  0.750000  1.0  -0.1272
  C  C265  1  0.500000  0.577600  0.750000  1.0  -0.1146
  C  C266  1  0.500000  0.682700  0.750000  1.0  -0.0511
  C  C267  1  0.500000  0.739500  0.750000  1.0  -0.1257
  C  C268  1  0.500000  0.841600  0.750000  1.0  -0.1272
  N  N269  1  0.358200  0.985900  0.605200  1.0  -0.354
  N  N270  1  0.010700  0.587900  0.896600  1.0  -0.3435
  N  N271  1  0.858200  0.485900  0.605200  1.0  -0.354
  N  N272  1  0.510700  0.087900  0.896600  1.0  -0.3435
  N  N273  1  0.641800  0.985900  0.894800  1.0  -0.3524
  N  N274  1  0.989300  0.587900  0.603400  1.0  -0.3385
  N  N275  1  0.141800  0.485900  0.894800  1.0  -0.3524
  N  N276  1  0.489300  0.087900  0.603400  1.0  -0.3385
  N  N277  1  0.641800  0.014100  0.394800  1.0  -0.3556
  N  N278  1  0.989300  0.412100  0.103400  1.0  -0.3401
  N  N279  1  0.141800  0.514100  0.394800  1.0  -0.3556
  N  N280  1  0.489300  0.912100  0.103400  1.0  -0.3401
  N  N281  1  0.358200  0.014100  0.105200  1.0  -0.3541
  N  N282  1  0.010700  0.412100  0.396600  1.0  -0.3416
  N  N283  1  0.858200  0.514100  0.105200  1.0  -0.3541
  N  N284  1  0.510700  0.912100  0.396600  1.0  -0.3416
  O  O285  1  0.179400  0.817900  0.408200  1.0  -0.2858
  O  O286  1  0.016500  0.761900  0.080200  1.0  -0.2846
  O  O287  1  0.679400  0.317900  0.408200  1.0  -0.2858
  O  O288  1  0.516500  0.261900  0.080200  1.0  -0.2846
  O  O289  1  0.820600  0.817900  0.091800  1.0  -0.2874
  O  O290  1  0.983500  0.761900  0.419800  1.0  -0.2863
  O  O291  1  0.320600  0.317900  0.091800  1.0  -0.2874
  O  O292  1  0.483500  0.261900  0.419800  1.0  -0.2863
  O  O293  1  0.820600  0.182100  0.591800  1.0  -0.2879
  O  O294  1  0.983500  0.238100  0.919800  1.0  -0.2851
  O  O295  1  0.320600  0.682100  0.591800  1.0  -0.2879
  O  O296  1  0.483500  0.738100  0.919800  1.0  -0.2851
  O  O297  1  0.179400  0.182100  0.908200  1.0  -0.2854
  O  O298  1  0.016500  0.238100  0.580200  1.0  -0.2867
  O  O299  1  0.679400  0.682100  0.908200  1.0  -0.2854
  O  O300  1  0.516500  0.738100  0.580200  1.0  -0.2867
