# generated using pymatgen
data_CuH15C18I(NO)2
_symmetry_space_group_name_H-M   'P 1'
_cell_length_a   12.71600000
_cell_length_b   12.71600000
_cell_length_c   62.07800000
_cell_angle_alpha   90.00000000
_cell_angle_beta   90.00000000
_cell_angle_gamma   90.00000000
_symmetry_Int_Tables_number   1
_chemical_formula_structural   CuH15C18I(NO)2
_chemical_formula_sum   'Cu16 H240 C288 I16 N32 O32'
_cell_volume   10037.80501117
_cell_formula_units_Z   16
loop_
 _symmetry_equiv_pos_site_id
 _symmetry_equiv_pos_as_xyz
  1  'x, y, z'
loop_
 _atom_site_type_symbol
 _atom_site_label
 _atom_site_symmetry_multiplicity
 _atom_site_fract_x
 _atom_site_fract_y
 _atom_site_fract_z
 _atom_site_occupancy
 _atom_site_charge
  Cu  Cu1  1  0.970110  0.949230  0.925310  1.0  0.2613
  Cu  Cu2  1  0.995240  0.944770  0.884660  1.0  0.2554
  Cu  Cu3  1  0.029890  0.050770  0.425310  1.0  0.2613
  Cu  Cu4  1  0.004760  0.055230  0.384660  1.0  0.2556
  Cu  Cu5  1  0.550770  0.470110  0.675310  1.0  0.2612
  Cu  Cu6  1  0.555230  0.495240  0.634660  1.0  0.2551
  Cu  Cu7  1  0.449230  0.529890  0.175310  1.0  0.2612
  Cu  Cu8  1  0.444770  0.504760  0.134660  1.0  0.2553
  Cu  Cu9  1  0.529890  0.449230  0.824700  1.0  0.2602
  Cu  Cu10  1  0.504760  0.444770  0.865340  1.0  0.2572
  Cu  Cu11  1  0.470110  0.550770  0.324700  1.0  0.2606
  Cu  Cu12  1  0.495240  0.555230  0.365340  1.0  0.2569
  Cu  Cu13  1  0.949230  0.970110  0.074700  1.0  0.2604
  Cu  Cu14  1  0.944770  0.995240  0.115340  1.0  0.2567
  Cu  Cu15  1  0.050770  0.029890  0.574700  1.0  0.2602
  Cu  Cu16  1  0.055230  0.004760  0.615340  1.0  0.2568
  H  H17  1  0.943600  0.485700  0.101300  1.0  0.0829
  H  H18  1  0.794200  0.616700  0.106100  1.0  0.1157
  H  H19  1  0.646800  0.622200  0.127100  1.0  0.0664
  H  H20  1  0.526400  0.377800  0.097700  1.0  0.0708
  H  H21  1  0.669000  0.364600  0.075400  1.0  0.1071
  H  H22  1  0.099500  0.360500  0.110800  1.0  0.0962
  H  H23  1  0.243100  0.382800  0.132900  1.0  0.0741
  H  H24  1  0.362000  0.591900  0.093300  1.0  0.0743
  H  H25  1  0.222400  0.571300  0.070100  1.0  0.0904
  H  H26  1  0.677300  0.589400  0.053300  1.0  0.0894
  H  H27  1  0.651800  0.564300  0.028600  1.0  0.1243
  H  H28  1  0.759500  0.621500  0.035000  1.0  0.1108
  H  H29  1  0.183300  0.320200  0.059000  1.0  0.0923
  H  H30  1  0.246900  0.339900  0.037100  1.0  0.1299
  H  H31  1  0.131800  0.289100  0.036300  1.0  0.1134
  H  H32  1  0.942500  0.440700  0.958300  1.0  0.0899
  H  H33  1  0.062000  0.177700  0.988400  1.0  0.0999
  H  H34  1  0.068300  0.033200  0.964700  1.0  0.0632
  H  H35  1  0.832400  0.140500  0.930900  1.0  0.0815
  H  H36  1  0.818900  0.287300  0.952800  1.0  0.1143
  H  H37  1  0.059900  0.585100  0.949800  1.0  0.1187
  H  H38  1  0.070600  0.735900  0.929300  1.0  0.0698
  H  H39  1  0.846000  0.869700  0.963000  1.0  0.0712
  H  H40  1  0.836600  0.727900  0.985700  1.0  0.1051
  H  H41  1  0.810700  0.274600  0.034000  1.0  0.1099
  H  H42  1  0.858500  0.158100  0.034200  1.0  0.0946
  H  H43  1  0.807800  0.204400  0.012600  1.0  0.0841
  H  H44  1  0.086900  0.627000  0.027300  1.0  0.0951
  H  H45  1  0.035000  0.739500  0.031800  1.0  0.087
  H  H46  1  0.072800  0.709500  0.008000  1.0  0.0911
  H  H47  1  0.056400  0.514300  0.601300  1.0  0.083
  H  H48  1  0.205800  0.383300  0.606100  1.0  0.1155
  H  H49  1  0.353200  0.377800  0.627100  1.0  0.0665
  H  H50  1  0.473600  0.622200  0.597700  1.0  0.071
  H  H51  1  0.331000  0.635400  0.575400  1.0  0.1071
  H  H52  1  0.900500  0.639500  0.610800  1.0  0.0959
  H  H53  1  0.756900  0.617200  0.632900  1.0  0.0738
  H  H54  1  0.638000  0.408100  0.593300  1.0  0.0739
  H  H55  1  0.777600  0.428700  0.570100  1.0  0.0904
  H  H56  1  0.322700  0.410600  0.553300  1.0  0.0908
  H  H57  1  0.348200  0.435700  0.528600  1.0  0.1248
  H  H58  1  0.240500  0.378500  0.535000  1.0  0.1104
  H  H59  1  0.816700  0.679800  0.559000  1.0  0.092
  H  H60  1  0.753100  0.660100  0.537100  1.0  0.1293
  H  H61  1  0.868200  0.710900  0.536300  1.0  0.1111
  H  H62  1  0.057500  0.559300  0.458300  1.0  0.09
  H  H63  1  0.938000  0.822300  0.488400  1.0  0.1001
  H  H64  1  0.931700  0.966800  0.464700  1.0  0.063
  H  H65  1  0.167600  0.859500  0.430900  1.0  0.0818
  H  H66  1  0.181100  0.712700  0.452800  1.0  0.114
  H  H67  1  0.940100  0.414900  0.449800  1.0  0.1193
  H  H68  1  0.929400  0.264100  0.429300  1.0  0.0695
  H  H69  1  0.154000  0.130300  0.463000  1.0  0.0714
  H  H70  1  0.163400  0.272100  0.485700  1.0  0.1051
  H  H71  1  0.189300  0.725400  0.534000  1.0  0.1118
  H  H72  1  0.141500  0.841900  0.534200  1.0  0.0939
  H  H73  1  0.192200  0.795600  0.512600  1.0  0.0835
  H  H74  1  0.913100  0.373000  0.527300  1.0  0.0942
  H  H75  1  0.965000  0.260500  0.531800  1.0  0.0872
  H  H76  1  0.927200  0.290500  0.508000  1.0  0.0914
  H  H77  1  0.014300  0.443600  0.851300  1.0  0.083
  H  H78  1  0.883300  0.294200  0.856100  1.0  0.1157
  H  H79  1  0.877800  0.146800  0.877100  1.0  0.0666
  H  H80  1  0.122200  0.026400  0.847700  1.0  0.0711
  H  H81  1  0.135400  0.169000  0.825400  1.0  0.106
  H  H82  1  0.139500  0.599500  0.860800  1.0  0.0955
  H  H83  1  0.117200  0.743100  0.882900  1.0  0.0741
  H  H84  1  0.908100  0.862000  0.843300  1.0  0.0737
  H  H85  1  0.928700  0.722400  0.820100  1.0  0.0901
  H  H86  1  0.910600  0.177300  0.803300  1.0  0.0899
  H  H87  1  0.935700  0.151800  0.778600  1.0  0.1255
  H  H88  1  0.878500  0.259500  0.785000  1.0  0.1085
  H  H89  1  0.179800  0.683300  0.809000  1.0  0.0933
  H  H90  1  0.160100  0.746900  0.787100  1.0  0.1303
  H  H91  1  0.210900  0.631800  0.786300  1.0  0.1104
  H  H92  1  0.059300  0.442500  0.708300  1.0  0.0897
  H  H93  1  0.322300  0.562000  0.738400  1.0  0.1003
  H  H94  1  0.466800  0.568300  0.714700  1.0  0.0632
  H  H95  1  0.359500  0.332400  0.680900  1.0  0.081
  H  H96  1  0.212700  0.318900  0.702800  1.0  0.1133
  H  H97  1  0.914900  0.559900  0.699800  1.0  0.1193
  H  H98  1  0.764100  0.570600  0.679300  1.0  0.0692
  H  H99  1  0.630300  0.346000  0.713000  1.0  0.0714
  H  H100  1  0.772100  0.336600  0.735700  1.0  0.105
  H  H101  1  0.225400  0.310700  0.784000  1.0  0.1113
  H  H102  1  0.341900  0.358500  0.784200  1.0  0.0935
  H  H103  1  0.295600  0.307800  0.762600  1.0  0.0832
  H  H104  1  0.873000  0.586900  0.777300  1.0  0.0956
  H  H105  1  0.760500  0.535000  0.781800  1.0  0.0861
  H  H106  1  0.790500  0.572800  0.758000  1.0  0.0915
  H  H107  1  0.985700  0.556400  0.351300  1.0  0.0834
  H  H108  1  0.116700  0.705800  0.356100  1.0  0.1161
  H  H109  1  0.122200  0.853200  0.377100  1.0  0.0665
  H  H110  1  0.877800  0.973600  0.347700  1.0  0.0709
  H  H111  1  0.864600  0.831000  0.325400  1.0  0.1068
  H  H112  1  0.860500  0.400500  0.360800  1.0  0.0956
  H  H113  1  0.882800  0.256900  0.382900  1.0  0.074
  H  H114  1  0.091900  0.138000  0.343300  1.0  0.0737
  H  H115  1  0.071300  0.277600  0.320100  1.0  0.0917
  H  H116  1  0.089400  0.822700  0.303300  1.0  0.0907
  H  H117  1  0.064300  0.848200  0.278600  1.0  0.1252
  H  H118  1  0.121500  0.740500  0.285000  1.0  0.1066
  H  H119  1  0.820200  0.316700  0.309000  1.0  0.0925
  H  H120  1  0.839900  0.253100  0.287100  1.0  0.1308
  H  H121  1  0.789100  0.368200  0.286300  1.0  0.1096
  H  H122  1  0.940700  0.557500  0.208300  1.0  0.09
  H  H123  1  0.677700  0.438000  0.238400  1.0  0.1002
  H  H124  1  0.533200  0.431700  0.214700  1.0  0.0632
  H  H125  1  0.640500  0.667600  0.180900  1.0  0.0814
  H  H126  1  0.787300  0.681100  0.202800  1.0  0.1136
  H  H127  1  0.085100  0.440100  0.199800  1.0  0.1191
  H  H128  1  0.235900  0.429400  0.179300  1.0  0.0691
  H  H129  1  0.369700  0.654000  0.213000  1.0  0.0711
  H  H130  1  0.227900  0.663400  0.235700  1.0  0.1046
  H  H131  1  0.774600  0.689300  0.284000  1.0  0.1112
  H  H132  1  0.658100  0.641500  0.284200  1.0  0.0932
  H  H133  1  0.704400  0.692200  0.262600  1.0  0.0837
  H  H134  1  0.127000  0.413100  0.277300  1.0  0.0955
  H  H135  1  0.239500  0.465000  0.281800  1.0  0.0872
  H  H136  1  0.209500  0.427200  0.258000  1.0  0.0912
  H  H137  1  0.556400  0.985700  0.648700  1.0  0.0831
  H  H138  1  0.705800  0.116700  0.643900  1.0  0.1159
  H  H139  1  0.853200  0.122200  0.622900  1.0  0.0662
  H  H140  1  0.973600  0.877800  0.652300  1.0  0.0708
  H  H141  1  0.831000  0.864600  0.674600  1.0  0.1068
  H  H142  1  0.400500  0.860500  0.639200  1.0  0.0962
  H  H143  1  0.256900  0.882800  0.617100  1.0  0.0737
  H  H144  1  0.138000  0.091900  0.656700  1.0  0.0745
  H  H145  1  0.277600  0.071300  0.679900  1.0  0.0925
  H  H146  1  0.822700  0.089400  0.696700  1.0  0.0917
  H  H147  1  0.848200  0.064300  0.721400  1.0  0.1254
  H  H148  1  0.740500  0.121500  0.715000  1.0  0.1099
  H  H149  1  0.316700  0.820200  0.691000  1.0  0.0916
  H  H150  1  0.253100  0.839900  0.712900  1.0  0.1305
  H  H151  1  0.368200  0.789100  0.713700  1.0  0.1116
  H  H152  1  0.557500  0.940700  0.791700  1.0  0.0906
  H  H153  1  0.438000  0.677700  0.761600  1.0  0.0999
  H  H154  1  0.431700  0.533200  0.785300  1.0  0.0627
  H  H155  1  0.667600  0.640500  0.819100  1.0  0.0814
  H  H156  1  0.681100  0.787300  0.797200  1.0  0.1142
  H  H157  1  0.440100  0.085100  0.800200  1.0  0.119
  H  H158  1  0.429400  0.235900  0.820700  1.0  0.07
  H  H159  1  0.654000  0.369700  0.787000  1.0  0.0709
  H  H160  1  0.663400  0.227900  0.764300  1.0  0.1047
  H  H161  1  0.689300  0.774600  0.716000  1.0  0.1111
  H  H162  1  0.641500  0.658100  0.715800  1.0  0.0969
  H  H163  1  0.692200  0.704400  0.737400  1.0  0.0832
  H  H164  1  0.413100  0.127000  0.722700  1.0  0.0939
  H  H165  1  0.465000  0.239500  0.718200  1.0  0.087
  H  H166  1  0.427200  0.209500  0.742000  1.0  0.0917
  H  H167  1  0.443600  0.014300  0.148700  1.0  0.0829
  H  H168  1  0.294200  0.883300  0.143900  1.0  0.1154
  H  H169  1  0.146800  0.877800  0.122900  1.0  0.0661
  H  H170  1  0.026400  0.122200  0.152300  1.0  0.0722
  H  H171  1  0.169000  0.135400  0.174600  1.0  0.1072
  H  H172  1  0.599500  0.139500  0.139200  1.0  0.0966
  H  H173  1  0.743100  0.117200  0.117100  1.0  0.0741
  H  H174  1  0.862000  0.908100  0.156700  1.0  0.074
  H  H175  1  0.722400  0.928700  0.179900  1.0  0.089
  H  H176  1  0.177300  0.910600  0.196700  1.0  0.0906
  H  H177  1  0.151800  0.935700  0.221400  1.0  0.1258
  H  H178  1  0.259500  0.878500  0.215000  1.0  0.1101
  H  H179  1  0.683300  0.179800  0.191000  1.0  0.0938
  H  H180  1  0.746900  0.160100  0.212900  1.0  0.1289
  H  H181  1  0.631800  0.210900  0.213700  1.0  0.1129
  H  H182  1  0.442500  0.059300  0.291700  1.0  0.0899
  H  H183  1  0.562000  0.322300  0.261600  1.0  0.0997
  H  H184  1  0.568300  0.466800  0.285300  1.0  0.0627
  H  H185  1  0.332400  0.359500  0.319100  1.0  0.0821
  H  H186  1  0.318900  0.212700  0.297200  1.0  0.1141
  H  H187  1  0.559900  0.914900  0.300200  1.0  0.1185
  H  H188  1  0.570600  0.764100  0.320700  1.0  0.0698
  H  H189  1  0.346000  0.630300  0.287000  1.0  0.0713
  H  H190  1  0.336600  0.772100  0.264300  1.0  0.1051
  H  H191  1  0.310700  0.225400  0.216000  1.0  0.1104
  H  H192  1  0.358500  0.341900  0.215800  1.0  0.0959
  H  H193  1  0.307800  0.295600  0.237400  1.0  0.0835
  H  H194  1  0.586900  0.873000  0.222700  1.0  0.0956
  H  H195  1  0.535000  0.760500  0.218200  1.0  0.0862
  H  H196  1  0.572800  0.790500  0.242000  1.0  0.0916
  H  H197  1  0.485700  0.943600  0.898700  1.0  0.0833
  H  H198  1  0.616700  0.794200  0.893900  1.0  0.1157
  H  H199  1  0.622200  0.646800  0.872900  1.0  0.0662
  H  H200  1  0.377800  0.526400  0.902300  1.0  0.0711
  H  H201  1  0.364600  0.669000  0.924600  1.0  0.106
  H  H202  1  0.360500  0.099500  0.889200  1.0  0.0958
  H  H203  1  0.382800  0.243100  0.867100  1.0  0.0741
  H  H204  1  0.591900  0.362000  0.906700  1.0  0.073
  H  H205  1  0.571300  0.222400  0.929900  1.0  0.089
  H  H206  1  0.589400  0.677300  0.946700  1.0  0.0913
  H  H207  1  0.564300  0.651800  0.971400  1.0  0.1265
  H  H208  1  0.621500  0.759500  0.965000  1.0  0.107
  H  H209  1  0.320200  0.183300  0.941000  1.0  0.0926
  H  H210  1  0.339900  0.246900  0.962900  1.0  0.1292
  H  H211  1  0.289100  0.131800  0.963700  1.0  0.1099
  H  H212  1  0.440700  0.942500  0.041700  1.0  0.0902
  H  H213  1  0.177700  0.062000  0.011600  1.0  0.1004
  H  H214  1  0.033200  0.068300  0.035300  1.0  0.0631
  H  H215  1  0.140500  0.832400  0.069100  1.0  0.0814
  H  H216  1  0.287300  0.818900  0.047200  1.0  0.1134
  H  H217  1  0.585100  0.059900  0.050200  1.0  0.1196
  H  H218  1  0.735900  0.070600  0.070700  1.0  0.0695
  H  H219  1  0.869700  0.846000  0.037000  1.0  0.0711
  H  H220  1  0.727900  0.836600  0.014300  1.0  0.1046
  H  H221  1  0.274600  0.810700  0.966000  1.0  0.1111
  H  H222  1  0.158100  0.858500  0.965800  1.0  0.0953
  H  H223  1  0.204400  0.807800  0.987400  1.0  0.0825
  H  H224  1  0.627000  0.086900  0.972700  1.0  0.0968
  H  H225  1  0.739500  0.035000  0.968200  1.0  0.0866
  H  H226  1  0.709500  0.072800  0.992000  1.0  0.0917
  H  H227  1  0.514300  0.056400  0.398700  1.0  0.0832
  H  H228  1  0.383300  0.205800  0.393900  1.0  0.1153
  H  H229  1  0.377800  0.353200  0.372900  1.0  0.0662
  H  H230  1  0.622200  0.473600  0.402300  1.0  0.071
  H  H231  1  0.635400  0.331000  0.424600  1.0  0.106
  H  H232  1  0.639500  0.900500  0.389200  1.0  0.095
  H  H233  1  0.617200  0.756900  0.367100  1.0  0.0742
  H  H234  1  0.408100  0.638000  0.406700  1.0  0.0734
  H  H235  1  0.428700  0.777600  0.429900  1.0  0.0895
  H  H236  1  0.410600  0.322700  0.446700  1.0  0.0912
  H  H237  1  0.435700  0.348200  0.471400  1.0  0.1261
  H  H238  1  0.378500  0.240500  0.465000  1.0  0.1062
  H  H239  1  0.679800  0.816700  0.441000  1.0  0.0929
  H  H240  1  0.660100  0.753100  0.462900  1.0  0.1311
  H  H241  1  0.710900  0.868200  0.463700  1.0  0.1101
  H  H242  1  0.559300  0.057500  0.541700  1.0  0.0903
  H  H243  1  0.822300  0.938000  0.511600  1.0  0.0999
  H  H244  1  0.966800  0.931700  0.535300  1.0  0.0629
  H  H245  1  0.859500  0.167600  0.569100  1.0  0.0808
  H  H246  1  0.712700  0.181100  0.547200  1.0  0.1141
  H  H247  1  0.414900  0.940100  0.550200  1.0  0.119
  H  H248  1  0.264100  0.929400  0.570700  1.0  0.0692
  H  H249  1  0.130300  0.154000  0.537000  1.0  0.0713
  H  H250  1  0.272100  0.163400  0.514300  1.0  0.1046
  H  H251  1  0.725400  0.189300  0.466000  1.0  0.1116
  H  H252  1  0.841900  0.141500  0.465800  1.0  0.0952
  H  H253  1  0.795600  0.192200  0.487400  1.0  0.0824
  H  H254  1  0.373000  0.913100  0.472700  1.0  0.0944
  H  H255  1  0.260500  0.965000  0.468200  1.0  0.0859
  H  H256  1  0.290500  0.927200  0.492000  1.0  0.0913
  C  C257  1  0.945500  0.456800  0.042270  1.0  -0.0571
  C  C258  1  0.850600  0.469000  0.053720  1.0  0.213
  C  C259  1  0.851400  0.477300  0.075680  1.0  0.0181
  C  C260  1  0.944300  0.477700  0.086050  1.0  -0.1172
  C  C261  1  0.041400  0.467000  0.075920  1.0  0.021
  C  C262  1  0.037000  0.453400  0.053590  1.0  0.2176
  C  C263  1  0.751600  0.485800  0.088700  1.0  0.0876
  C  C264  1  0.740500  0.565600  0.104220  1.0  -0.2442
  C  C265  1  0.652100  0.568900  0.116420  1.0  0.141
  C  C266  1  0.582100  0.426900  0.099260  1.0  0.1313
  C  C267  1  0.667200  0.417400  0.086160  1.0  -0.2256
  C  C268  1  0.138300  0.471400  0.088560  1.0  0.0628
  C  C269  1  0.151600  0.410700  0.107030  1.0  -0.2412
  C  C270  1  0.238900  0.422400  0.119910  1.0  0.1223
  C  C271  1  0.307900  0.543500  0.096860  1.0  0.1097
  C  C272  1  0.222800  0.533900  0.083350  1.0  -0.2119
  C  C273  1  0.707700  0.568900  0.039440  1.0  -0.0364
  C  C274  1  0.177000  0.339900  0.043780  1.0  -0.0495
  C  C275  1  0.944800  0.451400  0.018060  1.0  -0.0202
  C  C276  1  0.944000  0.356400  0.007460  1.0  0.2053
  C  C277  1  0.939900  0.351700  0.984770  1.0  -0.0209
  C  C278  1  0.942200  0.443700  0.973590  1.0  -0.1201
  C  C279  1  0.944000  0.542400  0.983490  1.0  0.0044
  C  C280  1  0.942000  0.544600  0.005940  1.0  0.1873
  C  C281  1  0.942200  0.251300  0.972730  1.0  0.0954
  C  C282  1  0.014800  0.173300  0.976570  1.0  -0.236
  C  C283  1  0.017000  0.086200  0.962380  1.0  0.1568
  C  C284  1  0.879800  0.148500  0.942620  1.0  0.133
  C  C285  1  0.872000  0.236500  0.955560  1.0  -0.2273
  C  C286  1  0.948000  0.640500  0.970420  1.0  0.0591
  C  C287  1  0.016700  0.643900  0.953090  1.0  -0.2636
  C  C288  1  0.021400  0.733600  0.940750  1.0  0.1377
  C  C289  1  0.891800  0.811900  0.960570  1.0  0.1594
  C  C290  1  0.884700  0.727300  0.973980  1.0  -0.2308
  C  C291  1  0.848600  0.221700  0.025500  1.0  -0.0311
  C  C292  1  0.041700  0.682300  0.021350  1.0  -0.035
  C  C293  1  0.054500  0.543200  0.542270  1.0  -0.0571
  C  C294  1  0.149400  0.531000  0.553720  1.0  0.2141
  C  C295  1  0.148600  0.522700  0.575680  1.0  0.0182
  C  C296  1  0.055700  0.522300  0.586050  1.0  -0.117
  C  C297  1  0.958600  0.533000  0.575920  1.0  0.0192
  C  C298  1  0.963000  0.546600  0.553590  1.0  0.217
  C  C299  1  0.248400  0.514200  0.588700  1.0  0.0889
  C  C300  1  0.259500  0.434400  0.604220  1.0  -0.2457
  C  C301  1  0.347900  0.431100  0.616420  1.0  0.1424
  C  C302  1  0.417900  0.573100  0.599260  1.0  0.1303
  C  C303  1  0.332800  0.582600  0.586160  1.0  -0.225
  C  C304  1  0.861700  0.528600  0.588560  1.0  0.0625
  C  C305  1  0.848400  0.589300  0.607030  1.0  -0.2415
  C  C306  1  0.761100  0.577600  0.619910  1.0  0.1205
  C  C307  1  0.692100  0.456500  0.596860  1.0  0.1101
  C  C308  1  0.777200  0.466100  0.583350  1.0  -0.2121
  C  C309  1  0.292300  0.431100  0.539440  1.0  -0.0364
  C  C310  1  0.823000  0.660100  0.543780  1.0  -0.0498
  C  C311  1  0.055200  0.548600  0.518060  1.0  -0.0201
  C  C312  1  0.056000  0.643600  0.507460  1.0  0.2048
  C  C313  1  0.060100  0.648300  0.484770  1.0  -0.0211
  C  C314  1  0.057800  0.556300  0.473590  1.0  -0.12
  C  C315  1  0.056000  0.457600  0.483490  1.0  0.0033
  C  C316  1  0.058000  0.455400  0.505940  1.0  0.1871
  C  C317  1  0.057800  0.748700  0.472730  1.0  0.0948
  C  C318  1  0.985200  0.826700  0.476570  1.0  -0.2359
  C  C319  1  0.983000  0.913800  0.462380  1.0  0.1574
  C  C320  1  0.120200  0.851500  0.442620  1.0  0.1338
  C  C321  1  0.128000  0.763500  0.455560  1.0  -0.2279
  C  C322  1  0.052000  0.359500  0.470420  1.0  0.0585
  C  C323  1  0.983300  0.356100  0.453090  1.0  -0.2628
  C  C324  1  0.978600  0.266400  0.440750  1.0  0.1369
  C  C325  1  0.108200  0.188100  0.460570  1.0  0.1578
  C  C326  1  0.115300  0.272700  0.473980  1.0  -0.2311
  C  C327  1  0.151400  0.778300  0.525500  1.0  -0.0323
  C  C328  1  0.958300  0.317700  0.521350  1.0  -0.0347
  C  C329  1  0.043200  0.445500  0.792270  1.0  -0.0573
  C  C330  1  0.031000  0.350600  0.803720  1.0  0.2126
  C  C331  1  0.022700  0.351400  0.825680  1.0  0.0187
  C  C332  1  0.022300  0.444300  0.836050  1.0  -0.1181
  C  C333  1  0.033000  0.541400  0.825920  1.0  0.0201
  C  C334  1  0.046600  0.537000  0.803590  1.0  0.2174
  C  C335  1  0.014200  0.251600  0.838700  1.0  0.0903
  C  C336  1  0.934400  0.240500  0.854220  1.0  -0.2443
  C  C337  1  0.931100  0.152100  0.866420  1.0  0.1444
  C  C338  1  0.073100  0.082100  0.849260  1.0  0.1301
  C  C339  1  0.082600  0.167200  0.836160  1.0  -0.2235
  C  C340  1  0.028600  0.638300  0.838560  1.0  0.065
  C  C341  1  0.089300  0.651600  0.857030  1.0  -0.2432
  C  C342  1  0.077600  0.738900  0.869910  1.0  0.1212
  C  C343  1  0.956500  0.807900  0.846860  1.0  0.1096
  C  C344  1  0.966100  0.722800  0.833350  1.0  -0.2114
  C  C345  1  0.931100  0.207700  0.789440  1.0  -0.0312
  C  C346  1  0.160100  0.677000  0.793780  1.0  -0.0471
  C  C347  1  0.048600  0.444800  0.768060  1.0  -0.0204
  C  C348  1  0.143600  0.444000  0.757460  1.0  0.2053
  C  C349  1  0.148300  0.439900  0.734770  1.0  -0.0216
  C  C350  1  0.056300  0.442200  0.723590  1.0  -0.1199
  C  C351  1  0.957600  0.444000  0.733490  1.0  0.0018
  C  C352  1  0.955400  0.442000  0.755940  1.0  0.1877
  C  C353  1  0.248700  0.442200  0.722730  1.0  0.093
  C  C354  1  0.326700  0.514800  0.726570  1.0  -0.2351
  C  C355  1  0.413800  0.517000  0.712380  1.0  0.1572
  C  C356  1  0.351500  0.379800  0.692620  1.0  0.1315
  C  C357  1  0.263500  0.372000  0.705560  1.0  -0.2263
  C  C358  1  0.859500  0.448000  0.720420  1.0  0.0572
  C  C359  1  0.856100  0.516700  0.703090  1.0  -0.2595
  C  C360  1  0.766400  0.521400  0.690750  1.0  0.1358
  C  C361  1  0.688100  0.391800  0.710570  1.0  0.1583
  C  C362  1  0.772700  0.384700  0.723980  1.0  -0.2282
  C  C363  1  0.278300  0.348600  0.775500  1.0  -0.0321
  C  C364  1  0.817700  0.541700  0.771350  1.0  -0.0351
  C  C365  1  0.956800  0.554500  0.292270  1.0  -0.057
  C  C366  1  0.969000  0.649400  0.303720  1.0  0.2123
  C  C367  1  0.977300  0.648600  0.325680  1.0  0.0181
  C  C368  1  0.977700  0.555700  0.336050  1.0  -0.1169
  C  C369  1  0.967000  0.458600  0.325920  1.0  0.0206
  C  C370  1  0.953400  0.463000  0.303590  1.0  0.2177
  C  C371  1  0.985800  0.748400  0.338700  1.0  0.0901
  C  C372  1  0.065600  0.759500  0.354220  1.0  -0.2432
  C  C373  1  0.068900  0.847900  0.366420  1.0  0.1434
  C  C374  1  0.926900  0.917900  0.349260  1.0  0.1312
  C  C375  1  0.917400  0.832800  0.336160  1.0  -0.2249
  C  C376  1  0.971400  0.361700  0.338560  1.0  0.065
  C  C377  1  0.910700  0.348400  0.357030  1.0  -0.244
  C  C378  1  0.922400  0.261100  0.369910  1.0  0.1225
  C  C379  1  0.043500  0.192100  0.346860  1.0  0.1095
  C  C380  1  0.033900  0.277200  0.333333  1.0  -0.2096
  C  C381  1  0.068900  0.792300  0.289440  1.0  -0.0336
  C  C382  1  0.839900  0.323000  0.293780  1.0  -0.0422
  C  C383  1  0.951400  0.555200  0.268060  1.0  -0.0208
  C  C384  1  0.856400  0.556000  0.257460  1.0  0.2054
  C  C385  1  0.851700  0.560100  0.234770  1.0  -0.0216
  C  C386  1  0.943700  0.557800  0.223590  1.0  -0.1195
  C  C387  1  0.042400  0.556000  0.233490  1.0  0.0021
  C  C388  1  0.044600  0.558000  0.255940  1.0  0.1874
  C  C389  1  0.751300  0.557800  0.222730  1.0  0.093
  C  C390  1  0.673300  0.485200  0.226570  1.0  -0.2341
  C  C391  1  0.586200  0.483000  0.212380  1.0  0.157
  C  C392  1  0.648500  0.620200  0.192620  1.0  0.1303
  C  C393  1  0.736500  0.628000  0.205560  1.0  -0.2278
  C  C394  1  0.140500  0.552000  0.220420  1.0  0.0564
  C  C395  1  0.143900  0.483300  0.203090  1.0  -0.2611
  C  C396  1  0.233600  0.478600  0.190750  1.0  0.1359
  C  C397  1  0.311900  0.608200  0.210570  1.0  0.1587
  C  C398  1  0.227300  0.615300  0.223980  1.0  -0.2302
  C  C399  1  0.721700  0.651400  0.275500  1.0  -0.0312
  C  C400  1  0.182300  0.458300  0.271350  1.0  -0.0352
  C  C401  1  0.554500  0.956800  0.707730  1.0  -0.0568
  C  C402  1  0.649400  0.969000  0.696280  1.0  0.2142
  C  C403  1  0.648600  0.977300  0.674320  1.0  0.0179
  C  C404  1  0.555700  0.977700  0.663950  1.0  -0.1168
  C  C405  1  0.458600  0.967000  0.674080  1.0  0.0197
  C  C406  1  0.463000  0.953400  0.696410  1.0  0.2175
  C  C407  1  0.748400  0.985800  0.661300  1.0  0.0884
  C  C408  1  0.759500  0.065600  0.645780  1.0  -0.2455
  C  C409  1  0.847900  0.068900  0.633580  1.0  0.1409
  C  C410  1  0.917900  0.926900  0.650740  1.0  0.1301
  C  C411  1  0.832800  0.917400  0.663840  1.0  -0.2253
  C  C412  1  0.361700  0.971400  0.661440  1.0  0.0613
  C  C413  1  0.348400  0.910700  0.642970  1.0  -0.2419
  C  C414  1  0.261100  0.922400  0.630090  1.0  0.1227
  C  C415  1  0.192100  0.043500  0.653140  1.0  0.1096
  C  C416  1  0.277200  0.033900  0.666667  1.0  -0.2113
  C  C417  1  0.792300  0.068900  0.710560  1.0  -0.0352
  C  C418  1  0.323000  0.839900  0.706220  1.0  -0.0502
  C  C419  1  0.555200  0.951400  0.731940  1.0  -0.0211
  C  C420  1  0.556000  0.856400  0.742540  1.0  0.2058
  C  C421  1  0.560100  0.851700  0.765230  1.0  -0.0213
  C  C422  1  0.557800  0.943700  0.776410  1.0  -0.1191
  C  C423  1  0.556000  0.042400  0.766510  1.0  0.0054
  C  C424  1  0.558000  0.044600  0.744060  1.0  0.1875
  C  C425  1  0.557800  0.751300  0.777270  1.0  0.0951
  C  C426  1  0.485200  0.673300  0.773430  1.0  -0.2362
  C  C427  1  0.483000  0.586200  0.787620  1.0  0.1576
  C  C428  1  0.620200  0.648500  0.807380  1.0  0.1344
  C  C429  1  0.628000  0.736500  0.794440  1.0  -0.2271
  C  C430  1  0.552000  0.140500  0.779580  1.0  0.0578
  C  C431  1  0.483300  0.143900  0.796910  1.0  -0.2643
  C  C432  1  0.478600  0.233600  0.809250  1.0  0.1374
  C  C433  1  0.608200  0.311900  0.789430  1.0  0.1585
  C  C434  1  0.615300  0.227300  0.776020  1.0  -0.2312
  C  C435  1  0.651400  0.721700  0.724500  1.0  -0.0321
  C  C436  1  0.458300  0.182300  0.728650  1.0  -0.0343
  C  C437  1  0.445500  0.043200  0.207730  1.0  -0.0568
  C  C438  1  0.350600  0.031000  0.196280  1.0  0.2135
  C  C439  1  0.351400  0.022700  0.174320  1.0  0.0178
  C  C440  1  0.444300  0.022300  0.163950  1.0  -0.1163
  C  C441  1  0.541400  0.033000  0.174080  1.0  0.0212
  C  C442  1  0.537000  0.046600  0.196410  1.0  0.2176
  C  C443  1  0.251600  0.014200  0.161300  1.0  0.088
  C  C444  1  0.240500  0.934400  0.145780  1.0  -0.2456
  C  C445  1  0.152100  0.931100  0.133580  1.0  0.1417
  C  C446  1  0.082100  0.073100  0.150740  1.0  0.1314
  C  C447  1  0.167200  0.082600  0.163840  1.0  -0.225
  C  C448  1  0.638300  0.028600  0.161440  1.0  0.0625
  C  C449  1  0.651600  0.089300  0.142970  1.0  -0.2416
  C  C450  1  0.738900  0.077600  0.130090  1.0  0.1221
  C  C451  1  0.807900  0.956500  0.153140  1.0  0.1094
  C  C452  1  0.722800  0.966100  0.166650  1.0  -0.2122
  C  C453  1  0.207700  0.931100  0.210560  1.0  -0.0375
  C  C454  1  0.677000  0.160100  0.206220  1.0  -0.049
  C  C455  1  0.444800  0.048600  0.231940  1.0  -0.0211
  C  C456  1  0.444000  0.143600  0.242540  1.0  0.2058
  C  C457  1  0.439900  0.148300  0.265230  1.0  -0.0216
  C  C458  1  0.442200  0.056300  0.276410  1.0  -0.1193
  C  C459  1  0.444000  0.957600  0.266510  1.0  0.0052
  C  C460  1  0.442000  0.955400  0.244060  1.0  0.1879
  C  C461  1  0.442200  0.248700  0.277270  1.0  0.0956
  C  C462  1  0.514800  0.326700  0.273430  1.0  -0.2358
  C  C463  1  0.517000  0.413800  0.287620  1.0  0.1573
  C  C464  1  0.379800  0.351500  0.307380  1.0  0.1341
  C  C465  1  0.372000  0.263500  0.294440  1.0  -0.2282
  C  C466  1  0.448000  0.859500  0.279580  1.0  0.0584
  C  C467  1  0.516700  0.856100  0.296910  1.0  -0.2646
  C  C468  1  0.521400  0.766400  0.309250  1.0  0.1378
  C  C469  1  0.391800  0.688100  0.289430  1.0  0.159
  C  C470  1  0.384700  0.772700  0.276020  1.0  -0.2328
  C  C471  1  0.348600  0.278300  0.224500  1.0  -0.0306
  C  C472  1  0.541700  0.817700  0.228650  1.0  -0.035
  C  C473  1  0.456800  0.945500  0.957730  1.0  -0.0563
  C  C474  1  0.469000  0.850600  0.946280  1.0  0.2119
  C  C475  1  0.477300  0.851400  0.924320  1.0  0.0179
  C  C476  1  0.477700  0.944300  0.913950  1.0  -0.117
  C  C477  1  0.467000  0.041400  0.924080  1.0  0.0205
  C  C478  1  0.453400  0.037000  0.946410  1.0  0.218
  C  C479  1  0.485800  0.751600  0.911300  1.0  0.0908
  C  C480  1  0.565600  0.740500  0.895780  1.0  -0.2432
  C  C481  1  0.568900  0.652100  0.883580  1.0  0.1426
  C  C482  1  0.426900  0.582100  0.900740  1.0  0.1321
  C  C483  1  0.417400  0.667200  0.913840  1.0  -0.2251
  C  C484  1  0.471400  0.138300  0.911440  1.0  0.0644
  C  C485  1  0.410700  0.151600  0.892970  1.0  -0.2434
  C  C486  1  0.422400  0.238900  0.880090  1.0  0.1229
  C  C487  1  0.543500  0.307900  0.903140  1.0  0.1096
  C  C488  1  0.533900  0.222800  0.916650  1.0  -0.2106
  C  C489  1  0.568900  0.707700  0.960560  1.0  -0.0327
  C  C490  1  0.339900  0.177000  0.956220  1.0  -0.046
  C  C491  1  0.451400  0.944800  0.981940  1.0  -0.0218
  C  C492  1  0.356400  0.944000  0.992540  1.0  0.2058
  C  C493  1  0.351700  0.939900  0.015230  1.0  -0.0219
  C  C494  1  0.443700  0.942200  0.026410  1.0  -0.1188
  C  C495  1  0.542400  0.944000  0.016510  1.0  0.0033
  C  C496  1  0.544600  0.942000  0.994060  1.0  0.1883
  C  C497  1  0.251300  0.942200  0.027270  1.0  0.0929
  C  C498  1  0.173300  0.014800  0.023430  1.0  -0.2341
  C  C499  1  0.086200  0.017000  0.037620  1.0  0.1573
  C  C500  1  0.148500  0.879800  0.057380  1.0  0.1318
  C  C501  1  0.236500  0.872000  0.044440  1.0  -0.2268
  C  C502  1  0.640500  0.948000  0.029580  1.0  0.0555
  C  C503  1  0.643900  0.016700  0.046910  1.0  -0.2629
  C  C504  1  0.733600  0.021400  0.059250  1.0  0.1358
  C  C505  1  0.811900  0.891800  0.039430  1.0  0.1587
  C  C506  1  0.727300  0.884700  0.026020  1.0  -0.2303
  C  C507  1  0.221700  0.848600  0.974500  1.0  -0.0316
  C  C508  1  0.682300  0.041700  0.978650  1.0  -0.0346
  C  C509  1  0.543200  0.054500  0.457730  1.0  -0.0573
  C  C510  1  0.531000  0.149400  0.446280  1.0  0.2132
  C  C511  1  0.522700  0.148600  0.424320  1.0  0.0181
  C  C512  1  0.522300  0.055700  0.413950  1.0  -0.1173
  C  C513  1  0.533000  0.958600  0.424080  1.0  0.0205
  C  C514  1  0.546600  0.963000  0.446410  1.0  0.217
  C  C515  1  0.514200  0.248400  0.411300  1.0  0.0896
  C  C516  1  0.434400  0.259500  0.395780  1.0  -0.2441
  C  C517  1  0.431100  0.347900  0.383580  1.0  0.1434
  C  C518  1  0.573100  0.417900  0.400740  1.0  0.1298
  C  C519  1  0.582600  0.332800  0.413840  1.0  -0.223
  C  C520  1  0.528600  0.861700  0.411440  1.0  0.0649
  C  C521  1  0.589300  0.848400  0.392970  1.0  -0.2433
  C  C522  1  0.577600  0.761100  0.380090  1.0  0.1205
  C  C523  1  0.456500  0.692100  0.403140  1.0  0.1099
  C  C524  1  0.466100  0.777200  0.416650  1.0  -0.2113
  C  C525  1  0.431100  0.292300  0.460560  1.0  -0.0334
  C  C526  1  0.660100  0.823000  0.456220  1.0  -0.0444
  C  C527  1  0.548600  0.055200  0.481940  1.0  -0.0212
  C  C528  1  0.643600  0.056000  0.492540  1.0  0.2063
  C  C529  1  0.648300  0.060100  0.515230  1.0  -0.0223
  C  C530  1  0.556300  0.057800  0.526410  1.0  -0.119
  C  C531  1  0.457600  0.056000  0.516510  1.0  0.0041
  C  C532  1  0.455400  0.058000  0.494060  1.0  0.1879
  C  C533  1  0.748700  0.057800  0.527270  1.0  0.0932
  C  C534  1  0.826700  0.985200  0.523430  1.0  -0.2349
  C  C535  1  0.913800  0.983000  0.537620  1.0  0.1566
  C  C536  1  0.851500  0.120200  0.557380  1.0  0.1321
  C  C537  1  0.763500  0.128000  0.544440  1.0  -0.2282
  C  C538  1  0.359500  0.052000  0.529580  1.0  0.0566
  C  C539  1  0.356100  0.983300  0.546910  1.0  -0.2605
  C  C540  1  0.266400  0.978600  0.559250  1.0  0.1363
  C  C541  1  0.188100  0.108200  0.539430  1.0  0.1584
  C  C542  1  0.272700  0.115300  0.526020  1.0  -0.2302
  C  C543  1  0.778300  0.151400  0.474500  1.0  -0.0308
  C  C544  1  0.317700  0.958300  0.478650  1.0  -0.0355
  I  I545  1  0.801800  0.943620  0.900870  1.0  -0.3752
  I  I546  1  0.162200  0.954070  0.909790  1.0  -0.4092
  I  I547  1  0.198200  0.056380  0.400870  1.0  -0.3764
  I  I548  1  0.837800  0.045930  0.409790  1.0  -0.4087
  I  I549  1  0.556380  0.301800  0.650870  1.0  -0.3759
  I  I550  1  0.545930  0.662200  0.659790  1.0  -0.4097
  I  I551  1  0.443620  0.698200  0.150870  1.0  -0.3757
  I  I552  1  0.454070  0.337800  0.159790  1.0  -0.4099
  I  I553  1  0.698200  0.443620  0.849130  1.0  -0.3777
  I  I554  1  0.337800  0.454070  0.840210  1.0  -0.4093
  I  I555  1  0.301800  0.556380  0.349130  1.0  -0.3765
  I  I556  1  0.662200  0.545930  0.340210  1.0  -0.4102
  I  I557  1  0.943620  0.801800  0.099130  1.0  -0.3769
  I  I558  1  0.954070  0.162200  0.090210  1.0  -0.4111
  I  I559  1  0.056380  0.198200  0.599130  1.0  -0.3771
  I  I560  1  0.045930  0.837800  0.590210  1.0  -0.4101
  N  N561  1  0.572900  0.502400  0.114340  1.0  -0.3209
  N  N562  1  0.316900  0.486100  0.115050  1.0  -0.2968
  N  N563  1  0.951600  0.074900  0.946070  1.0  -0.2999
  N  N564  1  0.960200  0.818000  0.944080  1.0  -0.3454
  N  N565  1  0.427100  0.497600  0.614340  1.0  -0.3198
  N  N566  1  0.683100  0.513900  0.615050  1.0  -0.2966
  N  N567  1  0.048400  0.925100  0.446070  1.0  -0.2989
  N  N568  1  0.039800  0.182000  0.444080  1.0  -0.3471
  N  N569  1  0.997600  0.072900  0.864340  1.0  -0.3207
  N  N570  1  0.013900  0.816900  0.865050  1.0  -0.2973
  N  N571  1  0.425100  0.451600  0.696070  1.0  -0.2974
  N  N572  1  0.682000  0.460200  0.694080  1.0  -0.344
  N  N573  1  0.002400  0.927100  0.364340  1.0  -0.3218
  N  N574  1  0.986100  0.183100  0.365050  1.0  -0.2958
  N  N575  1  0.574900  0.548400  0.196070  1.0  -0.2993
  N  N576  1  0.318000  0.539800  0.194080  1.0  -0.3452
  N  N577  1  0.927100  0.002400  0.635660  1.0  -0.3212
  N  N578  1  0.183100  0.986100  0.634950  1.0  -0.2977
  N  N579  1  0.548400  0.574900  0.803930  1.0  -0.3005
  N  N580  1  0.539800  0.318000  0.805920  1.0  -0.3456
  N  N581  1  0.072900  0.997600  0.135660  1.0  -0.3211
  N  N582  1  0.816900  0.013900  0.134950  1.0  -0.2983
  N  N583  1  0.451600  0.425100  0.303930  1.0  -0.3
  N  N584  1  0.460200  0.682000  0.305920  1.0  -0.3464
  N  N585  1  0.502400  0.572900  0.885660  1.0  -0.3225
  N  N586  1  0.486100  0.316900  0.884950  1.0  -0.2976
  N  N587  1  0.074900  0.951600  0.053930  1.0  -0.2999
  N  N588  1  0.818000  0.960200  0.055920  1.0  -0.3443
  N  N589  1  0.497600  0.427100  0.385660  1.0  -0.3218
  N  N590  1  0.513900  0.683100  0.384950  1.0  -0.298
  N  N591  1  0.925100  0.048400  0.553930  1.0  -0.297
  N  N592  1  0.182000  0.039800  0.555920  1.0  -0.3435
  O  O593  1  0.757900  0.468900  0.041540  1.0  -0.2881
  O  O594  1  0.131100  0.444600  0.042150  1.0  -0.3207
  O  O595  1  0.950200  0.263100  0.019230  1.0  -0.2832
  O  O596  1  0.941000  0.640200  0.016890  1.0  -0.2847
  O  O597  1  0.242100  0.531100  0.541540  1.0  -0.2853
  O  O598  1  0.868900  0.555400  0.542150  1.0  -0.3247
  O  O599  1  0.049800  0.736900  0.519230  1.0  -0.2815
  O  O600  1  0.059000  0.359800  0.516890  1.0  -0.2852
  O  O601  1  0.031100  0.257900  0.791540  1.0  -0.2873
  O  O602  1  0.055400  0.631100  0.792150  1.0  -0.322
  O  O603  1  0.236900  0.450200  0.769230  1.0  -0.2801
  O  O604  1  0.859800  0.441000  0.766890  1.0  -0.2859
  O  O605  1  0.968900  0.742100  0.291540  1.0  -0.2861
  O  O606  1  0.944600  0.368900  0.292150  1.0  -0.3199
  O  O607  1  0.763100  0.549800  0.269230  1.0  -0.2821
  O  O608  1  0.140200  0.559000  0.266890  1.0  -0.2837
  O  O609  1  0.742100  0.968900  0.708460  1.0  -0.2862
  O  O610  1  0.368900  0.944600  0.707850  1.0  -0.3229
  O  O611  1  0.549800  0.763100  0.730770  1.0  -0.2837
  O  O612  1  0.559000  0.140200  0.733110  1.0  -0.2855
  O  O613  1  0.257900  0.031100  0.208460  1.0  -0.2882
  O  O614  1  0.631100  0.055400  0.207850  1.0  -0.3229
  O  O615  1  0.450200  0.236900  0.230770  1.0  -0.281
  O  O616  1  0.441000  0.859800  0.233110  1.0  -0.2858
  O  O617  1  0.468900  0.757900  0.958460  1.0  -0.2873
  O  O618  1  0.444600  0.131100  0.957850  1.0  -0.3223
  O  O619  1  0.263100  0.950200  0.980770  1.0  -0.2809
  O  O620  1  0.640200  0.941000  0.983110  1.0  -0.2847
  O  O621  1  0.531100  0.242100  0.458460  1.0  -0.2889
  O  O622  1  0.555400  0.868900  0.457850  1.0  -0.3213
  O  O623  1  0.736900  0.049800  0.480770  1.0  -0.2805
  O  O624  1  0.359800  0.059000  0.483110  1.0  -0.2853
