# generated using pymatgen
data_Zn2H48RuC60(NO8)2
_symmetry_space_group_name_H-M   'P 1'
_cell_length_a   14.51400000
_cell_length_b   24.57200000
_cell_length_c   22.31400000
_cell_angle_alpha   90.00000000
_cell_angle_beta   90.00000000
_cell_angle_gamma   90.00000000
_symmetry_Int_Tables_number   1
_chemical_formula_structural   Zn2H48RuC60(NO8)2
_chemical_formula_sum   'Zn8 H192 Ru4 C240 N8 O64'
_cell_volume   7958.02051051
_cell_formula_units_Z   4
loop_
 _symmetry_equiv_pos_site_id
 _symmetry_equiv_pos_as_xyz
  1  'x, y, z'
loop_
 _atom_site_type_symbol
 _atom_site_label
 _atom_site_symmetry_multiplicity
 _atom_site_fract_x
 _atom_site_fract_y
 _atom_site_fract_z
 _atom_site_occupancy
 _atom_site_charge
  Zn  Zn1  1  0.457730  0.844320  0.147910  1.0  1.0434
  Zn  Zn2  1  0.042270  0.344320  0.147910  1.0  1.043
  Zn  Zn3  1  0.537570  0.841870  0.826220  1.0  1.0281
  Zn  Zn4  1  0.962430  0.341870  0.826220  1.0  1.0275
  Zn  Zn5  1  0.957730  0.655680  0.647910  1.0  1.0435
  Zn  Zn6  1  0.037570  0.658130  0.326220  1.0  1.0285
  Zn  Zn7  1  0.542270  0.155680  0.647910  1.0  1.0432
  Zn  Zn8  1  0.462430  0.158130  0.326220  1.0  1.0283
  H  H9  1  0.515100  0.374300  0.889400  1.0  0.1246
  H  H10  1  0.546300  0.916500  0.513300  1.0  0.1205
  H  H11  1  0.235600  0.131600  0.980700  1.0  0.1153
  H  H12  1  0.834800  0.874300  0.851200  1.0  0.1055
  H  H13  1  0.248200  0.319500  0.963900  1.0  0.1084
  H  H14  1  0.594400  0.994700  0.171700  1.0  0.107
  H  H15  1  0.905600  0.494700  0.171700  1.0  0.1073
  H  H16  1  0.148200  0.211600  0.983400  1.0  0.109
  H  H17  1  0.965400  0.269500  0.646400  1.0  0.1155
  H  H18  1  0.112100  0.249000  0.359500  1.0  0.1084
  H  H19  1  0.915500  0.189000  0.163500  1.0  0.1089
  H  H20  1  0.509800  0.755400  0.544000  1.0  0.1114
  H  H21  1  0.102900  0.828600  0.925000  1.0  0.1215
  H  H22  1  0.683900  0.073900  0.171200  1.0  0.118
  H  H23  1  0.674700  0.610100  0.160900  1.0  0.1268
  H  H24  1  0.397100  0.328600  0.925000  1.0  0.1215
  H  H25  1  0.484300  0.390400  0.083600  1.0  0.1237
  H  H26  1  0.284000  0.062300  0.803800  1.0  0.1237
  H  H27  1  0.164600  0.881200  0.122500  1.0  0.1115
  H  H28  1  0.733400  0.856700  0.019300  1.0  0.106
  H  H29  1  0.927000  0.393600  0.423900  1.0  0.1149
  H  H30  1  0.351800  0.711600  0.983400  1.0  0.1092
  H  H31  1  0.139400  0.099600  0.813900  1.0  0.1247
  H  H32  1  0.387900  0.749000  0.359500  1.0  0.1079
  H  H33  1  0.125300  0.483700  0.800000  1.0  0.1055
  H  H34  1  0.534600  0.769500  0.646400  1.0  0.1157
  H  H35  1  0.825300  0.110100  0.160900  1.0  0.1266
  H  H36  1  0.665200  0.374300  0.851200  1.0  0.105
  H  H37  1  0.886300  0.486100  0.990700  1.0  0.1056
  H  H38  1  0.573000  0.893600  0.423900  1.0  0.1147
  H  H39  1  0.075600  0.258100  0.461100  1.0  0.1157
  H  H40  1  0.015700  0.890400  0.083600  1.0  0.1234
  H  H41  1  0.170500  0.458400  0.977100  1.0  0.11
  H  H42  1  0.424400  0.758100  0.461100  1.0  0.1155
  H  H43  1  0.261300  0.537100  0.980900  1.0  0.1222
  H  H44  1  0.616500  0.356700  0.057600  1.0  0.1234
  H  H45  1  0.613700  0.986100  0.990700  1.0  0.1052
  H  H46  1  0.788000  0.659600  0.004100  1.0  0.12
  H  H47  1  0.883500  0.856700  0.057600  1.0  0.1232
  H  H48  1  0.374700  0.983700  0.800000  1.0  0.1055
  H  H49  1  0.335400  0.381200  0.122500  1.0  0.1114
  H  H50  1  0.584500  0.689000  0.163500  1.0  0.109
  H  H51  1  0.928800  0.430700  0.615700  1.0  0.1131
  H  H52  1  0.697800  0.738500  0.006700  1.0  0.1011
  H  H53  1  0.802200  0.238500  0.006700  1.0  0.1015
  H  H54  1  0.984900  0.874300  0.889400  1.0  0.1244
  H  H55  1  0.953700  0.416500  0.513300  1.0  0.1206
  H  H56  1  0.963500  0.384500  0.322200  1.0  0.106
  H  H57  1  0.052000  0.179600  0.816600  1.0  0.1111
  H  H58  1  0.703300  0.065300  0.990200  1.0  0.1212
  H  H59  1  0.571200  0.930700  0.615700  1.0  0.1132
  H  H60  1  0.238700  0.037100  0.980900  1.0  0.122
  H  H61  1  0.264400  0.631600  0.980700  1.0  0.1152
  H  H62  1  0.990200  0.255400  0.544000  1.0  0.1115
  H  H63  1  0.766600  0.356700  0.019300  1.0  0.106
  H  H64  1  0.329500  0.958400  0.977100  1.0  0.1101
  H  H65  1  0.796700  0.565300  0.990200  1.0  0.1214
  H  H66  1  0.360600  0.599600  0.813900  1.0  0.1251
  H  H67  1  0.448000  0.679600  0.816600  1.0  0.1113
  H  H68  1  0.712000  0.159600  0.004100  1.0  0.1204
  H  H69  1  0.536500  0.884500  0.322200  1.0  0.1058
  H  H70  1  0.816100  0.573900  0.171200  1.0  0.1182
  H  H71  1  0.251800  0.819500  0.963900  1.0  0.1083
  H  H72  1  0.216000  0.562300  0.803800  1.0  0.1244
  H  H73  1  0.465400  0.230500  0.146400  1.0  0.115
  H  H74  1  0.183900  0.426100  0.671200  1.0  0.118
  H  H75  1  0.071200  0.569300  0.115700  1.0  0.1135
  H  H76  1  0.829500  0.541600  0.477100  1.0  0.1098
  H  H77  1  0.924400  0.741900  0.961100  1.0  0.1156
  H  H78  1  0.325300  0.389900  0.660900  1.0  0.1261
  H  H79  1  0.233400  0.643300  0.519300  1.0  0.1058
  H  H80  1  0.735600  0.368400  0.480700  1.0  0.115
  H  H81  1  0.887900  0.751000  0.859500  1.0  0.1081
  H  H82  1  0.174700  0.889900  0.660900  1.0  0.1258
  H  H83  1  0.784000  0.437700  0.303800  1.0  0.1237
  H  H84  1  0.116500  0.143300  0.557600  1.0  0.1237
  H  H85  1  0.625300  0.016300  0.300000  1.0  0.1055
  H  H86  1  0.383500  0.643300  0.557600  1.0  0.1235
  H  H87  1  0.515700  0.609600  0.583600  1.0  0.1234
  H  H88  1  0.738700  0.462900  0.480900  1.0  0.122
  H  H89  1  0.316100  0.926100  0.671200  1.0  0.1184
  H  H90  1  0.386300  0.013900  0.490700  1.0  0.1053
  H  H91  1  0.860600  0.900400  0.313900  1.0  0.1256
  H  H92  1  0.874700  0.516300  0.300000  1.0  0.1054
  H  H93  1  0.761300  0.962900  0.480900  1.0  0.1221
  H  H94  1  0.073000  0.606400  0.923900  1.0  0.1151
  H  H95  1  0.670500  0.041600  0.477100  1.0  0.1099
  H  H96  1  0.716000  0.937700  0.303800  1.0  0.124
  H  H97  1  0.302200  0.261500  0.506700  1.0  0.1018
  H  H98  1  0.094400  0.505300  0.671700  1.0  0.107
  H  H99  1  0.084500  0.811000  0.663500  1.0  0.1086
  H  H100  1  0.034600  0.730500  0.146400  1.0  0.1153
  H  H101  1  0.334800  0.625700  0.351200  1.0  0.1055
  H  H102  1  0.212000  0.340400  0.504100  1.0  0.1204
  H  H103  1  0.552000  0.320400  0.316600  1.0  0.1112
  H  H104  1  0.015100  0.125700  0.389400  1.0  0.1242
  H  H105  1  0.113700  0.513900  0.490700  1.0  0.1051
  H  H106  1  0.897100  0.171400  0.425000  1.0  0.1216
  H  H107  1  0.835400  0.118800  0.622500  1.0  0.1115
  H  H108  1  0.751800  0.680500  0.463900  1.0  0.1084
  H  H109  1  0.484900  0.625700  0.389400  1.0  0.1241
  H  H110  1  0.036500  0.615500  0.822200  1.0  0.1059
  H  H111  1  0.288000  0.840400  0.504100  1.0  0.1199
  H  H112  1  0.296700  0.934700  0.490200  1.0  0.1223
  H  H113  1  0.664600  0.618800  0.622500  1.0  0.1118
  H  H114  1  0.405600  0.005300  0.671700  1.0  0.107
  H  H115  1  0.463500  0.115500  0.822200  1.0  0.1061
  H  H116  1  0.648200  0.288400  0.483400  1.0  0.1088
  H  H117  1  0.984300  0.109600  0.583600  1.0  0.1238
  H  H118  1  0.612100  0.251000  0.859500  1.0  0.1081
  H  H119  1  0.046300  0.583500  0.013300  1.0  0.1199
  H  H120  1  0.197800  0.761500  0.506700  1.0  0.1013
  H  H121  1  0.415500  0.311000  0.663500  1.0  0.1088
  H  H122  1  0.851800  0.788400  0.483400  1.0  0.1091
  H  H123  1  0.748200  0.180500  0.463900  1.0  0.1095
  H  H124  1  0.165200  0.125700  0.351200  1.0  0.1051
  H  H125  1  0.428800  0.069300  0.115700  1.0  0.1135
  H  H126  1  0.602900  0.671400  0.425000  1.0  0.1216
  H  H127  1  0.453700  0.083500  0.013300  1.0  0.1199
  H  H128  1  0.490200  0.244600  0.044000  1.0  0.1111
  H  H129  1  0.427000  0.106400  0.923900  1.0  0.1148
  H  H130  1  0.639400  0.400400  0.313900  1.0  0.125
  H  H131  1  0.203300  0.434700  0.490200  1.0  0.1215
  H  H132  1  0.266600  0.143300  0.519300  1.0  0.1058
  H  H133  1  0.575600  0.241900  0.961100  1.0  0.1158
  H  H134  1  0.948000  0.820400  0.316600  1.0  0.1114
  H  H135  1  0.009800  0.744600  0.044000  1.0  0.111
  H  H136  1  0.764400  0.868400  0.480700  1.0  0.1154
  H  H137  1  0.253500  0.731400  0.150600  1.0  0.0834
  H  H138  1  0.379900  0.636300  0.236800  1.0  0.0916
  H  H139  1  0.396300  0.712800  0.184300  1.0  0.1927
  H  H140  1  0.262600  0.680300  0.106500  1.0  0.0851
  H  H141  1  0.404700  0.666000  0.143800  1.0  0.1883
  H  H142  1  0.327600  0.732300  0.097500  1.0  0.0823
  H  H143  1  0.295600  0.619800  0.194300  1.0  0.0912
  H  H144  1  0.286500  0.670900  0.238400  1.0  0.094
  H  H145  1  0.155600  0.437300  0.264000  1.0  0.0928
  H  H146  1  0.142200  0.530200  0.385000  1.0  0.0819
  H  H147  1  0.129800  0.482500  0.215100  1.0  0.0881
  H  H148  1  0.199500  0.520800  0.293100  1.0  0.2
  H  H149  1  0.104900  0.541300  0.289100  1.0  0.183
  H  H150  1  0.060100  0.489900  0.367100  1.0  0.0769
  H  H151  1  0.163400  0.467500  0.371500  1.0  0.0755
  H  H152  1  0.052300  0.459700  0.259500  1.0  0.0829
  H  H153  1  0.870200  0.517500  0.715100  1.0  0.0874
  H  H154  1  0.947700  0.540300  0.759500  1.0  0.0848
  H  H155  1  0.857800  0.469800  0.885000  1.0  0.0809
  H  H156  1  0.844400  0.562700  0.764000  1.0  0.0928
  H  H157  1  0.800500  0.479200  0.793100  1.0  0.2034
  H  H158  1  0.836600  0.532500  0.871500  1.0  0.0746
  H  H159  1  0.939900  0.510100  0.867100  1.0  0.0774
  H  H160  1  0.895100  0.458700  0.789100  1.0  0.1802
  H  H161  1  0.246500  0.231400  0.150600  1.0  0.0831
  H  H162  1  0.103700  0.212800  0.184300  1.0  0.1935
  H  H163  1  0.213500  0.170900  0.238400  1.0  0.0941
  H  H164  1  0.237400  0.180300  0.106500  1.0  0.0845
  H  H165  1  0.172400  0.232300  0.097500  1.0  0.0824
  H  H166  1  0.120100  0.136300  0.236800  1.0  0.092
  H  H167  1  0.204400  0.119800  0.194300  1.0  0.0891
  H  H168  1  0.095300  0.166000  0.143800  1.0  0.1942
  H  H169  1  0.370200  0.982500  0.215100  1.0  0.087
  H  H170  1  0.357800  0.030200  0.385000  1.0  0.0818
  H  H171  1  0.336600  0.967500  0.371500  1.0  0.0748
  H  H172  1  0.447700  0.959700  0.259500  1.0  0.0847
  H  H173  1  0.395100  0.041300  0.289100  1.0  0.1819
  H  H174  1  0.300500  0.020800  0.293100  1.0  0.2032
  H  H175  1  0.439900  0.989900  0.367100  1.0  0.0777
  H  H176  1  0.344400  0.937300  0.264000  1.0  0.0908
  H  H177  1  0.879900  0.863700  0.736800  1.0  0.0922
  H  H178  1  0.786500  0.829100  0.738400  1.0  0.0934
  H  H179  1  0.762600  0.819700  0.606500  1.0  0.0863
  H  H180  1  0.753500  0.768600  0.650600  1.0  0.0828
  H  H181  1  0.896300  0.787200  0.684300  1.0  0.1923
  H  H182  1  0.795600  0.880200  0.694300  1.0  0.092
  H  H183  1  0.904700  0.834000  0.643800  1.0  0.1892
  H  H184  1  0.827600  0.767700  0.597500  1.0  0.0821
  H  H185  1  0.704400  0.380200  0.694300  1.0  0.0906
  H  H186  1  0.746500  0.268600  0.650600  1.0  0.0822
  H  H187  1  0.620100  0.363700  0.736800  1.0  0.092
  H  H188  1  0.595300  0.334000  0.643800  1.0  0.1943
  H  H189  1  0.713500  0.329100  0.738400  1.0  0.0933
  H  H190  1  0.603700  0.287200  0.684300  1.0  0.192
  H  H191  1  0.737400  0.319700  0.606500  1.0  0.0855
  H  H192  1  0.672400  0.267700  0.597500  1.0  0.0822
  H  H193  1  0.699500  0.979200  0.793100  1.0  0.1997
  H  H194  1  0.552300  0.040300  0.759500  1.0  0.0837
  H  H195  1  0.663400  0.032500  0.871500  1.0  0.0744
  H  H196  1  0.560100  0.010100  0.867100  1.0  0.0774
  H  H197  1  0.604900  0.958700  0.789100  1.0  0.1806
  H  H198  1  0.629800  0.017500  0.715100  1.0  0.0884
  H  H199  1  0.642200  0.969800  0.885000  1.0  0.0816
  H  H200  1  0.655600  0.062700  0.764000  1.0  0.0933
  Ru  Ru201  1  0.496340  0.845160  0.990400  1.0  0.8383
  Ru  Ru202  1  0.003660  0.345160  0.990400  1.0  0.8366
  Ru  Ru203  1  0.996340  0.654840  0.490400  1.0  0.8368
  Ru  Ru204  1  0.503660  0.154840  0.490400  1.0  0.839
  C  C205  1  0.595600  0.983000  0.081200  1.0  -0.1556
  C  C206  1  0.360600  0.963640  0.888200  1.0  -0.1626
  C  C207  1  0.195700  0.108100  0.897000  1.0  0.0486
  C  C208  1  0.693100  0.712400  0.038000  1.0  -0.0348
  C  C209  1  0.293200  0.041210  0.839000  1.0  -0.1414
  C  C210  1  0.063500  0.310800  0.269500  1.0  0.7103
  C  C211  1  0.347100  0.994490  0.836700  1.0  -0.0182
  C  C212  1  0.535500  0.864300  0.410800  1.0  -0.1213
  C  C213  1  0.543900  0.886700  0.540300  1.0  -0.0961
  C  C214  1  0.320200  0.979500  0.941900  1.0  -0.0376
  C  C215  1  0.089300  0.169860  0.849900  1.0  -0.0556
  C  C216  1  0.183300  0.343100  0.068200  1.0  0.6621
  C  C217  1  0.963000  0.299380  0.619400  1.0  -0.047
  C  C218  1  0.655300  0.370720  0.893100  1.0  -0.0296
  C  C219  1  0.513800  0.858900  0.350400  1.0  -0.0852
  C  C220  1  0.874200  0.183000  0.131100  1.0  -0.0407
  C  C221  1  0.702000  0.077100  0.080600  1.0  0.0459
  C  C222  1  0.669600  0.056100  0.134500  1.0  -0.153
  C  C223  1  0.502200  0.826700  0.452100  1.0  0.0148
  C  C224  1  0.844700  0.870720  0.893100  1.0  -0.0297
  C  C225  1  0.673000  0.862100  0.904300  1.0  0.6759
  C  C226  1  0.681200  0.051000  0.027100  1.0  -0.1239
  C  C227  1  0.818800  0.551000  0.027100  1.0  -0.1244
  C  C228  1  0.233700  0.526210  0.944200  1.0  -0.1323
  C  C229  1  0.566200  0.370700  0.915800  1.0  -0.1457
  C  C230  1  0.139400  0.463640  0.888200  1.0  -0.1641
  C  C231  1  0.715500  0.360240  0.992900  1.0  -0.0336
  C  C232  1  0.948300  0.865500  0.977100  1.0  0.0471
  C  C233  1  0.074500  0.278400  0.372500  1.0  -0.0617
  C  C234  1  0.679400  0.636100  0.129600  1.0  -0.16
  C  C235  1  0.904400  0.483000  0.081200  1.0  -0.1557
  C  C236  1  0.316700  0.843100  0.068200  1.0  0.6626
  C  C237  1  0.454700  0.360400  0.000600  1.0  0.0614
  C  C238  1  0.537000  0.799380  0.619400  1.0  -0.0469
  C  C239  1  0.540700  0.930200  0.083300  1.0  0.6846
  C  C240  1  0.933800  0.870700  0.915800  1.0  -0.1461
  C  C241  1  0.830400  0.556100  0.134500  1.0  -0.1536
  C  C242  1  0.353600  0.688870  0.949000  1.0  -0.0241
  C  C243  1  0.628000  0.003900  0.027400  1.0  -0.0279
  C  C244  1  0.266300  0.026210  0.944200  1.0  -0.1312
  C  C245  1  0.152100  0.870600  0.082400  1.0  -0.0355
  C  C246  1  0.413300  0.911400  0.888000  1.0  0.6444
  C  C247  1  0.384600  0.339300  0.965100  1.0  -0.129
  C  C248  1  0.806900  0.212400  0.038000  1.0  -0.0341
  C  C249  1  0.925600  0.272800  0.089000  1.0  0.6865
  C  C250  1  0.115400  0.839300  0.965100  1.0  -0.1295
  C  C251  1  0.827000  0.362100  0.904300  1.0  0.6754
  C  C252  1  0.974300  0.334600  0.519000  1.0  -0.0133
  C  C253  1  0.770000  0.865480  0.931600  1.0  -0.1495
  C  C254  1  0.632700  0.721140  0.085300  1.0  -0.1202
  C  C255  1  0.203800  0.833900  0.988200  1.0  -0.0862
  C  C256  1  0.522200  0.791000  0.558500  1.0  -0.1058
  C  C257  1  0.551700  0.365500  0.977100  1.0  0.0479
  C  C258  1  0.820600  0.136100  0.129600  1.0  -0.1591
  C  C259  1  0.574400  0.772800  0.089000  1.0  0.689
  C  C260  1  0.977800  0.291000  0.558500  1.0  -0.1059
  C  C261  1  0.425500  0.778400  0.372500  1.0  -0.0617
  C  C262  1  0.152900  0.494490  0.836700  1.0  -0.0194
  C  C263  1  0.063600  0.876000  0.059300  1.0  -0.1592
  C  C264  1  0.141200  0.122350  0.848300  1.0  -0.1613
  C  C265  1  0.558700  0.895100  0.601200  1.0  -0.0498
  C  C266  1  0.625800  0.683000  0.131100  1.0  -0.0403
  C  C267  1  0.872000  0.503900  0.027400  1.0  -0.0287
  C  C268  1  0.939800  0.362700  0.705700  1.0  0.6933
  C  C269  1  0.277800  0.349500  0.046900  1.0  -0.1461
  C  C270  1  0.730000  0.365480  0.931600  1.0  -0.1495
  C  C271  1  0.206800  0.541210  0.839000  1.0  -0.1419
  C  C272  1  0.560200  0.862700  0.705700  1.0  0.6929
  C  C273  1  0.052800  0.283800  0.432900  1.0  -0.112
  C  C274  1  0.458800  0.815900  0.331300  1.0  -0.0776
  C  C275  1  0.045300  0.860400  0.000600  1.0  0.0611
  C  C276  1  0.410700  0.669860  0.849900  1.0  -0.0563
  C  C277  1  0.146400  0.188870  0.949000  1.0  -0.024
  C  C278  1  0.944800  0.351430  0.640700  1.0  -0.1595
  C  C279  1  0.964500  0.364300  0.410800  1.0  -0.1197
  C  C280  1  0.626400  0.360200  0.015700  1.0  -0.1306
  C  C281  1  0.347900  0.370600  0.082400  1.0  -0.0355
  C  C282  1  0.086700  0.411400  0.888000  1.0  0.645
  C  C283  1  0.032300  0.255200  0.901800  1.0  0.6906
  C  C284  1  0.959300  0.430200  0.083300  1.0  0.6853
  C  C285  1  0.956100  0.386700  0.540300  1.0  -0.0944
  C  C286  1  0.616500  0.009000  0.134800  1.0  -0.0176
  C  C287  1  0.746700  0.665600  0.036400  1.0  -0.1356
  C  C288  1  0.739800  0.627400  0.082200  1.0  0.0586
  C  C289  1  0.304300  0.608100  0.897000  1.0  0.0462
  C  C290  1  0.467700  0.755200  0.901800  1.0  0.6903
  C  C291  1  0.301700  0.641360  0.947400  1.0  -0.1408
  C  C292  1  0.986200  0.358900  0.350400  1.0  -0.0866
  C  C293  1  0.252800  0.057070  0.892700  1.0  0.0803
  C  C294  1  0.296200  0.333900  0.988200  1.0  -0.0858
  C  C295  1  0.091900  0.203130  0.900300  1.0  -0.118
  C  C296  1  0.760200  0.127400  0.082200  1.0  0.0567
  C  C297  1  0.447200  0.783800  0.432900  1.0  -0.1122
  C  C298  1  0.753300  0.165600  0.036400  1.0  -0.1354
  C  C299  1  0.222200  0.849500  0.046900  1.0  -0.1459
  C  C300  1  0.041200  0.315900  0.331300  1.0  -0.0769
  C  C301  1  0.784500  0.860240  0.992900  1.0  -0.0329
  C  C302  1  0.436400  0.376000  0.059300  1.0  -0.1585
  C  C303  1  0.525700  0.834600  0.519000  1.0  -0.0137
  C  C304  1  0.798000  0.577100  0.080600  1.0  0.0496
  C  C305  1  0.555200  0.851430  0.640700  1.0  -0.1596
  C  C306  1  0.883500  0.509000  0.134800  1.0  -0.0192
  C  C307  1  0.436500  0.810800  0.269500  1.0  0.71
  C  C308  1  0.873600  0.860200  0.015700  1.0  -0.1319
  C  C309  1  0.941300  0.395100  0.601200  1.0  -0.0485
  C  C310  1  0.358800  0.622350  0.848300  1.0  -0.1625
  C  C311  1  0.997800  0.326700  0.452100  1.0  0.0148
  C  C312  1  0.247200  0.557070  0.892700  1.0  0.0788
  C  C313  1  0.408100  0.703130  0.900300  1.0  -0.118
  C  C314  1  0.179800  0.479500  0.941900  1.0  -0.0336
  C  C315  1  0.198300  0.141360  0.947400  1.0  -0.142
  C  C316  1  0.867300  0.221140  0.085300  1.0  -0.1195
  C  C317  1  0.967700  0.744800  0.401800  1.0  0.6901
  C  C318  1  0.910700  0.830140  0.349900  1.0  -0.0561
  C  C319  1  0.116500  0.491000  0.634800  1.0  -0.0174
  C  C320  1  0.066200  0.129300  0.415800  1.0  -0.1444
  C  C321  1  0.327000  0.137900  0.404300  1.0  0.6752
  C  C322  1  0.703800  0.666100  0.488200  1.0  -0.0863
  C  C323  1  0.860600  0.536360  0.388200  1.0  -0.1619
  C  C324  1  0.095600  0.517000  0.581200  1.0  -0.1539
  C  C325  1  0.947200  0.716200  0.932900  1.0  -0.1122
  C  C326  1  0.051700  0.134500  0.477100  1.0  0.0471
  C  C327  1  0.847900  0.129400  0.582400  1.0  -0.0381
  C  C328  1  0.652900  0.005510  0.336700  1.0  -0.0141
  C  C329  1  0.239800  0.872600  0.582200  1.0  0.0579
  C  C330  1  0.035500  0.635700  0.910800  1.0  -0.1205
  C  C331  1  0.058700  0.604900  0.101200  1.0  -0.0484
  C  C332  1  0.448300  0.634500  0.477100  1.0  0.0469
  C  C333  1  0.173000  0.637900  0.404300  1.0  0.6757
  C  C334  1  0.541200  0.184100  0.831300  1.0  -0.0762
  C  C335  1  0.373600  0.639800  0.515700  1.0  -0.1319
  C  C336  1  0.155300  0.129280  0.393100  1.0  -0.0303
  C  C337  1  0.074400  0.727200  0.589000  1.0  0.6895
  C  C338  1  0.954700  0.139600  0.500600  1.0  0.0622
  C  C339  1  0.820200  0.520500  0.441900  1.0  -0.0343
  C  C340  1  0.055200  0.648570  0.140700  1.0  -0.1602
  C  C341  1  0.652100  0.629400  0.582400  1.0  -0.0373
  C  C342  1  0.439800  0.137300  0.205700  1.0  0.694
  C  C343  1  0.425600  0.227200  0.589000  1.0  0.6867
  C  C344  1  0.464500  0.135700  0.910800  1.0  -0.1188
  C  C345  1  0.766300  0.473790  0.444200  1.0  -0.1325
  C  C346  1  0.298000  0.922900  0.580600  1.0  0.0495
  C  C347  1  0.925500  0.721600  0.872500  1.0  -0.0619
  C  C348  1  0.722200  0.650500  0.546900  1.0  -0.146
  C  C349  1  0.793200  0.458790  0.339000  1.0  -0.141
  C  C350  1  0.433800  0.629300  0.415800  1.0  -0.1473
  C  C351  1  0.545300  0.639600  0.500600  1.0  0.0617
  C  C352  1  0.246700  0.834400  0.536400  1.0  -0.1353
  C  C353  1  0.936400  0.124000  0.559300  1.0  -0.16
  C  C354  1  0.022200  0.709000  0.058500  1.0  -0.1057
  C  C355  1  0.270000  0.634520  0.431600  1.0  -0.1497
  C  C356  1  0.330400  0.943900  0.634500  1.0  -0.1533
  C  C357  1  0.615400  0.660700  0.465100  1.0  -0.1294
  C  C358  1  0.456100  0.113300  0.040300  1.0  -0.0971
  C  C359  1  0.477800  0.209000  0.058500  1.0  -0.106
  C  C360  1  0.320600  0.363900  0.629600  1.0  -0.1594
  C  C361  1  0.253300  0.334400  0.536400  1.0  -0.135
  C  C362  1  0.367300  0.278860  0.585300  1.0  -0.1198
  C  C363  1  0.025700  0.665400  0.019000  1.0  -0.0138
  C  C364  1  0.284500  0.639760  0.492900  1.0  -0.0323
  C  C365  1  0.497800  0.173300  0.952100  1.0  0.0142
  C  C366  1  0.591900  0.296870  0.400300  1.0  -0.1185
  C  C367  1  0.002200  0.673300  0.952100  1.0  0.0142
  C  C368  1  0.552800  0.216200  0.932900  1.0  -0.1123
  C  C369  1  0.908100  0.796870  0.400300  1.0  -0.1181
  C  C370  1  0.441300  0.104900  0.101200  1.0  -0.0483
  C  C371  1  0.574500  0.221600  0.872500  1.0  -0.0623
  C  C372  1  0.853600  0.811130  0.449000  1.0  -0.0239
  C  C373  1  0.563600  0.624000  0.559300  1.0  -0.1582
  C  C374  1  0.230000  0.134520  0.431600  1.0  -0.1495
  C  C375  1  0.679800  0.020500  0.441900  1.0  -0.0378
  C  C376  1  0.958800  0.684100  0.831300  1.0  -0.0767
  C  C377  1  0.913300  0.588600  0.388000  1.0  0.6451
  C  C378  1  0.306900  0.287600  0.538000  1.0  -0.0348
  C  C379  1  0.733700  0.973790  0.444200  1.0  -0.1318
  C  C380  1  0.459300  0.069800  0.583300  1.0  0.6842
  C  C381  1  0.706800  0.958790  0.339000  1.0  -0.1416
  C  C382  1  0.683300  0.156900  0.568200  1.0  0.6628
  C  C383  1  0.169600  0.443900  0.634500  1.0  -0.1523
  C  C384  1  0.796200  0.166100  0.488200  1.0  -0.0857
  C  C385  1  0.193100  0.787600  0.538000  1.0  -0.0352
  C  C386  1  0.847100  0.505510  0.336700  1.0  -0.019
  C  C387  1  0.318800  0.949000  0.527100  1.0  -0.1242
  C  C388  1  0.563500  0.189200  0.769500  1.0  0.7099
  C  C389  1  0.586700  0.088600  0.388000  1.0  0.646
  C  C390  1  0.641200  0.377650  0.348300  1.0  -0.162
  C  C391  1  0.040700  0.569800  0.583300  1.0  0.6836
  C  C392  1  0.126400  0.139800  0.515700  1.0  -0.1308
  C  C393  1  0.128000  0.496100  0.527400  1.0  -0.0292
  C  C394  1  0.777800  0.150500  0.546900  1.0  -0.1469
  C  C395  1  0.372000  0.996100  0.527400  1.0  -0.0297
  C  C396  1  0.474300  0.165400  0.019000  1.0  -0.0135
  C  C397  1  0.013800  0.641100  0.850400  1.0  -0.0843
  C  C398  1  0.747200  0.942930  0.392700  1.0  0.0787
  C  C399  1  0.486200  0.141100  0.850400  1.0  -0.084
  C  C400  1  0.202000  0.422900  0.580600  1.0  0.0458
  C  C401  1  0.884600  0.160700  0.465100  1.0  -0.1281
  C  C402  1  0.132700  0.778860  0.585300  1.0  -0.1201
  C  C403  1  0.752800  0.442930  0.392700  1.0  0.08
  C  C404  1  0.695700  0.391900  0.397000  1.0  0.0485
  C  C405  1  0.532300  0.244800  0.401800  1.0  0.6921
  C  C406  1  0.936500  0.689200  0.769500  1.0  0.7094
  C  C407  1  0.646400  0.311130  0.449000  1.0  -0.0238
  C  C408  1  0.383500  0.991000  0.634800  1.0  -0.0189
  C  C409  1  0.639400  0.036360  0.388200  1.0  -0.1635
  C  C410  1  0.404400  0.017000  0.581200  1.0  -0.1539
  C  C411  1  0.444800  0.148570  0.140700  1.0  -0.16
  C  C412  1  0.804300  0.891900  0.397000  1.0  0.0459
  C  C413  1  0.125800  0.817000  0.631100  1.0  -0.0403
  C  C414  1  0.179400  0.863900  0.629600  1.0  -0.1609
  C  C415  1  0.181200  0.449000  0.527100  1.0  -0.1237
  C  C416  1  0.374200  0.317000  0.631100  1.0  -0.0402
  C  C417  1  0.816700  0.656900  0.568200  1.0  0.6633
  C  C418  1  0.043900  0.613300  0.040300  1.0  -0.096
  C  C419  1  0.589300  0.330140  0.349900  1.0  -0.0553
  C  C420  1  0.037000  0.700620  0.119400  1.0  -0.0466
  C  C421  1  0.215500  0.139760  0.492900  1.0  -0.0331
  C  C422  1  0.344700  0.629280  0.393100  1.0  -0.0304
  C  C423  1  0.801700  0.858640  0.447400  1.0  -0.1409
  C  C424  1  0.698300  0.358640  0.447400  1.0  -0.1413
  C  C425  1  0.463000  0.200620  0.119400  1.0  -0.0457
  C  C426  1  0.060200  0.637300  0.205700  1.0  0.6935
  C  C427  1  0.858800  0.877650  0.348300  1.0  -0.1624
  C  C428  1  0.260200  0.372600  0.582200  1.0  0.0557
  C  C429  1  0.296600  0.709300  0.127100  1.0  -0.1366
  C  C430  1  0.329000  0.650300  0.212700  1.0  -0.1663
  C  C431  1  0.118000  0.469400  0.255800  1.0  -0.1854
  C  C432  1  0.125000  0.498800  0.360400  1.0  -0.1452
  C  C433  1  0.882000  0.530600  0.755800  1.0  -0.1847
  C  C434  1  0.875000  0.501200  0.860400  1.0  -0.1458
  C  C435  1  0.203400  0.209300  0.127100  1.0  -0.1347
  C  C436  1  0.171000  0.150300  0.212700  1.0  -0.1657
  C  C437  1  0.375000  0.998800  0.360400  1.0  -0.1466
  C  C438  1  0.382000  0.969400  0.255800  1.0  -0.1855
  C  C439  1  0.829000  0.849700  0.712700  1.0  -0.1684
  C  C440  1  0.796600  0.790700  0.627100  1.0  -0.1362
  C  C441  1  0.703400  0.290700  0.627100  1.0  -0.1353
  C  C442  1  0.671000  0.349700  0.712700  1.0  -0.1673
  C  C443  1  0.618000  0.030600  0.755800  1.0  -0.185
  C  C444  1  0.625000  0.001200  0.860400  1.0  -0.1448
  N  N445  1  0.364200  0.685500  0.166500  1.0  -0.0516
  N  N446  1  0.139300  0.511400  0.298200  1.0  -0.0437
  N  N447  1  0.860700  0.488600  0.798200  1.0  -0.0472
  N  N448  1  0.135800  0.185500  0.166500  1.0  -0.0508
  N  N449  1  0.360700  0.011400  0.298200  1.0  -0.0439
  N  N450  1  0.864200  0.814500  0.666500  1.0  -0.0513
  N  N451  1  0.635800  0.314500  0.666500  1.0  -0.05
  N  N452  1  0.639300  0.988600  0.798200  1.0  -0.0468
  O  O453  1  0.998300  0.419100  0.033800  1.0  -0.6134
  O  O454  1  0.330400  0.856300  0.123700  1.0  -0.5973
  O  O455  1  0.490500  0.770300  0.950600  1.0  -0.5818
  O  O456  1  0.541700  0.824500  0.740900  1.0  -0.586
  O  O457  1  0.906900  0.407400  0.721800  1.0  -0.589
  O  O458  1  0.587300  0.809000  0.050400  1.0  -0.6115
  O  O459  1  0.092800  0.378100  0.926800  1.0  -0.5792
  O  O460  1  0.889400  0.371100  0.941000  1.0  -0.6246
  O  O461  1  0.462800  0.850500  0.233600  1.0  -0.5851
  O  O462  1  0.971200  0.409000  0.131000  1.0  -0.5596
  O  O463  1  0.038300  0.405500  0.837400  1.0  -0.5744
  O  O464  1  0.123800  0.321200  0.036600  1.0  -0.6225
  O  O465  1  0.104300  0.268600  0.248900  1.0  -0.6095
  O  O466  1  0.912700  0.309000  0.050400  1.0  -0.612
  O  O467  1  0.376200  0.821200  0.036600  1.0  -0.623
  O  O468  1  0.958300  0.324500  0.740900  1.0  -0.5854
  O  O469  1  0.407200  0.878100  0.926800  1.0  -0.5788
  O  O470  1  0.665700  0.851700  0.852800  1.0  -0.546
  O  O471  1  0.982600  0.275100  0.130500  1.0  -0.5823
  O  O472  1  0.610600  0.871100  0.941000  1.0  -0.6229
  O  O473  1  0.395700  0.768600  0.248900  1.0  -0.6092
  O  O474  1  0.461700  0.905500  0.837400  1.0  -0.5744
  O  O475  1  0.480800  0.775100  0.850300  1.0  -0.6422
  O  O476  1  0.009500  0.270300  0.950600  1.0  -0.5825
  O  O477  1  0.834300  0.351700  0.852800  1.0  -0.5464
  O  O478  1  0.037200  0.350500  0.233600  1.0  -0.5855
  O  O479  1  0.517400  0.775100  0.130500  1.0  -0.5825
  O  O480  1  0.019200  0.275100  0.850300  1.0  -0.6428
  O  O481  1  0.528800  0.909000  0.131000  1.0  -0.5595
  O  O482  1  0.169600  0.356300  0.123700  1.0  -0.5958
  O  O483  1  0.501700  0.919100  0.033800  1.0  -0.6137
  O  O484  1  0.593100  0.907400  0.721800  1.0  -0.5867
  O  O485  1  0.604300  0.231400  0.748900  1.0  -0.6084
  O  O486  1  0.876200  0.678800  0.536600  1.0  -0.6231
  O  O487  1  0.623800  0.178800  0.536600  1.0  -0.6223
  O  O488  1  0.001700  0.580900  0.533800  1.0  -0.6137
  O  O489  1  0.962800  0.649500  0.733600  1.0  -0.5856
  O  O490  1  0.907200  0.621900  0.426800  1.0  -0.579
  O  O491  1  0.980800  0.724900  0.350300  1.0  -0.6432
  O  O492  1  0.498300  0.080900  0.533800  1.0  -0.6134
  O  O493  1  0.509500  0.229700  0.450600  1.0  -0.5823
  O  O494  1  0.961700  0.594500  0.337400  1.0  -0.574
  O  O495  1  0.412700  0.191000  0.550400  1.0  -0.6116
  O  O496  1  0.990500  0.729700  0.450600  1.0  -0.5819
  O  O497  1  0.017400  0.724900  0.630500  1.0  -0.5825
  O  O498  1  0.538300  0.094500  0.337400  1.0  -0.5731
  O  O499  1  0.165700  0.648300  0.352800  1.0  -0.546
  O  O500  1  0.458300  0.175500  0.240900  1.0  -0.5857
  O  O501  1  0.592800  0.121900  0.426800  1.0  -0.5793
  O  O502  1  0.087300  0.691000  0.550400  1.0  -0.6114
  O  O503  1  0.471200  0.091000  0.631000  1.0  -0.5597
  O  O504  1  0.110600  0.628900  0.441000  1.0  -0.623
  O  O505  1  0.519200  0.224900  0.350300  1.0  -0.6438
  O  O506  1  0.895700  0.731400  0.748900  1.0  -0.6084
  O  O507  1  0.334300  0.148300  0.352800  1.0  -0.5464
  O  O508  1  0.389400  0.128900  0.441000  1.0  -0.6248
  O  O509  1  0.830400  0.643700  0.623700  1.0  -0.5975
  O  O510  1  0.406900  0.092600  0.221800  1.0  -0.5886
  O  O511  1  0.041700  0.675500  0.240900  1.0  -0.586
  O  O512  1  0.482600  0.224900  0.630500  1.0  -0.5822
  O  O513  1  0.028800  0.591000  0.631000  1.0  -0.5597
  O  O514  1  0.093100  0.592600  0.221800  1.0  -0.5874
  O  O515  1  0.669600  0.143700  0.623700  1.0  -0.5965
  O  O516  1  0.537200  0.149500  0.733600  1.0  -0.5856
