# generated using pymatgen
data_Zn2H7C13O8
_symmetry_space_group_name_H-M   'P 1'
_cell_length_a   15.21700000
_cell_length_b   9.85090000
_cell_length_c   18.27410000
_cell_angle_alpha   90.00000000
_cell_angle_beta   102.03600000
_cell_angle_gamma   90.00000000
_symmetry_Int_Tables_number   1
_chemical_formula_structural   Zn2H7C13O8
_chemical_formula_sum   'Zn8 H28 C52 O32'
_cell_volume   2679.08967804
_cell_formula_units_Z   4
loop_
 _symmetry_equiv_pos_site_id
 _symmetry_equiv_pos_as_xyz
  1  'x, y, z'
loop_
 _atom_site_type_symbol
 _atom_site_label
 _atom_site_symmetry_multiplicity
 _atom_site_fract_x
 _atom_site_fract_y
 _atom_site_fract_z
 _atom_site_occupancy
 _atom_site_charge
  Zn  Zn1  1  0.213600  0.444490  0.035340  1.0  1.0472
  Zn  Zn2  1  0.786400  0.944490  0.464660  1.0  1.0469
  Zn  Zn3  1  0.786400  0.555510  0.964660  1.0  1.0463
  Zn  Zn4  1  0.213600  0.055510  0.535340  1.0  1.0468
  Zn  Zn5  1  0.000000  0.500000  0.000000  1.0  1.1106
  Zn  Zn6  1  0.000000  0.000000  0.500000  1.0  1.1106
  Zn  Zn7  1  0.500000  0.500000  0.000000  1.0  0.8164
  Zn  Zn8  1  0.500000  0.000000  0.500000  1.0  0.8164
  H  H9  1  0.015200  0.173000  0.088800  1.0  0.1101
  H  H10  1  0.934800  0.977700  0.103800  1.0  0.1142
  H  H11  1  0.006000  0.657900  0.789300  1.0  0.1091
  H  H12  1  0.009300  0.769000  0.678000  1.0  0.1086
  H  H13  1  0.276200  0.677300  0.848400  1.0  0.1151
  H  H14  1  0.279500  0.796900  0.739600  1.0  0.1124
  H  H15  1  0.429500  0.293900  0.096500  1.0  0.0838
  H  H16  1  0.984800  0.673000  0.411200  1.0  0.11
  H  H17  1  0.065200  0.477700  0.396200  1.0  0.1146
  H  H18  1  0.994000  0.157900  0.710700  1.0  0.1093
  H  H19  1  0.990700  0.269000  0.822000  1.0  0.1087
  H  H20  1  0.723800  0.177300  0.651600  1.0  0.1154
  H  H21  1  0.720500  0.296900  0.760400  1.0  0.1121
  H  H22  1  0.570500  0.793900  0.403500  1.0  0.0843
  H  H23  1  0.984800  0.827000  0.911200  1.0  0.1103
  H  H24  1  0.065200  0.022300  0.896200  1.0  0.1148
  H  H25  1  0.994000  0.342100  0.210700  1.0  0.1093
  H  H26  1  0.990700  0.231000  0.322000  1.0  0.1089
  H  H27  1  0.723800  0.322700  0.151600  1.0  0.1158
  H  H28  1  0.720500  0.203100  0.260400  1.0  0.112
  H  H29  1  0.570500  0.706100  0.903500  1.0  0.0839
  H  H30  1  0.015200  0.327000  0.588800  1.0  0.1105
  H  H31  1  0.934800  0.522300  0.603800  1.0  0.1143
  H  H32  1  0.006000  0.842100  0.289300  1.0  0.1092
  H  H33  1  0.009300  0.731000  0.178000  1.0  0.1086
  H  H34  1  0.276200  0.822700  0.348400  1.0  0.1152
  H  H35  1  0.279500  0.703100  0.239600  1.0  0.112
  H  H36  1  0.429500  0.206100  0.596500  1.0  0.083
  C  C37  1  0.105800  0.237200  0.984500  1.0  0.6594
  C  C38  1  0.048000  0.117200  0.991300  1.0  -0.1299
  C  C39  1  0.009100  0.102800  0.052500  1.0  -0.0406
  C  C40  1  0.961400  0.986700  0.061400  1.0  -0.0558
  C  C41  1  0.145700  0.872000  0.626600  1.0  0.7097
  C  C42  1  0.145700  0.795700  0.698100  1.0  -0.1252
  C  C43  1  0.135900  0.585100  0.902000  1.0  0.7148
  C  C44  1  0.140300  0.656500  0.830400  1.0  -0.1395
  C  C45  1  0.062000  0.685100  0.778900  1.0  -0.0307
  C  C46  1  0.063700  0.752200  0.713100  1.0  -0.0314
  C  C47  1  0.221600  0.697600  0.814400  1.0  -0.0649
  C  C48  1  0.223500  0.767600  0.749200  1.0  -0.0479
  C  C49  1  0.377500  0.344400  0.074700  1.0  0.6157
  C  C50  1  0.894200  0.737200  0.515500  1.0  0.6617
  C  C51  1  0.952000  0.617200  0.508700  1.0  -0.1299
  C  C52  1  0.990900  0.602800  0.447500  1.0  -0.0396
  C  C53  1  0.038600  0.486700  0.438600  1.0  -0.0568
  C  C54  1  0.854300  0.372000  0.873400  1.0  0.7087
  C  C55  1  0.854300  0.295700  0.801900  1.0  -0.1252
  C  C56  1  0.864100  0.085100  0.598000  1.0  0.7134
  C  C57  1  0.859700  0.156500  0.669600  1.0  -0.1387
  C  C58  1  0.938000  0.185100  0.721100  1.0  -0.0311
  C  C59  1  0.936300  0.252200  0.786900  1.0  -0.0316
  C  C60  1  0.778400  0.197600  0.685600  1.0  -0.066
  C  C61  1  0.776500  0.267600  0.750800  1.0  -0.0485
  C  C62  1  0.622500  0.844400  0.425300  1.0  0.6154
  C  C63  1  0.894200  0.762800  0.015500  1.0  0.6609
  C  C64  1  0.952000  0.882800  0.008700  1.0  -0.1304
  C  C65  1  0.990900  0.897200  0.947500  1.0  -0.0401
  C  C66  1  0.038600  0.013300  0.938600  1.0  -0.0565
  C  C67  1  0.854300  0.128000  0.373400  1.0  0.7082
  C  C68  1  0.854300  0.204300  0.301900  1.0  -0.1255
  C  C69  1  0.864100  0.414900  0.098000  1.0  0.714
  C  C70  1  0.859700  0.343500  0.169600  1.0  -0.1381
  C  C71  1  0.938000  0.314900  0.221100  1.0  -0.0309
  C  C72  1  0.936300  0.247800  0.286900  1.0  -0.0316
  C  C73  1  0.778400  0.302400  0.185600  1.0  -0.0667
  C  C74  1  0.776500  0.232400  0.250800  1.0  -0.0483
  C  C75  1  0.622500  0.655600  0.925300  1.0  0.6153
  C  C76  1  0.105800  0.262800  0.484500  1.0  0.6593
  C  C77  1  0.048000  0.382800  0.491300  1.0  -0.1303
  C  C78  1  0.009100  0.397200  0.552500  1.0  -0.0415
  C  C79  1  0.961400  0.513300  0.561400  1.0  -0.0552
  C  C80  1  0.145700  0.628000  0.126600  1.0  0.7094
  C  C81  1  0.145700  0.704300  0.198100  1.0  -0.1256
  C  C82  1  0.135900  0.914900  0.402000  1.0  0.715
  C  C83  1  0.140300  0.843500  0.330400  1.0  -0.1397
  C  C84  1  0.062000  0.814900  0.278900  1.0  -0.0308
  C  C85  1  0.063700  0.747800  0.213100  1.0  -0.0316
  C  C86  1  0.221600  0.802400  0.314400  1.0  -0.0646
  C  C87  1  0.223500  0.732400  0.249200  1.0  -0.0491
  C  C88  1  0.377500  0.155600  0.574700  1.0  0.6154
  O  O89  1  0.099740  0.341200  0.027960  1.0  -0.671
  O  O90  1  0.073800  0.874700  0.578720  1.0  -0.6266
  O  O91  1  0.218540  0.928000  0.620050  1.0  -0.5925
  O  O92  1  0.209810  0.550400  0.944030  1.0  -0.586
  O  O93  1  0.304100  0.309600  0.088890  1.0  -0.5734
  O  O94  1  0.160600  0.233100  0.943500  1.0  -0.53
  O  O95  1  0.059780  0.567400  0.915260  1.0  -0.6107
  O  O96  1  0.386020  0.441500  0.033640  1.0  -0.6048
  O  O97  1  0.900260  0.841200  0.472040  1.0  -0.67
  O  O98  1  0.926200  0.374700  0.921280  1.0  -0.6261
  O  O99  1  0.781460  0.428000  0.879950  1.0  -0.5903
  O  O100  1  0.790190  0.050400  0.555970  1.0  -0.5876
  O  O101  1  0.695900  0.809600  0.411110  1.0  -0.5743
  O  O102  1  0.839400  0.733100  0.556500  1.0  -0.5286
  O  O103  1  0.940220  0.067400  0.584740  1.0  -0.6113
  O  O104  1  0.613980  0.941500  0.466360  1.0  -0.6061
  O  O105  1  0.900260  0.658800  0.972040  1.0  -0.6712
  O  O106  1  0.926200  0.125300  0.421280  1.0  -0.6258
  O  O107  1  0.781460  0.072000  0.379950  1.0  -0.5904
  O  O108  1  0.790190  0.449600  0.055970  1.0  -0.5872
  O  O109  1  0.695900  0.690400  0.911110  1.0  -0.5767
  O  O110  1  0.839400  0.766900  0.056500  1.0  -0.5312
  O  O111  1  0.940220  0.432600  0.084740  1.0  -0.6115
  O  O112  1  0.613980  0.558500  0.966360  1.0  -0.6036
  O  O113  1  0.099740  0.158800  0.527960  1.0  -0.6721
  O  O114  1  0.073800  0.625300  0.078720  1.0  -0.6263
  O  O115  1  0.218540  0.572000  0.120050  1.0  -0.5924
  O  O116  1  0.209810  0.949600  0.444030  1.0  -0.5861
  O  O117  1  0.304100  0.190400  0.588890  1.0  -0.5749
  O  O118  1  0.160600  0.266900  0.443500  1.0  -0.5305
  O  O119  1  0.059780  0.932600  0.415260  1.0  -0.6109
  O  O120  1  0.386020  0.058500  0.533640  1.0  -0.6032
