# generated using pymatgen
data_Cu3H20C42(NO6)2
_symmetry_space_group_name_H-M   'P 1'
_cell_length_a   27.86000000
_cell_length_b   27.86000000
_cell_length_c   27.86000000
_cell_angle_alpha   90.00000000
_cell_angle_beta   90.00000000
_cell_angle_gamma   90.00000000
_symmetry_Int_Tables_number   1
_chemical_formula_structural   Cu3H20C42(NO6)2
_chemical_formula_sum   'Cu18 H120 C252 N12 O72'
_cell_volume   21624.36365600
_cell_formula_units_Z   6
loop_
 _symmetry_equiv_pos_site_id
 _symmetry_equiv_pos_as_xyz
  1  'x, y, z'
loop_
 _atom_site_type_symbol
 _atom_site_label
 _atom_site_symmetry_multiplicity
 _atom_site_fract_x
 _atom_site_fract_y
 _atom_site_fract_z
 _atom_site_occupancy
 _atom_site_charge
  Cu  Cu1  1  0.000000  0.452440  0.000000  1.0  0.8581
  Cu  Cu2  1  0.500000  0.500000  0.844640  1.0  0.8937
  Cu  Cu3  1  0.844640  0.500000  0.500000  1.0  0.8936
  Cu  Cu4  1  0.750210  0.500000  0.500000  1.0  0.8732
  Cu  Cu5  1  0.155360  0.500000  0.500000  1.0  0.8919
  Cu  Cu6  1  0.452440  0.000000  0.000000  1.0  0.8562
  Cu  Cu7  1  0.500000  0.750210  0.500000  1.0  0.8754
  Cu  Cu8  1  0.249790  0.500000  0.500000  1.0  0.8744
  Cu  Cu9  1  0.500000  0.249790  0.500000  1.0  0.8755
  Cu  Cu10  1  0.000000  0.000000  0.547560  1.0  0.857
  Cu  Cu11  1  0.500000  0.155360  0.500000  1.0  0.8933
  Cu  Cu12  1  0.500000  0.500000  0.750210  1.0  0.876
  Cu  Cu13  1  0.500000  0.844640  0.500000  1.0  0.8924
  Cu  Cu14  1  0.500000  0.500000  0.155360  1.0  0.8935
  Cu  Cu15  1  0.000000  0.000000  0.452440  1.0  0.8575
  Cu  Cu16  1  0.547560  0.000000  0.000000  1.0  0.8578
  Cu  Cu17  1  0.000000  0.547560  0.000000  1.0  0.8584
  Cu  Cu18  1  0.500000  0.500000  0.249790  1.0  0.8761
  H  H19  1  0.500000  0.734100  0.128200  1.0  0.1059
  H  H20  1  0.107300  0.431000  0.892700  1.0  0.0929
  H  H21  1  0.500000  0.265900  0.128200  1.0  0.106
  H  H22  1  0.725900  0.653200  0.500000  1.0  0.095
  H  H23  1  0.734100  0.500000  0.128200  1.0  0.1067
  H  H24  1  0.167800  0.832200  0.432300  1.0  0.0821
  H  H25  1  0.107300  0.892700  0.569000  1.0  0.093
  H  H26  1  0.167800  0.832200  0.567700  1.0  0.0819
  H  H27  1  0.348600  0.500000  0.870100  1.0  0.0992
  H  H28  1  0.431000  0.107300  0.107300  1.0  0.093
  H  H29  1  0.500000  0.871800  0.734100  1.0  0.1053
  H  H30  1  0.500000  0.651400  0.129900  1.0  0.0988
  H  H31  1  0.265900  0.500000  0.871800  1.0  0.1048
  H  H32  1  0.892700  0.892700  0.431000  1.0  0.0929
  H  H33  1  0.734100  0.871800  0.500000  1.0  0.1063
  H  H34  1  0.129900  0.500000  0.348600  1.0  0.0989
  H  H35  1  0.274100  0.500000  0.653200  1.0  0.0962
  H  H36  1  0.832200  0.167800  0.567700  1.0  0.0813
  H  H37  1  0.870100  0.348600  0.500000  1.0  0.0999
  H  H38  1  0.500000  0.128200  0.265900  1.0  0.1069
  H  H39  1  0.832200  0.567700  0.167800  1.0  0.0814
  H  H40  1  0.346800  0.500000  0.725900  1.0  0.0955
  H  H41  1  0.274100  0.500000  0.346800  1.0  0.0969
  H  H42  1  0.346800  0.274100  0.500000  1.0  0.095
  H  H43  1  0.653200  0.274100  0.500000  1.0  0.0955
  H  H44  1  0.129900  0.651400  0.500000  1.0  0.0991
  H  H45  1  0.651400  0.870100  0.500000  1.0  0.0985
  H  H46  1  0.500000  0.265900  0.871800  1.0  0.1041
  H  H47  1  0.431000  0.892700  0.107300  1.0  0.0934
  H  H48  1  0.346800  0.500000  0.274100  1.0  0.0951
  H  H49  1  0.431000  0.892700  0.892700  1.0  0.093
  H  H50  1  0.500000  0.725900  0.346800  1.0  0.0961
  H  H51  1  0.500000  0.274100  0.346800  1.0  0.0964
  H  H52  1  0.832200  0.167800  0.432300  1.0  0.0824
  H  H53  1  0.128200  0.734100  0.500000  1.0  0.1138
  H  H54  1  0.348600  0.870100  0.500000  1.0  0.099
  H  H55  1  0.567700  0.832200  0.167800  1.0  0.0814
  H  H56  1  0.832200  0.832200  0.567700  1.0  0.0813
  H  H57  1  0.871800  0.265900  0.500000  1.0  0.1074
  H  H58  1  0.567700  0.832200  0.832200  1.0  0.0811
  H  H59  1  0.500000  0.871800  0.265900  1.0  0.1061
  H  H60  1  0.346800  0.725900  0.500000  1.0  0.0952
  H  H61  1  0.500000  0.725900  0.653200  1.0  0.0954
  H  H62  1  0.167800  0.432300  0.832200  1.0  0.0813
  H  H63  1  0.892700  0.107300  0.569000  1.0  0.0926
  H  H64  1  0.432300  0.167800  0.167800  1.0  0.0823
  H  H65  1  0.832200  0.832200  0.432300  1.0  0.082
  H  H66  1  0.500000  0.653200  0.725900  1.0  0.0955
  H  H67  1  0.569000  0.892700  0.107300  1.0  0.0941
  H  H68  1  0.129900  0.348600  0.500000  1.0  0.0991
  H  H69  1  0.107300  0.107300  0.569000  1.0  0.0925
  H  H70  1  0.167800  0.432300  0.167800  1.0  0.0818
  H  H71  1  0.892700  0.107300  0.431000  1.0  0.0925
  H  H72  1  0.274100  0.346800  0.500000  1.0  0.0956
  H  H73  1  0.871800  0.500000  0.734100  1.0  0.1076
  H  H74  1  0.725900  0.500000  0.653200  1.0  0.0953
  H  H75  1  0.107300  0.107300  0.431000  1.0  0.0924
  H  H76  1  0.653200  0.500000  0.725900  1.0  0.0957
  H  H77  1  0.500000  0.651400  0.870100  1.0  0.0984
  H  H78  1  0.651400  0.500000  0.870100  1.0  0.0992
  H  H79  1  0.653200  0.725900  0.500000  1.0  0.0951
  H  H80  1  0.569000  0.107300  0.892700  1.0  0.0931
  H  H81  1  0.500000  0.870100  0.651400  1.0  0.0983
  H  H82  1  0.832200  0.432300  0.832200  1.0  0.0806
  H  H83  1  0.892700  0.431000  0.892700  1.0  0.093
  H  H84  1  0.892700  0.569000  0.107300  1.0  0.0935
  H  H85  1  0.892700  0.569000  0.892700  1.0  0.0934
  H  H86  1  0.870100  0.500000  0.348600  1.0  0.0994
  H  H87  1  0.871800  0.734100  0.500000  1.0  0.1077
  H  H88  1  0.651400  0.129900  0.500000  1.0  0.0989
  H  H89  1  0.348600  0.129900  0.500000  1.0  0.0992
  H  H90  1  0.432300  0.832200  0.167800  1.0  0.0821
  H  H91  1  0.892700  0.431000  0.107300  1.0  0.0933
  H  H92  1  0.651400  0.500000  0.129900  1.0  0.0996
  H  H93  1  0.128200  0.500000  0.734100  1.0  0.1135
  H  H94  1  0.500000  0.274100  0.653200  1.0  0.0956
  H  H95  1  0.500000  0.653200  0.274100  1.0  0.0953
  H  H96  1  0.265900  0.871800  0.500000  1.0  0.1068
  H  H97  1  0.832200  0.567700  0.832200  1.0  0.0815
  H  H98  1  0.734100  0.500000  0.871800  1.0  0.1052
  H  H99  1  0.274100  0.653200  0.500000  1.0  0.096
  H  H100  1  0.107300  0.569000  0.892700  1.0  0.0932
  H  H101  1  0.870100  0.651400  0.500000  1.0  0.0995
  H  H102  1  0.832200  0.432300  0.167800  1.0  0.081
  H  H103  1  0.500000  0.129900  0.348600  1.0  0.098
  H  H104  1  0.500000  0.348600  0.129900  1.0  0.0989
  H  H105  1  0.107300  0.569000  0.107300  1.0  0.0934
  H  H106  1  0.567700  0.167800  0.167800  1.0  0.0815
  H  H107  1  0.725900  0.500000  0.346800  1.0  0.0959
  H  H108  1  0.653200  0.500000  0.274100  1.0  0.0957
  H  H109  1  0.500000  0.128200  0.734100  1.0  0.1068
  H  H110  1  0.265900  0.128200  0.500000  1.0  0.1075
  H  H111  1  0.128200  0.265900  0.500000  1.0  0.1136
  H  H112  1  0.107300  0.892700  0.431000  1.0  0.0929
  H  H113  1  0.129900  0.500000  0.651400  1.0  0.0993
  H  H114  1  0.500000  0.734100  0.871800  1.0  0.1041
  H  H115  1  0.432300  0.832200  0.832200  1.0  0.0818
  H  H116  1  0.167800  0.167800  0.432300  1.0  0.0825
  H  H117  1  0.128200  0.500000  0.265900  1.0  0.1138
  H  H118  1  0.500000  0.346800  0.725900  1.0  0.0947
  H  H119  1  0.871800  0.500000  0.265900  1.0  0.1074
  H  H120  1  0.167800  0.167800  0.567700  1.0  0.082
  H  H121  1  0.500000  0.870100  0.348600  1.0  0.0977
  H  H122  1  0.432300  0.167800  0.832200  1.0  0.0824
  H  H123  1  0.569000  0.892700  0.892700  1.0  0.0935
  H  H124  1  0.725900  0.346800  0.500000  1.0  0.0943
  H  H125  1  0.500000  0.348600  0.870100  1.0  0.0982
  H  H126  1  0.870100  0.500000  0.651400  1.0  0.0998
  H  H127  1  0.500000  0.129900  0.651400  1.0  0.0981
  H  H128  1  0.500000  0.346800  0.274100  1.0  0.0946
  H  H129  1  0.431000  0.107300  0.892700  1.0  0.0928
  H  H130  1  0.348600  0.500000  0.129900  1.0  0.0999
  H  H131  1  0.569000  0.107300  0.107300  1.0  0.0934
  H  H132  1  0.734100  0.128200  0.500000  1.0  0.1075
  H  H133  1  0.892700  0.892700  0.569000  1.0  0.0932
  H  H134  1  0.167800  0.567700  0.832200  1.0  0.0818
  H  H135  1  0.107300  0.431000  0.107300  1.0  0.0931
  H  H136  1  0.167800  0.567700  0.167800  1.0  0.0819
  H  H137  1  0.265900  0.500000  0.128200  1.0  0.1069
  H  H138  1  0.567700  0.167800  0.832200  1.0  0.0815
  C  C139  1  0.755230  0.500000  0.280920  1.0  -0.009
  C  C140  1  0.500000  0.256830  0.800040  1.0  0.1305
  C  C141  1  0.500000  0.717890  0.842580  1.0  -0.0854
  C  C142  1  0.101480  0.898520  0.500000  1.0  0.0051
  C  C143  1  0.155910  0.538800  0.155910  1.0  -0.1976
  C  C144  1  0.500000  0.409310  0.797350  1.0  0.6956
  C  C145  1  0.280920  0.244770  0.500000  1.0  -0.0076
  C  C146  1  0.800040  0.256830  0.500000  1.0  0.1288
  C  C147  1  0.101480  0.101480  0.500000  1.0  0.0062
  C  C148  1  0.500000  0.898520  0.898520  1.0  0.0056
  C  C149  1  0.500000  0.668580  0.158530  1.0  -0.0441
  C  C150  1  0.842580  0.500000  0.282110  1.0  -0.078
  C  C151  1  0.881340  0.460300  0.118660  1.0  -0.1052
  C  C152  1  0.500000  0.800040  0.256830  1.0  0.1316
  C  C153  1  0.500000  0.331420  0.841470  1.0  -0.0429
  C  C154  1  0.500000  0.743170  0.800040  1.0  0.1305
  C  C155  1  0.409310  0.500000  0.202650  1.0  0.6952
  C  C156  1  0.282110  0.500000  0.842580  1.0  -0.0842
  C  C157  1  0.202590  0.500000  0.356000  1.0  -0.161
  C  C158  1  0.538800  0.155910  0.155910  1.0  -0.1995
  C  C159  1  0.500000  0.842580  0.282110  1.0  -0.0813
  C  C160  1  0.500000  0.719080  0.755230  1.0  -0.0072
  C  C161  1  0.719080  0.244770  0.500000  1.0  -0.0091
  C  C162  1  0.461200  0.155910  0.155910  1.0  -0.2008
  C  C163  1  0.460300  0.118660  0.118660  1.0  -0.1013
  C  C164  1  0.155910  0.538800  0.844090  1.0  -0.1973
  C  C165  1  0.356000  0.797410  0.500000  1.0  -0.1616
  C  C166  1  0.500000  0.717890  0.157420  1.0  -0.0864
  C  C167  1  0.881340  0.881340  0.539700  1.0  -0.1012
  C  C168  1  0.280920  0.500000  0.755230  1.0  -0.0091
  C  C169  1  0.118660  0.118660  0.539700  1.0  -0.102
  C  C170  1  0.841470  0.668580  0.500000  1.0  -0.0423
  C  C171  1  0.841470  0.500000  0.331420  1.0  -0.0422
  C  C172  1  0.202650  0.500000  0.409310  1.0  0.6959
  C  C173  1  0.157420  0.717890  0.500000  1.0  -0.077
  C  C174  1  0.717890  0.842580  0.500000  1.0  -0.0836
  C  C175  1  0.841470  0.500000  0.668580  1.0  -0.0429
  C  C176  1  0.800040  0.743170  0.500000  1.0  0.1292
  C  C177  1  0.202590  0.644000  0.500000  1.0  -0.1594
  C  C178  1  0.844090  0.461200  0.155910  1.0  -0.2016
  C  C179  1  0.842580  0.282110  0.500000  1.0  -0.0785
  C  C180  1  0.500000  0.330460  0.244960  1.0  -0.0222
  C  C181  1  0.755230  0.719080  0.500000  1.0  -0.0089
  C  C182  1  0.244960  0.669540  0.500000  1.0  -0.0204
  C  C183  1  0.256830  0.500000  0.800040  1.0  0.1292
  C  C184  1  0.743170  0.500000  0.800040  1.0  0.1299
  C  C185  1  0.797410  0.500000  0.644000  1.0  -0.1607
  C  C186  1  0.356000  0.500000  0.202590  1.0  -0.1616
  C  C187  1  0.500000  0.244960  0.669540  1.0  -0.0217
  C  C188  1  0.500000  0.356000  0.797410  1.0  -0.1593
  C  C189  1  0.461200  0.155910  0.844090  1.0  -0.2004
  C  C190  1  0.500000  0.172240  0.827760  1.0  0.174
  C  C191  1  0.199960  0.743170  0.500000  1.0  0.1298
  C  C192  1  0.118660  0.881340  0.539700  1.0  -0.1025
  C  C193  1  0.118660  0.118660  0.460300  1.0  -0.1007
  C  C194  1  0.844090  0.538800  0.155910  1.0  -0.1993
  C  C195  1  0.282110  0.842580  0.500000  1.0  -0.0859
  C  C196  1  0.844090  0.155910  0.461200  1.0  -0.199
  C  C197  1  0.842580  0.500000  0.717890  1.0  -0.0804
  C  C198  1  0.409310  0.500000  0.797350  1.0  0.6951
  C  C199  1  0.881340  0.118660  0.460300  1.0  -0.1013
  C  C200  1  0.668580  0.158530  0.500000  1.0  -0.0446
  C  C201  1  0.500000  0.063760  0.936240  1.0  0.6842
  C  C202  1  0.500000  0.936240  0.936240  1.0  0.6844
  C  C203  1  0.244770  0.500000  0.719080  1.0  -0.0085
  C  C204  1  0.500000  0.841470  0.331420  1.0  -0.0456
  C  C205  1  0.844090  0.844090  0.538800  1.0  -0.1955
  C  C206  1  0.844090  0.461200  0.844090  1.0  -0.2033
  C  C207  1  0.155910  0.461200  0.155910  1.0  -0.2002
  C  C208  1  0.256830  0.800040  0.500000  1.0  0.1295
  C  C209  1  0.500000  0.202650  0.409310  1.0  0.6959
  C  C210  1  0.500000  0.797410  0.644000  1.0  -0.1599
  C  C211  1  0.881340  0.539700  0.881340  1.0  -0.1041
  C  C212  1  0.330460  0.755040  0.500000  1.0  -0.0206
  C  C213  1  0.717890  0.500000  0.842580  1.0  -0.0848
  C  C214  1  0.590690  0.202650  0.500000  1.0  0.6956
  C  C215  1  0.500000  0.158530  0.331420  1.0  -0.0452
  C  C216  1  0.500000  0.331420  0.158530  1.0  -0.0444
  C  C217  1  0.172240  0.500000  0.172240  1.0  0.1751
  C  C218  1  0.881340  0.118660  0.539700  1.0  -0.1014
  C  C219  1  0.717890  0.500000  0.157420  1.0  -0.0837
  C  C220  1  0.331420  0.158530  0.500000  1.0  -0.0445
  C  C221  1  0.719080  0.500000  0.244770  1.0  -0.0082
  C  C222  1  0.844090  0.538800  0.844090  1.0  -0.2015
  C  C223  1  0.898520  0.101480  0.500000  1.0  0.0083
  C  C224  1  0.157420  0.500000  0.717890  1.0  -0.0772
  C  C225  1  0.800040  0.500000  0.743170  1.0  0.1295
  C  C226  1  0.500000  0.158530  0.668580  1.0  -0.0443
  C  C227  1  0.500000  0.644000  0.202590  1.0  -0.1589
  C  C228  1  0.590690  0.500000  0.797350  1.0  0.6958
  C  C229  1  0.202650  0.409310  0.500000  1.0  0.6955
  C  C230  1  0.172240  0.500000  0.827760  1.0  0.1747
  C  C231  1  0.331420  0.841470  0.500000  1.0  -0.0446
  C  C232  1  0.500000  0.244770  0.280920  1.0  -0.0071
  C  C233  1  0.539700  0.118660  0.118660  1.0  -0.1017
  C  C234  1  0.282110  0.157420  0.500000  1.0  -0.0857
  C  C235  1  0.158530  0.668580  0.500000  1.0  -0.0414
  C  C236  1  0.755230  0.500000  0.719080  1.0  -0.0067
  C  C237  1  0.356000  0.500000  0.797410  1.0  -0.1617
  C  C238  1  0.155910  0.844090  0.538800  1.0  -0.1954
  C  C239  1  0.844090  0.844090  0.461200  1.0  -0.1991
  C  C240  1  0.202590  0.500000  0.644000  1.0  -0.1603
  C  C241  1  0.842580  0.717890  0.500000  1.0  -0.081
  C  C242  1  0.199960  0.500000  0.743170  1.0  0.13
  C  C243  1  0.936240  0.936240  0.500000  1.0  0.6833
  C  C244  1  0.460300  0.881340  0.881340  1.0  -0.0989
  C  C245  1  0.500000  0.244770  0.719080  1.0  -0.0079
  C  C246  1  0.669540  0.244960  0.500000  1.0  -0.0213
  C  C247  1  0.500000  0.755230  0.280920  1.0  -0.0091
  C  C248  1  0.669540  0.500000  0.244960  1.0  -0.0221
  C  C249  1  0.743170  0.500000  0.199960  1.0  0.1296
  C  C250  1  0.409310  0.202650  0.500000  1.0  0.695
  C  C251  1  0.199960  0.500000  0.256830  1.0  0.1307
  C  C252  1  0.500000  0.668580  0.841470  1.0  -0.0429
  C  C253  1  0.172240  0.827760  0.500000  1.0  0.1756
  C  C254  1  0.590690  0.500000  0.202650  1.0  0.6959
  C  C255  1  0.500000  0.797350  0.409310  1.0  0.6959
  C  C256  1  0.500000  0.827760  0.172240  1.0  0.1742
  C  C257  1  0.331420  0.500000  0.158530  1.0  -0.0459
  C  C258  1  0.717890  0.157420  0.500000  1.0  -0.0847
  C  C259  1  0.500000  0.280920  0.244770  1.0  -0.008
  C  C260  1  0.460300  0.118660  0.881340  1.0  -0.0994
  C  C261  1  0.157420  0.500000  0.282110  1.0  -0.0763
  C  C262  1  0.539700  0.881340  0.118660  1.0  -0.1018
  C  C263  1  0.063760  0.936240  0.500000  1.0  0.6834
  C  C264  1  0.118660  0.460300  0.881340  1.0  -0.1048
  C  C265  1  0.539700  0.118660  0.881340  1.0  -0.101
  C  C266  1  0.500000  0.669540  0.755040  1.0  -0.0215
  C  C267  1  0.500000  0.330460  0.755040  1.0  -0.0223
  C  C268  1  0.500000  0.282110  0.842580  1.0  -0.0849
  C  C269  1  0.118660  0.881340  0.460300  1.0  -0.1009
  C  C270  1  0.330460  0.244960  0.500000  1.0  -0.0207
  C  C271  1  0.500000  0.669540  0.244960  1.0  -0.0214
  C  C272  1  0.461200  0.844090  0.844090  1.0  -0.1988
  C  C273  1  0.460300  0.881340  0.118660  1.0  -0.0997
  C  C274  1  0.500000  0.755040  0.330460  1.0  -0.0208
  C  C275  1  0.743170  0.800040  0.500000  1.0  0.1301
  C  C276  1  0.330460  0.500000  0.244960  1.0  -0.0208
  C  C277  1  0.202650  0.500000  0.590690  1.0  0.6959
  C  C278  1  0.500000  0.157420  0.717890  1.0  -0.0823
  C  C279  1  0.797350  0.409310  0.500000  1.0  0.6954
  C  C280  1  0.755230  0.280920  0.500000  1.0  -0.0062
  C  C281  1  0.827760  0.500000  0.172240  1.0  0.1745
  C  C282  1  0.644000  0.500000  0.202590  1.0  -0.1622
  C  C283  1  0.118660  0.539700  0.881340  1.0  -0.1052
  C  C284  1  0.158530  0.331420  0.500000  1.0  -0.0423
  C  C285  1  0.244960  0.330460  0.500000  1.0  -0.0208
  C  C286  1  0.500000  0.202650  0.590690  1.0  0.6958
  C  C287  1  0.280920  0.500000  0.244770  1.0  -0.0098
  C  C288  1  0.202590  0.356000  0.500000  1.0  -0.1596
  C  C289  1  0.500000  0.199960  0.256830  1.0  0.1308
  C  C290  1  0.881340  0.881340  0.460300  1.0  -0.1014
  C  C291  1  0.797410  0.356000  0.500000  1.0  -0.16
  C  C292  1  0.101480  0.500000  0.898520  1.0  0.0042
  C  C293  1  0.500000  0.755230  0.719080  1.0  -0.0079
  C  C294  1  0.668580  0.500000  0.841470  1.0  -0.0442
  C  C295  1  0.500000  0.172240  0.172240  1.0  0.1741
  C  C296  1  0.155910  0.461200  0.844090  1.0  -0.2042
  C  C297  1  0.500000  0.063760  0.063760  1.0  0.6839
  C  C298  1  0.898520  0.500000  0.898520  1.0  0.0054
  C  C299  1  0.244770  0.500000  0.280920  1.0  -0.0102
  C  C300  1  0.936240  0.500000  0.063760  1.0  0.6839
  C  C301  1  0.755040  0.669540  0.500000  1.0  -0.0194
  C  C302  1  0.244770  0.280920  0.500000  1.0  -0.0073
  C  C303  1  0.590690  0.797350  0.500000  1.0  0.6957
  C  C304  1  0.158530  0.500000  0.331420  1.0  -0.0431
  C  C305  1  0.155910  0.155910  0.461200  1.0  -0.1977
  C  C306  1  0.669540  0.755040  0.500000  1.0  -0.0209
  C  C307  1  0.936240  0.063760  0.500000  1.0  0.6829
  C  C308  1  0.797410  0.500000  0.356000  1.0  -0.1615
  C  C309  1  0.539700  0.881340  0.881340  1.0  -0.1008
  C  C310  1  0.500000  0.157420  0.282110  1.0  -0.0823
  C  C311  1  0.101480  0.500000  0.101480  1.0  0.0032
  C  C312  1  0.500000  0.644000  0.797410  1.0  -0.1591
  C  C313  1  0.669540  0.500000  0.755040  1.0  -0.0216
  C  C314  1  0.538800  0.844090  0.155910  1.0  -0.1985
  C  C315  1  0.500000  0.590690  0.202650  1.0  0.6953
  C  C316  1  0.202650  0.590690  0.500000  1.0  0.6952
  C  C317  1  0.500000  0.202590  0.356000  1.0  -0.1605
  C  C318  1  0.063760  0.500000  0.063760  1.0  0.6842
  C  C319  1  0.500000  0.101480  0.101480  1.0  0.0057
  C  C320  1  0.500000  0.936240  0.063760  1.0  0.6842
  C  C321  1  0.827760  0.500000  0.827760  1.0  0.1742
  C  C322  1  0.500000  0.256830  0.199960  1.0  0.1299
  C  C323  1  0.500000  0.202590  0.644000  1.0  -0.1599
  C  C324  1  0.644000  0.797410  0.500000  1.0  -0.1622
  C  C325  1  0.063760  0.063760  0.500000  1.0  0.6833
  C  C326  1  0.118660  0.539700  0.118660  1.0  -0.1043
  C  C327  1  0.668580  0.500000  0.158530  1.0  -0.045
  C  C328  1  0.330460  0.500000  0.755040  1.0  -0.0215
  C  C329  1  0.244960  0.500000  0.330460  1.0  -0.0201
  C  C330  1  0.500000  0.800040  0.743170  1.0  0.131
  C  C331  1  0.755040  0.500000  0.669540  1.0  -0.0197
  C  C332  1  0.797410  0.644000  0.500000  1.0  -0.1597
  C  C333  1  0.500000  0.244960  0.330460  1.0  -0.0212
  C  C334  1  0.881340  0.460300  0.881340  1.0  -0.1047
  C  C335  1  0.500000  0.842580  0.717890  1.0  -0.0789
  C  C336  1  0.755040  0.500000  0.330460  1.0  -0.0199
  C  C337  1  0.256830  0.199960  0.500000  1.0  0.1288
  C  C338  1  0.827760  0.827760  0.500000  1.0  0.1752
  C  C339  1  0.500000  0.199960  0.743170  1.0  0.1301
  C  C340  1  0.797350  0.500000  0.590690  1.0  0.6959
  C  C341  1  0.668580  0.841470  0.500000  1.0  -0.0447
  C  C342  1  0.063760  0.500000  0.936240  1.0  0.6845
  C  C343  1  0.936240  0.500000  0.936240  1.0  0.6842
  C  C344  1  0.538800  0.155910  0.844090  1.0  -0.2024
  C  C345  1  0.500000  0.755040  0.669540  1.0  -0.0212
  C  C346  1  0.500000  0.409310  0.202650  1.0  0.6957
  C  C347  1  0.500000  0.743170  0.199960  1.0  0.13
  C  C348  1  0.118660  0.460300  0.118660  1.0  -0.1057
  C  C349  1  0.797350  0.500000  0.409310  1.0  0.6958
  C  C350  1  0.500000  0.841470  0.668580  1.0  -0.0457
  C  C351  1  0.356000  0.202590  0.500000  1.0  -0.1615
  C  C352  1  0.800040  0.500000  0.256830  1.0  0.1301
  C  C353  1  0.500000  0.797410  0.356000  1.0  -0.1606
  C  C354  1  0.500000  0.280920  0.755230  1.0  -0.0056
  C  C355  1  0.827760  0.172240  0.500000  1.0  0.175
  C  C356  1  0.797350  0.590690  0.500000  1.0  0.6952
  C  C357  1  0.157420  0.282110  0.500000  1.0  -0.0815
  C  C358  1  0.881340  0.539700  0.118660  1.0  -0.1042
  C  C359  1  0.155910  0.844090  0.461200  1.0  -0.1982
  C  C360  1  0.500000  0.719080  0.244770  1.0  -0.0073
  C  C361  1  0.538800  0.844090  0.844090  1.0  -0.1991
  C  C362  1  0.898520  0.898520  0.500000  1.0  0.0055
  C  C363  1  0.743170  0.199960  0.500000  1.0  0.1294
  C  C364  1  0.331420  0.500000  0.841470  1.0  -0.0434
  C  C365  1  0.500000  0.827760  0.827760  1.0  0.1739
  C  C366  1  0.844090  0.155910  0.538800  1.0  -0.2015
  C  C367  1  0.461200  0.844090  0.155910  1.0  -0.2011
  C  C368  1  0.755040  0.330460  0.500000  1.0  -0.0204
  C  C369  1  0.898520  0.500000  0.101480  1.0  0.0047
  C  C370  1  0.158530  0.500000  0.668580  1.0  -0.0433
  C  C371  1  0.500000  0.797350  0.590690  1.0  0.6959
  C  C372  1  0.244770  0.719080  0.500000  1.0  -0.0082
  C  C373  1  0.644000  0.202590  0.500000  1.0  -0.1622
  C  C374  1  0.500000  0.101480  0.898520  1.0  0.0071
  C  C375  1  0.500000  0.282110  0.157420  1.0  -0.0873
  C  C376  1  0.409310  0.797350  0.500000  1.0  0.695
  C  C377  1  0.719080  0.755230  0.500000  1.0  -0.0083
  C  C378  1  0.841470  0.331420  0.500000  1.0  -0.0418
  C  C379  1  0.280920  0.755230  0.500000  1.0  -0.0084
  C  C380  1  0.282110  0.500000  0.157420  1.0  -0.0889
  C  C381  1  0.199960  0.256830  0.500000  1.0  0.1296
  C  C382  1  0.500000  0.898520  0.101480  1.0  0.005
  C  C383  1  0.155910  0.155910  0.538800  1.0  -0.1943
  C  C384  1  0.500000  0.590690  0.797350  1.0  0.6953
  C  C385  1  0.644000  0.500000  0.797410  1.0  -0.1623
  C  C386  1  0.172240  0.172240  0.500000  1.0  0.1755
  C  C387  1  0.244960  0.500000  0.669540  1.0  -0.0208
  C  C388  1  0.719080  0.500000  0.755230  1.0  -0.0076
  C  C389  1  0.256830  0.500000  0.199960  1.0  0.129
  C  C390  1  0.500000  0.356000  0.202590  1.0  -0.1592
  N  N391  1  0.500000  0.208240  0.208240  1.0  -0.0482
  N  N392  1  0.208240  0.791760  0.500000  1.0  -0.0484
  N  N393  1  0.208240  0.500000  0.208240  1.0  -0.0482
  N  N394  1  0.791760  0.500000  0.791760  1.0  -0.048
  N  N395  1  0.500000  0.791760  0.208240  1.0  -0.0481
  N  N396  1  0.791760  0.208240  0.500000  1.0  -0.0482
  N  N397  1  0.208240  0.500000  0.791760  1.0  -0.0483
  N  N398  1  0.500000  0.791760  0.791760  1.0  -0.0481
  N  N399  1  0.208240  0.208240  0.500000  1.0  -0.0483
  N  N400  1  0.791760  0.791760  0.500000  1.0  -0.0481
  N  N401  1  0.500000  0.208240  0.791760  1.0  -0.0482
  N  N402  1  0.791760  0.500000  0.208240  1.0  -0.048
  O  O403  1  0.500000  0.242680  0.430020  1.0  -0.5806
  O  O404  1  0.242680  0.500000  0.430020  1.0  -0.5816
  O  O405  1  0.837270  0.430280  0.500000  1.0  -0.586
  O  O406  1  0.500000  0.569980  0.757320  1.0  -0.581
  O  O407  1  0.569980  0.500000  0.757320  1.0  -0.5826
  O  O408  1  0.950030  0.950030  0.460120  1.0  -0.5823
  O  O409  1  0.049970  0.460120  0.049970  1.0  -0.5812
  O  O410  1  0.500000  0.242680  0.569980  1.0  -0.5805
  O  O411  1  0.242680  0.500000  0.569980  1.0  -0.5816
  O  O412  1  0.569980  0.500000  0.242680  1.0  -0.5828
  O  O413  1  0.757320  0.569980  0.500000  1.0  -0.5814
  O  O414  1  0.500000  0.162730  0.569720  1.0  -0.5868
  O  O415  1  0.569720  0.837270  0.500000  1.0  -0.5868
  O  O416  1  0.242680  0.569980  0.500000  1.0  -0.5816
  O  O417  1  0.500000  0.430020  0.242680  1.0  -0.5812
  O  O418  1  0.837270  0.569720  0.500000  1.0  -0.5864
  O  O419  1  0.950030  0.049970  0.460120  1.0  -0.5827
  O  O420  1  0.049970  0.539880  0.049970  1.0  -0.5809
  O  O421  1  0.500000  0.430280  0.837270  1.0  -0.585
  O  O422  1  0.430020  0.500000  0.757320  1.0  -0.5822
  O  O423  1  0.950030  0.049970  0.539880  1.0  -0.5805
  O  O424  1  0.162730  0.500000  0.430280  1.0  -0.5863
  O  O425  1  0.569980  0.242680  0.500000  1.0  -0.5819
  O  O426  1  0.950030  0.460120  0.950030  1.0  -0.5807
  O  O427  1  0.049970  0.460120  0.950030  1.0  -0.5813
  O  O428  1  0.430280  0.162730  0.500000  1.0  -0.5877
  O  O429  1  0.539880  0.950030  0.049970  1.0  -0.5801
  O  O430  1  0.500000  0.569720  0.162730  1.0  -0.586
  O  O431  1  0.950030  0.460120  0.049970  1.0  -0.5808
  O  O432  1  0.539880  0.950030  0.950030  1.0  -0.5799
  O  O433  1  0.049970  0.049970  0.460120  1.0  -0.5826
  O  O434  1  0.500000  0.757320  0.430020  1.0  -0.5811
  O  O435  1  0.460120  0.049970  0.950030  1.0  -0.5799
  O  O436  1  0.049970  0.950030  0.460120  1.0  -0.5827
  O  O437  1  0.500000  0.569980  0.242680  1.0  -0.5817
  O  O438  1  0.500000  0.430020  0.757320  1.0  -0.5811
  O  O439  1  0.162730  0.569720  0.500000  1.0  -0.5868
  O  O440  1  0.500000  0.757320  0.569980  1.0  -0.5814
  O  O441  1  0.430280  0.500000  0.162730  1.0  -0.5866
  O  O442  1  0.950030  0.950030  0.539880  1.0  -0.5808
  O  O443  1  0.049970  0.950030  0.539880  1.0  -0.5813
  O  O444  1  0.837270  0.500000  0.569720  1.0  -0.5865
  O  O445  1  0.757320  0.500000  0.430020  1.0  -0.5817
  O  O446  1  0.430020  0.500000  0.242680  1.0  -0.5829
  O  O447  1  0.569720  0.500000  0.837270  1.0  -0.5863
  O  O448  1  0.430280  0.837270  0.500000  1.0  -0.5868
  O  O449  1  0.500000  0.837270  0.430280  1.0  -0.585
  O  O450  1  0.162730  0.430280  0.500000  1.0  -0.5864
  O  O451  1  0.757320  0.500000  0.569980  1.0  -0.5817
  O  O452  1  0.460120  0.049970  0.049970  1.0  -0.5805
  O  O453  1  0.569720  0.500000  0.162730  1.0  -0.5875
  O  O454  1  0.500000  0.162730  0.430280  1.0  -0.5862
  O  O455  1  0.500000  0.569720  0.837270  1.0  -0.5852
  O  O456  1  0.242680  0.430020  0.500000  1.0  -0.5813
  O  O457  1  0.049970  0.049970  0.539880  1.0  -0.5806
  O  O458  1  0.430020  0.242680  0.500000  1.0  -0.5822
  O  O459  1  0.430020  0.757320  0.500000  1.0  -0.5826
  O  O460  1  0.500000  0.837270  0.569720  1.0  -0.5855
  O  O461  1  0.837270  0.500000  0.430280  1.0  -0.5861
  O  O462  1  0.539880  0.049970  0.049970  1.0  -0.5808
  O  O463  1  0.500000  0.430280  0.162730  1.0  -0.5857
  O  O464  1  0.460120  0.950030  0.950030  1.0  -0.5798
  O  O465  1  0.950030  0.539880  0.049970  1.0  -0.5814
  O  O466  1  0.460120  0.950030  0.049970  1.0  -0.5799
  O  O467  1  0.430280  0.500000  0.837270  1.0  -0.5863
  O  O468  1  0.569980  0.757320  0.500000  1.0  -0.5827
  O  O469  1  0.569720  0.162730  0.500000  1.0  -0.5882
  O  O470  1  0.950030  0.539880  0.950030  1.0  -0.5807
  O  O471  1  0.539880  0.049970  0.950030  1.0  -0.5799
  O  O472  1  0.049970  0.539880  0.950030  1.0  -0.5813
  O  O473  1  0.757320  0.430020  0.500000  1.0  -0.5814
  O  O474  1  0.162730  0.500000  0.569720  1.0  -0.5867
