# generated using pymatgen
data_K2CeC8O11
_symmetry_space_group_name_H-M   'P 1'
_cell_length_a   20.55000000
_cell_length_b   14.19000000
_cell_length_c   6.71000000
_cell_angle_alpha   90.00000000
_cell_angle_beta   101.35000000
_cell_angle_gamma   90.00000000
_symmetry_Int_Tables_number   1
_chemical_formula_structural   K2CeC8O11
_chemical_formula_sum   'K8 Ce4 C32 O44'
_cell_volume   1918.40024148
_cell_formula_units_Z   4
loop_
 _symmetry_equiv_pos_site_id
 _symmetry_equiv_pos_as_xyz
  1  'x, y, z'
loop_
 _atom_site_type_symbol
 _atom_site_label
 _atom_site_symmetry_multiplicity
 _atom_site_fract_x
 _atom_site_fract_y
 _atom_site_fract_z
 _atom_site_occupancy
 _atom_site_charge
  K  K1  1  0.237800  0.901600  0.446900  1.0  0.9403
  K  K2  1  0.411200  0.537000  0.100200  1.0  0.9135
  K  K3  1  0.262200  0.401600  0.053100  1.0  0.9397
  K  K4  1  0.088800  0.037000  0.399800  1.0  0.9138
  K  K5  1  0.762200  0.098400  0.553100  1.0  0.94
  K  K6  1  0.588800  0.463000  0.899800  1.0  0.9138
  K  K7  1  0.737800  0.598400  0.946900  1.0  0.9405
  K  K8  1  0.911200  0.963000  0.600200  1.0  0.9135
  Ce  Ce9  1  0.284600  0.599100  0.521000  1.0  2.2504
  Ce  Ce10  1  0.215400  0.099100  0.979000  1.0  2.2505
  Ce  Ce11  1  0.715400  0.400900  0.479000  1.0  2.2506
  Ce  Ce12  1  0.784600  0.900900  0.021000  1.0  2.2508
  C  C13  1  0.378000  0.441000  0.582000  1.0  0.6633
  C  C14  1  0.435000  0.370000  0.616000  1.0  -0.0288
  C  C15  1  0.192000  0.452000  0.543000  1.0  0.5483
  C  C16  1  0.386000  0.734000  0.489000  1.0  0.7373
  C  C17  1  0.441000  0.814000  0.468000  1.0  -0.0259
  C  C18  1  0.272000  0.659000  0.002000  1.0  0.1867
  C  C19  1  0.136000  0.729000  0.448000  1.0  0.639
  C  C20  1  0.084000  0.653000  0.486000  1.0  0.0155
  C  C21  1  0.122000  0.941000  0.918000  1.0  0.6644
  C  C22  1  0.065000  0.870000  0.884000  1.0  -0.0274
  C  C23  1  0.308000  0.952000  0.957000  1.0  0.5503
  C  C24  1  0.114000  0.234000  0.011000  1.0  0.738
  C  C25  1  0.059000  0.314000  0.032000  1.0  -0.0255
  C  C26  1  0.228000  0.159000  0.498000  1.0  0.1872
  C  C27  1  0.364000  0.229000  0.052000  1.0  0.6378
  C  C28  1  0.416000  0.153000  0.014000  1.0  0.014
  C  C29  1  0.622000  0.559000  0.418000  1.0  0.6657
  C  C30  1  0.565000  0.630000  0.384000  1.0  -0.0263
  C  C31  1  0.808000  0.548000  0.457000  1.0  0.5494
  C  C32  1  0.614000  0.266000  0.511000  1.0  0.737
  C  C33  1  0.559000  0.186000  0.532000  1.0  -0.0262
  C  C34  1  0.728000  0.341000  0.998000  1.0  0.1872
  C  C35  1  0.864000  0.271000  0.552000  1.0  0.638
  C  C36  1  0.916000  0.347000  0.514000  1.0  0.0147
  C  C37  1  0.878000  0.059000  0.082000  1.0  0.664
  C  C38  1  0.935000  0.130000  0.116000  1.0  -0.0278
  C  C39  1  0.692000  0.048000  0.043000  1.0  0.5481
  C  C40  1  0.886000  0.766000  0.989000  1.0  0.7367
  C  C41  1  0.941000  0.686000  0.968000  1.0  -0.0267
  C  C42  1  0.772000  0.841000  0.502000  1.0  0.187
  C  C43  1  0.636000  0.771000  0.948000  1.0  0.6385
  C  C44  1  0.584000  0.847000  0.986000  1.0  0.0163
  O  O45  1  0.348000  0.468000  0.414000  1.0  -0.562
  O  O46  1  0.360000  0.477000  0.720000  1.0  -0.5582
  O  O47  1  0.208000  0.493000  0.713000  1.0  -0.6479
  O  O48  1  0.203000  0.477000  0.385000  1.0  -0.5657
  O  O49  1  0.406000  0.650000  0.522000  1.0  -0.6532
  O  O50  1  0.331000  0.762000  0.462000  1.0  -0.5697
  O  O51  1  0.277000  0.603000  0.161000  1.0  -0.7239
  O  O52  1  0.298000  0.647000  0.843000  1.0  -0.6897
  O  O53  1  0.119000  0.816000  0.413000  1.0  -0.6586
  O  O54  1  0.195000  0.699000  0.488000  1.0  -0.7037
  O  O55  1  0.495000  0.611000  0.841000  1.0  -0.5079
  O  O56  1  0.152000  0.968000  0.086000  1.0  -0.5626
  O  O57  1  0.140000  0.977000  0.780000  1.0  -0.5601
  O  O58  1  0.292000  0.993000  0.787000  1.0  -0.6463
  O  O59  1  0.297000  0.977000  0.115000  1.0  -0.5676
  O  O60  1  0.094000  0.150000  0.978000  1.0  -0.6541
  O  O61  1  0.169000  0.262000  0.038000  1.0  -0.5703
  O  O62  1  0.223000  0.103000  0.339000  1.0  -0.724
  O  O63  1  0.202000  0.147000  0.657000  1.0  -0.6911
  O  O64  1  0.381000  0.316000  0.087000  1.0  -0.6572
  O  O65  1  0.305000  0.199000  0.012000  1.0  -0.7025
  O  O66  1  0.005000  0.111000  0.659000  1.0  -0.5078
  O  O67  1  0.652000  0.532000  0.586000  1.0  -0.5629
  O  O68  1  0.640000  0.523000  0.280000  1.0  -0.5601
  O  O69  1  0.792000  0.507000  0.287000  1.0  -0.6455
  O  O70  1  0.797000  0.523000  0.615000  1.0  -0.5683
  O  O71  1  0.594000  0.350000  0.478000  1.0  -0.6542
  O  O72  1  0.669000  0.238000  0.538000  1.0  -0.5727
  O  O73  1  0.723000  0.397000  0.839000  1.0  -0.7235
  O  O74  1  0.702000  0.353000  0.157000  1.0  -0.6904
  O  O75  1  0.881000  0.184000  0.587000  1.0  -0.6571
  O  O76  1  0.805000  0.301000  0.512000  1.0  -0.7027
  O  O77  1  0.505000  0.389000  0.159000  1.0  -0.5078
  O  O78  1  0.848000  0.032000  0.914000  1.0  -0.5602
  O  O79  1  0.860000  0.023000  0.220000  1.0  -0.5592
  O  O80  1  0.708000  0.007000  0.213000  1.0  -0.6472
  O  O81  1  0.703000  0.023000  0.885000  1.0  -0.5663
  O  O82  1  0.906000  0.850000  0.022000  1.0  -0.6539
  O  O83  1  0.831000  0.738000  0.962000  1.0  -0.5698
  O  O84  1  0.777000  0.897000  0.661000  1.0  -0.7238
  O  O85  1  0.798000  0.853000  0.343000  1.0  -0.6897
  O  O86  1  0.619000  0.684000  0.913000  1.0  -0.6567
  O  O87  1  0.695000  0.801000  0.988000  1.0  -0.7037
  O  O88  1  0.995000  0.889000  0.341000  1.0  -0.5076
