# generated using pymatgen
data_Cu5H18(C8O5)4
_symmetry_space_group_name_H-M   'P 1'
_cell_length_a   10.76430000
_cell_length_b   11.19030000
_cell_length_c   11.88050000
_cell_angle_alpha   101.00600000
_cell_angle_beta   110.54900000
_cell_angle_gamma   99.77900000
_symmetry_Int_Tables_number   1
_chemical_formula_structural   Cu5H18(C8O5)4
_chemical_formula_sum   'Cu5 H18 C32 O20'
_cell_volume   1270.94706631
_cell_formula_units_Z   1
loop_
 _symmetry_equiv_pos_site_id
 _symmetry_equiv_pos_as_xyz
  1  'x, y, z'
loop_
 _atom_site_type_symbol
 _atom_site_label
 _atom_site_symmetry_multiplicity
 _atom_site_fract_x
 _atom_site_fract_y
 _atom_site_fract_z
 _atom_site_occupancy
 _atom_site_charge
  Cu  Cu1  1  0.644040  0.510700  0.011990  1.0  0.8745
  Cu  Cu2  1  0.562180  0.385770  0.210480  1.0  0.8973
  Cu  Cu3  1  0.355960  0.489300  0.988010  1.0  0.8771
  Cu  Cu4  1  0.437820  0.614230  0.789520  1.0  0.9067
  Cu  Cu5  1  0.500000  0.000000  0.000000  1.0  0.3033
  H  H6  1  0.025200  0.411300  0.099600  1.0  0.1093
  H  H7  1  0.229400  0.179300  0.259700  1.0  0.1268
  H  H8  1  0.852000  0.173200  0.250500  1.0  0.117
  H  H9  1  0.167300  0.259400  0.493900  1.0  0.1203
  H  H10  1  0.109000  0.883600  0.402800  1.0  0.1399
  H  H11  1  0.249400  0.896200  0.603900  1.0  0.1023
  H  H12  1  0.477100  0.327400  0.991900  1.0  0.2886
  H  H13  1  0.431100  0.429800  0.026900  1.0  0.2461
  H  H14  1  0.706400  0.440100  0.050400  1.0  0.2123
  H  H15  1  0.974800  0.588700  0.900400  1.0  0.1092
  H  H16  1  0.770600  0.820700  0.740300  1.0  0.1277
  H  H17  1  0.148000  0.826800  0.749500  1.0  0.1159
  H  H18  1  0.832700  0.740600  0.506100  1.0  0.1216
  H  H19  1  0.891000  0.116400  0.597200  1.0  0.14
  H  H20  1  0.750600  0.103800  0.396100  1.0  0.1031
  H  H21  1  0.522900  0.672600  0.008100  1.0  0.2892
  H  H22  1  0.568900  0.570200  0.973100  1.0  0.2471
  H  H23  1  0.293600  0.559900  0.949600  1.0  0.2138
  C  C24  1  0.266300  0.358400  0.148900  1.0  0.7592
  C  C25  1  0.145900  0.305100  0.177200  1.0  -0.1433
  C  C26  1  0.029700  0.349600  0.142300  1.0  0.0097
  C  C27  1  0.151700  0.209800  0.236300  1.0  -0.0927
  C  C28  1  0.919100  0.302600  0.170700  1.0  -0.1782
  C  C29  1  0.039400  0.161100  0.259800  1.0  0.2513
  C  C30  1  0.924700  0.206000  0.230800  1.0  -0.1238
  C  C31  1  0.798300  0.357100  0.143000  1.0  0.6637
  C  C32  1  0.125800  0.071000  0.430100  1.0  0.2857
  C  C33  1  0.183700  0.186700  0.516800  1.0  -0.104
  C  C34  1  0.149400  0.961400  0.462000  1.0  -0.2313
  C  C35  1  0.267500  0.194100  0.639500  1.0  -0.0663
  C  C36  1  0.233400  0.969500  0.582400  1.0  -0.0201
  C  C37  1  0.295200  0.085100  0.673200  1.0  -0.1321
  C  C38  1  0.316200  0.323700  0.731900  1.0  0.7052
  C  C39  1  0.390100  0.089300  0.801800  1.0  0.6995
  C  C40  1  0.733700  0.641600  0.851100  1.0  0.759
  C  C41  1  0.854100  0.694900  0.822800  1.0  -0.144
  C  C42  1  0.970300  0.650400  0.857700  1.0  0.0107
  C  C43  1  0.848300  0.790200  0.763700  1.0  -0.0936
  C  C44  1  0.080900  0.697400  0.829300  1.0  -0.1777
  C  C45  1  0.960600  0.838900  0.740200  1.0  0.2532
  C  C46  1  0.075300  0.794000  0.769200  1.0  -0.1247
  C  C47  1  0.201700  0.642900  0.857000  1.0  0.6631
  C  C48  1  0.874200  0.929000  0.569900  1.0  0.2863
  C  C49  1  0.816300  0.813300  0.483200  1.0  -0.1056
  C  C50  1  0.850600  0.038600  0.538000  1.0  -0.2308
  C  C51  1  0.732500  0.805900  0.360500  1.0  -0.0655
  C  C52  1  0.766600  0.030500  0.417600  1.0  -0.0212
  C  C53  1  0.704800  0.914900  0.326800  1.0  -0.1316
  C  C54  1  0.683800  0.676300  0.268100  1.0  0.7039
  C  C55  1  0.609900  0.910700  0.198200  1.0  0.7013
  O  O56  1  0.501200  0.400300  0.042100  1.0  -0.6279
  O  O57  1  0.262600  0.338600  0.810000  1.0  -0.5731
  O  O58  1  0.777200  0.412900  0.058600  1.0  -0.5014
  O  O59  1  0.245600  0.423300  0.072600  1.0  -0.5978
  O  O60  1  0.376300  0.332600  0.204700  1.0  -0.6265
  O  O61  1  0.396600  0.408400  0.716400  1.0  -0.6297
  O  O62  1  0.729500  0.343300  0.207800  1.0  -0.6131
  O  O63  1  0.037700  0.055500  0.308500  1.0  -0.268
  O  O64  1  0.383700  0.984800  0.829700  1.0  -0.597
  O  O65  1  0.473200  0.190300  0.874700  1.0  -0.6447
  O  O66  1  0.498800  0.599700  0.957900  1.0  -0.6273
  O  O67  1  0.737400  0.661400  0.190000  1.0  -0.573
  O  O68  1  0.222800  0.587100  0.941400  1.0  -0.5003
  O  O69  1  0.754400  0.576700  0.927400  1.0  -0.5967
  O  O70  1  0.623700  0.667400  0.795300  1.0  -0.6265
  O  O71  1  0.603400  0.591600  0.283600  1.0  -0.6288
  O  O72  1  0.270500  0.656700  0.792200  1.0  -0.6109
  O  O73  1  0.962300  0.944500  0.691500  1.0  -0.2719
  O  O74  1  0.616300  0.015200  0.170300  1.0  -0.598
  O  O75  1  0.526800  0.809700  0.125300  1.0  -0.6419
