# generated using pymatgen
data_Dy2Cu3H30C24(NO4)6
_symmetry_space_group_name_H-M   'P 1'
_cell_length_a   13.35030000
_cell_length_b   13.35030000
_cell_length_c   14.38530000
_cell_angle_alpha   90.00000000
_cell_angle_beta   90.00000000
_cell_angle_gamma   120.00000000
_symmetry_Int_Tables_number   1
_chemical_formula_structural   Dy2Cu3H30C24(NO4)6
_chemical_formula_sum   'Dy4 Cu6 H60 C48 N12 O48'
_cell_volume   2220.40197573
_cell_formula_units_Z   2
loop_
 _symmetry_equiv_pos_site_id
 _symmetry_equiv_pos_as_xyz
  1  'x, y, z'
loop_
 _atom_site_type_symbol
 _atom_site_label
 _atom_site_symmetry_multiplicity
 _atom_site_fract_x
 _atom_site_fract_y
 _atom_site_fract_z
 _atom_site_occupancy
 _atom_site_charge
  Dy  Dy1  1  0.333333  0.666667  0.832500  1.0  2.2947
  Dy  Dy2  1  0.666667  0.333333  0.667500  1.0  2.2948
  Dy  Dy3  1  0.666667  0.333333  0.167500  1.0  2.2948
  Dy  Dy4  1  0.333333  0.666667  0.332500  1.0  2.2947
  Cu  Cu5  1  0.000000  0.500000  0.000000  1.0  0.8258
  Cu  Cu6  1  0.500000  0.000000  0.000000  1.0  0.8258
  Cu  Cu7  1  0.500000  0.500000  0.000000  1.0  0.8258
  Cu  Cu8  1  0.500000  0.500000  0.500000  1.0  0.8258
  Cu  Cu9  1  0.500000  0.000000  0.500000  1.0  0.8258
  Cu  Cu10  1  0.000000  0.500000  0.500000  1.0  0.8258
  H  H11  1  0.976200  0.649800  0.078400  1.0  0.2505
  H  H12  1  0.138000  0.820200  0.021900  1.0  0.1061
  H  H13  1  0.039800  0.747000  0.950000  1.0  0.124
  H  H14  1  0.085800  0.687600  0.194400  1.0  0.1377
  H  H15  1  0.194000  0.734300  0.129000  1.0  0.13
  H  H16  1  0.673600  0.023800  0.078400  1.0  0.249
  H  H17  1  0.682200  0.862000  0.021900  1.0  0.1062
  H  H18  1  0.707200  0.960200  0.950000  1.0  0.1231
  H  H19  1  0.601800  0.914200  0.194400  1.0  0.1375
  H  H20  1  0.540300  0.806000  0.129000  1.0  0.1309
  H  H21  1  0.350200  0.326400  0.078400  1.0  0.2494
  H  H22  1  0.179800  0.317800  0.021900  1.0  0.1056
  H  H23  1  0.253000  0.292800  0.950000  1.0  0.1235
  H  H24  1  0.312400  0.398200  0.194400  1.0  0.1378
  H  H25  1  0.265700  0.459700  0.129000  1.0  0.1315
  H  H26  1  0.326400  0.350200  0.421600  1.0  0.2509
  H  H27  1  0.317800  0.179800  0.478100  1.0  0.1059
  H  H28  1  0.292800  0.253000  0.550000  1.0  0.1241
  H  H29  1  0.398200  0.312400  0.305600  1.0  0.1368
  H  H30  1  0.459700  0.265700  0.371000  1.0  0.1301
  H  H31  1  0.649800  0.976200  0.421600  1.0  0.2497
  H  H32  1  0.820200  0.138000  0.478100  1.0  0.1063
  H  H33  1  0.747000  0.039800  0.550000  1.0  0.1229
  H  H34  1  0.687600  0.085800  0.305600  1.0  0.1371
  H  H35  1  0.734300  0.194000  0.371000  1.0  0.1313
  H  H36  1  0.023800  0.673600  0.421600  1.0  0.2495
  H  H37  1  0.862000  0.682200  0.478100  1.0  0.1054
  H  H38  1  0.960200  0.707200  0.550000  1.0  0.1234
  H  H39  1  0.914200  0.601800  0.305600  1.0  0.1369
  H  H40  1  0.806000  0.540300  0.371000  1.0  0.1319
  H  H41  1  0.023800  0.350200  0.921600  1.0  0.2501
  H  H42  1  0.862000  0.179800  0.978100  1.0  0.1068
  H  H43  1  0.960200  0.253000  0.050000  1.0  0.1213
  H  H44  1  0.914200  0.312400  0.805600  1.0  0.1374
  H  H45  1  0.806000  0.265700  0.871000  1.0  0.1305
  H  H46  1  0.326400  0.976200  0.921600  1.0  0.2501
  H  H47  1  0.317800  0.138000  0.978100  1.0  0.1061
  H  H48  1  0.292800  0.039800  0.050000  1.0  0.1212
  H  H49  1  0.398200  0.085800  0.805600  1.0  0.1369
  H  H50  1  0.459700  0.194000  0.871000  1.0  0.1312
  H  H51  1  0.649800  0.673600  0.921600  1.0  0.2498
  H  H52  1  0.820200  0.682200  0.978100  1.0  0.1058
  H  H53  1  0.747000  0.707200  0.050000  1.0  0.1211
  H  H54  1  0.687600  0.601800  0.805600  1.0  0.1368
  H  H55  1  0.734300  0.540300  0.871000  1.0  0.1334
  H  H56  1  0.673600  0.649800  0.578400  1.0  0.2497
  H  H57  1  0.682200  0.820200  0.521900  1.0  0.1058
  H  H58  1  0.707200  0.747000  0.450000  1.0  0.1214
  H  H59  1  0.601800  0.687600  0.694400  1.0  0.1379
  H  H60  1  0.540300  0.734300  0.629000  1.0  0.131
  H  H61  1  0.350200  0.023800  0.578400  1.0  0.2498
  H  H62  1  0.179800  0.862000  0.521900  1.0  0.1065
  H  H63  1  0.253000  0.960200  0.450000  1.0  0.1211
  H  H64  1  0.312400  0.914200  0.694400  1.0  0.1381
  H  H65  1  0.265700  0.806000  0.629000  1.0  0.1309
  H  H66  1  0.976200  0.326400  0.578400  1.0  0.2496
  H  H67  1  0.138000  0.317800  0.521900  1.0  0.1058
  H  H68  1  0.039800  0.292800  0.450000  1.0  0.1213
  H  H69  1  0.085800  0.398200  0.694400  1.0  0.1375
  H  H70  1  0.194000  0.459700  0.629000  1.0  0.1331
  C  C71  1  0.185000  0.731700  0.930100  1.0  0.6979
  C  C72  1  0.098200  0.746500  0.989800  1.0  -0.1842
  C  C73  1  0.126300  0.562900  0.160900  1.0  0.756
  C  C74  1  0.117200  0.669300  0.140500  1.0  -0.2253
  C  C75  1  0.546700  0.815000  0.930100  1.0  0.7
  C  C76  1  0.648300  0.901800  0.989800  1.0  -0.1861
  C  C77  1  0.436600  0.873700  0.160900  1.0  0.7525
  C  C78  1  0.552100  0.882800  0.140500  1.0  -0.2247
  C  C79  1  0.268300  0.453300  0.930100  1.0  0.6994
  C  C80  1  0.253500  0.351700  0.989800  1.0  -0.1866
  C  C81  1  0.437100  0.563400  0.160900  1.0  0.756
  C  C82  1  0.330700  0.447900  0.140500  1.0  -0.225
  C  C83  1  0.453300  0.268300  0.569900  1.0  0.6988
  C  C84  1  0.351700  0.253500  0.510200  1.0  -0.1848
  C  C85  1  0.563400  0.437100  0.339100  1.0  0.7559
  C  C86  1  0.447900  0.330700  0.359500  1.0  -0.2254
  C  C87  1  0.731700  0.185000  0.569900  1.0  0.7005
  C  C88  1  0.746500  0.098200  0.510200  1.0  -0.1868
  C  C89  1  0.562900  0.126300  0.339100  1.0  0.7526
  C  C90  1  0.669300  0.117200  0.359500  1.0  -0.225
  C  C91  1  0.815000  0.546700  0.569900  1.0  0.7
  C  C92  1  0.901800  0.648300  0.510200  1.0  -0.1863
  C  C93  1  0.873700  0.436600  0.339100  1.0  0.7551
  C  C94  1  0.882800  0.552100  0.359500  1.0  -0.2249
  C  C95  1  0.815000  0.268300  0.069900  1.0  0.6983
  C  C96  1  0.901800  0.253500  0.010200  1.0  -0.1851
  C  C97  1  0.873700  0.437100  0.839100  1.0  0.7558
  C  C98  1  0.882800  0.330700  0.859500  1.0  -0.2252
  C  C99  1  0.453300  0.185000  0.069900  1.0  0.7004
  C  C100  1  0.351700  0.098200  0.010200  1.0  -0.1873
  C  C101  1  0.563400  0.126300  0.839100  1.0  0.7532
  C  C102  1  0.447900  0.117200  0.859500  1.0  -0.2248
  C  C103  1  0.731700  0.546700  0.069900  1.0  0.7007
  C  C104  1  0.746500  0.648300  0.010200  1.0  -0.1863
  C  C105  1  0.562900  0.436600  0.839100  1.0  0.7551
  C  C106  1  0.669300  0.552100  0.859500  1.0  -0.2248
  C  C107  1  0.546700  0.731700  0.430100  1.0  0.6983
  C  C108  1  0.648300  0.746500  0.489800  1.0  -0.1846
  C  C109  1  0.436600  0.562900  0.660900  1.0  0.7556
  C  C110  1  0.552100  0.669300  0.640500  1.0  -0.2249
  C  C111  1  0.268300  0.815000  0.430100  1.0  0.6995
  C  C112  1  0.253500  0.901800  0.489800  1.0  -0.1875
  C  C113  1  0.437100  0.873700  0.660900  1.0  0.7534
  C  C114  1  0.330700  0.882800  0.640500  1.0  -0.225
  C  C115  1  0.185000  0.453300  0.430100  1.0  0.6991
  C  C116  1  0.098200  0.351700  0.489800  1.0  -0.187
  C  C117  1  0.126300  0.563400  0.660900  1.0  0.7556
  C  C118  1  0.117200  0.447900  0.640500  1.0  -0.2244
  N  N119  1  0.042200  0.652600  0.058200  1.0  -0.2788
  N  N120  1  0.610400  0.957800  0.058200  1.0  -0.2806
  N  N121  1  0.347400  0.389600  0.058200  1.0  -0.2805
  N  N122  1  0.389600  0.347400  0.441800  1.0  -0.279
  N  N123  1  0.652600  0.042200  0.441800  1.0  -0.2809
  N  N124  1  0.957800  0.610400  0.441800  1.0  -0.2802
  N  N125  1  0.957800  0.347400  0.941800  1.0  -0.2792
  N  N126  1  0.389600  0.042200  0.941800  1.0  -0.2803
  N  N127  1  0.652600  0.610400  0.941800  1.0  -0.2802
  N  N128  1  0.610400  0.652600  0.558200  1.0  -0.2793
  N  N129  1  0.347400  0.957800  0.558200  1.0  -0.2804
  N  N130  1  0.042200  0.389600  0.558200  1.0  -0.2807
  O  O131  1  0.188800  0.639900  0.940500  1.0  -0.738
  O  O132  1  0.245700  0.806500  0.872000  1.0  -0.653
  O  O133  1  0.184500  0.565400  0.229500  1.0  -0.7314
  O  O134  1  0.075100  0.476800  0.108200  1.0  -0.5675
  O  O135  1  0.451100  0.811200  0.940500  1.0  -0.737
  O  O136  1  0.560800  0.754300  0.872000  1.0  -0.6523
  O  O137  1  0.380900  0.815500  0.229500  1.0  -0.7314
  O  O138  1  0.401700  0.924900  0.108200  1.0  -0.5666
  O  O139  1  0.360100  0.548900  0.940500  1.0  -0.7394
  O  O140  1  0.193500  0.439200  0.872000  1.0  -0.6514
  O  O141  1  0.434600  0.619100  0.229500  1.0  -0.7333
  O  O142  1  0.523200  0.598300  0.108200  1.0  -0.5677
  O  O143  1  0.548900  0.360100  0.559500  1.0  -0.7376
  O  O144  1  0.439200  0.193500  0.628000  1.0  -0.6537
  O  O145  1  0.619100  0.434600  0.270500  1.0  -0.7283
  O  O146  1  0.598300  0.523200  0.391800  1.0  -0.567
  O  O147  1  0.639900  0.188800  0.559500  1.0  -0.7356
  O  O148  1  0.806500  0.245700  0.628000  1.0  -0.6527
  O  O149  1  0.565400  0.184500  0.270500  1.0  -0.7285
  O  O150  1  0.476800  0.075100  0.391800  1.0  -0.5664
  O  O151  1  0.811200  0.451100  0.559500  1.0  -0.7388
  O  O152  1  0.754300  0.560800  0.628000  1.0  -0.6519
  O  O153  1  0.815500  0.380900  0.270500  1.0  -0.7301
  O  O154  1  0.924900  0.401700  0.391800  1.0  -0.567
  O  O155  1  0.811200  0.360100  0.059500  1.0  -0.7375
  O  O156  1  0.754300  0.193500  0.128000  1.0  -0.6537
  O  O157  1  0.815500  0.434600  0.770500  1.0  -0.7279
  O  O158  1  0.924900  0.523200  0.891800  1.0  -0.5669
  O  O159  1  0.548900  0.188800  0.059500  1.0  -0.7362
  O  O160  1  0.439200  0.245700  0.128000  1.0  -0.6531
  O  O161  1  0.619100  0.184500  0.770500  1.0  -0.7283
  O  O162  1  0.598300  0.075100  0.891800  1.0  -0.5662
  O  O163  1  0.639900  0.451100  0.059500  1.0  -0.7391
  O  O164  1  0.806500  0.560800  0.128000  1.0  -0.6518
  O  O165  1  0.565400  0.380900  0.770500  1.0  -0.7307
  O  O166  1  0.476800  0.401700  0.891800  1.0  -0.5672
  O  O167  1  0.451100  0.639900  0.440500  1.0  -0.7378
  O  O168  1  0.560800  0.806500  0.372000  1.0  -0.653
  O  O169  1  0.380900  0.565400  0.729500  1.0  -0.731
  O  O170  1  0.401700  0.476800  0.608200  1.0  -0.5672
  O  O171  1  0.360100  0.811200  0.440500  1.0  -0.7373
  O  O172  1  0.193500  0.754300  0.372000  1.0  -0.6524
  O  O173  1  0.434600  0.815500  0.729500  1.0  -0.7318
  O  O174  1  0.523200  0.924900  0.608200  1.0  -0.5664
  O  O175  1  0.188800  0.548900  0.440500  1.0  -0.7396
  O  O176  1  0.245700  0.439200  0.372000  1.0  -0.6512
  O  O177  1  0.184500  0.619100  0.729500  1.0  -0.7339
  O  O178  1  0.075100  0.598300  0.608200  1.0  -0.5678
