# generated using pymatgen
data_Tb2Cu3H30C24(NO4)6
_symmetry_space_group_name_H-M   'P 1'
_cell_length_a   13.35200000
_cell_length_b   13.35200000
_cell_length_c   14.41400000
_cell_angle_alpha   90.00000000
_cell_angle_beta   90.00000000
_cell_angle_gamma   120.00000000
_symmetry_Int_Tables_number   1
_chemical_formula_structural   Tb2Cu3H30C24(NO4)6
_chemical_formula_sum   'Tb4 Cu6 H60 C48 N12 O48'
_cell_volume   2225.39852962
_cell_formula_units_Z   2
loop_
 _symmetry_equiv_pos_site_id
 _symmetry_equiv_pos_as_xyz
  1  'x, y, z'
loop_
 _atom_site_type_symbol
 _atom_site_label
 _atom_site_symmetry_multiplicity
 _atom_site_fract_x
 _atom_site_fract_y
 _atom_site_fract_z
 _atom_site_occupancy
 _atom_site_charge
  Tb  Tb1  1  0.333333  0.666667  0.167600  1.0  2.2645
  Tb  Tb2  1  0.666667  0.333333  0.332400  1.0  2.2642
  Tb  Tb3  1  0.666667  0.333333  0.832400  1.0  2.2642
  Tb  Tb4  1  0.333333  0.666667  0.667600  1.0  2.2645
  Cu  Cu5  1  0.500000  0.500000  0.000000  1.0  0.8267
  Cu  Cu6  1  0.000000  0.500000  0.000000  1.0  0.8267
  Cu  Cu7  1  0.500000  0.000000  0.000000  1.0  0.8267
  Cu  Cu8  1  0.000000  0.500000  0.500000  1.0  0.8267
  Cu  Cu9  1  0.500000  0.500000  0.500000  1.0  0.8267
  Cu  Cu10  1  0.500000  0.000000  0.500000  1.0  0.8267
  H  H11  1  0.976100  0.326800  0.421200  1.0  0.2539
  H  H12  1  0.085400  0.398800  0.305600  1.0  0.1167
  H  H13  1  0.193600  0.459700  0.370900  1.0  0.1319
  H  H14  1  0.138800  0.318800  0.477200  1.0  0.1035
  H  H15  1  0.039800  0.292000  0.548800  1.0  0.12
  H  H16  1  0.350700  0.023900  0.421200  1.0  0.2546
  H  H17  1  0.313400  0.914600  0.305600  1.0  0.1169
  H  H18  1  0.266100  0.806400  0.370900  1.0  0.1272
  H  H19  1  0.180000  0.861200  0.477200  1.0  0.1045
  H  H20  1  0.252200  0.960200  0.548800  1.0  0.1201
  H  H21  1  0.673200  0.649300  0.421200  1.0  0.2539
  H  H22  1  0.601200  0.686600  0.305600  1.0  0.1171
  H  H23  1  0.540300  0.733900  0.370900  1.0  0.1273
  H  H24  1  0.681200  0.820000  0.477200  1.0  0.1036
  H  H25  1  0.708000  0.747800  0.548800  1.0  0.1196
  H  H26  1  0.649300  0.673200  0.078800  1.0  0.2534
  H  H27  1  0.686600  0.601200  0.194400  1.0  0.1169
  H  H28  1  0.733900  0.540300  0.129100  1.0  0.1308
  H  H29  1  0.820000  0.681200  0.022800  1.0  0.1035
  H  H30  1  0.747800  0.708000  0.951200  1.0  0.1199
  H  H31  1  0.326800  0.976100  0.078800  1.0  0.2543
  H  H32  1  0.398800  0.085400  0.194400  1.0  0.1177
  H  H33  1  0.459700  0.193600  0.129100  1.0  0.1266
  H  H34  1  0.318800  0.138800  0.022800  1.0  0.1044
  H  H35  1  0.292000  0.039800  0.951200  1.0  0.1201
  H  H36  1  0.023900  0.350700  0.078800  1.0  0.2539
  H  H37  1  0.914600  0.313400  0.194400  1.0  0.1169
  H  H38  1  0.806400  0.266100  0.129100  1.0  0.1263
  H  H39  1  0.861200  0.180000  0.022800  1.0  0.1047
  H  H40  1  0.960200  0.252200  0.951200  1.0  0.1198
  H  H41  1  0.023900  0.673200  0.578800  1.0  0.2531
  H  H42  1  0.914600  0.601200  0.694400  1.0  0.1175
  H  H43  1  0.806400  0.540300  0.629100  1.0  0.1295
  H  H44  1  0.861200  0.681200  0.522800  1.0  0.1031
  H  H45  1  0.960200  0.708000  0.451200  1.0  0.1174
  H  H46  1  0.649300  0.976100  0.578800  1.0  0.2538
  H  H47  1  0.686600  0.085400  0.694400  1.0  0.1167
  H  H48  1  0.733900  0.193600  0.629100  1.0  0.1264
  H  H49  1  0.820000  0.138800  0.522800  1.0  0.1043
  H  H50  1  0.747800  0.039800  0.451200  1.0  0.118
  H  H51  1  0.326800  0.350700  0.578800  1.0  0.2544
  H  H52  1  0.398800  0.313400  0.694400  1.0  0.1174
  H  H53  1  0.459700  0.266100  0.629100  1.0  0.1256
  H  H54  1  0.318800  0.180000  0.522800  1.0  0.1044
  H  H55  1  0.292000  0.252200  0.451200  1.0  0.118
  H  H56  1  0.350700  0.326800  0.921200  1.0  0.2537
  H  H57  1  0.313400  0.398800  0.805600  1.0  0.1168
  H  H58  1  0.266100  0.459700  0.870900  1.0  0.1302
  H  H59  1  0.180000  0.318800  0.977200  1.0  0.1034
  H  H60  1  0.252200  0.292000  0.048800  1.0  0.118
  H  H61  1  0.673200  0.023900  0.921200  1.0  0.2542
  H  H62  1  0.601200  0.914600  0.805600  1.0  0.1167
  H  H63  1  0.540300  0.806400  0.870900  1.0  0.1273
  H  H64  1  0.681200  0.861200  0.977200  1.0  0.1045
  H  H65  1  0.708000  0.960200  0.048800  1.0  0.1173
  H  H66  1  0.976100  0.649300  0.921200  1.0  0.2547
  H  H67  1  0.085400  0.686600  0.805600  1.0  0.1169
  H  H68  1  0.193600  0.733900  0.870900  1.0  0.1261
  H  H69  1  0.138800  0.820000  0.977200  1.0  0.1037
  H  H70  1  0.039800  0.747800  0.048800  1.0  0.118
  C  C71  1  0.126400  0.562200  0.339800  1.0  0.7419
  C  C72  1  0.117000  0.448300  0.359600  1.0  -0.2222
  C  C73  1  0.183800  0.453400  0.569700  1.0  0.6972
  C  C74  1  0.098200  0.351600  0.509500  1.0  -0.1818
  C  C75  1  0.435800  0.873600  0.339800  1.0  0.7393
  C  C76  1  0.331300  0.883000  0.359600  1.0  -0.2233
  C  C77  1  0.269600  0.816200  0.569700  1.0  0.6972
  C  C78  1  0.253400  0.901800  0.509500  1.0  -0.1815
  C  C79  1  0.437800  0.564200  0.339800  1.0  0.7404
  C  C80  1  0.551700  0.668700  0.359600  1.0  -0.2222
  C  C81  1  0.546600  0.730400  0.569700  1.0  0.6956
  C  C82  1  0.648400  0.746600  0.509500  1.0  -0.1804
  C  C83  1  0.564200  0.437800  0.160200  1.0  0.7414
  C  C84  1  0.668700  0.551700  0.140400  1.0  -0.222
  C  C85  1  0.730400  0.546600  0.930300  1.0  0.6979
  C  C86  1  0.746600  0.648400  0.990500  1.0  -0.1812
  C  C87  1  0.562200  0.126400  0.160200  1.0  0.7399
  C  C88  1  0.448300  0.117000  0.140400  1.0  -0.2234
  C  C89  1  0.453400  0.183800  0.930300  1.0  0.6978
  C  C90  1  0.351600  0.098200  0.990500  1.0  -0.1817
  C  C91  1  0.873600  0.435800  0.160200  1.0  0.7414
  C  C92  1  0.883000  0.331300  0.140400  1.0  -0.2227
  C  C93  1  0.816200  0.269600  0.930300  1.0  0.696
  C  C94  1  0.901800  0.253400  0.990500  1.0  -0.1798
  C  C95  1  0.873600  0.437800  0.660200  1.0  0.7418
  C  C96  1  0.883000  0.551700  0.640400  1.0  -0.2235
  C  C97  1  0.816200  0.546600  0.430300  1.0  0.6981
  C  C98  1  0.901800  0.648400  0.490500  1.0  -0.1813
  C  C99  1  0.564200  0.126400  0.660200  1.0  0.7398
  C  C100  1  0.668700  0.117000  0.640400  1.0  -0.2223
  C  C101  1  0.730400  0.183800  0.430300  1.0  0.6977
  C  C102  1  0.746600  0.098200  0.490500  1.0  -0.1812
  C  C103  1  0.562200  0.435800  0.660200  1.0  0.7417
  C  C104  1  0.448300  0.331300  0.640400  1.0  -0.2231
  C  C105  1  0.453400  0.269600  0.430300  1.0  0.6962
  C  C106  1  0.351600  0.253400  0.490500  1.0  -0.1795
  C  C107  1  0.435800  0.562200  0.839800  1.0  0.7418
  C  C108  1  0.331300  0.448300  0.859600  1.0  -0.223
  C  C109  1  0.269600  0.453400  0.069700  1.0  0.6969
  C  C110  1  0.253400  0.351600  0.009500  1.0  -0.1813
  C  C111  1  0.437800  0.873600  0.839800  1.0  0.7394
  C  C112  1  0.551700  0.883000  0.859600  1.0  -0.2224
  C  C113  1  0.546600  0.816200  0.069700  1.0  0.6976
  C  C114  1  0.648400  0.901800  0.009500  1.0  -0.1819
  C  C115  1  0.126400  0.564200  0.839800  1.0  0.7405
  C  C116  1  0.117000  0.668700  0.859600  1.0  -0.223
  C  C117  1  0.183800  0.730400  0.069700  1.0  0.6963
  C  C118  1  0.098200  0.746600  0.009500  1.0  -0.18
  N  N119  1  0.042000  0.389800  0.441400  1.0  -0.2716
  N  N120  1  0.347800  0.958000  0.441400  1.0  -0.2713
  N  N121  1  0.610200  0.652200  0.441400  1.0  -0.2702
  N  N122  1  0.652200  0.610200  0.058600  1.0  -0.2712
  N  N123  1  0.389800  0.042000  0.058600  1.0  -0.2719
  N  N124  1  0.958000  0.347800  0.058600  1.0  -0.27
  N  N125  1  0.958000  0.610200  0.558600  1.0  -0.2714
  N  N126  1  0.652200  0.042000  0.558600  1.0  -0.2723
  N  N127  1  0.389800  0.347800  0.558600  1.0  -0.2703
  N  N128  1  0.347800  0.389800  0.941400  1.0  -0.2714
  N  N129  1  0.610200  0.958000  0.941400  1.0  -0.2718
  N  N130  1  0.042000  0.652200  0.941400  1.0  -0.2699
  O  O131  1  0.184200  0.618800  0.271300  1.0  -0.7116
  O  O132  1  0.074500  0.598100  0.392300  1.0  -0.5621
  O  O133  1  0.188700  0.549400  0.558600  1.0  -0.7369
  O  O134  1  0.244700  0.438900  0.627600  1.0  -0.6432
  O  O135  1  0.434600  0.815800  0.271300  1.0  -0.7101
  O  O136  1  0.523600  0.925500  0.392300  1.0  -0.5609
  O  O137  1  0.360700  0.811300  0.558600  1.0  -0.7337
  O  O138  1  0.194200  0.755300  0.627600  1.0  -0.6444
  O  O139  1  0.381200  0.565400  0.271300  1.0  -0.7098
  O  O140  1  0.401900  0.476400  0.392300  1.0  -0.5618
  O  O141  1  0.450600  0.639300  0.558600  1.0  -0.7354
  O  O142  1  0.561100  0.805800  0.627600  1.0  -0.6452
  O  O143  1  0.565400  0.381200  0.228700  1.0  -0.7131
  O  O144  1  0.476400  0.401900  0.107700  1.0  -0.5624
  O  O145  1  0.639300  0.450600  0.941400  1.0  -0.7377
  O  O146  1  0.805800  0.561100  0.872400  1.0  -0.6427
  O  O147  1  0.618800  0.184200  0.228700  1.0  -0.712
  O  O148  1  0.598100  0.074500  0.107700  1.0  -0.5615
  O  O149  1  0.549400  0.188700  0.941400  1.0  -0.7341
  O  O150  1  0.438900  0.244700  0.872400  1.0  -0.6441
  O  O151  1  0.815800  0.434600  0.228700  1.0  -0.7114
  O  O152  1  0.925500  0.523600  0.107700  1.0  -0.5627
  O  O153  1  0.811300  0.360700  0.941400  1.0  -0.736
  O  O154  1  0.755300  0.194200  0.872400  1.0  -0.6451
  O  O155  1  0.815800  0.381200  0.728700  1.0  -0.7125
  O  O156  1  0.925500  0.401900  0.607700  1.0  -0.5618
  O  O157  1  0.811300  0.450600  0.441400  1.0  -0.7377
  O  O158  1  0.755300  0.561100  0.372400  1.0  -0.6427
  O  O159  1  0.565400  0.184200  0.728700  1.0  -0.7117
  O  O160  1  0.476400  0.074500  0.607700  1.0  -0.5618
  O  O161  1  0.639300  0.188700  0.441400  1.0  -0.734
  O  O162  1  0.805800  0.244700  0.372400  1.0  -0.6438
  O  O163  1  0.618800  0.434600  0.728700  1.0  -0.712
  O  O164  1  0.598100  0.523600  0.607700  1.0  -0.5623
  O  O165  1  0.549400  0.360700  0.441400  1.0  -0.736
  O  O166  1  0.438900  0.194200  0.372400  1.0  -0.6453
  O  O167  1  0.434600  0.618800  0.771300  1.0  -0.7106
  O  O168  1  0.523600  0.598100  0.892300  1.0  -0.5618
  O  O169  1  0.360700  0.549400  0.058600  1.0  -0.7371
  O  O170  1  0.194200  0.438900  0.127600  1.0  -0.6434
  O  O171  1  0.381200  0.815800  0.771300  1.0  -0.7099
  O  O172  1  0.401900  0.925500  0.892300  1.0  -0.5611
  O  O173  1  0.450600  0.811300  0.058600  1.0  -0.7342
  O  O174  1  0.561100  0.755300  0.127600  1.0  -0.644
  O  O175  1  0.184200  0.565400  0.771300  1.0  -0.7101
  O  O176  1  0.074500  0.476400  0.892300  1.0  -0.5615
  O  O177  1  0.188700  0.639300  0.058600  1.0  -0.7354
  O  O178  1  0.244700  0.805800  0.127600  1.0  -0.6454
