# generated using pymatgen
data_Cu2H21C22(NO2)5
_symmetry_space_group_name_H-M   'P 1'
_cell_length_a   22.87700000
_cell_length_b   23.11100000
_cell_length_c   18.36400000
_cell_angle_alpha   90.00000000
_cell_angle_beta   105.39900000
_cell_angle_gamma   90.00000000
_symmetry_Int_Tables_number   1
_chemical_formula_structural   Cu2H21C22(NO2)5
_chemical_formula_sum   'Cu16 H168 C176 N40 O80'
_cell_volume   9360.67558859
_cell_formula_units_Z   8
loop_
 _symmetry_equiv_pos_site_id
 _symmetry_equiv_pos_as_xyz
  1  'x, y, z'
loop_
 _atom_site_type_symbol
 _atom_site_label
 _atom_site_symmetry_multiplicity
 _atom_site_fract_x
 _atom_site_fract_y
 _atom_site_fract_z
 _atom_site_occupancy
 _atom_site_charge
  Cu  Cu1  1  0.649070  0.221690  0.557910  1.0  0.8536
  Cu  Cu2  1  0.720610  0.304010  0.460790  1.0  0.8826
  Cu  Cu3  1  0.149070  0.721690  0.557910  1.0  0.8536
  Cu  Cu4  1  0.220610  0.804010  0.460790  1.0  0.8826
  Cu  Cu5  1  0.350930  0.221690  0.942090  1.0  0.8538
  Cu  Cu6  1  0.279390  0.304010  0.039210  1.0  0.8821
  Cu  Cu7  1  0.850930  0.721690  0.942090  1.0  0.8538
  Cu  Cu8  1  0.779390  0.804010  0.039210  1.0  0.8821
  Cu  Cu9  1  0.350930  0.778320  0.442090  1.0  0.8565
  Cu  Cu10  1  0.279390  0.695990  0.539210  1.0  0.8803
  Cu  Cu11  1  0.850930  0.278310  0.442090  1.0  0.8542
  Cu  Cu12  1  0.779390  0.195990  0.539210  1.0  0.8803
  Cu  Cu13  1  0.649070  0.778320  0.057910  1.0  0.8561
  Cu  Cu14  1  0.720610  0.695990  0.960790  1.0  0.8811
  Cu  Cu15  1  0.149070  0.278310  0.057910  1.0  0.8539
  Cu  Cu16  1  0.220610  0.195990  0.960790  1.0  0.8811
  H  H17  1  0.818700  0.298700  0.560800  1.0  0.2998
  H  H18  1  0.721900  0.348900  0.764600  1.0  0.098
  H  H19  1  0.766000  0.295700  0.774000  1.0  0.0907
  H  H20  1  0.760200  0.385700  0.667600  1.0  0.1103
  H  H21  1  0.806500  0.334300  0.678200  1.0  0.0999
  H  H22  1  0.959100  0.310000  0.941900  1.0  0.096
  H  H23  1  0.983200  0.369700  0.978500  1.0  0.1045
  H  H24  1  0.013200  0.393300  0.868000  1.0  0.1347
  H  H25  1  0.992800  0.331500  0.836100  1.0  0.1308
  H  H26  1  0.815700  0.537300  0.822500  1.0  0.1036
  H  H27  1  0.876200  0.540700  0.887300  1.0  0.0976
  H  H28  1  0.823700  0.524700  0.978100  1.0  0.1272
  H  H29  1  0.763000  0.515400  0.915000  1.0  0.1144
  H  H30  1  0.606900  0.308500  0.656300  1.0  0.0947
  H  H31  1  0.543000  0.311400  0.732600  1.0  0.1193
  H  H32  1  0.507400  0.146000  0.693000  1.0  0.131
  H  H33  1  0.571100  0.145700  0.615600  1.0  0.0926
  H  H34  1  0.594900  0.339400  0.453900  1.0  0.098
  H  H35  1  0.501600  0.340400  0.368600  1.0  0.1318
  H  H36  1  0.580400  0.294800  0.209200  1.0  0.125
  H  H37  1  0.670500  0.290500  0.298300  1.0  0.0845
  H  H38  1  0.318700  0.798700  0.560800  1.0  0.2998
  H  H39  1  0.221900  0.848900  0.764600  1.0  0.098
  H  H40  1  0.266000  0.795700  0.774000  1.0  0.0907
  H  H41  1  0.260200  0.885700  0.667600  1.0  0.1103
  H  H42  1  0.306500  0.834300  0.678200  1.0  0.0999
  H  H43  1  0.459100  0.810000  0.941900  1.0  0.096
  H  H44  1  0.483200  0.869700  0.978500  1.0  0.1045
  H  H45  1  0.513200  0.893300  0.868000  1.0  0.1347
  H  H46  1  0.492800  0.831500  0.836100  1.0  0.1308
  H  H47  1  0.315700  0.037300  0.822500  1.0  0.1036
  H  H48  1  0.376200  0.040700  0.887300  1.0  0.0976
  H  H49  1  0.323700  0.024700  0.978100  1.0  0.1272
  H  H50  1  0.263000  0.015400  0.915000  1.0  0.1144
  H  H51  1  0.106900  0.808500  0.656300  1.0  0.0947
  H  H52  1  0.043000  0.811400  0.732600  1.0  0.1193
  H  H53  1  0.007400  0.646000  0.693000  1.0  0.131
  H  H54  1  0.071100  0.645700  0.615600  1.0  0.0926
  H  H55  1  0.094900  0.839400  0.453900  1.0  0.098
  H  H56  1  0.001600  0.840400  0.368600  1.0  0.1318
  H  H57  1  0.080400  0.794800  0.209200  1.0  0.125
  H  H58  1  0.170500  0.790500  0.298300  1.0  0.0845
  H  H59  1  0.181300  0.298700  0.939200  1.0  0.3002
  H  H60  1  0.278100  0.348900  0.735400  1.0  0.0984
  H  H61  1  0.234000  0.295700  0.726000  1.0  0.0919
  H  H62  1  0.239800  0.385700  0.832400  1.0  0.1095
  H  H63  1  0.193500  0.334300  0.821800  1.0  0.0996
  H  H64  1  0.040900  0.310000  0.558100  1.0  0.097
  H  H65  1  0.016800  0.369700  0.521500  1.0  0.1025
  H  H66  1  0.986800  0.393300  0.632000  1.0  0.134
  H  H67  1  0.007200  0.331500  0.663900  1.0  0.1312
  H  H68  1  0.184300  0.537300  0.677500  1.0  0.1039
  H  H69  1  0.123800  0.540700  0.612700  1.0  0.0981
  H  H70  1  0.176300  0.524700  0.521900  1.0  0.1253
  H  H71  1  0.237000  0.515400  0.585000  1.0  0.1116
  H  H72  1  0.393100  0.308500  0.843700  1.0  0.0942
  H  H73  1  0.457000  0.311400  0.767400  1.0  0.1187
  H  H74  1  0.492600  0.146000  0.807000  1.0  0.1312
  H  H75  1  0.428900  0.145700  0.884400  1.0  0.0921
  H  H76  1  0.405100  0.339400  0.046100  1.0  0.0994
  H  H77  1  0.498400  0.340400  0.131400  1.0  0.132
  H  H78  1  0.419600  0.294800  0.290800  1.0  0.1247
  H  H79  1  0.329500  0.290500  0.201700  1.0  0.0859
  H  H80  1  0.681300  0.798700  0.939200  1.0  0.3002
  H  H81  1  0.778100  0.848900  0.735400  1.0  0.0984
  H  H82  1  0.734000  0.795700  0.726000  1.0  0.0919
  H  H83  1  0.739800  0.885700  0.832400  1.0  0.1095
  H  H84  1  0.693500  0.834300  0.821800  1.0  0.0996
  H  H85  1  0.540900  0.810000  0.558100  1.0  0.097
  H  H86  1  0.516800  0.869700  0.521500  1.0  0.1025
  H  H87  1  0.486800  0.893300  0.632000  1.0  0.134
  H  H88  1  0.507200  0.831500  0.663900  1.0  0.1312
  H  H89  1  0.684300  0.037300  0.677500  1.0  0.1039
  H  H90  1  0.623800  0.040700  0.612700  1.0  0.0981
  H  H91  1  0.676300  0.024700  0.521900  1.0  0.1253
  H  H92  1  0.737000  0.015400  0.585000  1.0  0.1116
  H  H93  1  0.893100  0.808500  0.843700  1.0  0.0942
  H  H94  1  0.957000  0.811400  0.767400  1.0  0.1187
  H  H95  1  0.992600  0.646000  0.807000  1.0  0.1312
  H  H96  1  0.928900  0.645700  0.884400  1.0  0.0921
  H  H97  1  0.905100  0.839400  0.046100  1.0  0.0994
  H  H98  1  0.998400  0.840400  0.131400  1.0  0.132
  H  H99  1  0.919600  0.794800  0.290800  1.0  0.1247
  H  H100  1  0.829500  0.790500  0.201700  1.0  0.0859
  H  H101  1  0.181300  0.701300  0.439200  1.0  0.3002
  H  H102  1  0.278100  0.651100  0.235400  1.0  0.0974
  H  H103  1  0.234000  0.704300  0.226000  1.0  0.0927
  H  H104  1  0.239800  0.614300  0.332400  1.0  0.1111
  H  H105  1  0.193500  0.665700  0.321800  1.0  0.0995
  H  H106  1  0.040900  0.690000  0.058100  1.0  0.0965
  H  H107  1  0.016800  0.630300  0.021500  1.0  0.1025
  H  H108  1  0.986800  0.606700  0.132000  1.0  0.1356
  H  H109  1  0.007200  0.668500  0.163900  1.0  0.1317
  H  H110  1  0.184300  0.462700  0.177500  1.0  0.1038
  H  H111  1  0.123800  0.459300  0.112700  1.0  0.0975
  H  H112  1  0.176300  0.475300  0.021900  1.0  0.125
  H  H113  1  0.237000  0.484600  0.085000  1.0  0.1132
  H  H114  1  0.393100  0.691500  0.343700  1.0  0.094
  H  H115  1  0.457000  0.688600  0.267400  1.0  0.118
  H  H116  1  0.492600  0.854000  0.307000  1.0  0.1311
  H  H117  1  0.428900  0.854300  0.384400  1.0  0.0927
  H  H118  1  0.405100  0.660600  0.546100  1.0  0.0989
  H  H119  1  0.498400  0.659600  0.631400  1.0  0.1311
  H  H120  1  0.419600  0.705200  0.790800  1.0  0.1239
  H  H121  1  0.329500  0.709500  0.701700  1.0  0.0874
  H  H122  1  0.681300  0.201300  0.439200  1.0  0.3002
  H  H123  1  0.778100  0.151100  0.235400  1.0  0.0974
  H  H124  1  0.734000  0.204300  0.226000  1.0  0.0927
  H  H125  1  0.739800  0.114300  0.332400  1.0  0.1111
  H  H126  1  0.693500  0.165700  0.321800  1.0  0.0995
  H  H127  1  0.540900  0.190000  0.058100  1.0  0.0965
  H  H128  1  0.516800  0.130300  0.021500  1.0  0.1025
  H  H129  1  0.486800  0.106700  0.132000  1.0  0.1356
  H  H130  1  0.507200  0.168500  0.163900  1.0  0.1317
  H  H131  1  0.684300  0.962700  0.177500  1.0  0.1038
  H  H132  1  0.623800  0.959300  0.112700  1.0  0.0975
  H  H133  1  0.676300  0.975300  0.021900  1.0  0.125
  H  H134  1  0.737000  0.984600  0.085000  1.0  0.1132
  H  H135  1  0.893100  0.191500  0.343700  1.0  0.094
  H  H136  1  0.957000  0.188600  0.267400  1.0  0.118
  H  H137  1  0.992600  0.354000  0.307000  1.0  0.1311
  H  H138  1  0.928900  0.354300  0.384400  1.0  0.0927
  H  H139  1  0.905100  0.160600  0.546100  1.0  0.0989
  H  H140  1  0.998400  0.159600  0.631400  1.0  0.1311
  H  H141  1  0.919600  0.205200  0.790800  1.0  0.1239
  H  H142  1  0.829500  0.209500  0.701700  1.0  0.0874
  H  H143  1  0.818700  0.701300  0.060800  1.0  0.3004
  H  H144  1  0.721900  0.651100  0.264600  1.0  0.0981
  H  H145  1  0.766000  0.704300  0.274000  1.0  0.0915
  H  H146  1  0.760200  0.614300  0.167600  1.0  0.1101
  H  H147  1  0.806500  0.665700  0.178200  1.0  0.0998
  H  H148  1  0.959100  0.690000  0.441900  1.0  0.0956
  H  H149  1  0.983200  0.630300  0.478500  1.0  0.1051
  H  H150  1  0.013200  0.606700  0.368000  1.0  0.1349
  H  H151  1  0.992800  0.668500  0.336100  1.0  0.1305
  H  H152  1  0.815700  0.462700  0.322500  1.0  0.1038
  H  H153  1  0.876200  0.459300  0.387300  1.0  0.097
  H  H154  1  0.823700  0.475300  0.478100  1.0  0.1266
  H  H155  1  0.763000  0.484600  0.415000  1.0  0.1141
  H  H156  1  0.606900  0.691500  0.156300  1.0  0.0945
  H  H157  1  0.543000  0.688600  0.232600  1.0  0.119
  H  H158  1  0.507400  0.854000  0.193000  1.0  0.1315
  H  H159  1  0.571100  0.854300  0.115600  1.0  0.0928
  H  H160  1  0.594900  0.660600  0.953900  1.0  0.0991
  H  H161  1  0.501600  0.659600  0.868600  1.0  0.1321
  H  H162  1  0.580400  0.705200  0.709200  1.0  0.1248
  H  H163  1  0.670500  0.709500  0.798300  1.0  0.0859
  H  H164  1  0.318700  0.201300  0.060800  1.0  0.3004
  H  H165  1  0.221900  0.151100  0.264600  1.0  0.0981
  H  H166  1  0.266000  0.204300  0.274000  1.0  0.0915
  H  H167  1  0.260200  0.114300  0.167600  1.0  0.1101
  H  H168  1  0.306500  0.165700  0.178200  1.0  0.0998
  H  H169  1  0.459100  0.190000  0.441900  1.0  0.0956
  H  H170  1  0.483200  0.130300  0.478500  1.0  0.1051
  H  H171  1  0.513200  0.106700  0.368000  1.0  0.1349
  H  H172  1  0.492800  0.168500  0.336100  1.0  0.1305
  H  H173  1  0.315700  0.962700  0.322500  1.0  0.1038
  H  H174  1  0.376200  0.959300  0.387300  1.0  0.097
  H  H175  1  0.323700  0.975300  0.478100  1.0  0.1266
  H  H176  1  0.263000  0.984600  0.415000  1.0  0.1141
  H  H177  1  0.106900  0.191500  0.156300  1.0  0.0945
  H  H178  1  0.043000  0.188600  0.232600  1.0  0.119
  H  H179  1  0.007400  0.354000  0.193000  1.0  0.1315
  H  H180  1  0.071100  0.354300  0.115600  1.0  0.0928
  H  H181  1  0.094900  0.160600  0.953900  1.0  0.0991
  H  H182  1  0.001600  0.159600  0.868600  1.0  0.1321
  H  H183  1  0.080400  0.205200  0.709200  1.0  0.1248
  H  H184  1  0.170500  0.209500  0.798300  1.0  0.0859
  C  C185  1  0.798900  0.427500  0.821200  1.0  0.4866
  C  C186  1  0.901160  0.435710  0.903100  1.0  0.5713
  C  C187  1  0.863190  0.343480  0.847100  1.0  0.6076
  C  C188  1  0.761470  0.336430  0.761000  1.0  0.0866
  C  C189  1  0.766140  0.345070  0.680800  1.0  -0.3222
  C  C190  1  0.720170  0.309760  0.624900  1.0  0.7476
  C  C191  1  0.965740  0.350170  0.931000  1.0  0.0666
  C  C192  1  0.009390  0.353300  0.882100  1.0  -0.3799
  C  C193  1  0.071760  0.329930  0.920800  1.0  0.6722
  C  C194  1  0.836810  0.522150  0.871700  1.0  0.0584
  C  C195  1  0.800930  0.536620  0.928000  1.0  -0.3509
  C  C196  1  0.787930  0.601020  0.928000  1.0  0.7648
  C  C197  1  0.586900  0.274800  0.663300  1.0  0.1795
  C  C198  1  0.548900  0.276500  0.710300  1.0  -0.1644
  C  C199  1  0.520100  0.228900  0.724700  1.0  0.0777
  C  C200  1  0.527800  0.179700  0.687000  1.0  -0.176
  C  C201  1  0.566000  0.179800  0.640000  1.0  0.1779
  C  C202  1  0.591960  0.329500  0.403900  1.0  0.1821
  C  C203  1  0.535670  0.330900  0.352600  1.0  -0.2097
  C  C204  1  0.529840  0.318340  0.277500  1.0  0.114
  C  C205  1  0.581890  0.303600  0.259100  1.0  -0.1904
  C  C206  1  0.636130  0.301600  0.312800  1.0  0.19
  C  C207  1  0.298900  0.927500  0.821200  1.0  0.4866
  C  C208  1  0.401160  0.935710  0.903100  1.0  0.5713
  C  C209  1  0.363190  0.843480  0.847100  1.0  0.6076
  C  C210  1  0.261470  0.836430  0.761000  1.0  0.0866
  C  C211  1  0.266140  0.845070  0.680800  1.0  -0.3222
  C  C212  1  0.220170  0.809760  0.624900  1.0  0.7476
  C  C213  1  0.465740  0.850170  0.931000  1.0  0.0666
  C  C214  1  0.509390  0.853300  0.882100  1.0  -0.3799
  C  C215  1  0.571760  0.829930  0.920800  1.0  0.6722
  C  C216  1  0.336810  0.022150  0.871700  1.0  0.0584
  C  C217  1  0.300930  0.036620  0.928000  1.0  -0.3509
  C  C218  1  0.287930  0.101020  0.928000  1.0  0.7648
  C  C219  1  0.086900  0.774800  0.663300  1.0  0.1795
  C  C220  1  0.048900  0.776500  0.710300  1.0  -0.1644
  C  C221  1  0.020100  0.728900  0.724700  1.0  0.0777
  C  C222  1  0.027800  0.679700  0.687000  1.0  -0.176
  C  C223  1  0.066000  0.679800  0.640000  1.0  0.1779
  C  C224  1  0.091960  0.829500  0.403900  1.0  0.1821
  C  C225  1  0.035670  0.830900  0.352600  1.0  -0.2097
  C  C226  1  0.029840  0.818340  0.277500  1.0  0.114
  C  C227  1  0.081890  0.803600  0.259100  1.0  -0.1904
  C  C228  1  0.136130  0.801600  0.312800  1.0  0.19
  C  C229  1  0.201100  0.427500  0.678800  1.0  0.4864
  C  C230  1  0.098840  0.435710  0.596900  1.0  0.5752
  C  C231  1  0.136810  0.343480  0.652900  1.0  0.6071
  C  C232  1  0.238530  0.336430  0.739000  1.0  0.0852
  C  C233  1  0.233860  0.345070  0.819200  1.0  -0.3233
  C  C234  1  0.279830  0.309760  0.875100  1.0  0.7477
  C  C235  1  0.034260  0.350170  0.569000  1.0  0.0675
  C  C236  1  0.990610  0.353300  0.617900  1.0  -0.3788
  C  C237  1  0.928240  0.329930  0.579200  1.0  0.672
  C  C238  1  0.163190  0.522150  0.628300  1.0  0.0603
  C  C239  1  0.199070  0.536620  0.572000  1.0  -0.3505
  C  C240  1  0.212070  0.601020  0.572000  1.0  0.7651
  C  C241  1  0.413100  0.274800  0.836700  1.0  0.1805
  C  C242  1  0.451100  0.276500  0.789700  1.0  -0.1647
  C  C243  1  0.479900  0.228900  0.775300  1.0  0.0772
  C  C244  1  0.472200  0.179700  0.813000  1.0  -0.1766
  C  C245  1  0.434000  0.179800  0.860000  1.0  0.1782
  C  C246  1  0.408040  0.329500  0.096100  1.0  0.1827
  C  C247  1  0.464330  0.330900  0.147400  1.0  -0.2092
  C  C248  1  0.470160  0.318340  0.222500  1.0  0.1144
  C  C249  1  0.418110  0.303600  0.240900  1.0  -0.1898
  C  C250  1  0.363870  0.301600  0.187200  1.0  0.1894
  C  C251  1  0.701100  0.927500  0.678800  1.0  0.4864
  C  C252  1  0.598840  0.935710  0.596900  1.0  0.5752
  C  C253  1  0.636810  0.843480  0.652900  1.0  0.6071
  C  C254  1  0.738530  0.836430  0.739000  1.0  0.0852
  C  C255  1  0.733860  0.845070  0.819200  1.0  -0.3233
  C  C256  1  0.779830  0.809760  0.875100  1.0  0.7477
  C  C257  1  0.534260  0.850170  0.569000  1.0  0.0675
  C  C258  1  0.490610  0.853300  0.617900  1.0  -0.3788
  C  C259  1  0.428240  0.829930  0.579200  1.0  0.672
  C  C260  1  0.663190  0.022150  0.628300  1.0  0.0603
  C  C261  1  0.699070  0.036620  0.572000  1.0  -0.3505
  C  C262  1  0.712070  0.101020  0.572000  1.0  0.7651
  C  C263  1  0.913100  0.774800  0.836700  1.0  0.1805
  C  C264  1  0.951100  0.776500  0.789700  1.0  -0.1647
  C  C265  1  0.979900  0.728900  0.775300  1.0  0.0772
  C  C266  1  0.972200  0.679700  0.813000  1.0  -0.1766
  C  C267  1  0.934000  0.679800  0.860000  1.0  0.1782
  C  C268  1  0.908040  0.829500  0.096100  1.0  0.1827
  C  C269  1  0.964330  0.830900  0.147400  1.0  -0.2092
  C  C270  1  0.970160  0.818340  0.222500  1.0  0.1144
  C  C271  1  0.918110  0.803600  0.240900  1.0  -0.1898
  C  C272  1  0.863870  0.801600  0.187200  1.0  0.1894
  C  C273  1  0.201100  0.572500  0.178800  1.0  0.4868
  C  C274  1  0.098840  0.564290  0.096900  1.0  0.5751
  C  C275  1  0.136810  0.656520  0.152900  1.0  0.6059
  C  C276  1  0.238530  0.663570  0.239000  1.0  0.0848
  C  C277  1  0.233860  0.654930  0.319200  1.0  -0.3234
  C  C278  1  0.279830  0.690240  0.375100  1.0  0.7485
  C  C279  1  0.034260  0.649830  0.069000  1.0  0.0679
  C  C280  1  0.990610  0.646700  0.117900  1.0  -0.3785
  C  C281  1  0.928240  0.670070  0.079200  1.0  0.6719
  C  C282  1  0.163190  0.477850  0.128300  1.0  0.0594
  C  C283  1  0.199070  0.463380  0.072000  1.0  -0.3511
  C  C284  1  0.212070  0.398980  0.072000  1.0  0.7654
  C  C285  1  0.413100  0.725200  0.336700  1.0  0.1796
  C  C286  1  0.451100  0.723500  0.289700  1.0  -0.1656
  C  C287  1  0.479900  0.771100  0.275300  1.0  0.0768
  C  C288  1  0.472200  0.820300  0.313000  1.0  -0.1767
  C  C289  1  0.434000  0.820200  0.360000  1.0  0.1776
  C  C290  1  0.408040  0.670500  0.596100  1.0  0.1831
  C  C291  1  0.464330  0.669100  0.647400  1.0  -0.2095
  C  C292  1  0.470160  0.681660  0.722500  1.0  0.1131
  C  C293  1  0.418110  0.696400  0.740900  1.0  -0.1898
  C  C294  1  0.363870  0.698400  0.687200  1.0  0.1902
  C  C295  1  0.701100  0.072500  0.178800  1.0  0.4868
  C  C296  1  0.598840  0.064290  0.096900  1.0  0.5751
  C  C297  1  0.636810  0.156520  0.152900  1.0  0.6059
  C  C298  1  0.738530  0.163570  0.239000  1.0  0.0848
  C  C299  1  0.733860  0.154930  0.319200  1.0  -0.3234
  C  C300  1  0.779830  0.190240  0.375100  1.0  0.7485
  C  C301  1  0.534260  0.149830  0.069000  1.0  0.0679
  C  C302  1  0.490610  0.146700  0.117900  1.0  -0.3785
  C  C303  1  0.428240  0.170070  0.079200  1.0  0.6719
  C  C304  1  0.663190  0.977850  0.128300  1.0  0.0594
  C  C305  1  0.699070  0.963380  0.072000  1.0  -0.3511
  C  C306  1  0.712070  0.898980  0.072000  1.0  0.7654
  C  C307  1  0.913100  0.225200  0.336700  1.0  0.1796
  C  C308  1  0.951100  0.223500  0.289700  1.0  -0.1656
  C  C309  1  0.979900  0.271100  0.275300  1.0  0.0768
  C  C310  1  0.972200  0.320300  0.313000  1.0  -0.1767
  C  C311  1  0.934000  0.320200  0.360000  1.0  0.1776
  C  C312  1  0.908040  0.170500  0.596100  1.0  0.1831
  C  C313  1  0.964330  0.169100  0.647400  1.0  -0.2095
  C  C314  1  0.970160  0.181660  0.722500  1.0  0.1131
  C  C315  1  0.918110  0.196400  0.740900  1.0  -0.1898
  C  C316  1  0.863870  0.198400  0.687200  1.0  0.1902
  C  C317  1  0.798900  0.572500  0.321200  1.0  0.4871
  C  C318  1  0.901160  0.564290  0.403100  1.0  0.5724
  C  C319  1  0.863190  0.656520  0.347100  1.0  0.6061
  C  C320  1  0.761470  0.663570  0.261000  1.0  0.0864
  C  C321  1  0.766140  0.654930  0.180800  1.0  -0.3236
  C  C322  1  0.720170  0.690240  0.124900  1.0  0.748
  C  C323  1  0.965740  0.649830  0.431000  1.0  0.0674
  C  C324  1  0.009390  0.646700  0.382100  1.0  -0.3801
  C  C325  1  0.071760  0.670070  0.420800  1.0  0.6721
  C  C326  1  0.836810  0.477850  0.371700  1.0  0.0588
  C  C327  1  0.800930  0.463380  0.428000  1.0  -0.3495
  C  C328  1  0.787930  0.398980  0.428000  1.0  0.7653
  C  C329  1  0.586900  0.725200  0.163300  1.0  0.1784
  C  C330  1  0.548900  0.723500  0.210300  1.0  -0.1653
  C  C331  1  0.520100  0.771100  0.224700  1.0  0.0775
  C  C332  1  0.527800  0.820300  0.187000  1.0  -0.1767
  C  C333  1  0.566000  0.820200  0.140000  1.0  0.1783
  C  C334  1  0.591960  0.670500  0.903900  1.0  0.1829
  C  C335  1  0.535670  0.669100  0.852600  1.0  -0.2095
  C  C336  1  0.529840  0.681660  0.777500  1.0  0.1122
  C  C337  1  0.581890  0.696400  0.759100  1.0  -0.1878
  C  C338  1  0.636130  0.698400  0.812800  1.0  0.1894
  C  C339  1  0.298900  0.072500  0.321200  1.0  0.4871
  C  C340  1  0.401160  0.064290  0.403100  1.0  0.5724
  C  C341  1  0.363190  0.156520  0.347100  1.0  0.6061
  C  C342  1  0.261470  0.163570  0.261000  1.0  0.0864
  C  C343  1  0.266140  0.154930  0.180800  1.0  -0.3236
  C  C344  1  0.220170  0.190240  0.124900  1.0  0.748
  C  C345  1  0.465740  0.149830  0.431000  1.0  0.0674
  C  C346  1  0.509390  0.146700  0.382100  1.0  -0.3801
  C  C347  1  0.571760  0.170070  0.420800  1.0  0.6721
  C  C348  1  0.336810  0.977850  0.371700  1.0  0.0588
  C  C349  1  0.300930  0.963380  0.428000  1.0  -0.3495
  C  C350  1  0.287930  0.898980  0.428000  1.0  0.7653
  C  C351  1  0.086900  0.225200  0.163300  1.0  0.1784
  C  C352  1  0.048900  0.223500  0.210300  1.0  -0.1653
  C  C353  1  0.020100  0.271100  0.224700  1.0  0.0775
  C  C354  1  0.027800  0.320300  0.187000  1.0  -0.1767
  C  C355  1  0.066000  0.320200  0.140000  1.0  0.1783
  C  C356  1  0.091960  0.170500  0.903900  1.0  0.1829
  C  C357  1  0.035670  0.169100  0.852600  1.0  -0.2095
  C  C358  1  0.029840  0.181660  0.777500  1.0  0.1122
  C  C359  1  0.081890  0.196400  0.759100  1.0  -0.1878
  C  C360  1  0.136130  0.198400  0.812800  1.0  0.1894
  N  N361  1  0.809090  0.370140  0.814230  1.0  -0.2381
  N  N362  1  0.906870  0.377450  0.892860  1.0  -0.2784
  N  N363  1  0.845100  0.459330  0.865920  1.0  -0.3
  N  N364  1  0.596070  0.227440  0.627960  1.0  -0.303
  N  N365  1  0.642090  0.314740  0.385000  1.0  -0.3098
  N  N366  1  0.309090  0.870140  0.814230  1.0  -0.2381
  N  N367  1  0.406870  0.877450  0.892860  1.0  -0.2784
  N  N368  1  0.345100  0.959330  0.865920  1.0  -0.3
  N  N369  1  0.096070  0.727440  0.627960  1.0  -0.303
  N  N370  1  0.142090  0.814740  0.385000  1.0  -0.3098
  N  N371  1  0.190910  0.370140  0.685770  1.0  -0.2354
  N  N372  1  0.093130  0.377450  0.607140  1.0  -0.2777
  N  N373  1  0.154900  0.459330  0.634080  1.0  -0.2999
  N  N374  1  0.403930  0.227440  0.872040  1.0  -0.3022
  N  N375  1  0.357910  0.314740  0.115000  1.0  -0.3106
  N  N376  1  0.690910  0.870140  0.685770  1.0  -0.2354
  N  N377  1  0.593130  0.877450  0.607140  1.0  -0.2777
  N  N378  1  0.654900  0.959330  0.634080  1.0  -0.2999
  N  N379  1  0.903930  0.727440  0.872040  1.0  -0.3022
  N  N380  1  0.857910  0.814740  0.115000  1.0  -0.3106
  N  N381  1  0.190910  0.629860  0.185770  1.0  -0.2357
  N  N382  1  0.093130  0.622550  0.107140  1.0  -0.2782
  N  N383  1  0.154900  0.540670  0.134080  1.0  -0.2999
  N  N384  1  0.403930  0.772560  0.372040  1.0  -0.302
  N  N385  1  0.357910  0.685260  0.615000  1.0  -0.3097
  N  N386  1  0.690910  0.129860  0.185770  1.0  -0.2357
  N  N387  1  0.593130  0.122550  0.107140  1.0  -0.2782
  N  N388  1  0.654900  0.040670  0.134080  1.0  -0.2999
  N  N389  1  0.903930  0.272560  0.372040  1.0  -0.302
  N  N390  1  0.857910  0.185260  0.615000  1.0  -0.3097
  N  N391  1  0.809090  0.629860  0.314230  1.0  -0.2383
  N  N392  1  0.906870  0.622550  0.392860  1.0  -0.2783
  N  N393  1  0.845100  0.540670  0.365920  1.0  -0.3
  N  N394  1  0.596070  0.772560  0.127960  1.0  -0.3032
  N  N395  1  0.642090  0.685260  0.885000  1.0  -0.309
  N  N396  1  0.309090  0.129860  0.314230  1.0  -0.2383
  N  N397  1  0.406870  0.122550  0.392860  1.0  -0.2783
  N  N398  1  0.345100  0.040670  0.365920  1.0  -0.3
  N  N399  1  0.096070  0.272560  0.127960  1.0  -0.3032
  N  N400  1  0.142090  0.185260  0.885000  1.0  -0.309
  O  O401  1  0.750890  0.449950  0.788870  1.0  -0.4829
  O  O402  1  0.941740  0.465110  0.941940  1.0  -0.4857
  O  O403  1  0.872130  0.292550  0.836890  1.0  -0.5214
  O  O404  1  0.718070  0.255690  0.636100  1.0  -0.5852
  O  O405  1  0.686190  0.333690  0.568050  1.0  -0.6488
  O  O406  1  0.075620  0.301100  0.980470  1.0  -0.5737
  O  O407  1  0.114340  0.339850  0.892590  1.0  -0.5966
  O  O408  1  0.819340  0.634570  0.903060  1.0  -0.5871
  O  O409  1  0.744690  0.615970  0.954460  1.0  -0.5922
  O  O410  1  0.800940  0.275940  0.515260  1.0  -0.9134
  O  O411  1  0.250890  0.949950  0.788870  1.0  -0.4829
  O  O412  1  0.441740  0.965110  0.941940  1.0  -0.4857
  O  O413  1  0.372130  0.792550  0.836890  1.0  -0.5214
  O  O414  1  0.218070  0.755690  0.636100  1.0  -0.5852
  O  O415  1  0.186190  0.833690  0.568050  1.0  -0.6488
  O  O416  1  0.575620  0.801100  0.980470  1.0  -0.5738
  O  O417  1  0.614340  0.839850  0.892590  1.0  -0.5966
  O  O418  1  0.319340  0.134570  0.903060  1.0  -0.5871
  O  O419  1  0.244690  0.115970  0.954460  1.0  -0.5922
  O  O420  1  0.300940  0.775940  0.515260  1.0  -0.9134
  O  O421  1  0.249110  0.449950  0.711130  1.0  -0.4811
  O  O422  1  0.058260  0.465110  0.558060  1.0  -0.4867
  O  O423  1  0.127870  0.292550  0.663110  1.0  -0.521
  O  O424  1  0.281930  0.255690  0.863900  1.0  -0.5849
  O  O425  1  0.313810  0.333690  0.931950  1.0  -0.6488
  O  O426  1  0.924380  0.301100  0.519530  1.0  -0.5738
  O  O427  1  0.885660  0.339850  0.607410  1.0  -0.5956
  O  O428  1  0.180660  0.634570  0.596940  1.0  -0.5864
  O  O429  1  0.255310  0.615970  0.545540  1.0  -0.5907
  O  O430  1  0.199060  0.275940  0.984740  1.0  -0.9116
  O  O431  1  0.749110  0.949950  0.711130  1.0  -0.4811
  O  O432  1  0.558260  0.965110  0.558060  1.0  -0.4867
  O  O433  1  0.627870  0.792550  0.663110  1.0  -0.521
  O  O434  1  0.781930  0.755690  0.863900  1.0  -0.5849
  O  O435  1  0.813810  0.833690  0.931950  1.0  -0.6488
  O  O436  1  0.424380  0.801100  0.519530  1.0  -0.5739
  O  O437  1  0.385660  0.839850  0.607410  1.0  -0.5956
  O  O438  1  0.680660  0.134570  0.596940  1.0  -0.5864
  O  O439  1  0.755310  0.115970  0.545540  1.0  -0.5907
  O  O440  1  0.699060  0.775940  0.984740  1.0  -0.9116
  O  O441  1  0.249110  0.550050  0.211130  1.0  -0.4823
  O  O442  1  0.058260  0.534890  0.058060  1.0  -0.4875
  O  O443  1  0.127870  0.707450  0.163110  1.0  -0.5212
  O  O444  1  0.281930  0.744310  0.363900  1.0  -0.5845
  O  O445  1  0.313810  0.666310  0.431950  1.0  -0.6479
  O  O446  1  0.924380  0.698900  0.019530  1.0  -0.5746
  O  O447  1  0.885660  0.660150  0.107410  1.0  -0.5943
  O  O448  1  0.180660  0.365430  0.096940  1.0  -0.587
  O  O449  1  0.255310  0.384030  0.045540  1.0  -0.5918
  O  O450  1  0.199060  0.724060  0.484740  1.0  -0.9118
  O  O451  1  0.749110  0.050050  0.211130  1.0  -0.4823
  O  O452  1  0.558260  0.034890  0.058060  1.0  -0.4875
  O  O453  1  0.627870  0.207450  0.163110  1.0  -0.5212
  O  O454  1  0.781930  0.244310  0.363900  1.0  -0.5846
  O  O455  1  0.813810  0.166310  0.431950  1.0  -0.648
  O  O456  1  0.424380  0.198900  0.019530  1.0  -0.5746
  O  O457  1  0.385660  0.160150  0.107410  1.0  -0.5943
  O  O458  1  0.680660  0.865430  0.096940  1.0  -0.587
  O  O459  1  0.755310  0.884030  0.045540  1.0  -0.5918
  O  O460  1  0.699060  0.224060  0.484740  1.0  -0.9118
  O  O461  1  0.750890  0.550050  0.288870  1.0  -0.4831
  O  O462  1  0.941740  0.534890  0.441940  1.0  -0.4857
  O  O463  1  0.872130  0.707450  0.336890  1.0  -0.523
  O  O464  1  0.718070  0.744310  0.136100  1.0  -0.585
  O  O465  1  0.686190  0.666310  0.068050  1.0  -0.6489
  O  O466  1  0.075620  0.698900  0.480470  1.0  -0.574
  O  O467  1  0.114340  0.660150  0.392590  1.0  -0.5964
  O  O468  1  0.819340  0.365430  0.403060  1.0  -0.5867
  O  O469  1  0.744690  0.384030  0.454460  1.0  -0.591
  O  O470  1  0.800940  0.724060  0.015260  1.0  -0.9136
  O  O471  1  0.250890  0.050050  0.288870  1.0  -0.4831
  O  O472  1  0.441740  0.034890  0.441940  1.0  -0.4857
  O  O473  1  0.372130  0.207450  0.336890  1.0  -0.523
  O  O474  1  0.218070  0.244310  0.136100  1.0  -0.585
  O  O475  1  0.186190  0.166310  0.068050  1.0  -0.649
  O  O476  1  0.575620  0.198900  0.480470  1.0  -0.574
  O  O477  1  0.614340  0.160150  0.392590  1.0  -0.5964
  O  O478  1  0.319340  0.865430  0.403060  1.0  -0.5867
  O  O479  1  0.244690  0.884030  0.454460  1.0  -0.591
  O  O480  1  0.300940  0.224060  0.015260  1.0  -0.9136
