# generated using pymatgen
data_Zn6P8H3O32
_symmetry_space_group_name_H-M   'P 1'
_cell_length_a   31.92040000
_cell_length_b   8.37590000
_cell_length_c   15.78940000
_cell_angle_alpha   90.00000000
_cell_angle_beta   97.06200000
_cell_angle_gamma   90.00000000
_symmetry_Int_Tables_number   1
_chemical_formula_structural   Zn6P8H3O32
_chemical_formula_sum   'Zn24 P32 H12 O128'
_cell_volume   4189.46131463
_cell_formula_units_Z   4
loop_
 _symmetry_equiv_pos_site_id
 _symmetry_equiv_pos_as_xyz
  1  'x, y, z'
loop_
 _atom_site_type_symbol
 _atom_site_label
 _atom_site_symmetry_multiplicity
 _atom_site_fract_x
 _atom_site_fract_y
 _atom_site_fract_z
 _atom_site_occupancy
 _atom_site_charge
  Zn  Zn1  1  0.493340  0.757730  0.013050  1.0  1.1866
  Zn  Zn2  1  0.990860  0.760380  0.511400  1.0  1.146
  Zn  Zn3  1  0.254910  0.524140  0.631520  1.0  1.1884
  Zn  Zn4  1  0.251680  0.500970  0.891130  1.0  1.1876
  Zn  Zn5  1  0.127160  0.709100  0.590030  1.0  1.2097
  Zn  Zn6  1  0.371760  0.279460  0.938420  1.0  1.1875
  Zn  Zn7  1  0.506660  0.257730  0.486950  1.0  1.1871
  Zn  Zn8  1  0.009140  0.260380  0.988600  1.0  1.1476
  Zn  Zn9  1  0.745090  0.024140  0.868480  1.0  1.1874
  Zn  Zn10  1  0.748320  0.000970  0.608870  1.0  1.187
  Zn  Zn11  1  0.872840  0.209100  0.909970  1.0  1.21
  Zn  Zn12  1  0.628240  0.779460  0.561580  1.0  1.1879
  Zn  Zn13  1  0.506660  0.242270  0.986950  1.0  1.1871
  Zn  Zn14  1  0.009140  0.239620  0.488600  1.0  1.1473
  Zn  Zn15  1  0.745090  0.475860  0.368480  1.0  1.1881
  Zn  Zn16  1  0.748320  0.499030  0.108870  1.0  1.1872
  Zn  Zn17  1  0.872840  0.290900  0.409970  1.0  1.21
  Zn  Zn18  1  0.628240  0.720540  0.061580  1.0  1.1881
  Zn  Zn19  1  0.493340  0.742270  0.513050  1.0  1.1867
  Zn  Zn20  1  0.990860  0.739620  0.011400  1.0  1.147
  Zn  Zn21  1  0.254910  0.975860  0.131520  1.0  1.1877
  Zn  Zn22  1  0.251680  0.999030  0.391130  1.0  1.1877
  Zn  Zn23  1  0.127160  0.790900  0.090030  1.0  1.2102
  Zn  Zn24  1  0.371760  0.220540  0.438420  1.0  1.1876
  P  P25  1  0.217590  0.838500  0.553800  1.0  1.8216
  P  P26  1  0.057450  0.981100  0.627310  1.0  1.794
  P  P27  1  0.562530  0.978700  0.109120  1.0  1.8014
  P  P28  1  0.063180  0.542000  0.439050  1.0  1.8805
  P  P29  1  0.443340  0.447600  0.078500  1.0  1.797
  P  P30  1  0.176710  0.471200  0.725470  1.0  1.7294
  P  P31  1  0.281120  0.212800  0.006010  1.0  1.88
  P  P32  1  0.330930  0.529500  0.793940  1.0  1.757
  P  P33  1  0.782410  0.338500  0.946200  1.0  1.8294
  P  P34  1  0.942550  0.481100  0.872690  1.0  1.7954
  P  P35  1  0.437470  0.478700  0.390880  1.0  1.7977
  P  P36  1  0.936820  0.042000  0.060950  1.0  1.8822
  P  P37  1  0.556660  0.947600  0.421500  1.0  1.7976
  P  P38  1  0.823290  0.971200  0.774530  1.0  1.7641
  P  P39  1  0.718880  0.712800  0.493990  1.0  1.8785
  P  P40  1  0.669070  0.029500  0.706060  1.0  1.7307
  P  P41  1  0.782410  0.161500  0.446200  1.0  1.836
  P  P42  1  0.942550  0.018900  0.372690  1.0  1.7957
  P  P43  1  0.437470  0.021300  0.890880  1.0  1.8153
  P  P44  1  0.936820  0.458000  0.560950  1.0  1.8818
  P  P45  1  0.556660  0.552400  0.921500  1.0  1.804
  P  P46  1  0.823290  0.528800  0.274530  1.0  1.7643
  P  P47  1  0.718880  0.787200  0.993990  1.0  1.8784
  P  P48  1  0.669070  0.470500  0.206060  1.0  1.7265
  P  P49  1  0.217590  0.661500  0.053800  1.0  1.8248
  P  P50  1  0.057450  0.518900  0.127310  1.0  1.795
  P  P51  1  0.562530  0.521300  0.609120  1.0  1.8142
  P  P52  1  0.063180  0.958000  0.939050  1.0  1.8688
  P  P53  1  0.443340  0.052400  0.578500  1.0  1.8034
  P  P54  1  0.176710  0.028800  0.225470  1.0  1.7307
  P  P55  1  0.281120  0.287200  0.506010  1.0  1.8788
  P  P56  1  0.330930  0.970500  0.293940  1.0  1.7391
  H  H57  1  0.566900  0.006300  0.235800  1.0  0.4344
  H  H58  1  0.230600  0.066200  0.583400  1.0  0.4151
  H  H59  1  0.074700  0.532200  0.318100  1.0  0.4338
  H  H60  1  0.433100  0.506300  0.264200  1.0  0.432
  H  H61  1  0.769400  0.566200  0.916600  1.0  0.4147
  H  H62  1  0.925300  0.032200  0.181900  1.0  0.436
  H  H63  1  0.433100  0.993700  0.764200  1.0  0.4324
  H  H64  1  0.769400  0.933800  0.416600  1.0  0.414
  H  H65  1  0.925300  0.467800  0.681900  1.0  0.4363
  H  H66  1  0.566900  0.493700  0.735800  1.0  0.4343
  H  H67  1  0.230600  0.433800  0.083400  1.0  0.4155
  H  H68  1  0.074700  0.967800  0.818100  1.0  0.4354
  O  O69  1  0.242420  0.845700  0.478300  1.0  -0.7423
  O  O70  1  0.151000  0.320100  0.745000  1.0  -0.5375
  O  O71  1  0.027840  0.664800  0.436800  1.0  -0.7804
  O  O72  1  0.459330  0.621000  0.078900  1.0  -0.7752
  O  O73  1  0.270140  0.307300  0.083500  1.0  -0.7625
  O  O74  1  0.560100  0.067700  0.196100  1.0  -0.6197
  O  O75  1  0.242950  0.751600  0.628300  1.0  -0.6976
  O  O76  1  0.365050  0.653300  0.784900  1.0  -0.5014
  O  O77  1  0.209410  0.011600  0.585400  1.0  -0.6156
  O  O78  1  0.257350  0.279400  0.923000  1.0  -0.7066
  O  O79  1  0.413780  0.420100  0.996200  1.0  -0.7959
  O  O80  1  0.045330  0.373000  0.427200  1.0  -0.7244
  O  O81  1  0.481900  0.335600  0.081000  1.0  -0.7255
  O  O82  1  0.203160  0.419000  0.655800  1.0  -0.7302
  O  O83  1  0.328840  0.221000  0.006700  1.0  -0.7548
  O  O84  1  0.351560  0.373600  0.829000  1.0  -0.7463
  O  O85  1  0.204030  0.528200  0.805800  1.0  -0.7976
  O  O86  1  0.057870  0.041900  0.720100  1.0  -0.7617
  O  O87  1  0.094110  0.553300  0.519400  1.0  -0.7616
  O  O88  1  0.305270  0.488000  0.708800  1.0  -0.7946
  O  O89  1  0.146090  0.607000  0.698000  1.0  -0.7076
  O  O90  1  0.608450  0.927600  0.104000  1.0  -0.6834
  O  O91  1  0.268450  0.038000  0.017300  1.0  -0.6711
  O  O92  1  0.534190  0.833000  0.105800  1.0  -0.7308
  O  O93  1  0.549320  0.098400  0.039500  1.0  -0.8318
  O  O94  1  0.100110  0.907100  0.615900  1.0  -0.7313
  O  O95  1  0.021060  0.860900  0.611200  1.0  -0.7332
  O  O96  1  0.302120  0.598100  0.857000  1.0  -0.6935
  O  O97  1  0.174520  0.759600  0.527700  1.0  -0.7192
  O  O98  1  0.086940  0.576700  0.360400  1.0  -0.5971
  O  O99  1  0.050000  0.125900  0.568200  1.0  -0.7388
  O  O100  1  0.421360  0.424300  0.157900  1.0  -0.6979
  O  O101  1  0.757580  0.345700  0.021700  1.0  -0.7437
  O  O102  1  0.849000  0.820100  0.755000  1.0  -0.5375
  O  O103  1  0.972160  0.164800  0.063200  1.0  -0.7802
  O  O104  1  0.540670  0.121000  0.421100  1.0  -0.7746
  O  O105  1  0.729860  0.807300  0.416500  1.0  -0.7592
  O  O106  1  0.439900  0.567700  0.303900  1.0  -0.6163
  O  O107  1  0.757050  0.251600  0.871700  1.0  -0.6967
  O  O108  1  0.634950  0.153300  0.715100  1.0  -0.5016
  O  O109  1  0.790590  0.511600  0.914600  1.0  -0.6108
  O  O110  1  0.742650  0.779400  0.577000  1.0  -0.7088
  O  O111  1  0.586220  0.920100  0.503800  1.0  -0.7954
  O  O112  1  0.954670  0.873000  0.072800  1.0  -0.7231
  O  O113  1  0.518100  0.835600  0.419000  1.0  -0.7257
  O  O114  1  0.796840  0.919000  0.844200  1.0  -0.7313
  O  O115  1  0.671160  0.721000  0.493300  1.0  -0.7527
  O  O116  1  0.648440  0.873600  0.671000  1.0  -0.7484
  O  O117  1  0.795970  0.028200  0.694200  1.0  -0.7958
  O  O118  1  0.942130  0.541900  0.779900  1.0  -0.7619
  O  O119  1  0.905890  0.053300  0.980600  1.0  -0.7605
  O  O120  1  0.694730  0.988000  0.791200  1.0  -0.7969
  O  O121  1  0.853910  0.107000  0.802000  1.0  -0.7067
  O  O122  1  0.391550  0.427600  0.396000  1.0  -0.6813
  O  O123  1  0.731550  0.538000  0.482700  1.0  -0.6701
  O  O124  1  0.465810  0.333000  0.394200  1.0  -0.7312
  O  O125  1  0.450680  0.598400  0.460500  1.0  -0.8311
  O  O126  1  0.899890  0.407100  0.884100  1.0  -0.732
  O  O127  1  0.978940  0.360900  0.888800  1.0  -0.7345
  O  O128  1  0.697880  0.098100  0.643000  1.0  -0.6936
  O  O129  1  0.825480  0.259600  0.972300  1.0  -0.7173
  O  O130  1  0.913060  0.076700  0.139600  1.0  -0.5995
  O  O131  1  0.950000  0.625900  0.931800  1.0  -0.7397
  O  O132  1  0.578640  0.924300  0.342100  1.0  -0.6994
  O  O133  1  0.757580  0.154300  0.521700  1.0  -0.746
  O  O134  1  0.849000  0.679900  0.255000  1.0  -0.5375
  O  O135  1  0.972160  0.335200  0.563200  1.0  -0.7809
  O  O136  1  0.540670  0.379000  0.921100  1.0  -0.7736
  O  O137  1  0.729860  0.692700  0.916500  1.0  -0.7598
  O  O138  1  0.439900  0.932300  0.803900  1.0  -0.618
  O  O139  1  0.757050  0.248400  0.371700  1.0  -0.6969
  O  O140  1  0.634950  0.346700  0.215100  1.0  -0.5029
  O  O141  1  0.790590  0.988400  0.414600  1.0  -0.6107
  O  O142  1  0.742650  0.720600  0.077000  1.0  -0.7077
  O  O143  1  0.586220  0.579900  0.003800  1.0  -0.7951
  O  O144  1  0.954670  0.627000  0.572800  1.0  -0.7242
  O  O145  1  0.518100  0.664400  0.919000  1.0  -0.7247
  O  O146  1  0.796840  0.581000  0.344200  1.0  -0.7292
  O  O147  1  0.671160  0.779000  0.993300  1.0  -0.7527
  O  O148  1  0.648440  0.626400  0.171000  1.0  -0.7484
  O  O149  1  0.795970  0.471800  0.194200  1.0  -0.7962
  O  O150  1  0.942130  0.958100  0.279900  1.0  -0.7623
  O  O151  1  0.905890  0.446700  0.480600  1.0  -0.7607
  O  O152  1  0.694730  0.512000  0.291200  1.0  -0.7972
  O  O153  1  0.853910  0.393000  0.302000  1.0  -0.707
  O  O154  1  0.391550  0.072400  0.896000  1.0  -0.6807
  O  O155  1  0.731550  0.962000  0.982700  1.0  -0.6697
  O  O156  1  0.465810  0.167000  0.894200  1.0  -0.7301
  O  O157  1  0.450680  0.901600  0.960500  1.0  -0.8307
  O  O158  1  0.899890  0.092900  0.384100  1.0  -0.7315
  O  O159  1  0.978940  0.139100  0.388800  1.0  -0.7338
  O  O160  1  0.697880  0.401900  0.143000  1.0  -0.6953
  O  O161  1  0.825480  0.240400  0.472300  1.0  -0.7173
  O  O162  1  0.913060  0.423300  0.639600  1.0  -0.6004
  O  O163  1  0.950000  0.874100  0.431800  1.0  -0.7401
  O  O164  1  0.578640  0.575700  0.842100  1.0  -0.6984
  O  O165  1  0.242420  0.654300  0.978300  1.0  -0.7436
  O  O166  1  0.151000  0.179900  0.245000  1.0  -0.5385
  O  O167  1  0.027840  0.835200  0.936800  1.0  -0.781
  O  O168  1  0.459330  0.879000  0.578900  1.0  -0.7723
  O  O169  1  0.270140  0.192700  0.583500  1.0  -0.7626
  O  O170  1  0.560100  0.432300  0.696100  1.0  -0.6207
  O  O171  1  0.242950  0.748400  0.128300  1.0  -0.6974
  O  O172  1  0.365050  0.846700  0.284900  1.0  -0.5025
  O  O173  1  0.209410  0.488400  0.085400  1.0  -0.6152
  O  O174  1  0.257350  0.220600  0.423000  1.0  -0.706
  O  O175  1  0.413780  0.079900  0.496200  1.0  -0.7976
  O  O176  1  0.045330  0.127000  0.927200  1.0  -0.7244
  O  O177  1  0.481900  0.164400  0.581000  1.0  -0.7245
  O  O178  1  0.203160  0.081000  0.155800  1.0  -0.7286
  O  O179  1  0.328840  0.279000  0.506700  1.0  -0.755
  O  O180  1  0.351560  0.126400  0.329000  1.0  -0.7465
  O  O181  1  0.204030  0.971800  0.305800  1.0  -0.7978
  O  O182  1  0.057870  0.458100  0.220100  1.0  -0.7632
  O  O183  1  0.094110  0.946700  0.019400  1.0  -0.7616
  O  O184  1  0.305270  0.012000  0.208800  1.0  -0.7949
  O  O185  1  0.146090  0.893000  0.198000  1.0  -0.7072
  O  O186  1  0.608450  0.572400  0.604000  1.0  -0.6825
  O  O187  1  0.268450  0.462000  0.517300  1.0  -0.6714
  O  O188  1  0.534190  0.667000  0.605800  1.0  -0.7306
  O  O189  1  0.549320  0.401600  0.539500  1.0  -0.8321
  O  O190  1  0.100110  0.592900  0.115900  1.0  -0.7307
  O  O191  1  0.021060  0.639100  0.111200  1.0  -0.7337
  O  O192  1  0.302120  0.901900  0.357000  1.0  -0.6953
  O  O193  1  0.174520  0.740400  0.027700  1.0  -0.7188
  O  O194  1  0.086940  0.923300  0.860400  1.0  -0.598
  O  O195  1  0.050000  0.374100  0.068200  1.0  -0.7386
  O  O196  1  0.421360  0.075700  0.657900  1.0  -0.6977
