# generated using pymatgen
data_La(CO2)3
_symmetry_space_group_name_H-M   'P 1'
_cell_length_a   10.41500000
_cell_length_b   10.22600000
_cell_length_c   8.71980000
_cell_angle_alpha   90.00000000
_cell_angle_beta   109.45000000
_cell_angle_gamma   90.00000000
_symmetry_Int_Tables_number   1
_chemical_formula_structural   La(CO2)3
_chemical_formula_sum   'La4 C12 O24'
_cell_volume   875.69357001
_cell_formula_units_Z   4
loop_
 _symmetry_equiv_pos_site_id
 _symmetry_equiv_pos_as_xyz
  1  'x, y, z'
loop_
 _atom_site_type_symbol
 _atom_site_label
 _atom_site_symmetry_multiplicity
 _atom_site_fract_x
 _atom_site_fract_y
 _atom_site_fract_z
 _atom_site_occupancy
 _atom_site_charge
  La  La1  1  0.500000  0.931960  0.250000  1.0  2.1163
  La  La2  1  0.500000  0.068040  0.750000  1.0  2.1151
  La  La3  1  0.000000  0.263790  0.750000  1.0  2.1328
  La  La4  1  0.000000  0.736210  0.250000  1.0  2.1334
  C  C5  1  0.771000  0.129900  0.410200  1.0  0.5624
  C  C6  1  0.695300  0.143000  0.535700  1.0  0.619
  C  C7  1  0.067900  0.472900  0.492300  1.0  0.5287
  C  C8  1  0.229000  0.129900  0.089800  1.0  0.562
  C  C9  1  0.304700  0.143000  0.964300  1.0  0.6188
  C  C10  1  0.932100  0.472900  0.007700  1.0  0.5288
  C  C11  1  0.229000  0.870100  0.589800  1.0  0.5622
  C  C12  1  0.304700  0.857000  0.464300  1.0  0.6191
  C  C13  1  0.932100  0.527100  0.507700  1.0  0.5283
  C  C14  1  0.771000  0.870100  0.910200  1.0  0.5624
  C  C15  1  0.695300  0.857000  0.035700  1.0  0.6191
  C  C16  1  0.067900  0.527100  0.992300  1.0  0.5284
  O  O17  1  0.702100  0.081700  0.274400  1.0  -0.5993
  O  O18  1  0.575500  0.097800  0.493300  1.0  -0.7726
  O  O19  1  0.892200  0.166000  0.454500  1.0  -0.5908
  O  O20  1  0.754500  0.194000  0.669800  1.0  -0.6582
  O  O21  1  0.111700  0.367300  0.564600  1.0  -0.6019
  O  O22  1  0.879500  0.461400  0.592100  1.0  -0.6117
  O  O23  1  0.297900  0.081700  0.225600  1.0  -0.6007
  O  O24  1  0.424500  0.097800  0.006700  1.0  -0.7715
  O  O25  1  0.107800  0.166000  0.045500  1.0  -0.5914
  O  O26  1  0.245500  0.194000  0.830200  1.0  -0.6567
  O  O27  1  0.888300  0.367300  0.935400  1.0  -0.602
  O  O28  1  0.120500  0.461400  0.907900  1.0  -0.6117
  O  O29  1  0.297900  0.918300  0.725600  1.0  -0.6005
  O  O30  1  0.424500  0.902200  0.506700  1.0  -0.7724
  O  O31  1  0.107800  0.834000  0.545500  1.0  -0.5908
  O  O32  1  0.245500  0.806000  0.330200  1.0  -0.6569
  O  O33  1  0.888300  0.632700  0.435400  1.0  -0.6037
  O  O34  1  0.120500  0.538600  0.407900  1.0  -0.6115
  O  O35  1  0.702100  0.918300  0.774400  1.0  -0.5993
  O  O36  1  0.575500  0.902200  0.993300  1.0  -0.7731
  O  O37  1  0.892200  0.834000  0.954500  1.0  -0.5907
  O  O38  1  0.754500  0.806000  0.169800  1.0  -0.6565
  O  O39  1  0.111700  0.632700  0.064600  1.0  -0.6016
  O  O40  1  0.879500  0.538600  0.092100  1.0  -0.6115
