# generated using pymatgen
data_Mn2Fe3H48C96(NO2)8
_symmetry_space_group_name_H-M   'P 1'
_cell_length_a   14.90800000
_cell_length_b   15.34500000
_cell_length_c   27.75300000
_cell_angle_alpha   90.00000000
_cell_angle_beta   90.42400000
_cell_angle_gamma   90.00000000
_symmetry_Int_Tables_number   1
_chemical_formula_structural   Mn2Fe3H48C96(NO2)8
_chemical_formula_sum   'Mn4 Fe6 H96 C192 N16 O32'
_cell_volume   6348.69291439
_cell_formula_units_Z   2
loop_
 _symmetry_equiv_pos_site_id
 _symmetry_equiv_pos_as_xyz
  1  'x, y, z'
loop_
 _atom_site_type_symbol
 _atom_site_label
 _atom_site_symmetry_multiplicity
 _atom_site_fract_x
 _atom_site_fract_y
 _atom_site_fract_z
 _atom_site_occupancy
 _atom_site_charge
  Mn  Mn1  1  0.276140  0.021890  0.488300  1.0  0.9361
  Mn  Mn2  1  0.723860  0.021890  0.011700  1.0  0.9352
  Mn  Mn3  1  0.723860  0.978110  0.511700  1.0  0.9359
  Mn  Mn4  1  0.276140  0.978110  0.988300  1.0  0.9365
  Fe  Fe5  1  0.731420  0.621970  0.755240  1.0  1.043
  Fe  Fe6  1  0.268580  0.621970  0.744760  1.0  1.0438
  Fe  Fe7  1  0.268580  0.378030  0.244760  1.0  1.043
  Fe  Fe8  1  0.731420  0.378030  0.255240  1.0  1.0426
  Fe  Fe9  1  0.500000  0.559120  0.750000  1.0  1.0623
  Fe  Fe10  1  0.500000  0.440880  0.250000  1.0  1.0628
  H  H11  1  0.095500  0.022600  0.332200  1.0  0.114
  H  H12  1  0.176300  0.885500  0.327500  1.0  0.1351
  H  H13  1  0.392100  0.717900  0.447400  1.0  0.1159
  H  H14  1  0.453300  0.748400  0.528400  1.0  0.121
  H  H15  1  0.473900  0.028100  0.638200  1.0  0.1298
  H  H16  1  0.426700  0.181400  0.629400  1.0  0.122
  H  H17  1  0.207100  0.346400  0.510100  1.0  0.1314
  H  H18  1  0.111500  0.301200  0.442500  1.0  0.1195
  H  H19  1  0.190900  0.596300  0.345900  1.0  0.1199
  H  H20  1  0.180000  0.719400  0.393300  1.0  0.1164
  H  H21  1  0.410600  0.807400  0.342200  1.0  0.1002
  H  H22  1  0.427300  0.683600  0.296800  1.0  0.1212
  H  H23  1  0.453100  0.728700  0.687600  1.0  0.1097
  H  H24  1  0.369800  0.810300  0.633400  1.0  0.1123
  H  H25  1  0.596800  0.906300  0.578700  1.0  0.0953
  H  H26  1  0.680900  0.822300  0.631100  1.0  0.1081
  H  H27  1  0.481100  0.439400  0.609200  1.0  0.1207
  H  H28  1  0.456900  0.315500  0.560600  1.0  0.0899
  H  H29  1  0.203700  0.303100  0.606100  1.0  0.1197
  H  H30  1  0.225800  0.427400  0.651200  1.0  0.1098
  H  H31  1  0.028500  0.311200  0.295500  1.0  0.1066
  H  H32  1  0.142900  0.248800  0.340300  1.0  0.1112
  H  H33  1  0.962600  0.104600  0.411500  1.0  0.1157
  H  H34  1  0.845900  0.167600  0.367000  1.0  0.1131
  H  H35  1  0.904500  0.022600  0.167800  1.0  0.1138
  H  H36  1  0.823700  0.885500  0.172500  1.0  0.1354
  H  H37  1  0.607900  0.717900  0.052600  1.0  0.1164
  H  H38  1  0.546700  0.748400  0.971600  1.0  0.1205
  H  H39  1  0.526100  0.028100  0.861800  1.0  0.1299
  H  H40  1  0.573300  0.181400  0.870600  1.0  0.1216
  H  H41  1  0.792900  0.346400  0.989900  1.0  0.1312
  H  H42  1  0.888500  0.301200  0.057500  1.0  0.1191
  H  H43  1  0.809100  0.596300  0.154100  1.0  0.1197
  H  H44  1  0.820000  0.719400  0.106700  1.0  0.1158
  H  H45  1  0.589400  0.807400  0.157800  1.0  0.0997
  H  H46  1  0.572700  0.683600  0.203200  1.0  0.1212
  H  H47  1  0.546900  0.728700  0.812400  1.0  0.1097
  H  H48  1  0.630200  0.810300  0.866600  1.0  0.1129
  H  H49  1  0.403200  0.906300  0.921300  1.0  0.095
  H  H50  1  0.319100  0.822300  0.868900  1.0  0.108
  H  H51  1  0.518900  0.439400  0.890800  1.0  0.1203
  H  H52  1  0.543100  0.315500  0.939400  1.0  0.0906
  H  H53  1  0.796300  0.303100  0.893900  1.0  0.1188
  H  H54  1  0.774200  0.427400  0.848800  1.0  0.1103
  H  H55  1  0.971500  0.311200  0.204500  1.0  0.1065
  H  H56  1  0.857100  0.248800  0.159700  1.0  0.1107
  H  H57  1  0.037400  0.104600  0.088500  1.0  0.1153
  H  H58  1  0.154100  0.167600  0.133000  1.0  0.1129
  H  H59  1  0.904500  0.977400  0.667800  1.0  0.1136
  H  H60  1  0.823700  0.114500  0.672500  1.0  0.1351
  H  H61  1  0.607900  0.282100  0.552600  1.0  0.1157
  H  H62  1  0.546700  0.251600  0.471600  1.0  0.1214
  H  H63  1  0.526100  0.971900  0.361800  1.0  0.1294
  H  H64  1  0.573300  0.818600  0.370600  1.0  0.1221
  H  H65  1  0.792900  0.653600  0.489900  1.0  0.1314
  H  H66  1  0.888500  0.698800  0.557500  1.0  0.1188
  H  H67  1  0.809100  0.403700  0.654100  1.0  0.1202
  H  H68  1  0.820000  0.280600  0.606700  1.0  0.1157
  H  H69  1  0.589400  0.192600  0.657800  1.0  0.0996
  H  H70  1  0.572700  0.316400  0.703200  1.0  0.1212
  H  H71  1  0.546900  0.271300  0.312400  1.0  0.1094
  H  H72  1  0.630200  0.189700  0.366600  1.0  0.1129
  H  H73  1  0.403200  0.093700  0.421300  1.0  0.0953
  H  H74  1  0.319100  0.177700  0.368900  1.0  0.1084
  H  H75  1  0.518900  0.560600  0.390800  1.0  0.1207
  H  H76  1  0.543100  0.684500  0.439400  1.0  0.0905
  H  H77  1  0.796300  0.696900  0.393900  1.0  0.1192
  H  H78  1  0.774200  0.572600  0.348800  1.0  0.1102
  H  H79  1  0.971500  0.688800  0.704500  1.0  0.1067
  H  H80  1  0.857100  0.751200  0.659700  1.0  0.1104
  H  H81  1  0.037400  0.895400  0.588500  1.0  0.1158
  H  H82  1  0.154100  0.832400  0.633000  1.0  0.1131
  H  H83  1  0.095500  0.977400  0.832200  1.0  0.1132
  H  H84  1  0.176300  0.114500  0.827500  1.0  0.1353
  H  H85  1  0.392100  0.282100  0.947400  1.0  0.1161
  H  H86  1  0.453300  0.251600  0.028400  1.0  0.121
  H  H87  1  0.473900  0.971900  0.138200  1.0  0.1291
  H  H88  1  0.426700  0.818600  0.129400  1.0  0.1227
  H  H89  1  0.207100  0.653600  0.010100  1.0  0.1318
  H  H90  1  0.111500  0.698800  0.942500  1.0  0.1186
  H  H91  1  0.190900  0.403700  0.845900  1.0  0.1201
  H  H92  1  0.180000  0.280600  0.893300  1.0  0.1163
  H  H93  1  0.410600  0.192600  0.842200  1.0  0.0997
  H  H94  1  0.427300  0.316400  0.796800  1.0  0.1213
  H  H95  1  0.453100  0.271300  0.187600  1.0  0.1094
  H  H96  1  0.369800  0.189700  0.133400  1.0  0.1123
  H  H97  1  0.596800  0.093700  0.078700  1.0  0.0953
  H  H98  1  0.680900  0.177700  0.131100  1.0  0.1088
  H  H99  1  0.481100  0.560600  0.109200  1.0  0.1203
  H  H100  1  0.456900  0.684500  0.060600  1.0  0.0899
  H  H101  1  0.203700  0.696900  0.106100  1.0  0.1198
  H  H102  1  0.225800  0.572600  0.151200  1.0  0.1102
  H  H103  1  0.028500  0.688800  0.795500  1.0  0.1064
  H  H104  1  0.142900  0.751200  0.840300  1.0  0.1109
  H  H105  1  0.962600  0.895400  0.911500  1.0  0.1161
  H  H106  1  0.845900  0.832400  0.867000  1.0  0.1127
  C  C107  1  0.163600  0.047700  0.398040  1.0  0.1472
  C  C108  1  0.137800  0.002100  0.355300  1.0  -0.1291
  C  C109  1  0.181000  0.927500  0.352550  1.0  -0.159
  C  C110  1  0.236200  0.922400  0.394350  1.0  0.2088
  C  C111  1  0.288500  0.852000  0.407160  1.0  -0.0766
  C  C112  1  0.337500  0.846300  0.449060  1.0  0.1377
  C  C113  1  0.385400  0.770700  0.464900  1.0  -0.1692
  C  C114  1  0.419500  0.787800  0.509110  1.0  -0.1531
  C  C115  1  0.396500  0.874200  0.521930  1.0  0.2085
  C  C116  1  0.422400  0.914300  0.562140  1.0  0.0523
  C  C117  1  0.405900  0.005300  0.571720  1.0  0.1087
  C  C118  1  0.439300  0.051700  0.612510  1.0  -0.1571
  C  C119  1  0.412900  0.134900  0.607980  1.0  -0.1643
  C  C120  1  0.359000  0.140500  0.564040  1.0  0.226
  C  C121  1  0.315300  0.213700  0.548970  1.0  -0.0435
  C  C122  1  0.256800  0.215700  0.510300  1.0  0.2081
  C  C123  1  0.205100  0.290000  0.495920  1.0  -0.173
  C  C124  1  0.153700  0.265300  0.459000  1.0  -0.1447
  C  C125  1  0.172200  0.175500  0.448030  1.0  0.2103
  C  C126  1  0.136500  0.130500  0.409970  1.0  -0.0462
  C  C127  1  0.311900  0.625600  0.316970  1.0  -0.1114
  C  C128  1  0.237500  0.638500  0.345600  1.0  -0.108
  C  C129  1  0.231000  0.712100  0.373300  1.0  -0.1476
  C  C130  1  0.295400  0.774900  0.373160  1.0  0.0944
  C  C131  1  0.366100  0.763200  0.343860  1.0  -0.095
  C  C132  1  0.375800  0.690000  0.316450  1.0  -0.1092
  C  C133  1  0.324700  0.542500  0.288950  1.0  0.7403
  C  C134  1  0.574700  0.766600  0.664030  1.0  -0.1193
  C  C135  1  0.482900  0.764100  0.664710  1.0  -0.0626
  C  C136  1  0.433500  0.812700  0.632390  1.0  -0.1384
  C  C137  1  0.474100  0.864400  0.598930  1.0  0.1127
  C  C138  1  0.567000  0.868300  0.600300  1.0  -0.1048
  C  C139  1  0.617300  0.819500  0.631690  1.0  -0.0833
  C  C140  1  0.630100  0.711600  0.697440  1.0  0.6557
  C  C141  1  0.355800  0.444600  0.636170  1.0  -0.1064
  C  C142  1  0.423900  0.412000  0.608800  1.0  -0.0756
  C  C143  1  0.409100  0.337000  0.579720  1.0  -0.0803
  C  C144  1  0.329100  0.295200  0.578460  1.0  0.0865
  C  C145  1  0.260900  0.330400  0.606100  1.0  -0.1868
  C  C146  1  0.274600  0.404100  0.633550  1.0  -0.0472
  C  C147  1  0.369300  0.520700  0.668250  1.0  0.721
  C  C148  1  0.925000  0.246600  0.326310  1.0  -0.1177
  C  C149  1  0.014100  0.269100  0.319380  1.0  -0.0449
  C  C150  1  0.082500  0.232100  0.346130  1.0  -0.1361
  C  C151  1  0.064400  0.171300  0.381040  1.0  0.0995
  C  C152  1  0.976100  0.147500  0.387930  1.0  -0.1174
  C  C153  1  0.906100  0.184600  0.361280  1.0  -0.08
  C  C154  1  0.850800  0.289200  0.299360  1.0  0.6735
  C  C155  1  0.836400  0.047700  0.101960  1.0  0.1486
  C  C156  1  0.862200  0.002100  0.144700  1.0  -0.1301
  C  C157  1  0.819000  0.927500  0.147450  1.0  -0.1592
  C  C158  1  0.763800  0.922400  0.105650  1.0  0.2086
  C  C159  1  0.711500  0.852000  0.092840  1.0  -0.0761
  C  C160  1  0.662500  0.846300  0.050940  1.0  0.1384
  C  C161  1  0.614600  0.770700  0.035100  1.0  -0.1695
  C  C162  1  0.580500  0.787800  0.990890  1.0  -0.1534
  C  C163  1  0.603500  0.874200  0.978070  1.0  0.2101
  C  C164  1  0.577600  0.914300  0.937860  1.0  0.0523
  C  C165  1  0.594100  0.005300  0.928280  1.0  0.1084
  C  C166  1  0.560700  0.051700  0.887490  1.0  -0.1559
  C  C167  1  0.587100  0.134900  0.892020  1.0  -0.1659
  C  C168  1  0.641000  0.140500  0.935960  1.0  0.2277
  C  C169  1  0.684700  0.213700  0.951030  1.0  -0.0436
  C  C170  1  0.743200  0.215700  0.989700  1.0  0.2082
  C  C171  1  0.794900  0.290000  0.004080  1.0  -0.1731
  C  C172  1  0.846300  0.265300  0.041000  1.0  -0.145
  C  C173  1  0.827800  0.175500  0.051970  1.0  0.2096
  C  C174  1  0.863500  0.130500  0.090030  1.0  -0.045
  C  C175  1  0.688100  0.625600  0.183030  1.0  -0.1098
  C  C176  1  0.762500  0.638500  0.154400  1.0  -0.1073
  C  C177  1  0.769000  0.712100  0.126700  1.0  -0.1473
  C  C178  1  0.704600  0.774900  0.126840  1.0  0.0944
  C  C179  1  0.633900  0.763200  0.156140  1.0  -0.0957
  C  C180  1  0.624200  0.690000  0.183550  1.0  -0.1107
  C  C181  1  0.675300  0.542500  0.211050  1.0  0.7404
  C  C182  1  0.425300  0.766600  0.835970  1.0  -0.1183
  C  C183  1  0.517100  0.764100  0.835290  1.0  -0.0634
  C  C184  1  0.566500  0.812700  0.867610  1.0  -0.1398
  C  C185  1  0.525900  0.864400  0.901070  1.0  0.1146
  C  C186  1  0.433000  0.868300  0.899700  1.0  -0.1044
  C  C187  1  0.382700  0.819500  0.868310  1.0  -0.086
  C  C188  1  0.369900  0.711600  0.802560  1.0  0.6533
  C  C189  1  0.644200  0.444600  0.863830  1.0  -0.1063
  C  C190  1  0.576100  0.412000  0.891200  1.0  -0.0768
  C  C191  1  0.590900  0.337000  0.920280  1.0  -0.0804
  C  C192  1  0.670900  0.295200  0.921540  1.0  0.0875
  C  C193  1  0.739100  0.330400  0.893900  1.0  -0.1872
  C  C194  1  0.725400  0.404100  0.866450  1.0  -0.0443
  C  C195  1  0.630700  0.520700  0.831750  1.0  0.721
  C  C196  1  0.075000  0.246600  0.173690  1.0  -0.1178
  C  C197  1  0.985900  0.269100  0.180620  1.0  -0.0454
  C  C198  1  0.917500  0.232100  0.153870  1.0  -0.1371
  C  C199  1  0.935600  0.171300  0.118960  1.0  0.1003
  C  C200  1  0.023900  0.147500  0.112070  1.0  -0.1162
  C  C201  1  0.093900  0.184600  0.138720  1.0  -0.079
  C  C202  1  0.149200  0.289200  0.200640  1.0  0.6733
  C  C203  1  0.836400  0.952300  0.601960  1.0  0.1479
  C  C204  1  0.862200  0.997900  0.644700  1.0  -0.1294
  C  C205  1  0.819000  0.072500  0.647450  1.0  -0.1597
  C  C206  1  0.763800  0.077600  0.605650  1.0  0.2092
  C  C207  1  0.711500  0.148000  0.592840  1.0  -0.0766
  C  C208  1  0.662500  0.153700  0.550940  1.0  0.138
  C  C209  1  0.614600  0.229300  0.535100  1.0  -0.1692
  C  C210  1  0.580500  0.212200  0.490890  1.0  -0.1528
  C  C211  1  0.603500  0.125800  0.478070  1.0  0.2099
  C  C212  1  0.577600  0.085700  0.437860  1.0  0.0519
  C  C213  1  0.594100  0.994700  0.428280  1.0  0.1083
  C  C214  1  0.560700  0.948300  0.387490  1.0  -0.1559
  C  C215  1  0.587100  0.865100  0.392020  1.0  -0.166
  C  C216  1  0.641000  0.859500  0.435960  1.0  0.2277
  C  C217  1  0.684700  0.786300  0.451030  1.0  -0.043
  C  C218  1  0.743200  0.784300  0.489700  1.0  0.2077
  C  C219  1  0.794900  0.710000  0.504080  1.0  -0.1734
  C  C220  1  0.846300  0.734700  0.541000  1.0  -0.1451
  C  C221  1  0.827800  0.824500  0.551970  1.0  0.2101
  C  C222  1  0.863500  0.869500  0.590030  1.0  -0.045
  C  C223  1  0.688100  0.374400  0.683030  1.0  -0.1111
  C  C224  1  0.762500  0.361500  0.654400  1.0  -0.1073
  C  C225  1  0.769000  0.287900  0.626700  1.0  -0.1474
  C  C226  1  0.704600  0.225100  0.626840  1.0  0.0935
  C  C227  1  0.633900  0.236800  0.656140  1.0  -0.095
  C  C228  1  0.624200  0.310000  0.683550  1.0  -0.1103
  C  C229  1  0.675300  0.457500  0.711050  1.0  0.7407
  C  C230  1  0.425300  0.233400  0.335970  1.0  -0.1183
  C  C231  1  0.517100  0.235900  0.335290  1.0  -0.063
  C  C232  1  0.566500  0.187300  0.367610  1.0  -0.14
  C  C233  1  0.525900  0.135600  0.401070  1.0  0.1148
  C  C234  1  0.433000  0.131700  0.399700  1.0  -0.105
  C  C235  1  0.382700  0.180500  0.368310  1.0  -0.0857
  C  C236  1  0.369900  0.288400  0.302560  1.0  0.6533
  C  C237  1  0.644200  0.555400  0.363830  1.0  -0.1076
  C  C238  1  0.576100  0.588000  0.391200  1.0  -0.0752
  C  C239  1  0.590900  0.663000  0.420280  1.0  -0.0799
  C  C240  1  0.670900  0.704800  0.421540  1.0  0.0874
  C  C241  1  0.739100  0.669600  0.393900  1.0  -0.1868
  C  C242  1  0.725400  0.595900  0.366450  1.0  -0.0449
  C  C243  1  0.630700  0.479300  0.331750  1.0  0.7215
  C  C244  1  0.075000  0.753400  0.673690  1.0  -0.118
  C  C245  1  0.985900  0.730900  0.680620  1.0  -0.0439
  C  C246  1  0.917500  0.767900  0.653870  1.0  -0.1371
  C  C247  1  0.935600  0.828700  0.618960  1.0  0.1002
  C  C248  1  0.023900  0.852500  0.612070  1.0  -0.1156
  C  C249  1  0.093900  0.815400  0.638720  1.0  -0.0792
  C  C250  1  0.149200  0.710800  0.700640  1.0  0.6732
  C  C251  1  0.163600  0.952300  0.898040  1.0  0.1462
  C  C252  1  0.137800  0.997900  0.855300  1.0  -0.1284
  C  C253  1  0.181000  0.072500  0.852550  1.0  -0.1592
  C  C254  1  0.236200  0.077600  0.894350  1.0  0.2091
  C  C255  1  0.288500  0.148000  0.907160  1.0  -0.0772
  C  C256  1  0.337500  0.153700  0.949060  1.0  0.1369
  C  C257  1  0.385400  0.229300  0.964900  1.0  -0.1689
  C  C258  1  0.419500  0.212200  0.009110  1.0  -0.1539
  C  C259  1  0.396500  0.125800  0.021930  1.0  0.2082
  C  C260  1  0.422400  0.085700  0.062140  1.0  0.0517
  C  C261  1  0.405900  0.994700  0.071720  1.0  0.1087
  C  C262  1  0.439300  0.948300  0.112510  1.0  -0.1567
  C  C263  1  0.412900  0.865100  0.107980  1.0  -0.1645
  C  C264  1  0.359000  0.859500  0.064040  1.0  0.2262
  C  C265  1  0.315300  0.786300  0.048970  1.0  -0.0427
  C  C266  1  0.256800  0.784300  0.010300  1.0  0.2076
  C  C267  1  0.205100  0.710000  0.995920  1.0  -0.1736
  C  C268  1  0.153700  0.734700  0.959000  1.0  -0.1451
  C  C269  1  0.172200  0.824500  0.948030  1.0  0.2103
  C  C270  1  0.136500  0.869500  0.909970  1.0  -0.0464
  C  C271  1  0.311900  0.374400  0.816970  1.0  -0.1103
  C  C272  1  0.237500  0.361500  0.845600  1.0  -0.1092
  C  C273  1  0.231000  0.287900  0.873300  1.0  -0.1471
  C  C274  1  0.295400  0.225100  0.873160  1.0  0.0933
  C  C275  1  0.366100  0.236800  0.843860  1.0  -0.0958
  C  C276  1  0.375800  0.310000  0.816450  1.0  -0.1088
  C  C277  1  0.324700  0.457500  0.788950  1.0  0.7412
  C  C278  1  0.574700  0.233400  0.164030  1.0  -0.1201
  C  C279  1  0.482900  0.235900  0.164710  1.0  -0.0624
  C  C280  1  0.433500  0.187300  0.132390  1.0  -0.1385
  C  C281  1  0.474100  0.135600  0.098930  1.0  0.1127
  C  C282  1  0.567000  0.131700  0.100300  1.0  -0.1055
  C  C283  1  0.617300  0.180500  0.131690  1.0  -0.0833
  C  C284  1  0.630100  0.288400  0.197440  1.0  0.656
  C  C285  1  0.355800  0.555400  0.136170  1.0  -0.108
  C  C286  1  0.423900  0.588000  0.108800  1.0  -0.0757
  C  C287  1  0.409100  0.663000  0.079720  1.0  -0.0809
  C  C288  1  0.329100  0.704800  0.078460  1.0  0.0865
  C  C289  1  0.260900  0.669600  0.106100  1.0  -0.1872
  C  C290  1  0.274600  0.595900  0.133550  1.0  -0.0463
  C  C291  1  0.369300  0.479300  0.168250  1.0  0.7217
  C  C292  1  0.925000  0.753400  0.826310  1.0  -0.1182
  C  C293  1  0.014100  0.730900  0.819380  1.0  -0.0443
  C  C294  1  0.082500  0.767900  0.846130  1.0  -0.1362
  C  C295  1  0.064400  0.828700  0.881040  1.0  0.0996
  C  C296  1  0.976100  0.852500  0.887930  1.0  -0.117
  C  C297  1  0.906100  0.815400  0.861280  1.0  -0.0806
  C  C298  1  0.850800  0.710800  0.799360  1.0  0.6733
  N  N299  1  0.226600  0.996900  0.421800  1.0  -0.4188
  N  N300  1  0.345100  0.910000  0.485220  1.0  -0.398
  N  N301  1  0.355600  0.060100  0.542410  1.0  -0.4272
  N  N302  1  0.236500  0.145200  0.480830  1.0  -0.4366
  N  N303  1  0.773400  0.996900  0.078200  1.0  -0.4194
  N  N304  1  0.654900  0.910000  0.014780  1.0  -0.3991
  N  N305  1  0.644400  0.060100  0.957590  1.0  -0.4264
  N  N306  1  0.763500  0.145200  0.019170  1.0  -0.4389
  N  N307  1  0.773400  0.003100  0.578200  1.0  -0.4192
  N  N308  1  0.654900  0.090000  0.514780  1.0  -0.3992
  N  N309  1  0.644400  0.939900  0.457590  1.0  -0.4268
  N  N310  1  0.763500  0.854800  0.519170  1.0  -0.4377
  N  N311  1  0.226600  0.003100  0.921800  1.0  -0.4188
  N  N312  1  0.345100  0.090000  0.985220  1.0  -0.3976
  N  N313  1  0.355600  0.939900  0.042410  1.0  -0.4263
  N  N314  1  0.236500  0.854800  0.980830  1.0  -0.436
  O  O315  1  0.399500  0.533050  0.268970  1.0  -0.613
  O  O316  1  0.258500  0.489600  0.286330  1.0  -0.5822
  O  O317  1  0.593840  0.664340  0.730040  1.0  -0.6713
  O  O318  1  0.713600  0.712400  0.694350  1.0  -0.5556
  O  O319  1  0.447500  0.544800  0.677270  1.0  -0.5916
  O  O320  1  0.298800  0.556000  0.683960  1.0  -0.6073
  O  O321  1  0.869550  0.355500  0.272350  1.0  -0.5824
  O  O322  1  0.772900  0.261900  0.302870  1.0  -0.5871
  O  O323  1  0.600500  0.533050  0.231030  1.0  -0.6133
  O  O324  1  0.741500  0.489600  0.213670  1.0  -0.5828
  O  O325  1  0.406160  0.664340  0.769960  1.0  -0.6718
  O  O326  1  0.286400  0.712400  0.805650  1.0  -0.5546
  O  O327  1  0.552500  0.544800  0.822730  1.0  -0.5906
  O  O328  1  0.701200  0.556000  0.816040  1.0  -0.605
  O  O329  1  0.130450  0.355500  0.227650  1.0  -0.584
  O  O330  1  0.227100  0.261900  0.197130  1.0  -0.5864
  O  O331  1  0.600500  0.466950  0.731030  1.0  -0.6132
  O  O332  1  0.741500  0.510400  0.713670  1.0  -0.583
  O  O333  1  0.406160  0.335660  0.269960  1.0  -0.6714
  O  O334  1  0.286400  0.287600  0.305650  1.0  -0.5545
  O  O335  1  0.552500  0.455200  0.322730  1.0  -0.5908
  O  O336  1  0.701200  0.444000  0.316040  1.0  -0.6052
  O  O337  1  0.130450  0.644500  0.727650  1.0  -0.585
  O  O338  1  0.227100  0.738100  0.697130  1.0  -0.586
  O  O339  1  0.399500  0.466950  0.768970  1.0  -0.6129
  O  O340  1  0.258500  0.510400  0.786330  1.0  -0.5814
  O  O341  1  0.593840  0.335660  0.230040  1.0  -0.6705
  O  O342  1  0.713600  0.287600  0.194350  1.0  -0.5555
  O  O343  1  0.447500  0.455200  0.177270  1.0  -0.5918
  O  O344  1  0.298800  0.444000  0.183960  1.0  -0.6077
  O  O345  1  0.869550  0.644500  0.772350  1.0  -0.584
  O  O346  1  0.772900  0.738100  0.802870  1.0  -0.5865
