# generated using pymatgen
data_MnH7C13NO4
_symmetry_space_group_name_H-M   'P 1'
_cell_length_a   13.28800000
_cell_length_b   13.91900000
_cell_length_c   18.47700000
_cell_angle_alpha   90.00000000
_cell_angle_beta   96.31800000
_cell_angle_gamma   90.00000000
_symmetry_Int_Tables_number   1
_chemical_formula_structural   MnH7C13NO4
_chemical_formula_sum   'Mn8 H56 C104 N8 O32'
_cell_volume   3396.66998386
_cell_formula_units_Z   8
loop_
 _symmetry_equiv_pos_site_id
 _symmetry_equiv_pos_as_xyz
  1  'x, y, z'
loop_
 _atom_site_type_symbol
 _atom_site_label
 _atom_site_symmetry_multiplicity
 _atom_site_fract_x
 _atom_site_fract_y
 _atom_site_fract_z
 _atom_site_occupancy
 _atom_site_charge
  Mn  Mn1  1  0.987050  0.054140  0.222590  1.0  1.0629
  Mn  Mn2  1  0.066640  0.207300  0.369060  1.0  1.0333
  Mn  Mn3  1  0.512950  0.554140  0.277410  1.0  1.0623
  Mn  Mn4  1  0.433360  0.707300  0.130940  1.0  1.0316
  Mn  Mn5  1  0.012950  0.945860  0.777410  1.0  1.0621
  Mn  Mn6  1  0.933360  0.792700  0.630940  1.0  1.0315
  Mn  Mn7  1  0.487050  0.445860  0.722590  1.0  1.0629
  Mn  Mn8  1  0.566640  0.292700  0.869060  1.0  1.0324
  H  H9  1  0.281400  0.889300  0.271800  1.0  0.1202
  H  H10  1  0.384300  0.721400  0.439400  1.0  0.116
  H  H11  1  0.205500  0.944900  0.471200  1.0  0.1207
  H  H12  1  0.283500  0.720800  0.740300  1.0  0.1132
  H  H13  1  0.182000  0.888300  0.572500  1.0  0.1232
  H  H14  1  0.389200  0.687800  0.546500  1.0  0.1151
  H  H15  1  0.953600  0.395400  0.289800  1.0  0.0857
  H  H16  1  0.856900  0.524900  0.313400  1.0  0.1209
  H  H17  1  0.821300  0.550400  0.429800  1.0  0.1191
  H  H18  1  0.871800  0.440200  0.517800  1.0  0.1303
  H  H19  1  0.933100  0.338400  0.601100  1.0  0.1401
  H  H20  1  0.989000  0.209100  0.675800  1.0  0.1094
  H  H21  1  0.058100  0.074400  0.627400  1.0  0.1323
  H  H22  1  0.077000  0.071500  0.506400  1.0  0.0752
  H  H23  1  0.218600  0.389300  0.228200  1.0  0.1198
  H  H24  1  0.115700  0.221400  0.060600  1.0  0.1154
  H  H25  1  0.294500  0.444900  0.028800  1.0  0.1208
  H  H26  1  0.216500  0.220800  0.759700  1.0  0.1134
  H  H27  1  0.318000  0.388300  0.927500  1.0  0.1239
  H  H28  1  0.110800  0.187800  0.953500  1.0  0.1149
  H  H29  1  0.546400  0.895400  0.210200  1.0  0.0856
  H  H30  1  0.643100  0.024900  0.186600  1.0  0.1216
  H  H31  1  0.678700  0.050400  0.070200  1.0  0.1185
  H  H32  1  0.628200  0.940200  0.982200  1.0  0.1311
  H  H33  1  0.566900  0.838400  0.898900  1.0  0.1401
  H  H34  1  0.511000  0.709100  0.824200  1.0  0.1096
  H  H35  1  0.441900  0.574400  0.872600  1.0  0.1329
  H  H36  1  0.423000  0.571500  0.993600  1.0  0.0752
  H  H37  1  0.718600  0.110700  0.728200  1.0  0.1199
  H  H38  1  0.615700  0.278600  0.560600  1.0  0.1164
  H  H39  1  0.794500  0.055100  0.528800  1.0  0.1209
  H  H40  1  0.716500  0.279200  0.259700  1.0  0.1134
  H  H41  1  0.818000  0.111700  0.427500  1.0  0.1236
  H  H42  1  0.610800  0.312200  0.453500  1.0  0.1146
  H  H43  1  0.046400  0.604600  0.710200  1.0  0.0861
  H  H44  1  0.143100  0.475100  0.686600  1.0  0.1216
  H  H45  1  0.178700  0.449600  0.570200  1.0  0.1184
  H  H46  1  0.128200  0.559800  0.482200  1.0  0.1305
  H  H47  1  0.066900  0.661600  0.398900  1.0  0.1398
  H  H48  1  0.011000  0.790900  0.324200  1.0  0.1094
  H  H49  1  0.941900  0.925600  0.372600  1.0  0.1331
  H  H50  1  0.923000  0.928500  0.493600  1.0  0.076
  H  H51  1  0.781400  0.610700  0.771800  1.0  0.1202
  H  H52  1  0.884300  0.778600  0.939400  1.0  0.1163
  H  H53  1  0.705500  0.555100  0.971200  1.0  0.1213
  H  H54  1  0.783500  0.779200  0.240300  1.0  0.1131
  H  H55  1  0.682000  0.611700  0.072500  1.0  0.1232
  H  H56  1  0.889200  0.812200  0.046500  1.0  0.115
  H  H57  1  0.453600  0.104600  0.789800  1.0  0.086
  H  H58  1  0.356900  0.975100  0.813400  1.0  0.1209
  H  H59  1  0.321300  0.949600  0.929800  1.0  0.1187
  H  H60  1  0.371800  0.059800  0.017800  1.0  0.1301
  H  H61  1  0.433100  0.161600  0.101100  1.0  0.1401
  H  H62  1  0.489000  0.290900  0.175800  1.0  0.1093
  H  H63  1  0.558100  0.425600  0.127400  1.0  0.1322
  H  H64  1  0.577000  0.428500  0.006400  1.0  0.0755
  C  C65  1  0.165500  0.010300  0.338200  1.0  0.7506
  C  C66  1  0.232800  0.928900  0.367100  1.0  -0.1598
  C  C67  1  0.285400  0.874300  0.321100  1.0  0.0204
  C  C68  1  0.343500  0.797900  0.348300  1.0  -0.1635
  C  C69  1  0.345900  0.773800  0.421600  1.0  -0.0442
  C  C70  1  0.292200  0.826600  0.469100  1.0  0.0421
  C  C71  1  0.238500  0.906000  0.440300  1.0  -0.054
  C  C72  1  0.403200  0.737500  0.300200  1.0  0.743
  C  C73  1  0.283600  0.738200  0.691700  1.0  -0.0074
  C  C74  1  0.223100  0.811200  0.663300  1.0  -0.0941
  C  C75  1  0.225000  0.839700  0.591500  1.0  -0.0995
  C  C76  1  0.291000  0.796100  0.547300  1.0  -0.0011
  C  C77  1  0.347800  0.720000  0.575900  1.0  -0.0564
  C  C78  1  0.346000  0.689400  0.647500  1.0  -0.1545
  C  C79  1  0.401500  0.601900  0.675000  1.0  0.6571
  C  C80  1  0.149200  0.856100  0.708600  1.0  0.6767
  C  C81  1  0.937000  0.403500  0.337000  1.0  0.1855
  C  C82  1  0.879600  0.482500  0.350500  1.0  -0.1227
  C  C83  1  0.857600  0.496300  0.418400  1.0  -0.096
  C  C84  1  0.888200  0.431500  0.470600  1.0  -0.1167
  C  C85  1  0.943500  0.352800  0.454000  1.0  0.1984
  C  C86  1  0.976100  0.277600  0.507200  1.0  0.0411
  C  C87  1  0.962500  0.284600  0.582200  1.0  -0.1765
  C  C88  1  0.995500  0.206800  0.626200  1.0  -0.0732
  C  C89  1  0.037600  0.126500  0.597900  1.0  -0.1602
  C  C90  1  0.048200  0.125500  0.525500  1.0  0.207
  C  C91  1  0.334500  0.510300  0.161800  1.0  0.7491
  C  C92  1  0.267200  0.428900  0.132900  1.0  -0.1592
  C  C93  1  0.214600  0.374300  0.178900  1.0  0.0206
  C  C94  1  0.156500  0.297900  0.151700  1.0  -0.163
  C  C95  1  0.154100  0.273800  0.078400  1.0  -0.043
  C  C96  1  0.207800  0.326600  0.030900  1.0  0.0433
  C  C97  1  0.261500  0.406000  0.059700  1.0  -0.0515
  C  C98  1  0.096800  0.237500  0.199800  1.0  0.7432
  C  C99  1  0.216400  0.238200  0.808300  1.0  -0.008
  C  C100  1  0.276900  0.311200  0.836700  1.0  -0.0929
  C  C101  1  0.275000  0.339700  0.908500  1.0  -0.0985
  C  C102  1  0.209000  0.296100  0.952700  1.0  -0.0006
  C  C103  1  0.152200  0.220000  0.924100  1.0  -0.0557
  C  C104  1  0.154000  0.189400  0.852500  1.0  -0.154
  C  C105  1  0.098500  0.101900  0.825000  1.0  0.6561
  C  C106  1  0.350800  0.356100  0.791400  1.0  0.6767
  C  C107  1  0.563000  0.903500  0.163000  1.0  0.1848
  C  C108  1  0.620400  0.982500  0.149500  1.0  -0.1218
  C  C109  1  0.642400  0.996300  0.081600  1.0  -0.0957
  C  C110  1  0.611800  0.931500  0.029400  1.0  -0.118
  C  C111  1  0.556500  0.852800  0.046000  1.0  0.1976
  C  C112  1  0.523900  0.777600  0.992800  1.0  0.0412
  C  C113  1  0.537500  0.784600  0.917800  1.0  -0.1751
  C  C114  1  0.504500  0.706800  0.873800  1.0  -0.0722
  C  C115  1  0.462400  0.626500  0.902100  1.0  -0.1605
  C  C116  1  0.451800  0.625500  0.974500  1.0  0.2069
  C  C117  1  0.834500  0.989700  0.661800  1.0  0.7484
  C  C118  1  0.767200  0.071100  0.632900  1.0  -0.1583
  C  C119  1  0.714600  0.125700  0.678900  1.0  0.0209
  C  C120  1  0.656500  0.202100  0.651700  1.0  -0.1633
  C  C121  1  0.654100  0.226200  0.578400  1.0  -0.0433
  C  C122  1  0.707800  0.173400  0.530900  1.0  0.0435
  C  C123  1  0.761500  0.094000  0.559700  1.0  -0.0497
  C  C124  1  0.596800  0.262500  0.699800  1.0  0.7432
  C  C125  1  0.716400  0.261800  0.308300  1.0  -0.0081
  C  C126  1  0.776900  0.188800  0.336700  1.0  -0.0949
  C  C127  1  0.775000  0.160300  0.408500  1.0  -0.0984
  C  C128  1  0.709000  0.203900  0.452700  1.0  -0.0008
  C  C129  1  0.652200  0.280000  0.424100  1.0  -0.0559
  C  C130  1  0.654000  0.310600  0.352500  1.0  -0.1541
  C  C131  1  0.598500  0.398100  0.325000  1.0  0.6571
  C  C132  1  0.850800  0.143900  0.291400  1.0  0.6759
  C  C133  1  0.063000  0.596500  0.663000  1.0  0.1849
  C  C134  1  0.120400  0.517500  0.649500  1.0  -0.1216
  C  C135  1  0.142400  0.503700  0.581600  1.0  -0.0959
  C  C136  1  0.111800  0.568500  0.529400  1.0  -0.1185
  C  C137  1  0.056500  0.647200  0.546000  1.0  0.1979
  C  C138  1  0.023900  0.722400  0.492800  1.0  0.0413
  C  C139  1  0.037500  0.715400  0.417800  1.0  -0.1744
  C  C140  1  0.004500  0.793200  0.373800  1.0  -0.0715
  C  C141  1  0.962400  0.873500  0.402100  1.0  -0.1604
  C  C142  1  0.951800  0.874500  0.474500  1.0  0.2061
  C  C143  1  0.665500  0.489700  0.838200  1.0  0.7487
  C  C144  1  0.732800  0.571100  0.867100  1.0  -0.1601
  C  C145  1  0.785400  0.625700  0.821100  1.0  0.0218
  C  C146  1  0.843500  0.702100  0.848300  1.0  -0.1628
  C  C147  1  0.845900  0.726200  0.921600  1.0  -0.0454
  C  C148  1  0.792200  0.673400  0.969100  1.0  0.042
  C  C149  1  0.738500  0.594000  0.940300  1.0  -0.0529
  C  C150  1  0.903200  0.762500  0.800200  1.0  0.7432
  C  C151  1  0.783600  0.761800  0.191700  1.0  -0.0074
  C  C152  1  0.723100  0.688800  0.163300  1.0  -0.0948
  C  C153  1  0.725000  0.660300  0.091500  1.0  -0.0988
  C  C154  1  0.791000  0.703900  0.047300  1.0  -0.0012
  C  C155  1  0.847800  0.780000  0.075900  1.0  -0.0564
  C  C156  1  0.846000  0.810600  0.147500  1.0  -0.1547
  C  C157  1  0.901500  0.898100  0.175000  1.0  0.6578
  C  C158  1  0.649200  0.643900  0.208600  1.0  0.6766
  C  C159  1  0.437000  0.096500  0.837000  1.0  0.186
  C  C160  1  0.379600  0.017500  0.850500  1.0  -0.1232
  C  C161  1  0.357600  0.003700  0.918400  1.0  -0.0958
  C  C162  1  0.388200  0.068500  0.970600  1.0  -0.1177
  C  C163  1  0.443500  0.147200  0.954000  1.0  0.1989
  C  C164  1  0.476100  0.222400  0.007200  1.0  0.041
  C  C165  1  0.462500  0.215400  0.082200  1.0  -0.176
  C  C166  1  0.495500  0.293200  0.126200  1.0  -0.0739
  C  C167  1  0.537600  0.373500  0.097900  1.0  -0.1587
  C  C168  1  0.548200  0.374500  0.025500  1.0  0.2069
  N  N169  1  0.970200  0.338200  0.385700  1.0  -0.349
  N  N170  1  0.020500  0.195700  0.481600  1.0  -0.3485
  N  N171  1  0.529800  0.838200  0.114300  1.0  -0.349
  N  N172  1  0.479500  0.695700  0.018400  1.0  -0.3497
  N  N173  1  0.029800  0.661800  0.614300  1.0  -0.3479
  N  N174  1  0.979500  0.804300  0.518400  1.0  -0.3491
  N  N175  1  0.470200  0.161800  0.885700  1.0  -0.3482
  N  N176  1  0.520500  0.304300  0.981600  1.0  -0.3489
  O  O177  1  0.150100  0.076500  0.381420  1.0  -0.6201
  O  O178  1  0.128000  0.005300  0.272030  1.0  -0.6297
  O  O179  1  0.399700  0.759700  0.234660  1.0  -0.6748
  O  O180  1  0.451900  0.668600  0.330070  1.0  -0.6415
  O  O181  1  0.445000  0.549800  0.632390  1.0  -0.5549
  O  O182  1  0.403300  0.580400  0.741290  1.0  -0.5782
  O  O183  1  0.062100  0.882400  0.676770  1.0  -0.6571
  O  O184  1  0.170600  0.866800  0.775300  1.0  -0.6094
  O  O185  1  0.349900  0.576500  0.118580  1.0  -0.6222
  O  O186  1  0.372000  0.505300  0.227970  1.0  -0.6288
  O  O187  1  0.100300  0.259700  0.265340  1.0  -0.6769
  O  O188  1  0.048100  0.168600  0.169930  1.0  -0.6406
  O  O189  1  0.055000  0.049800  0.867610  1.0  -0.5552
  O  O190  1  0.096700  0.080400  0.758710  1.0  -0.5784
  O  O191  1  0.437900  0.382400  0.823230  1.0  -0.6572
  O  O192  1  0.329400  0.366800  0.724700  1.0  -0.608
  O  O193  1  0.849900  0.923500  0.618580  1.0  -0.6212
  O  O194  1  0.872000  0.994700  0.727970  1.0  -0.6286
  O  O195  1  0.600300  0.240300  0.765340  1.0  -0.6766
  O  O196  1  0.548100  0.331400  0.669930  1.0  -0.6421
  O  O197  1  0.555000  0.450200  0.367610  1.0  -0.5526
  O  O198  1  0.596700  0.419600  0.258710  1.0  -0.5777
  O  O199  1  0.937900  0.117600  0.323230  1.0  -0.6575
  O  O200  1  0.829400  0.133200  0.224700  1.0  -0.6086
  O  O201  1  0.650100  0.423500  0.881420  1.0  -0.6195
  O  O202  1  0.628000  0.494700  0.772030  1.0  -0.6293
  O  O203  1  0.899700  0.740300  0.734660  1.0  -0.6748
  O  O204  1  0.951900  0.831400  0.830070  1.0  -0.643
  O  O205  1  0.945000  0.950200  0.132390  1.0  -0.5544
  O  O206  1  0.903300  0.919600  0.241290  1.0  -0.5787
  O  O207  1  0.562100  0.617600  0.176770  1.0  -0.6576
  O  O208  1  0.670600  0.633200  0.275300  1.0  -0.6093
