# generated using pymatgen
data_MnH3(C2O)4
_symmetry_space_group_name_H-M   'P 1'
_cell_length_a   14.46000000
_cell_length_b   13.06300000
_cell_length_c   22.05400000
_cell_angle_alpha   90.00000000
_cell_angle_beta   125.16000000
_cell_angle_gamma   90.00000000
_symmetry_Int_Tables_number   1
_chemical_formula_structural   MnH3(C2O)4
_chemical_formula_sum   'Mn8 H24 C64 O32'
_cell_volume   3405.73918036
_cell_formula_units_Z   8
loop_
 _symmetry_equiv_pos_site_id
 _symmetry_equiv_pos_as_xyz
  1  'x, y, z'
loop_
 _atom_site_type_symbol
 _atom_site_label
 _atom_site_symmetry_multiplicity
 _atom_site_fract_x
 _atom_site_fract_y
 _atom_site_fract_z
 _atom_site_occupancy
 _atom_site_charge
  Mn  Mn1  1  0.227330  0.557720  0.727070  1.0  1.1127
  Mn  Mn2  1  0.295070  0.729150  0.868790  1.0  1.1094
  Mn  Mn3  1  0.772670  0.057720  0.772930  1.0  1.1119
  Mn  Mn4  1  0.704930  0.229150  0.631210  1.0  1.1083
  Mn  Mn5  1  0.772670  0.442280  0.272930  1.0  1.1082
  Mn  Mn6  1  0.704930  0.270850  0.131210  1.0  1.1089
  Mn  Mn7  1  0.227330  0.942280  0.227070  1.0  1.1111
  Mn  Mn8  1  0.295070  0.770850  0.368790  1.0  1.1046
  H  H9  1  0.288300  0.441800  0.980300  1.0  0.1003
  H  H10  1  0.084800  0.208200  0.947700  1.0  0.1051
  H  H11  1  0.003600  0.391100  0.778000  1.0  0.1089
  H  H12  1  0.420300  0.361200  0.075200  1.0  0.096
  H  H13  1  0.488400  0.207900  0.254100  1.0  0.1082
  H  H14  1  0.180300  0.190200  0.062600  1.0  0.1107
  H  H15  1  0.711700  0.941800  0.519700  1.0  0.1013
  H  H16  1  0.915200  0.708200  0.552300  1.0  0.1051
  H  H17  1  0.996400  0.891100  0.722000  1.0  0.1088
  H  H18  1  0.579700  0.861200  0.424800  1.0  0.0965
  H  H19  1  0.511600  0.707900  0.245900  1.0  0.1084
  H  H20  1  0.819700  0.690200  0.437400  1.0  0.1104
  H  H21  1  0.711700  0.558200  0.019700  1.0  0.101
  H  H22  1  0.915200  0.791800  0.052300  1.0  0.1051
  H  H23  1  0.996400  0.608900  0.222000  1.0  0.1089
  H  H24  1  0.579700  0.638800  0.924800  1.0  0.0966
  H  H25  1  0.511600  0.792100  0.745900  1.0  0.1085
  H  H26  1  0.819700  0.809800  0.937400  1.0  0.1111
  H  H27  1  0.288300  0.058200  0.480300  1.0  0.1005
  H  H28  1  0.084800  0.291800  0.447700  1.0  0.1051
  H  H29  1  0.003600  0.108900  0.278000  1.0  0.1089
  H  H30  1  0.420300  0.138800  0.575200  1.0  0.0961
  H  H31  1  0.488400  0.292100  0.754100  1.0  0.1082
  H  H32  1  0.180300  0.309800  0.562600  1.0  0.1104
  C  C33  1  0.183400  0.514100  0.844300  1.0  0.7413
  C  C34  1  0.151300  0.429000  0.874800  1.0  -0.1123
  C  C35  1  0.224100  0.402400  0.949000  1.0  -0.0634
  C  C36  1  0.202700  0.317500  0.977900  1.0  0.0266
  C  C37  1  0.101700  0.264500  0.929900  1.0  -0.0459
  C  C38  1  0.025600  0.293700  0.856000  1.0  -0.1488
  C  C39  1  0.918200  0.233400  0.807400  1.0  0.7255
  C  C40  1  0.051900  0.373900  0.827900  1.0  0.0027
  C  C41  1  0.284300  0.283800  0.055400  1.0  0.0484
  C  C42  1  0.396200  0.318400  0.097200  1.0  -0.0851
  C  C43  1  0.472200  0.290100  0.170800  1.0  -0.1529
  C  C44  1  0.588400  0.332500  0.213200  1.0  0.6703
  C  C45  1  0.438500  0.224800  0.204200  1.0  0.0207
  C  C46  1  0.329200  0.184300  0.162300  1.0  -0.166
  C  C47  1  0.295100  0.103800  0.193900  1.0  0.6594
  C  C48  1  0.253800  0.215600  0.089600  1.0  -0.0481
  C  C49  1  0.816600  0.014100  0.655700  1.0  0.742
  C  C50  1  0.848700  0.929000  0.625200  1.0  -0.1121
  C  C51  1  0.775900  0.902400  0.551000  1.0  -0.063
  C  C52  1  0.797300  0.817500  0.522100  1.0  0.0273
  C  C53  1  0.898300  0.764500  0.570100  1.0  -0.0452
  C  C54  1  0.974400  0.793700  0.644000  1.0  -0.1481
  C  C55  1  0.081800  0.733400  0.692600  1.0  0.7251
  C  C56  1  0.948100  0.873900  0.672100  1.0  0.0021
  C  C57  1  0.715700  0.783800  0.444600  1.0  0.0484
  C  C58  1  0.603800  0.818400  0.402800  1.0  -0.0859
  C  C59  1  0.527800  0.790100  0.329200  1.0  -0.1534
  C  C60  1  0.411600  0.832500  0.286800  1.0  0.6693
  C  C61  1  0.561500  0.724800  0.295800  1.0  0.0203
  C  C62  1  0.670800  0.684300  0.337700  1.0  -0.1663
  C  C63  1  0.704900  0.603800  0.306100  1.0  0.6606
  C  C64  1  0.746200  0.715600  0.410400  1.0  -0.0489
  C  C65  1  0.816600  0.485900  0.155700  1.0  0.7426
  C  C66  1  0.848700  0.571000  0.125200  1.0  -0.1118
  C  C67  1  0.775900  0.597600  0.051000  1.0  -0.0623
  C  C68  1  0.797300  0.682500  0.022100  1.0  0.0274
  C  C69  1  0.898300  0.735500  0.070100  1.0  -0.0464
  C  C70  1  0.974400  0.706300  0.144000  1.0  -0.1481
  C  C71  1  0.081800  0.766600  0.192600  1.0  0.7256
  C  C72  1  0.948100  0.626100  0.172100  1.0  0.0036
  C  C73  1  0.715700  0.716200  0.944600  1.0  0.0486
  C  C74  1  0.603800  0.681600  0.902800  1.0  -0.085
  C  C75  1  0.527800  0.709900  0.829200  1.0  -0.1534
  C  C76  1  0.411600  0.667500  0.786800  1.0  0.6692
  C  C77  1  0.561500  0.775200  0.795800  1.0  0.0201
  C  C78  1  0.670800  0.815700  0.837700  1.0  -0.1657
  C  C79  1  0.704900  0.896200  0.806100  1.0  0.6599
  C  C80  1  0.746200  0.784400  0.910400  1.0  -0.0496
  C  C81  1  0.183400  0.985900  0.344300  1.0  0.7417
  C  C82  1  0.151300  0.071000  0.374800  1.0  -0.1121
  C  C83  1  0.224100  0.097600  0.449000  1.0  -0.0633
  C  C84  1  0.202700  0.182500  0.477900  1.0  0.0266
  C  C85  1  0.101700  0.235500  0.429900  1.0  -0.0468
  C  C86  1  0.025600  0.206300  0.356000  1.0  -0.1488
  C  C87  1  0.918200  0.266600  0.307400  1.0  0.7259
  C  C88  1  0.051900  0.126100  0.327900  1.0  0.0033
  C  C89  1  0.284300  0.216200  0.555400  1.0  0.0485
  C  C90  1  0.396200  0.181600  0.597200  1.0  -0.0846
  C  C91  1  0.472200  0.209900  0.670800  1.0  -0.153
  C  C92  1  0.588400  0.167500  0.713200  1.0  0.67
  C  C93  1  0.438500  0.275200  0.704200  1.0  0.0206
  C  C94  1  0.329200  0.315700  0.662300  1.0  -0.1661
  C  C95  1  0.295100  0.396200  0.693900  1.0  0.6587
  C  C96  1  0.253800  0.284400  0.589600  1.0  -0.0482
  O  O97  1  0.236800  0.589100  0.885450  1.0  -0.646
  O  O98  1  0.155200  0.502100  0.779300  1.0  -0.6143
  O  O99  1  0.853300  0.259400  0.741440  1.0  -0.6865
  O  O100  1  0.902900  0.160000  0.837600  1.0  -0.6025
  O  O101  1  0.203000  0.056900  0.149760  1.0  -0.5731
  O  O102  1  0.356900  0.081800  0.261080  1.0  -0.5739
  O  O103  1  0.644100  0.343500  0.281800  1.0  -0.5716
  O  O104  1  0.628700  0.362100  0.177280  1.0  -0.6513
  O  O105  1  0.763200  0.089100  0.614550  1.0  -0.6474
  O  O106  1  0.844800  0.002100  0.720700  1.0  -0.6142
  O  O107  1  0.146700  0.759400  0.758560  1.0  -0.6864
  O  O108  1  0.097100  0.660000  0.662400  1.0  -0.6044
  O  O109  1  0.797000  0.556900  0.350240  1.0  -0.5719
  O  O110  1  0.643100  0.581800  0.238920  1.0  -0.571
  O  O111  1  0.355900  0.843500  0.218200  1.0  -0.5722
  O  O112  1  0.371300  0.862100  0.322720  1.0  -0.6531
  O  O113  1  0.763200  0.410900  0.114550  1.0  -0.6487
  O  O114  1  0.844800  0.497900  0.220700  1.0  -0.6146
  O  O115  1  0.146700  0.740600  0.258560  1.0  -0.6882
  O  O116  1  0.097100  0.840000  0.162400  1.0  -0.6054
  O  O117  1  0.797000  0.943100  0.850240  1.0  -0.5718
  O  O118  1  0.643100  0.918200  0.738920  1.0  -0.5708
  O  O119  1  0.355900  0.656500  0.718200  1.0  -0.5724
  O  O120  1  0.371300  0.637900  0.822720  1.0  -0.6527
  O  O121  1  0.236800  0.910900  0.385450  1.0  -0.6488
  O  O122  1  0.155200  0.997900  0.279300  1.0  -0.6147
  O  O123  1  0.853300  0.240600  0.241440  1.0  -0.6873
  O  O124  1  0.902900  0.340000  0.337600  1.0  -0.6033
  O  O125  1  0.203000  0.443100  0.649760  1.0  -0.5721
  O  O126  1  0.356900  0.418200  0.761080  1.0  -0.5731
  O  O127  1  0.644100  0.156500  0.781800  1.0  -0.5717
  O  O128  1  0.628700  0.137900  0.677280  1.0  -0.6514
