# generated using pymatgen
data_MnH7C14NO4
_symmetry_space_group_name_H-M   'P 1'
_cell_length_a   13.15300000
_cell_length_b   13.98600000
_cell_length_c   21.68300000
_cell_angle_alpha   90.00000000
_cell_angle_beta   121.05600000
_cell_angle_gamma   90.00000000
_symmetry_Int_Tables_number   1
_chemical_formula_structural   MnH7C14NO4
_chemical_formula_sum   'Mn8 H56 C112 N8 O32'
_cell_volume   3417.02359503
_cell_formula_units_Z   8
loop_
 _symmetry_equiv_pos_site_id
 _symmetry_equiv_pos_as_xyz
  1  'x, y, z'
loop_
 _atom_site_type_symbol
 _atom_site_label
 _atom_site_symmetry_multiplicity
 _atom_site_fract_x
 _atom_site_fract_y
 _atom_site_fract_z
 _atom_site_occupancy
 _atom_site_charge
  Mn  Mn1  1  0.725260  0.545710  0.725260  1.0  1.1266
  Mn  Mn2  1  0.776250  0.703940  0.860400  1.0  1.0248
  Mn  Mn3  1  0.274740  0.045710  0.774740  1.0  1.1253
  Mn  Mn4  1  0.223750  0.203940  0.639600  1.0  1.0252
  Mn  Mn5  1  0.274740  0.454290  0.274740  1.0  1.1254
  Mn  Mn6  1  0.223750  0.296060  0.139600  1.0  1.0248
  Mn  Mn7  1  0.725260  0.954290  0.225260  1.0  1.1272
  Mn  Mn8  1  0.776250  0.796060  0.360400  1.0  1.0256
  H  H9  1  0.491800  0.870700  0.718800  1.0  0.106
  H  H10  1  0.228600  0.941200  0.519900  1.0  0.1018
  H  H11  1  0.415400  0.701000  0.551900  1.0  0.1128
  H  H12  1  0.329700  0.685900  0.441500  1.0  0.1123
  H  H13  1  0.029700  0.725600  0.250700  1.0  0.1
  H  H14  1  0.090900  0.880300  0.422200  1.0  0.1086
  H  H15  1  0.770400  0.877300  0.756400  1.0  0.0976
  H  H16  1  0.890300  0.010200  0.764300  1.0  0.0956
  H  H17  1  0.049000  0.049900  0.868200  1.0  0.1237
  H  H18  1  0.181900  0.019500  0.998500  1.0  0.1183
  H  H19  1  0.232800  0.927700  0.098900  1.0  0.1191
  H  H20  1  0.197400  0.790800  0.149000  1.0  0.1179
  H  H21  1  0.090200  0.643400  0.135800  1.0  0.1104
  H  H22  1  0.923200  0.605500  0.018400  1.0  0.1013
  H  H23  1  0.508200  0.370700  0.781200  1.0  0.1063
  H  H24  1  0.771400  0.441200  0.980100  1.0  0.102
  H  H25  1  0.584600  0.201000  0.948100  1.0  0.1125
  H  H26  1  0.670300  0.185900  0.058500  1.0  0.1122
  H  H27  1  0.970300  0.225600  0.249300  1.0  0.1002
  H  H28  1  0.909100  0.380300  0.077800  1.0  0.1088
  H  H29  1  0.229600  0.377300  0.743600  1.0  0.0987
  H  H30  1  0.109700  0.510200  0.735700  1.0  0.0952
  H  H31  1  0.951000  0.549900  0.631800  1.0  0.1238
  H  H32  1  0.818100  0.519500  0.501500  1.0  0.1175
  H  H33  1  0.767200  0.427700  0.401100  1.0  0.119
  H  H34  1  0.802600  0.290800  0.351000  1.0  0.1171
  H  H35  1  0.909800  0.143400  0.364200  1.0  0.1097
  H  H36  1  0.076800  0.105500  0.481600  1.0  0.1016
  H  H37  1  0.508200  0.129300  0.281200  1.0  0.106
  H  H38  1  0.771400  0.058800  0.480100  1.0  0.1017
  H  H39  1  0.584600  0.299000  0.448100  1.0  0.1126
  H  H40  1  0.670300  0.314100  0.558500  1.0  0.1119
  H  H41  1  0.970300  0.274400  0.749300  1.0  0.1002
  H  H42  1  0.909100  0.119700  0.577800  1.0  0.1092
  H  H43  1  0.229600  0.122700  0.243600  1.0  0.099
  H  H44  1  0.109700  0.989800  0.235700  1.0  0.0949
  H  H45  1  0.951000  0.950100  0.131800  1.0  0.124
  H  H46  1  0.818100  0.980500  0.001500  1.0  0.1169
  H  H47  1  0.767200  0.072300  0.901100  1.0  0.1193
  H  H48  1  0.802600  0.209200  0.851000  1.0  0.117
  H  H49  1  0.909800  0.356600  0.864200  1.0  0.11
  H  H50  1  0.076800  0.394500  0.981600  1.0  0.1019
  H  H51  1  0.491800  0.629300  0.218800  1.0  0.106
  H  H52  1  0.228600  0.558800  0.019900  1.0  0.1016
  H  H53  1  0.415400  0.799000  0.051900  1.0  0.1126
  H  H54  1  0.329700  0.814100  0.941500  1.0  0.1123
  H  H55  1  0.029700  0.774400  0.750700  1.0  0.0999
  H  H56  1  0.090900  0.619700  0.922200  1.0  0.1093
  H  H57  1  0.770400  0.622700  0.256400  1.0  0.0977
  H  H58  1  0.890300  0.489800  0.264300  1.0  0.0955
  H  H59  1  0.049000  0.450100  0.368200  1.0  0.1241
  H  H60  1  0.181900  0.480500  0.498500  1.0  0.1183
  H  H61  1  0.232800  0.572300  0.598900  1.0  0.1193
  H  H62  1  0.197400  0.709200  0.649000  1.0  0.1181
  H  H63  1  0.090200  0.856600  0.635800  1.0  0.1103
  H  H64  1  0.923200  0.894500  0.518400  1.0  0.1016
  C  C65  1  0.573200  0.713700  0.689500  1.0  0.7325
  C  C66  1  0.470500  0.777900  0.642100  1.0  -0.1458
  C  C67  1  0.446300  0.857700  0.669800  1.0  0.0129
  C  C68  1  0.353800  0.918800  0.624400  1.0  -0.1701
  C  C69  1  0.324900  0.003900  0.654400  1.0  0.7522
  C  C70  1  0.286800  0.898200  0.550700  1.0  -0.0695
  C  C71  1  0.304700  0.816200  0.522600  1.0  0.0115
  C  C72  1  0.400000  0.756100  0.569800  1.0  -0.0701
  C  C73  1  0.227000  0.789400  0.444800  1.0  -0.0164
  C  C74  1  0.257800  0.717500  0.413600  1.0  -0.0542
  C  C75  1  0.184900  0.691100  0.342000  1.0  -0.156
  C  C76  1  0.217000  0.609400  0.312500  1.0  0.6742
  C  C77  1  0.077200  0.739800  0.299400  1.0  -0.0147
  C  C78  1  0.042700  0.808100  0.329800  1.0  -0.1091
  C  C79  1  0.923500  0.854900  0.286600  1.0  0.66
  C  C80  1  0.115900  0.833800  0.402200  1.0  -0.1023
  C  C81  1  0.838300  0.892400  0.799900  1.0  0.1386
  C  C82  1  0.911100  0.974100  0.805200  1.0  -0.1451
  C  C83  1  0.003900  0.997300  0.865800  1.0  -0.1496
  C  C84  1  0.036300  0.944800  0.926700  1.0  0.0816
  C  C85  1  0.136100  0.966400  0.994000  1.0  -0.1009
  C  C86  1  0.168300  0.909800  0.054600  1.0  -0.166
  C  C87  1  0.103100  0.823800  0.049700  1.0  0.1234
  C  C88  1  0.133900  0.772700  0.104300  1.0  -0.06
  C  C89  1  0.068100  0.683600  0.096700  1.0  -0.0905
  C  C90  1  0.967000  0.660900  0.025600  1.0  0.1439
  C  C91  1  0.001600  0.801800  0.980900  1.0  0.0825
  C  C92  1  0.967700  0.864200  0.918300  1.0  0.1788
  C  C93  1  0.426800  0.213700  0.810500  1.0  0.7325
  C  C94  1  0.529500  0.277900  0.857900  1.0  -0.1447
  C  C95  1  0.553700  0.357700  0.830200  1.0  0.0124
  C  C96  1  0.646200  0.418800  0.875600  1.0  -0.1689
  C  C97  1  0.675100  0.503900  0.845600  1.0  0.7541
  C  C98  1  0.713200  0.398200  0.949300  1.0  -0.0694
  C  C99  1  0.695300  0.316200  0.977400  1.0  0.0114
  C  C100  1  0.600000  0.256100  0.930200  1.0  -0.0691
  C  C101  1  0.773000  0.289400  0.055200  1.0  -0.0166
  C  C102  1  0.742200  0.217500  0.086400  1.0  -0.0542
  C  C103  1  0.815100  0.191100  0.158000  1.0  -0.1564
  C  C104  1  0.783000  0.109400  0.187500  1.0  0.6748
  C  C105  1  0.922800  0.239800  0.200600  1.0  -0.0153
  C  C106  1  0.957300  0.308100  0.170200  1.0  -0.1082
  C  C107  1  0.076500  0.354900  0.213400  1.0  0.6608
  C  C108  1  0.884100  0.333800  0.097800  1.0  -0.1022
  C  C109  1  0.161700  0.392400  0.700100  1.0  0.1397
  C  C110  1  0.088900  0.474100  0.694800  1.0  -0.1456
  C  C111  1  0.996100  0.497300  0.634200  1.0  -0.1512
  C  C112  1  0.963700  0.444800  0.573300  1.0  0.0821
  C  C113  1  0.863900  0.466400  0.506000  1.0  -0.1013
  C  C114  1  0.831700  0.409800  0.445400  1.0  -0.1667
  C  C115  1  0.896900  0.323800  0.450300  1.0  0.1232
  C  C116  1  0.866100  0.272700  0.395700  1.0  -0.0586
  C  C117  1  0.931900  0.183600  0.403300  1.0  -0.0916
  C  C118  1  0.033000  0.160900  0.474400  1.0  0.1445
  C  C119  1  0.998400  0.301800  0.519100  1.0  0.0833
  C  C120  1  0.032300  0.364200  0.581700  1.0  0.1798
  C  C121  1  0.426800  0.286300  0.310500  1.0  0.7326
  C  C122  1  0.529500  0.222100  0.357900  1.0  -0.1449
  C  C123  1  0.553700  0.142300  0.330200  1.0  0.0125
  C  C124  1  0.646200  0.081200  0.375600  1.0  -0.1698
  C  C125  1  0.675100  0.996100  0.345600  1.0  0.7521
  C  C126  1  0.713200  0.101800  0.449300  1.0  -0.0692
  C  C127  1  0.695300  0.183800  0.477400  1.0  0.0114
  C  C128  1  0.600000  0.243900  0.430200  1.0  -0.0686
  C  C129  1  0.773000  0.210600  0.555200  1.0  -0.016
  C  C130  1  0.742200  0.282500  0.586400  1.0  -0.0537
  C  C131  1  0.815100  0.308900  0.658000  1.0  -0.157
  C  C132  1  0.783000  0.390600  0.687500  1.0  0.6746
  C  C133  1  0.922800  0.260200  0.700600  1.0  -0.0154
  C  C134  1  0.957300  0.191900  0.670200  1.0  -0.1072
  C  C135  1  0.076500  0.145100  0.713400  1.0  0.6604
  C  C136  1  0.884100  0.166200  0.597800  1.0  -0.1017
  C  C137  1  0.161700  0.107600  0.200100  1.0  0.1396
  C  C138  1  0.088900  0.025900  0.194800  1.0  -0.1451
  C  C139  1  0.996100  0.002700  0.134200  1.0  -0.1498
  C  C140  1  0.963700  0.055200  0.073300  1.0  0.0818
  C  C141  1  0.863900  0.033600  0.006000  1.0  -0.1018
  C  C142  1  0.831700  0.090200  0.945400  1.0  -0.1662
  C  C143  1  0.896900  0.176200  0.950300  1.0  0.1231
  C  C144  1  0.866100  0.227300  0.895700  1.0  -0.058
  C  C145  1  0.931900  0.316400  0.903300  1.0  -0.0917
  C  C146  1  0.033000  0.339100  0.974400  1.0  0.145
  C  C147  1  0.998400  0.198200  0.019100  1.0  0.0828
  C  C148  1  0.032300  0.135800  0.081700  1.0  0.1795
  C  C149  1  0.573200  0.786300  0.189500  1.0  0.7324
  C  C150  1  0.470500  0.722100  0.142100  1.0  -0.1462
  C  C151  1  0.446300  0.642300  0.169800  1.0  0.0137
  C  C152  1  0.353800  0.581200  0.124400  1.0  -0.1706
  C  C153  1  0.324900  0.496100  0.154400  1.0  0.7525
  C  C154  1  0.286800  0.601800  0.050700  1.0  -0.0697
  C  C155  1  0.304700  0.683800  0.022600  1.0  0.0107
  C  C156  1  0.400000  0.743900  0.069800  1.0  -0.07
  C  C157  1  0.227000  0.710600  0.944800  1.0  -0.0171
  C  C158  1  0.257800  0.782500  0.913600  1.0  -0.0536
  C  C159  1  0.184900  0.808900  0.842000  1.0  -0.1557
  C  C160  1  0.217000  0.890600  0.812500  1.0  0.674
  C  C161  1  0.077200  0.760200  0.799400  1.0  -0.0147
  C  C162  1  0.042700  0.691900  0.829800  1.0  -0.1098
  C  C163  1  0.923500  0.645100  0.786600  1.0  0.6596
  C  C164  1  0.115900  0.666200  0.902200  1.0  -0.1017
  C  C165  1  0.838300  0.607600  0.299900  1.0  0.1381
  C  C166  1  0.911100  0.525900  0.305200  1.0  -0.1449
  C  C167  1  0.003900  0.502700  0.365800  1.0  -0.1496
  C  C168  1  0.036300  0.555200  0.426700  1.0  0.0816
  C  C169  1  0.136100  0.533600  0.494000  1.0  -0.1026
  C  C170  1  0.168300  0.590200  0.554600  1.0  -0.1656
  C  C171  1  0.103100  0.676200  0.549700  1.0  0.1233
  C  C172  1  0.133900  0.727300  0.604300  1.0  -0.0595
  C  C173  1  0.068100  0.816400  0.596700  1.0  -0.0913
  C  C174  1  0.967000  0.839100  0.525600  1.0  0.1431
  C  C175  1  0.001600  0.698200  0.480900  1.0  0.0826
  C  C176  1  0.967700  0.635800  0.418300  1.0  0.1785
  N  N177  1  0.938500  0.720200  0.971300  1.0  -0.3487
  N  N178  1  0.870300  0.839800  0.858100  1.0  -0.3354
  N  N179  1  0.061500  0.220200  0.528700  1.0  -0.3482
  N  N180  1  0.129700  0.339800  0.641900  1.0  -0.3333
  N  N181  1  0.061500  0.279800  0.028700  1.0  -0.3489
  N  N182  1  0.129700  0.160200  0.141900  1.0  -0.3334
  N  N183  1  0.938500  0.779800  0.471300  1.0  -0.3493
  N  N184  1  0.870300  0.660200  0.358100  1.0  -0.3355
  O  O185  1  0.590700  0.643300  0.661400  1.0  -0.5902
  O  O186  1  0.636500  0.737100  0.755000  1.0  -0.6826
  O  O187  1  0.359600  0.002300  0.720000  1.0  -0.6128
  O  O188  1  0.268100  0.071300  0.612000  1.0  -0.6296
  O  O189  1  0.306800  0.558800  0.356300  1.0  -0.5781
  O  O190  1  0.156400  0.587000  0.248300  1.0  -0.609
  O  O191  1  0.877600  0.867200  0.221200  1.0  -0.5859
  O  O192  1  0.871600  0.881800  0.320100  1.0  -0.679
  O  O193  1  0.409300  0.143300  0.838600  1.0  -0.5894
  O  O194  1  0.363500  0.237100  0.745000  1.0  -0.6816
  O  O195  1  0.640400  0.502300  0.780000  1.0  -0.6137
  O  O196  1  0.731900  0.571300  0.888000  1.0  -0.6317
  O  O197  1  0.693200  0.058800  0.143700  1.0  -0.5776
  O  O198  1  0.843600  0.087000  0.251700  1.0  -0.6096
  O  O199  1  0.122400  0.367200  0.278800  1.0  -0.5891
  O  O200  1  0.128400  0.381800  0.179900  1.0  -0.6781
  O  O201  1  0.409300  0.356700  0.338600  1.0  -0.5885
  O  O202  1  0.363500  0.262900  0.245000  1.0  -0.6821
  O  O203  1  0.640400  0.997700  0.280000  1.0  -0.6134
  O  O204  1  0.731900  0.928700  0.388000  1.0  -0.6306
  O  O205  1  0.693200  0.441200  0.643700  1.0  -0.5773
  O  O206  1  0.843600  0.413000  0.751700  1.0  -0.61
  O  O207  1  0.122400  0.132800  0.778800  1.0  -0.5887
  O  O208  1  0.128400  0.118200  0.679900  1.0  -0.6781
  O  O209  1  0.590700  0.856700  0.161400  1.0  -0.5889
  O  O210  1  0.636500  0.762900  0.255000  1.0  -0.6826
  O  O211  1  0.359600  0.497700  0.220000  1.0  -0.6119
  O  O212  1  0.268100  0.428700  0.112000  1.0  -0.6298
  O  O213  1  0.306800  0.941200  0.856300  1.0  -0.5779
  O  O214  1  0.156400  0.913000  0.748300  1.0  -0.6091
  O  O215  1  0.877600  0.632800  0.721200  1.0  -0.5862
  O  O216  1  0.871600  0.618200  0.820100  1.0  -0.6776
