# generated using pymatgen
data_CdCu4(SO3)4
_symmetry_space_group_name_H-M   'P 1'
_cell_length_a   10.31800000
_cell_length_b   10.98100000
_cell_length_c   7.06600000
_cell_angle_alpha   90.00000000
_cell_angle_beta   90.00000000
_cell_angle_gamma   90.00000000
_symmetry_Int_Tables_number   1
_chemical_formula_structural   CdCu4(SO3)4
_chemical_formula_sum   'Cd2 Cu8 S8 O24'
_cell_volume   800.59163523
_cell_formula_units_Z   2
loop_
 _symmetry_equiv_pos_site_id
 _symmetry_equiv_pos_as_xyz
  1  'x, y, z'
loop_
 _atom_site_type_symbol
 _atom_site_label
 _atom_site_symmetry_multiplicity
 _atom_site_fract_x
 _atom_site_fract_y
 _atom_site_fract_z
 _atom_site_occupancy
 _atom_site_charge
  Cd  Cd1  1  0.250000  0.250000  0.000000  1.0  1.1349
  Cd  Cd2  1  0.750000  0.750000  0.000000  1.0  1.1349
  Cu  Cu3  1  0.901660  0.891510  0.614590  1.0  0.5996
  Cu  Cu4  1  0.598340  0.608490  0.614590  1.0  0.5996
  Cu  Cu5  1  0.598340  0.891510  0.385410  1.0  0.6001
  Cu  Cu6  1  0.901660  0.608490  0.385410  1.0  0.5999
  Cu  Cu7  1  0.098340  0.108490  0.385410  1.0  0.6001
  Cu  Cu8  1  0.401660  0.391510  0.385410  1.0  0.6001
  Cu  Cu9  1  0.401660  0.108490  0.614590  1.0  0.5994
  Cu  Cu10  1  0.098340  0.391510  0.614590  1.0  0.5997
  S  S11  1  0.096060  0.111150  0.690280  1.0  1.0489
  S  S12  1  0.403940  0.388850  0.690280  1.0  1.0485
  S  S13  1  0.403940  0.111150  0.309720  1.0  1.0488
  S  S14  1  0.096060  0.388850  0.309720  1.0  1.0486
  S  S15  1  0.903940  0.888850  0.309720  1.0  1.0483
  S  S16  1  0.596060  0.611150  0.309720  1.0  1.0489
  S  S17  1  0.596060  0.888850  0.690280  1.0  1.0486
  S  S18  1  0.903940  0.611150  0.690280  1.0  1.049
  O  O19  1  0.054400  0.231400  0.777500  1.0  -0.6767
  O  O20  1  0.229000  0.091600  0.779900  1.0  -0.6815
  O  O21  1  0.009800  0.014600  0.772800  1.0  -0.5731
  O  O22  1  0.445600  0.268600  0.777500  1.0  -0.6774
  O  O23  1  0.271000  0.408400  0.779900  1.0  -0.6827
  O  O24  1  0.490200  0.485400  0.772800  1.0  -0.5724
  O  O25  1  0.445600  0.231400  0.222500  1.0  -0.6778
  O  O26  1  0.271000  0.091600  0.220100  1.0  -0.6813
  O  O27  1  0.490200  0.014600  0.227200  1.0  -0.5745
  O  O28  1  0.054400  0.268600  0.222500  1.0  -0.6769
  O  O29  1  0.229000  0.408400  0.220100  1.0  -0.6822
  O  O30  1  0.009800  0.485400  0.227200  1.0  -0.5736
  O  O31  1  0.945600  0.768600  0.222500  1.0  -0.6774
  O  O32  1  0.771000  0.908400  0.220100  1.0  -0.6826
  O  O33  1  0.990200  0.985400  0.227200  1.0  -0.5726
  O  O34  1  0.554400  0.731400  0.222500  1.0  -0.6765
  O  O35  1  0.729000  0.591600  0.220100  1.0  -0.6814
  O  O36  1  0.509800  0.514600  0.227200  1.0  -0.5734
  O  O37  1  0.554400  0.768600  0.777500  1.0  -0.6765
  O  O38  1  0.729000  0.908400  0.779900  1.0  -0.6824
  O  O39  1  0.509800  0.985400  0.772800  1.0  -0.5726
  O  O40  1  0.945600  0.731400  0.777500  1.0  -0.6781
  O  O41  1  0.771000  0.591600  0.779900  1.0  -0.6813
  O  O42  1  0.990200  0.514600  0.772800  1.0  -0.5731
