# generated using pymatgen
data_LaH4(C3O2)3
_symmetry_space_group_name_H-M   'P 1'
_cell_length_a   9.90330000
_cell_length_b   9.90330000
_cell_length_c   14.62600000
_cell_angle_alpha   84.66720000
_cell_angle_beta   71.12350000
_cell_angle_gamma   112.63900000
_symmetry_Int_Tables_number   1
_chemical_formula_structural   LaH4(C3O2)3
_chemical_formula_sum   'La4 H16 C36 O24'
_cell_volume   1213.25652978
_cell_formula_units_Z   4
loop_
 _symmetry_equiv_pos_site_id
 _symmetry_equiv_pos_as_xyz
  1  'x, y, z'
loop_
 _atom_site_type_symbol
 _atom_site_label
 _atom_site_symmetry_multiplicity
 _atom_site_fract_x
 _atom_site_fract_y
 _atom_site_fract_z
 _atom_site_occupancy
 _atom_site_charge
  La  La1  1  0.727950  0.462780  0.985940  1.0  2.1206
  La  La2  1  0.948720  0.713890  0.514060  1.0  2.12
  La  La3  1  0.272050  0.537220  0.014060  1.0  2.1209
  La  La4  1  0.051280  0.286110  0.485940  1.0  2.1208
  H  H5  1  0.986000  0.887000  0.869000  1.0  0.1528
  H  H6  1  0.058000  0.140000  0.800000  1.0  0.1228
  H  H7  1  0.275000  0.333000  0.800000  1.0  0.1312
  H  H8  1  0.345000  0.012000  0.947000  1.0  0.1737
  H  H9  1  0.256000  0.855000  0.631000  1.0  0.1515
  H  H10  1  0.440000  0.858000  0.700000  1.0  0.1226
  H  H11  1  0.633000  0.075000  0.700000  1.0  0.1282
  H  H12  1  0.459000  0.292000  0.553000  1.0  0.1704
  H  H13  1  0.014000  0.113000  0.131000  1.0  0.1527
  H  H14  1  0.942000  0.860000  0.200000  1.0  0.1223
  H  H15  1  0.725000  0.667000  0.200000  1.0  0.1297
  H  H16  1  0.655000  0.988000  0.053000  1.0  0.1732
  H  H17  1  0.744000  0.145000  0.369000  1.0  0.1514
  H  H18  1  0.560000  0.142000  0.300000  1.0  0.1219
  H  H19  1  0.367000  0.925000  0.300000  1.0  0.1278
  H  H20  1  0.541000  0.708000  0.447000  1.0  0.172
  C  C21  1  0.326600  0.189000  0.885000  1.0  -0.059
  C  C22  1  0.100500  0.763900  0.970600  1.0  0.7502
  C  C23  1  0.459800  0.310700  0.899500  1.0  0.7094
  C  C24  1  0.237400  0.224300  0.839300  1.0  -0.1333
  C  C25  1  0.285900  0.038300  0.923600  1.0  0.006
  C  C26  1  0.831800  0.677200  0.760600  1.0  0.5662
  C  C27  1  0.064100  0.961700  0.874400  1.0  -0.0834
  C  C28  1  0.109900  0.110300  0.831600  1.0  -0.1104
  C  C29  1  0.152100  0.924700  0.921200  1.0  -0.177
  C  C30  1  0.574000  0.211600  0.615000  1.0  -0.0587
  C  C31  1  0.234500  0.071100  0.529400  1.0  0.7515
  C  C32  1  0.710200  0.359300  0.600500  1.0  0.7082
  C  C33  1  0.563600  0.076700  0.660700  1.0  -0.1303
  C  C34  1  0.461900  0.209500  0.576400  1.0  0.0047
  C  C35  1  0.937800  0.592400  0.739400  1.0  0.5662
  C  C36  1  0.336100  0.938500  0.625600  1.0  -0.0859
  C  C37  1  0.441900  0.941500  0.668400  1.0  -0.1106
  C  C38  1  0.345900  0.073300  0.578800  1.0  -0.1776
  C  C39  1  0.673400  0.811000  0.115000  1.0  -0.0609
  C  C40  1  0.899500  0.236100  0.029400  1.0  0.7499
  C  C41  1  0.540200  0.689300  0.100500  1.0  0.7094
  C  C42  1  0.762600  0.775700  0.160700  1.0  -0.1335
  C  C43  1  0.714100  0.961700  0.076400  1.0  0.0082
  C  C44  1  0.168200  0.322800  0.239400  1.0  0.5656
  C  C45  1  0.935900  0.038300  0.125600  1.0  -0.0826
  C  C46  1  0.890100  0.889700  0.168400  1.0  -0.1106
  C  C47  1  0.847900  0.075300  0.078800  1.0  -0.1797
  C  C48  1  0.426000  0.788400  0.385000  1.0  -0.0591
  C  C49  1  0.765500  0.928900  0.470600  1.0  0.7525
  C  C50  1  0.289800  0.640700  0.399500  1.0  0.7084
  C  C51  1  0.436400  0.923300  0.339300  1.0  -0.132
  C  C52  1  0.538100  0.790500  0.423600  1.0  0.0054
  C  C53  1  0.062200  0.407600  0.260600  1.0  0.5641
  C  C54  1  0.663900  0.061500  0.374400  1.0  -0.0858
  C  C55  1  0.558100  0.058500  0.331600  1.0  -0.1131
  C  C56  1  0.654100  0.926700  0.421200  1.0  -0.1758
  O  O57  1  0.760830  0.668560  0.850610  1.0  -0.6495
  O  O58  1  0.584830  0.297970  0.889200  1.0  -0.6318
  O  O59  1  0.977070  0.663930  0.969000  1.0  -0.7621
  O  O60  1  0.438660  0.421340  0.926200  1.0  -0.7832
  O  O61  1  0.185570  0.737930  0.011300  1.0  -0.7163
  O  O62  1  0.828070  0.749350  0.687780  1.0  -0.6212
  O  O63  1  0.019170  0.611440  0.649390  1.0  -0.645
  O  O64  1  0.687170  0.474030  0.610800  1.0  -0.6291
  O  O65  1  0.132930  0.946070  0.531000  1.0  -0.7679
  O  O66  1  0.847540  0.364860  0.573800  1.0  -0.7845
  O  O67  1  0.249230  0.196870  0.488700  1.0  -0.7152
  O  O68  1  0.937130  0.515850  0.812220  1.0  -0.6205
  O  O69  1  0.239170  0.331440  0.149390  1.0  -0.6483
  O  O70  1  0.415170  0.702030  0.110800  1.0  -0.6333
  O  O71  1  0.022930  0.336070  0.031000  1.0  -0.7639
  O  O72  1  0.561340  0.578660  0.073800  1.0  -0.7819
  O  O73  1  0.814430  0.262070  0.988700  1.0  -0.7177
  O  O74  1  0.171930  0.250650  0.312220  1.0  -0.6213
  O  O75  1  0.980830  0.388560  0.350610  1.0  -0.6471
  O  O76  1  0.312830  0.525970  0.389200  1.0  -0.6298
  O  O77  1  0.867070  0.053930  0.469000  1.0  -0.7655
  O  O78  1  0.152460  0.635140  0.426200  1.0  -0.7824
  O  O79  1  0.750770  0.803130  0.511300  1.0  -0.7156
  O  O80  1  0.062870  0.484150  0.187780  1.0  -0.6199
