# generated using pymatgen
data_Ni3H24C48O13
_symmetry_space_group_name_H-M   'P 1'
_cell_length_a   15.55100000
_cell_length_b   15.55100000
_cell_length_c   16.36400000
_cell_angle_alpha   90.00000000
_cell_angle_beta   90.00000000
_cell_angle_gamma   120.00000000
_symmetry_Int_Tables_number   1
_chemical_formula_structural   Ni3H24C48O13
_chemical_formula_sum   'Ni6 H48 C96 O26'
_cell_volume   3427.17866255
_cell_formula_units_Z   2
loop_
 _symmetry_equiv_pos_site_id
 _symmetry_equiv_pos_as_xyz
  1  'x, y, z'
loop_
 _atom_site_type_symbol
 _atom_site_label
 _atom_site_symmetry_multiplicity
 _atom_site_fract_x
 _atom_site_fract_y
 _atom_site_fract_z
 _atom_site_occupancy
 _atom_site_charge
  Ni  Ni1  1  0.480000  0.740000  0.750000  1.0  0.9638
  Ni  Ni2  1  0.260000  0.520000  0.750000  1.0  0.9586
  Ni  Ni3  1  0.260000  0.740000  0.750000  1.0  0.9608
  Ni  Ni4  1  0.520000  0.260000  0.250000  1.0  0.9592
  Ni  Ni5  1  0.740000  0.480000  0.250000  1.0  0.9622
  Ni  Ni6  1  0.740000  0.260000  0.250000  1.0  0.9598
  H  H7  1  0.452200  0.760400  0.980300  1.0  0.1194
  H  H8  1  0.439800  0.013300  0.801500  1.0  0.118
  H  H9  1  0.478800  0.715100  0.106900  1.0  0.1185
  H  H10  1  0.464800  0.169400  0.783700  1.0  0.109
  H  H11  1  0.308200  0.547800  0.980300  1.0  0.1187
  H  H12  1  0.573500  0.560200  0.801500  1.0  0.1186
  H  H13  1  0.236300  0.521200  0.106900  1.0  0.1182
  H  H14  1  0.704600  0.535200  0.783700  1.0  0.1094
  H  H15  1  0.239600  0.691800  0.980300  1.0  0.1196
  H  H16  1  0.986700  0.426500  0.801500  1.0  0.1177
  H  H17  1  0.284900  0.763700  0.106900  1.0  0.1164
  H  H18  1  0.830600  0.295400  0.783700  1.0  0.1097
  H  H19  1  0.308200  0.760400  0.519700  1.0  0.1198
  H  H20  1  0.573500  0.013300  0.698500  1.0  0.1183
  H  H21  1  0.236300  0.715100  0.393100  1.0  0.1186
  H  H22  1  0.704600  0.169400  0.716300  1.0  0.1105
  H  H23  1  0.239600  0.547800  0.519700  1.0  0.1188
  H  H24  1  0.986700  0.560200  0.698500  1.0  0.1182
  H  H25  1  0.284900  0.521200  0.393100  1.0  0.1185
  H  H26  1  0.830600  0.535200  0.716300  1.0  0.1121
  H  H27  1  0.452200  0.691800  0.519700  1.0  0.1195
  H  H28  1  0.439800  0.426500  0.698500  1.0  0.118
  H  H29  1  0.478800  0.763700  0.393100  1.0  0.1168
  H  H30  1  0.464800  0.295400  0.716300  1.0  0.1079
  H  H31  1  0.547800  0.239600  0.019700  1.0  0.1195
  H  H32  1  0.560200  0.986700  0.198500  1.0  0.1178
  H  H33  1  0.521200  0.284900  0.893100  1.0  0.1188
  H  H34  1  0.535200  0.830600  0.216300  1.0  0.1094
  H  H35  1  0.691800  0.452200  0.019700  1.0  0.1185
  H  H36  1  0.426500  0.439800  0.198500  1.0  0.1189
  H  H37  1  0.763700  0.478800  0.893100  1.0  0.1182
  H  H38  1  0.295400  0.464800  0.216300  1.0  0.1083
  H  H39  1  0.760400  0.308200  0.019700  1.0  0.1193
  H  H40  1  0.013300  0.573500  0.198500  1.0  0.118
  H  H41  1  0.715100  0.236300  0.893100  1.0  0.1167
  H  H42  1  0.169400  0.704600  0.216300  1.0  0.1081
  H  H43  1  0.691800  0.239600  0.480300  1.0  0.1192
  H  H44  1  0.426500  0.986700  0.301500  1.0  0.1181
  H  H45  1  0.763700  0.284900  0.606900  1.0  0.1184
  H  H46  1  0.295400  0.830600  0.283700  1.0  0.1083
  H  H47  1  0.760400  0.452200  0.480300  1.0  0.1186
  H  H48  1  0.013300  0.439800  0.301500  1.0  0.1187
  H  H49  1  0.715100  0.478800  0.606900  1.0  0.1177
  H  H50  1  0.169400  0.464800  0.283700  1.0  0.1103
  H  H51  1  0.547800  0.308200  0.480300  1.0  0.1192
  H  H52  1  0.560200  0.573500  0.301500  1.0  0.1171
  H  H53  1  0.521200  0.236300  0.606900  1.0  0.1167
  H  H54  1  0.535200  0.704600  0.283700  1.0  0.1067
  C  C55  1  0.465300  0.931600  0.934880  1.0  -0.0827
  C  C56  1  0.426900  0.858200  0.863860  1.0  0.7074
  C  C57  1  0.480200  0.026800  0.923500  1.0  0.0164
  C  C58  1  0.484900  0.903500  0.010500  1.0  0.0301
  C  C59  1  0.472500  0.806500  0.024100  1.0  -0.0714
  C  C60  1  0.462400  0.058400  0.846200  1.0  -0.086
  C  C61  1  0.489400  0.780100  0.098400  1.0  -0.0786
  C  C62  1  0.476900  0.150300  0.835700  1.0  -0.0597
  C  C63  1  0.466300  0.534700  0.934880  1.0  -0.0828
  C  C64  1  0.431300  0.573100  0.863860  1.0  0.7069
  C  C65  1  0.546600  0.519800  0.923500  1.0  0.0145
  C  C66  1  0.418600  0.515100  0.010500  1.0  0.0299
  C  C67  1  0.334000  0.527500  0.024100  1.0  -0.0707
  C  C68  1  0.596000  0.537600  0.846200  1.0  -0.0907
  C  C69  1  0.290700  0.510600  0.098400  1.0  -0.0805
  C  C70  1  0.673400  0.523100  0.835700  1.0  -0.0683
  C  C71  1  0.068400  0.533700  0.934880  1.0  -0.0823
  C  C72  1  0.141800  0.568700  0.863860  1.0  0.7076
  C  C73  1  0.973200  0.453400  0.923500  1.0  0.0156
  C  C74  1  0.096500  0.581400  0.010500  1.0  0.0299
  C  C75  1  0.193500  0.666000  0.024100  1.0  -0.0721
  C  C76  1  0.941600  0.404000  0.846200  1.0  -0.0879
  C  C77  1  0.219900  0.709300  0.098400  1.0  -0.0797
  C  C78  1  0.849700  0.326600  0.835700  1.0  -0.0598
  C  C79  1  0.466300  0.931600  0.565120  1.0  -0.0829
  C  C80  1  0.431300  0.858200  0.636140  1.0  0.7076
  C  C81  1  0.546600  0.026800  0.576500  1.0  0.0161
  C  C82  1  0.418600  0.903500  0.489500  1.0  0.0297
  C  C83  1  0.334000  0.806500  0.475900  1.0  -0.0717
  C  C84  1  0.596000  0.058400  0.653800  1.0  -0.0852
  C  C85  1  0.290700  0.780100  0.401600  1.0  -0.0782
  C  C86  1  0.673400  0.150300  0.664300  1.0  -0.0574
  C  C87  1  0.068400  0.534700  0.565120  1.0  -0.0829
  C  C88  1  0.141800  0.573100  0.636140  1.0  0.7077
  C  C89  1  0.973200  0.519800  0.576500  1.0  0.0148
  C  C90  1  0.096500  0.515100  0.489500  1.0  0.0297
  C  C91  1  0.193500  0.527500  0.475900  1.0  -0.0702
  C  C92  1  0.941600  0.537600  0.653800  1.0  -0.0905
  C  C93  1  0.219900  0.510600  0.401600  1.0  -0.0788
  C  C94  1  0.849700  0.523100  0.664300  1.0  -0.0636
  C  C95  1  0.465300  0.533700  0.565120  1.0  -0.0825
  C  C96  1  0.426900  0.568700  0.636140  1.0  0.707
  C  C97  1  0.480200  0.453400  0.576500  1.0  0.0161
  C  C98  1  0.484900  0.581400  0.489500  1.0  0.0299
  C  C99  1  0.472500  0.666000  0.475900  1.0  -0.0715
  C  C100  1  0.462400  0.404000  0.653800  1.0  -0.0879
  C  C101  1  0.489400  0.709300  0.401600  1.0  -0.0775
  C  C102  1  0.476900  0.326600  0.664300  1.0  -0.067
  C  C103  1  0.534700  0.068400  0.065120  1.0  -0.0828
  C  C104  1  0.573100  0.141800  0.136140  1.0  0.7079
  C  C105  1  0.519800  0.973200  0.076500  1.0  0.0158
  C  C106  1  0.515100  0.096500  0.989500  1.0  0.0295
  C  C107  1  0.527500  0.193500  0.975900  1.0  -0.0733
  C  C108  1  0.537600  0.941600  0.153800  1.0  -0.0907
  C  C109  1  0.510600  0.219900  0.901600  1.0  -0.0833
  C  C110  1  0.523100  0.849700  0.164300  1.0  -0.0574
  C  C111  1  0.533700  0.465300  0.065120  1.0  -0.0829
  C  C112  1  0.568700  0.426900  0.136140  1.0  0.7077
  C  C113  1  0.453400  0.480200  0.076500  1.0  0.0144
  C  C114  1  0.581400  0.484900  0.989500  1.0  0.0302
  C  C115  1  0.666000  0.472500  0.975900  1.0  -0.0714
  C  C116  1  0.404000  0.462400  0.153800  1.0  -0.0951
  C  C117  1  0.709300  0.489400  0.901600  1.0  -0.0837
  C  C118  1  0.326600  0.476900  0.164300  1.0  -0.0675
  C  C119  1  0.931600  0.466300  0.065120  1.0  -0.0825
  C  C120  1  0.858200  0.431300  0.136140  1.0  0.7069
  C  C121  1  0.026800  0.546600  0.076500  1.0  0.0163
  C  C122  1  0.903500  0.418600  0.989500  1.0  0.0299
  C  C123  1  0.806500  0.334000  0.975900  1.0  -0.0716
  C  C124  1  0.058400  0.596000  0.153800  1.0  -0.0933
  C  C125  1  0.780100  0.290700  0.901600  1.0  -0.084
  C  C126  1  0.150300  0.673400  0.164300  1.0  -0.0597
  C  C127  1  0.533700  0.068400  0.434880  1.0  -0.0826
  C  C128  1  0.568700  0.141800  0.363860  1.0  0.7078
  C  C129  1  0.453400  0.973200  0.423500  1.0  0.0164
  C  C130  1  0.581400  0.096500  0.510500  1.0  0.0302
  C  C131  1  0.666000  0.193500  0.524100  1.0  -0.0736
  C  C132  1  0.404000  0.941600  0.346200  1.0  -0.0906
  C  C133  1  0.709300  0.219900  0.598400  1.0  -0.083
  C  C134  1  0.326600  0.849700  0.335700  1.0  -0.0597
  C  C135  1  0.931600  0.465300  0.434880  1.0  -0.0829
  C  C136  1  0.858200  0.426900  0.363860  1.0  0.7068
  C  C137  1  0.026800  0.480200  0.423500  1.0  0.014
  C  C138  1  0.903500  0.484900  0.510500  1.0  0.0305
  C  C139  1  0.806500  0.472500  0.524100  1.0  -0.0715
  C  C140  1  0.058400  0.462400  0.346200  1.0  -0.0961
  C  C141  1  0.780100  0.489400  0.598400  1.0  -0.0859
  C  C142  1  0.150300  0.476900  0.335700  1.0  -0.0632
  C  C143  1  0.534700  0.466300  0.434880  1.0  -0.0822
  C  C144  1  0.573100  0.431300  0.363860  1.0  0.7075
  C  C145  1  0.519800  0.546600  0.423500  1.0  0.0159
  C  C146  1  0.515100  0.418600  0.510500  1.0  0.0298
  C  C147  1  0.527500  0.334000  0.524100  1.0  -0.0735
  C  C148  1  0.537600  0.596000  0.346200  1.0  -0.0925
  C  C149  1  0.510600  0.290700  0.598400  1.0  -0.0848
  C  C150  1  0.523100  0.673400  0.335700  1.0  -0.0661
  O  O151  1  0.491010  0.849590  0.825660  1.0  -0.5843
  O  O152  1  0.335510  0.816330  0.851470  1.0  -0.5909
  O  O153  1  0.358580  0.508990  0.825660  1.0  -0.5867
  O  O154  1  0.480820  0.664490  0.851470  1.0  -0.5915
  O  O155  1  0.150410  0.641420  0.825660  1.0  -0.5843
  O  O156  1  0.183670  0.519180  0.851470  1.0  -0.5925
  O  O157  1  0.358580  0.849590  0.674340  1.0  -0.5853
  O  O158  1  0.480820  0.816330  0.648530  1.0  -0.5909
  O  O159  1  0.150410  0.508990  0.674340  1.0  -0.5861
  O  O160  1  0.183670  0.664490  0.648530  1.0  -0.5944
  O  O161  1  0.491010  0.641420  0.674340  1.0  -0.5844
  O  O162  1  0.335510  0.519180  0.648530  1.0  -0.5925
  O  O163  1  0.508990  0.150410  0.174340  1.0  -0.5851
  O  O164  1  0.664490  0.183670  0.148530  1.0  -0.591
  O  O165  1  0.641420  0.491010  0.174340  1.0  -0.5833
  O  O166  1  0.519180  0.335510  0.148530  1.0  -0.5928
  O  O167  1  0.849590  0.358580  0.174340  1.0  -0.5852
  O  O168  1  0.816330  0.480820  0.148530  1.0  -0.5912
  O  O169  1  0.641420  0.150410  0.325660  1.0  -0.585
  O  O170  1  0.519180  0.183670  0.351470  1.0  -0.5915
  O  O171  1  0.849590  0.491010  0.325660  1.0  -0.5839
  O  O172  1  0.816330  0.335510  0.351470  1.0  -0.5937
  O  O173  1  0.508990  0.358580  0.325660  1.0  -0.5852
  O  O174  1  0.664490  0.480820  0.351470  1.0  -0.5921
  O  O175  1  0.333333  0.666667  0.750000  1.0  -0.789
  O  O176  1  0.666667  0.333333  0.250000  1.0  -0.789
