# generated using pymatgen
data_ZnHC5O4
_symmetry_space_group_name_H-M   'P 1'
_cell_length_a   19.57600000
_cell_length_b   18.53500000
_cell_length_c   7.83770000
_cell_angle_alpha   90.00000000
_cell_angle_beta   94.15000000
_cell_angle_gamma   90.00000000
_symmetry_Int_Tables_number   1
_chemical_formula_structural   ZnHC5O4
_chemical_formula_sum   'Zn16 H16 C80 O64'
_cell_volume   2836.38363885
_cell_formula_units_Z   16
loop_
 _symmetry_equiv_pos_site_id
 _symmetry_equiv_pos_as_xyz
  1  'x, y, z'
loop_
 _atom_site_type_symbol
 _atom_site_label
 _atom_site_symmetry_multiplicity
 _atom_site_fract_x
 _atom_site_fract_y
 _atom_site_fract_z
 _atom_site_occupancy
 _atom_site_charge
  Zn  Zn1  1  0.358400  0.144830  0.356700  1.0  1.1039
  Zn  Zn2  1  0.085900  0.976720  0.365700  1.0  0.9809
  Zn  Zn3  1  0.858400  0.644830  0.356700  1.0  1.1039
  Zn  Zn4  1  0.585900  0.476720  0.365700  1.0  0.9809
  Zn  Zn5  1  0.641600  0.144830  0.143300  1.0  1.1068
  Zn  Zn6  1  0.914100  0.976720  0.134300  1.0  0.981
  Zn  Zn7  1  0.141600  0.644830  0.143300  1.0  1.1068
  Zn  Zn8  1  0.414100  0.476720  0.134300  1.0  0.981
  Zn  Zn9  1  0.641600  0.855170  0.643300  1.0  1.1066
  Zn  Zn10  1  0.914100  0.023280  0.634300  1.0  0.9773
  Zn  Zn11  1  0.141600  0.355170  0.643300  1.0  1.1066
  Zn  Zn12  1  0.414100  0.523280  0.634300  1.0  0.9773
  Zn  Zn13  1  0.358400  0.855170  0.856700  1.0  1.1043
  Zn  Zn14  1  0.085900  0.023280  0.865700  1.0  0.9784
  Zn  Zn15  1  0.858400  0.355170  0.856700  1.0  1.1043
  Zn  Zn16  1  0.585900  0.523280  0.865700  1.0  0.9784
  H  H17  1  0.003400  0.188800  0.060800  1.0  0.0838
  H  H18  1  0.210500  0.302800  0.133600  1.0  0.1165
  H  H19  1  0.503400  0.688800  0.060800  1.0  0.0838
  H  H20  1  0.710500  0.802800  0.133600  1.0  0.1165
  H  H21  1  0.996600  0.188800  0.439200  1.0  0.0831
  H  H22  1  0.789500  0.302800  0.366400  1.0  0.1162
  H  H23  1  0.496600  0.688800  0.439200  1.0  0.0831
  H  H24  1  0.289500  0.802800  0.366400  1.0  0.1162
  H  H25  1  0.996600  0.811200  0.939200  1.0  0.0834
  H  H26  1  0.789500  0.697200  0.866400  1.0  0.1176
  H  H27  1  0.496600  0.311200  0.939200  1.0  0.0834
  H  H28  1  0.289500  0.197200  0.866400  1.0  0.1176
  H  H29  1  0.003400  0.811200  0.560800  1.0  0.0843
  H  H30  1  0.210500  0.697200  0.633600  1.0  0.1173
  H  H31  1  0.503400  0.311200  0.560800  1.0  0.0843
  H  H32  1  0.710500  0.197200  0.633600  1.0  0.1173
  C  C33  1  0.984800  0.321700  0.971000  1.0  0.6646
  C  C34  1  0.047100  0.278800  0.029000  1.0  -0.0037
  C  C35  1  0.045500  0.212000  0.076000  1.0  -0.0057
  C  C36  1  0.102000  0.169200  0.149000  1.0  -0.014
  C  C37  1  0.090600  0.095000  0.217000  1.0  0.6129
  C  C38  1  0.160600  0.205600  0.157000  1.0  -0.1159
  C  C39  1  0.227700  0.163100  0.219000  1.0  0.4526
  C  C40  1  0.168100  0.280200  0.116000  1.0  -0.0616
  C  C41  1  0.112500  0.317400  0.053000  1.0  -0.1128
  C  C42  1  0.122600  0.396600  0.003000  1.0  0.6669
  C  C43  1  0.484800  0.821700  0.971000  1.0  0.6646
  C  C44  1  0.547100  0.778800  0.029000  1.0  -0.0037
  C  C45  1  0.545500  0.712000  0.076000  1.0  -0.0057
  C  C46  1  0.602000  0.669200  0.149000  1.0  -0.014
  C  C47  1  0.590600  0.595000  0.217000  1.0  0.6129
  C  C48  1  0.660600  0.705600  0.157000  1.0  -0.1159
  C  C49  1  0.727700  0.663100  0.219000  1.0  0.4526
  C  C50  1  0.668100  0.780200  0.116000  1.0  -0.0616
  C  C51  1  0.612500  0.817400  0.053000  1.0  -0.1128
  C  C52  1  0.622600  0.896600  0.003000  1.0  0.6669
  C  C53  1  0.015200  0.321700  0.529000  1.0  0.6673
  C  C54  1  0.952900  0.278800  0.471000  1.0  -0.0019
  C  C55  1  0.954500  0.212000  0.424000  1.0  -0.0054
  C  C56  1  0.898000  0.169200  0.351000  1.0  -0.0143
  C  C57  1  0.909400  0.095000  0.283000  1.0  0.6113
  C  C58  1  0.839400  0.205600  0.343000  1.0  -0.1194
  C  C59  1  0.772300  0.163100  0.281000  1.0  0.4549
  C  C60  1  0.831900  0.280200  0.384000  1.0  -0.0618
  C  C61  1  0.887500  0.317400  0.447000  1.0  -0.1127
  C  C62  1  0.877400  0.396600  0.497000  1.0  0.6659
  C  C63  1  0.515200  0.821700  0.529000  1.0  0.6673
  C  C64  1  0.452900  0.778800  0.471000  1.0  -0.0019
  C  C65  1  0.454500  0.712000  0.424000  1.0  -0.0054
  C  C66  1  0.398000  0.669200  0.351000  1.0  -0.0143
  C  C67  1  0.409400  0.595000  0.283000  1.0  0.6113
  C  C68  1  0.339400  0.705600  0.343000  1.0  -0.1194
  C  C69  1  0.272300  0.663100  0.281000  1.0  0.4549
  C  C70  1  0.331900  0.780200  0.384000  1.0  -0.0618
  C  C71  1  0.387500  0.817400  0.447000  1.0  -0.1127
  C  C72  1  0.377400  0.896600  0.497000  1.0  0.6659
  C  C73  1  0.015200  0.678300  0.029000  1.0  0.6671
  C  C74  1  0.952900  0.721200  0.971000  1.0  -0.0019
  C  C75  1  0.954500  0.788000  0.924000  1.0  -0.005
  C  C76  1  0.898000  0.830800  0.851000  1.0  -0.0137
  C  C77  1  0.909400  0.905000  0.783000  1.0  0.6119
  C  C78  1  0.839400  0.794400  0.843000  1.0  -0.1192
  C  C79  1  0.772300  0.836900  0.781000  1.0  0.4535
  C  C80  1  0.831900  0.719800  0.884000  1.0  -0.0613
  C  C81  1  0.887500  0.682600  0.947000  1.0  -0.1123
  C  C82  1  0.877400  0.603400  0.997000  1.0  0.6646
  C  C83  1  0.515200  0.178300  0.029000  1.0  0.6671
  C  C84  1  0.452900  0.221200  0.971000  1.0  -0.0019
  C  C85  1  0.454500  0.288000  0.924000  1.0  -0.005
  C  C86  1  0.398000  0.330800  0.851000  1.0  -0.0137
  C  C87  1  0.409400  0.405000  0.783000  1.0  0.6119
  C  C88  1  0.339400  0.294400  0.843000  1.0  -0.1192
  C  C89  1  0.272300  0.336900  0.781000  1.0  0.4535
  C  C90  1  0.331900  0.219800  0.884000  1.0  -0.0613
  C  C91  1  0.387500  0.182600  0.947000  1.0  -0.1123
  C  C92  1  0.377400  0.103400  0.997000  1.0  0.6646
  C  C93  1  0.984800  0.678300  0.471000  1.0  0.665
  C  C94  1  0.047100  0.721200  0.529000  1.0  -0.004
  C  C95  1  0.045500  0.788000  0.576000  1.0  -0.0053
  C  C96  1  0.102000  0.830800  0.649000  1.0  -0.0133
  C  C97  1  0.090600  0.905000  0.717000  1.0  0.6127
  C  C98  1  0.160600  0.794400  0.657000  1.0  -0.1163
  C  C99  1  0.227700  0.836900  0.719000  1.0  0.4516
  C  C100  1  0.168100  0.719800  0.616000  1.0  -0.0611
  C  C101  1  0.112500  0.682600  0.553000  1.0  -0.1129
  C  C102  1  0.122600  0.603400  0.503000  1.0  0.666
  C  C103  1  0.484800  0.178300  0.471000  1.0  0.665
  C  C104  1  0.547100  0.221200  0.529000  1.0  -0.004
  C  C105  1  0.545500  0.288000  0.576000  1.0  -0.0053
  C  C106  1  0.602000  0.330800  0.649000  1.0  -0.0133
  C  C107  1  0.590600  0.405000  0.717000  1.0  0.6127
  C  C108  1  0.660600  0.294400  0.657000  1.0  -0.1163
  C  C109  1  0.727700  0.336900  0.719000  1.0  0.4516
  C  C110  1  0.668100  0.219800  0.616000  1.0  -0.0611
  C  C111  1  0.612500  0.182600  0.553000  1.0  -0.1129
  C  C112  1  0.622600  0.103400  0.503000  1.0  0.666
  O  O113  1  0.934400  0.282100  0.924500  1.0  -0.603
  O  O114  1  0.982000  0.390500  0.979800  1.0  -0.5469
  O  O115  1  0.117600  0.411700  0.846500  1.0  -0.5967
  O  O116  1  0.131900  0.439000  0.110700  1.0  -0.3985
  O  O117  1  0.077600  0.044100  0.106300  1.0  -0.705
  O  O118  1  0.089500  0.088700  0.363000  1.0  -0.5408
  O  O119  1  0.227100  0.104300  0.203500  1.0  -0.4004
  O  O120  1  0.281100  0.204900  0.281600  1.0  -0.5754
  O  O121  1  0.434400  0.782100  0.924500  1.0  -0.603
  O  O122  1  0.482000  0.890500  0.979800  1.0  -0.5469
  O  O123  1  0.617600  0.911700  0.846500  1.0  -0.5967
  O  O124  1  0.631900  0.939000  0.110700  1.0  -0.3985
  O  O125  1  0.577600  0.544100  0.106300  1.0  -0.705
  O  O126  1  0.589500  0.588700  0.363000  1.0  -0.5408
  O  O127  1  0.727100  0.604300  0.203500  1.0  -0.4004
  O  O128  1  0.781100  0.704900  0.281600  1.0  -0.5754
  O  O129  1  0.065600  0.282100  0.575500  1.0  -0.602
  O  O130  1  0.018000  0.390500  0.520200  1.0  -0.5463
  O  O131  1  0.882400  0.411700  0.653500  1.0  -0.5967
  O  O132  1  0.868100  0.439000  0.389300  1.0  -0.3986
  O  O133  1  0.922400  0.044100  0.393700  1.0  -0.7046
  O  O134  1  0.910500  0.088700  0.137000  1.0  -0.5374
  O  O135  1  0.772900  0.104300  0.296500  1.0  -0.4011
  O  O136  1  0.718900  0.204900  0.218400  1.0  -0.5814
  O  O137  1  0.565600  0.782100  0.575500  1.0  -0.602
  O  O138  1  0.518000  0.890500  0.520200  1.0  -0.5463
  O  O139  1  0.382400  0.911700  0.653500  1.0  -0.5967
  O  O140  1  0.368100  0.939000  0.389300  1.0  -0.3986
  O  O141  1  0.422400  0.544100  0.393700  1.0  -0.7046
  O  O142  1  0.410500  0.588700  0.137000  1.0  -0.5374
  O  O143  1  0.272900  0.604300  0.296500  1.0  -0.4011
  O  O144  1  0.218900  0.704900  0.218400  1.0  -0.5814
  O  O145  1  0.065600  0.717900  0.075500  1.0  -0.6023
  O  O146  1  0.018000  0.609500  0.020200  1.0  -0.5462
  O  O147  1  0.882400  0.588300  0.153500  1.0  -0.597
  O  O148  1  0.868100  0.561000  0.889300  1.0  -0.4022
  O  O149  1  0.922400  0.955900  0.893700  1.0  -0.7093
  O  O150  1  0.910500  0.911300  0.637000  1.0  -0.5374
  O  O151  1  0.772900  0.895700  0.796500  1.0  -0.3971
  O  O152  1  0.718900  0.795100  0.718400  1.0  -0.5799
  O  O153  1  0.565600  0.217900  0.075500  1.0  -0.6023
  O  O154  1  0.518000  0.109500  0.020200  1.0  -0.5462
  O  O155  1  0.382400  0.088300  0.153500  1.0  -0.597
  O  O156  1  0.368100  0.061000  0.889300  1.0  -0.4022
  O  O157  1  0.422400  0.455900  0.893700  1.0  -0.7093
  O  O158  1  0.410500  0.411300  0.637000  1.0  -0.5374
  O  O159  1  0.272900  0.395700  0.796500  1.0  -0.3971
  O  O160  1  0.218900  0.295100  0.718400  1.0  -0.5799
  O  O161  1  0.934400  0.717900  0.424500  1.0  -0.6026
  O  O162  1  0.982000  0.609500  0.479800  1.0  -0.5456
  O  O163  1  0.117600  0.588300  0.346500  1.0  -0.5977
  O  O164  1  0.131900  0.561000  0.610700  1.0  -0.4007
  O  O165  1  0.077600  0.955900  0.606300  1.0  -0.7084
  O  O166  1  0.089500  0.911300  0.863000  1.0  -0.5402
  O  O167  1  0.227100  0.895700  0.703500  1.0  -0.3967
  O  O168  1  0.281100  0.795100  0.781600  1.0  -0.5768
  O  O169  1  0.434400  0.217900  0.424500  1.0  -0.6026
  O  O170  1  0.482000  0.109500  0.479800  1.0  -0.5456
  O  O171  1  0.617600  0.088300  0.346500  1.0  -0.5977
  O  O172  1  0.631900  0.061000  0.610700  1.0  -0.4007
  O  O173  1  0.577600  0.455900  0.606300  1.0  -0.7084
  O  O174  1  0.589500  0.411300  0.863000  1.0  -0.5402
  O  O175  1  0.727100  0.395700  0.703500  1.0  -0.3967
  O  O176  1  0.781100  0.295100  0.781600  1.0  -0.5768
