# generated using pymatgen
data_CoHC5O4
_symmetry_space_group_name_H-M   'P 1'
_cell_length_a   13.66900000
_cell_length_b   15.92500000
_cell_length_c   14.63300000
_cell_angle_alpha   90.00000000
_cell_angle_beta   90.00000000
_cell_angle_gamma   90.00000000
_symmetry_Int_Tables_number   1
_chemical_formula_structural   CoHC5O4
_chemical_formula_sum   'Co16 H16 C80 O64'
_cell_volume   3185.29424623
_cell_formula_units_Z   16
loop_
 _symmetry_equiv_pos_site_id
 _symmetry_equiv_pos_as_xyz
  1  'x, y, z'
loop_
 _atom_site_type_symbol
 _atom_site_label
 _atom_site_symmetry_multiplicity
 _atom_site_fract_x
 _atom_site_fract_y
 _atom_site_fract_z
 _atom_site_occupancy
 _atom_site_charge
  Co  Co1  1  0.206090  0.497100  0.233160  1.0  1.0687
  Co  Co2  1  0.064000  0.416690  0.030150  1.0  0.9929
  Co  Co3  1  0.293910  0.002900  0.733160  1.0  1.0663
  Co  Co4  1  0.436000  0.083310  0.530150  1.0  0.9983
  Co  Co5  1  0.793910  0.497100  0.266840  1.0  1.0663
  Co  Co6  1  0.936000  0.416690  0.469850  1.0  0.9951
  Co  Co7  1  0.706090  0.002900  0.766840  1.0  1.0693
  Co  Co8  1  0.564000  0.083310  0.969850  1.0  0.9994
  Co  Co9  1  0.793910  0.502900  0.766840  1.0  1.0667
  Co  Co10  1  0.936000  0.583310  0.969850  1.0  0.9999
  Co  Co11  1  0.706090  0.997100  0.266840  1.0  1.0691
  Co  Co12  1  0.564000  0.916690  0.469850  1.0  0.9946
  Co  Co13  1  0.206090  0.502900  0.733160  1.0  1.0689
  Co  Co14  1  0.064000  0.583310  0.530150  1.0  0.9978
  Co  Co15  1  0.293910  0.997100  0.233160  1.0  1.066
  Co  Co16  1  0.436000  0.916690  0.030150  1.0  0.9935
  H  H17  1  0.316300  0.271900  0.832500  1.0  0.1235
  H  H18  1  0.331400  0.249800  0.146100  1.0  0.1259
  H  H19  1  0.183700  0.228100  0.332500  1.0  0.1237
  H  H20  1  0.168600  0.250200  0.646100  1.0  0.1261
  H  H21  1  0.683700  0.271900  0.667500  1.0  0.1233
  H  H22  1  0.668600  0.249800  0.353900  1.0  0.1264
  H  H23  1  0.816300  0.228100  0.167500  1.0  0.1236
  H  H24  1  0.831400  0.250200  0.853900  1.0  0.1261
  H  H25  1  0.683700  0.728100  0.167500  1.0  0.1236
  H  H26  1  0.668600  0.750200  0.853900  1.0  0.1265
  H  H27  1  0.816300  0.771900  0.667500  1.0  0.1232
  H  H28  1  0.831400  0.749800  0.353900  1.0  0.126
  H  H29  1  0.316300  0.728100  0.332500  1.0  0.1237
  H  H30  1  0.331400  0.750200  0.646100  1.0  0.1259
  H  H31  1  0.183700  0.771900  0.832500  1.0  0.1236
  H  H32  1  0.168600  0.749800  0.146100  1.0  0.1263
  C  C33  1  0.264400  0.395400  0.111200  1.0  0.6819
  C  C34  1  0.294400  0.328400  0.044200  1.0  -0.0733
  C  C35  1  0.287000  0.334900  0.948500  1.0  -0.1136
  C  C36  1  0.240100  0.407800  0.899600  1.0  0.7271
  C  C37  1  0.317900  0.267200  0.895800  1.0  -0.0101
  C  C38  1  0.351100  0.192500  0.934400  1.0  -0.0562
  C  C39  1  0.377000  0.122700  0.868500  1.0  0.7257
  C  C40  1  0.354300  0.185200  0.029200  1.0  -0.087
  C  C41  1  0.374200  0.103500  0.078600  1.0  0.7243
  C  C42  1  0.327300  0.254000  0.082800  1.0  -0.0421
  C  C43  1  0.235600  0.104600  0.611200  1.0  0.681
  C  C44  1  0.205600  0.171600  0.544200  1.0  -0.074
  C  C45  1  0.213000  0.165100  0.448500  1.0  -0.1136
  C  C46  1  0.259900  0.092200  0.399600  1.0  0.726
  C  C47  1  0.182100  0.232800  0.395800  1.0  -0.0102
  C  C48  1  0.148900  0.307500  0.434400  1.0  -0.0565
  C  C49  1  0.123000  0.377300  0.368500  1.0  0.7259
  C  C50  1  0.145700  0.314800  0.529200  1.0  -0.0868
  C  C51  1  0.125800  0.396500  0.578600  1.0  0.7246
  C  C52  1  0.172700  0.246000  0.582800  1.0  -0.0434
  C  C53  1  0.735600  0.395400  0.388800  1.0  0.6817
  C  C54  1  0.705600  0.328400  0.455800  1.0  -0.0746
  C  C55  1  0.713000  0.334900  0.551500  1.0  -0.1131
  C  C56  1  0.759900  0.407800  0.600400  1.0  0.7262
  C  C57  1  0.682100  0.267200  0.604200  1.0  -0.0098
  C  C58  1  0.648900  0.192500  0.565600  1.0  -0.0561
  C  C59  1  0.623000  0.122700  0.631500  1.0  0.7265
  C  C60  1  0.645700  0.185200  0.470800  1.0  -0.0867
  C  C61  1  0.625800  0.103500  0.421400  1.0  0.7241
  C  C62  1  0.672700  0.254000  0.417200  1.0  -0.0445
  C  C63  1  0.764400  0.104600  0.888800  1.0  0.6812
  C  C64  1  0.794400  0.171600  0.955800  1.0  -0.0742
  C  C65  1  0.787000  0.165100  0.051500  1.0  -0.1133
  C  C66  1  0.740100  0.092200  0.100400  1.0  0.7281
  C  C67  1  0.817900  0.232800  0.104200  1.0  -0.0082
  C  C68  1  0.851100  0.307500  0.065600  1.0  -0.0561
  C  C69  1  0.877000  0.377300  0.131500  1.0  0.7279
  C  C70  1  0.854300  0.314800  0.970800  1.0  -0.0863
  C  C71  1  0.874200  0.396500  0.921400  1.0  0.7245
  C  C72  1  0.827300  0.246000  0.917200  1.0  -0.0436
  C  C73  1  0.735600  0.604600  0.888800  1.0  0.6809
  C  C74  1  0.705600  0.671600  0.955800  1.0  -0.0749
  C  C75  1  0.713000  0.665100  0.051500  1.0  -0.1133
  C  C76  1  0.759900  0.592200  0.100400  1.0  0.7264
  C  C77  1  0.682100  0.732800  0.104200  1.0  -0.0096
  C  C78  1  0.648900  0.807500  0.065600  1.0  -0.056
  C  C79  1  0.623000  0.877300  0.131500  1.0  0.7274
  C  C80  1  0.645700  0.814800  0.970800  1.0  -0.0865
  C  C81  1  0.625800  0.896500  0.921400  1.0  0.7245
  C  C82  1  0.672700  0.746000  0.917200  1.0  -0.0439
  C  C83  1  0.764400  0.895400  0.388800  1.0  0.6817
  C  C84  1  0.794400  0.828400  0.455800  1.0  -0.0739
  C  C85  1  0.787000  0.834900  0.551500  1.0  -0.1131
  C  C86  1  0.740100  0.907800  0.600400  1.0  0.7277
  C  C87  1  0.817900  0.767200  0.604200  1.0  -0.0083
  C  C88  1  0.851100  0.692500  0.565600  1.0  -0.0561
  C  C89  1  0.877000  0.622700  0.631500  1.0  0.727
  C  C90  1  0.854300  0.685200  0.470800  1.0  -0.0869
  C  C91  1  0.874200  0.603500  0.421400  1.0  0.7242
  C  C92  1  0.827300  0.754000  0.417200  1.0  -0.044
  C  C93  1  0.264400  0.604600  0.611200  1.0  0.6815
  C  C94  1  0.294400  0.671600  0.544200  1.0  -0.0736
  C  C95  1  0.287000  0.665100  0.448500  1.0  -0.1136
  C  C96  1  0.240100  0.592200  0.399600  1.0  0.7268
  C  C97  1  0.317900  0.732800  0.395800  1.0  -0.0096
  C  C98  1  0.351100  0.807500  0.434400  1.0  -0.0565
  C  C99  1  0.377000  0.877300  0.368500  1.0  0.7267
  C  C100  1  0.354300  0.814800  0.529200  1.0  -0.0867
  C  C101  1  0.374200  0.896500  0.578600  1.0  0.7244
  C  C102  1  0.327300  0.746000  0.582800  1.0  -0.0424
  C  C103  1  0.235600  0.895400  0.111200  1.0  0.6818
  C  C104  1  0.205600  0.828400  0.044200  1.0  -0.0736
  C  C105  1  0.213000  0.834900  0.948500  1.0  -0.1137
  C  C106  1  0.259900  0.907800  0.899600  1.0  0.726
  C  C107  1  0.182100  0.767200  0.895800  1.0  -0.0108
  C  C108  1  0.148900  0.692500  0.934400  1.0  -0.0563
  C  C109  1  0.123000  0.622700  0.868500  1.0  0.7249
  C  C110  1  0.145700  0.685200  0.029200  1.0  -0.0868
  C  C111  1  0.125800  0.603500  0.078600  1.0  0.7242
  C  C112  1  0.172700  0.754000  0.082800  1.0  -0.0432
  O  O113  1  0.326500  0.433300  0.157600  1.0  -0.5284
  O  O114  1  0.173300  0.409300  0.125000  1.0  -0.6556
  O  O115  1  0.170200  0.446600  0.935400  1.0  -0.5917
  O  O116  1  0.272900  0.424200  0.820800  1.0  -0.5898
  O  O117  1  0.309000  0.101600  0.816600  1.0  -0.5864
  O  O118  1  0.461700  0.092900  0.867300  1.0  -0.5815
  O  O119  1  0.442800  0.054500  0.053200  1.0  -0.626
  O  O120  1  0.316900  0.088900  0.142400  1.0  -0.6327
  O  O121  1  0.173500  0.066700  0.657600  1.0  -0.527
  O  O122  1  0.326700  0.090700  0.625000  1.0  -0.6565
  O  O123  1  0.329800  0.053400  0.435400  1.0  -0.5928
  O  O124  1  0.227100  0.075800  0.320800  1.0  -0.5904
  O  O125  1  0.191000  0.398400  0.316600  1.0  -0.5872
  O  O126  1  0.038300  0.407100  0.367300  1.0  -0.5815
  O  O127  1  0.057200  0.445500  0.553200  1.0  -0.6246
  O  O128  1  0.183100  0.411100  0.642400  1.0  -0.6323
  O  O129  1  0.673500  0.433300  0.342400  1.0  -0.5259
  O  O130  1  0.826700  0.409300  0.375000  1.0  -0.656
  O  O131  1  0.829800  0.446600  0.564600  1.0  -0.5922
  O  O132  1  0.727100  0.424200  0.679200  1.0  -0.5889
  O  O133  1  0.691000  0.101600  0.683400  1.0  -0.5869
  O  O134  1  0.538300  0.092900  0.632700  1.0  -0.5819
  O  O135  1  0.557200  0.054500  0.446800  1.0  -0.6267
  O  O136  1  0.683100  0.088900  0.357600  1.0  -0.6317
  O  O137  1  0.826500  0.066700  0.842400  1.0  -0.5272
  O  O138  1  0.673300  0.090700  0.875000  1.0  -0.6536
  O  O139  1  0.670200  0.053400  0.064600  1.0  -0.5915
  O  O140  1  0.772900  0.075800  0.179200  1.0  -0.5876
  O  O141  1  0.809000  0.398400  0.183400  1.0  -0.5871
  O  O142  1  0.961700  0.407100  0.132700  1.0  -0.5819
  O  O143  1  0.942800  0.445500  0.946800  1.0  -0.6251
  O  O144  1  0.816900  0.411100  0.857600  1.0  -0.6313
  O  O145  1  0.673500  0.566700  0.842400  1.0  -0.5264
  O  O146  1  0.826700  0.590700  0.875000  1.0  -0.6553
  O  O147  1  0.829800  0.553400  0.064600  1.0  -0.5925
  O  O148  1  0.727100  0.575800  0.179200  1.0  -0.5875
  O  O149  1  0.691000  0.898400  0.183400  1.0  -0.5873
  O  O150  1  0.538300  0.907100  0.132700  1.0  -0.5816
  O  O151  1  0.557200  0.945500  0.946800  1.0  -0.6253
  O  O152  1  0.683100  0.911100  0.857600  1.0  -0.632
  O  O153  1  0.826500  0.933300  0.342400  1.0  -0.5265
  O  O154  1  0.673300  0.909300  0.375000  1.0  -0.6546
  O  O155  1  0.670200  0.946600  0.564600  1.0  -0.591
  O  O156  1  0.772900  0.924200  0.679200  1.0  -0.5873
  O  O157  1  0.809000  0.601600  0.683400  1.0  -0.5866
  O  O158  1  0.961700  0.592900  0.632700  1.0  -0.5821
  O  O159  1  0.942800  0.554500  0.446800  1.0  -0.6266
  O  O160  1  0.816900  0.588900  0.357600  1.0  -0.6315
  O  O161  1  0.326500  0.566700  0.657600  1.0  -0.5282
  O  O162  1  0.173300  0.590700  0.625000  1.0  -0.6548
  O  O163  1  0.170200  0.553400  0.435400  1.0  -0.592
  O  O164  1  0.272900  0.575800  0.320800  1.0  -0.5885
  O  O165  1  0.309000  0.898400  0.316600  1.0  -0.5867
  O  O166  1  0.461700  0.907100  0.367300  1.0  -0.5818
  O  O167  1  0.442800  0.945500  0.553200  1.0  -0.6243
  O  O168  1  0.316900  0.911100  0.642400  1.0  -0.633
  O  O169  1  0.173500  0.933300  0.157600  1.0  -0.5276
  O  O170  1  0.326700  0.909300  0.125000  1.0  -0.6564
  O  O171  1  0.329800  0.946600  0.935400  1.0  -0.5927
  O  O172  1  0.227100  0.924200  0.820800  1.0  -0.5895
  O  O173  1  0.191000  0.601600  0.816600  1.0  -0.5869
  O  O174  1  0.038300  0.592900  0.867300  1.0  -0.5812
  O  O175  1  0.057200  0.554500  0.053200  1.0  -0.6262
  O  O176  1  0.183100  0.588900  0.142400  1.0  -0.6325
