# generated using pymatgen
data_EuH3C7NO4
_symmetry_space_group_name_H-M   'P 1'
_cell_length_a   20.26630000
_cell_length_b   20.26630000
_cell_length_c   20.26630000
_cell_angle_alpha   90.00000000
_cell_angle_beta   90.00000000
_cell_angle_gamma   90.00000000
_symmetry_Int_Tables_number   1
_chemical_formula_structural   EuH3C7NO4
_chemical_formula_sum   'Eu24 H72 C168 N24 O96'
_cell_volume   8323.83382625
_cell_formula_units_Z   24
loop_
 _symmetry_equiv_pos_site_id
 _symmetry_equiv_pos_as_xyz
  1  'x, y, z'
loop_
 _atom_site_type_symbol
 _atom_site_label
 _atom_site_symmetry_multiplicity
 _atom_site_fract_x
 _atom_site_fract_y
 _atom_site_fract_z
 _atom_site_occupancy
 _atom_site_charge
  Eu  Eu1  1  0.257770  0.145510  0.520110  1.0  2.0806
  Eu  Eu2  1  0.242230  0.854490  0.020110  1.0  2.0811
  Eu  Eu3  1  0.742230  0.645510  0.979890  1.0  2.0804
  Eu  Eu4  1  0.757770  0.354490  0.479890  1.0  2.0815
  Eu  Eu5  1  0.520110  0.257770  0.145510  1.0  2.0789
  Eu  Eu6  1  0.020110  0.242230  0.854490  1.0  2.0795
  Eu  Eu7  1  0.979890  0.742230  0.645510  1.0  2.0795
  Eu  Eu8  1  0.479890  0.757770  0.354490  1.0  2.0798
  Eu  Eu9  1  0.145510  0.520110  0.257770  1.0  2.0803
  Eu  Eu10  1  0.854490  0.020110  0.242230  1.0  2.0801
  Eu  Eu11  1  0.645510  0.979890  0.742230  1.0  2.0802
  Eu  Eu12  1  0.354490  0.479890  0.757770  1.0  2.0802
  Eu  Eu13  1  0.742230  0.854490  0.479890  1.0  2.0812
  Eu  Eu14  1  0.757770  0.145510  0.979890  1.0  2.0807
  Eu  Eu15  1  0.257770  0.354490  0.020110  1.0  2.0814
  Eu  Eu16  1  0.242230  0.645510  0.520110  1.0  2.0803
  Eu  Eu17  1  0.479890  0.742230  0.854490  1.0  2.08
  Eu  Eu18  1  0.979890  0.757770  0.145510  1.0  2.0794
  Eu  Eu19  1  0.020110  0.257770  0.354490  1.0  2.0793
  Eu  Eu20  1  0.520110  0.242230  0.645510  1.0  2.0791
  Eu  Eu21  1  0.854490  0.479890  0.742230  1.0  2.08
  Eu  Eu22  1  0.145510  0.979890  0.757770  1.0  2.0804
  Eu  Eu23  1  0.354490  0.020110  0.257770  1.0  2.0802
  Eu  Eu24  1  0.645510  0.520110  0.242230  1.0  2.0802
  H  H25  1  0.396800  0.052400  0.690000  1.0  0.0975
  H  H26  1  0.452400  0.010000  0.782500  1.0  0.0874
  H  H27  1  0.391400  0.957000  0.866200  1.0  0.0982
  H  H28  1  0.103200  0.947600  0.190000  1.0  0.0975
  H  H29  1  0.047600  0.990000  0.282500  1.0  0.0881
  H  H30  1  0.108600  0.043000  0.366200  1.0  0.0981
  H  H31  1  0.603200  0.552400  0.810000  1.0  0.0975
  H  H32  1  0.547600  0.510000  0.717500  1.0  0.0884
  H  H33  1  0.608600  0.457000  0.633800  1.0  0.0977
  H  H34  1  0.896800  0.447600  0.310000  1.0  0.0975
  H  H35  1  0.952400  0.490000  0.217500  1.0  0.0873
  H  H36  1  0.891400  0.543000  0.133800  1.0  0.0981
  H  H37  1  0.690000  0.396800  0.052400  1.0  0.0965
  H  H38  1  0.782500  0.452400  0.010000  1.0  0.089
  H  H39  1  0.866200  0.391400  0.957000  1.0  0.098
  H  H40  1  0.190000  0.103200  0.947600  1.0  0.0967
  H  H41  1  0.282500  0.047600  0.990000  1.0  0.0885
  H  H42  1  0.366200  0.108600  0.043000  1.0  0.0976
  H  H43  1  0.810000  0.603200  0.552400  1.0  0.0969
  H  H44  1  0.717500  0.547600  0.510000  1.0  0.0886
  H  H45  1  0.633800  0.608600  0.457000  1.0  0.0978
  H  H46  1  0.310000  0.896800  0.447600  1.0  0.0971
  H  H47  1  0.217500  0.952400  0.490000  1.0  0.0888
  H  H48  1  0.133800  0.891400  0.543000  1.0  0.098
  H  H49  1  0.052400  0.690000  0.396800  1.0  0.0969
  H  H50  1  0.010000  0.782500  0.452400  1.0  0.0873
  H  H51  1  0.957000  0.866200  0.391400  1.0  0.0987
  H  H52  1  0.947600  0.190000  0.103200  1.0  0.0971
  H  H53  1  0.990000  0.282500  0.047600  1.0  0.0874
  H  H54  1  0.043000  0.366200  0.108600  1.0  0.0985
  H  H55  1  0.552400  0.810000  0.603200  1.0  0.0976
  H  H56  1  0.510000  0.717500  0.547600  1.0  0.0874
  H  H57  1  0.457000  0.633800  0.608600  1.0  0.0979
  H  H58  1  0.447600  0.310000  0.896800  1.0  0.0974
  H  H59  1  0.490000  0.217500  0.952400  1.0  0.0871
  H  H60  1  0.543000  0.133800  0.891400  1.0  0.0984
  H  H61  1  0.603200  0.947600  0.310000  1.0  0.0976
  H  H62  1  0.547600  0.990000  0.217500  1.0  0.0881
  H  H63  1  0.608600  0.043000  0.133800  1.0  0.0973
  H  H64  1  0.896800  0.052400  0.810000  1.0  0.0973
  H  H65  1  0.952400  0.010000  0.717500  1.0  0.0875
  H  H66  1  0.891400  0.957000  0.633800  1.0  0.098
  H  H67  1  0.396800  0.447600  0.190000  1.0  0.0977
  H  H68  1  0.452400  0.490000  0.282500  1.0  0.0873
  H  H69  1  0.391400  0.543000  0.366200  1.0  0.0983
  H  H70  1  0.103200  0.552400  0.690000  1.0  0.0976
  H  H71  1  0.047600  0.510000  0.782500  1.0  0.0884
  H  H72  1  0.108600  0.457000  0.866200  1.0  0.0985
  H  H73  1  0.310000  0.603200  0.947600  1.0  0.097
  H  H74  1  0.217500  0.547600  0.990000  1.0  0.0888
  H  H75  1  0.133800  0.608600  0.043000  1.0  0.098
  H  H76  1  0.810000  0.896800  0.052400  1.0  0.0967
  H  H77  1  0.717500  0.952400  0.010000  1.0  0.0891
  H  H78  1  0.633800  0.891400  0.957000  1.0  0.0978
  H  H79  1  0.190000  0.396800  0.447600  1.0  0.0967
  H  H80  1  0.282500  0.452400  0.490000  1.0  0.0885
  H  H81  1  0.366200  0.391400  0.543000  1.0  0.0981
  H  H82  1  0.690000  0.103200  0.552400  1.0  0.0966
  H  H83  1  0.782500  0.047600  0.510000  1.0  0.0884
  H  H84  1  0.866200  0.108600  0.457000  1.0  0.0975
  H  H85  1  0.947600  0.310000  0.603200  1.0  0.0978
  H  H86  1  0.990000  0.217500  0.547600  1.0  0.0873
  H  H87  1  0.043000  0.133800  0.608600  1.0  0.0981
  H  H88  1  0.052400  0.810000  0.896800  1.0  0.0972
  H  H89  1  0.010000  0.717500  0.952400  1.0  0.0872
  H  H90  1  0.957000  0.633800  0.891400  1.0  0.0984
  H  H91  1  0.447600  0.190000  0.396800  1.0  0.0971
  H  H92  1  0.490000  0.282500  0.452400  1.0  0.0871
  H  H93  1  0.543000  0.366200  0.391400  1.0  0.0988
  H  H94  1  0.552400  0.690000  0.103200  1.0  0.0971
  H  H95  1  0.510000  0.782500  0.047600  1.0  0.0875
  H  H96  1  0.457000  0.866200  0.108600  1.0  0.0982
  C  C97  1  0.262900  0.051500  0.665700  1.0  0.6608
  C  C98  1  0.306000  0.025700  0.721900  1.0  0.0568
  C  C99  1  0.373100  0.031500  0.724700  1.0  -0.1346
  C  C100  1  0.405800  0.006200  0.779100  1.0  -0.1021
  C  C101  1  0.370000  0.975300  0.828700  1.0  -0.1311
  C  C102  1  0.302000  0.971900  0.821700  1.0  0.0598
  C  C103  1  0.258000  0.939600  0.871800  1.0  0.6745
  C  C104  1  0.237100  0.948500  0.165700  1.0  0.6606
  C  C105  1  0.194000  0.974300  0.221900  1.0  0.0586
  C  C106  1  0.126900  0.968500  0.224700  1.0  -0.1341
  C  C107  1  0.094200  0.993800  0.279100  1.0  -0.1039
  C  C108  1  0.130000  0.024700  0.328700  1.0  -0.1319
  C  C109  1  0.198000  0.028100  0.321700  1.0  0.0596
  C  C110  1  0.242000  0.060400  0.371800  1.0  0.6751
  C  C111  1  0.737100  0.551500  0.834300  1.0  0.6597
  C  C112  1  0.694000  0.525700  0.778100  1.0  0.0582
  C  C113  1  0.626900  0.531500  0.775300  1.0  -0.1347
  C  C114  1  0.594200  0.506200  0.720900  1.0  -0.1031
  C  C115  1  0.630000  0.475300  0.671300  1.0  -0.1306
  C  C116  1  0.698000  0.471900  0.678300  1.0  0.0596
  C  C117  1  0.742000  0.439600  0.628200  1.0  0.6741
  C  C118  1  0.762900  0.448500  0.334300  1.0  0.6601
  C  C119  1  0.806000  0.474300  0.278100  1.0  0.0573
  C  C120  1  0.873100  0.468500  0.275300  1.0  -0.1336
  C  C121  1  0.905800  0.493800  0.220900  1.0  -0.1027
  C  C122  1  0.870000  0.524700  0.171300  1.0  -0.1302
  C  C123  1  0.802000  0.528100  0.178300  1.0  0.0596
  C  C124  1  0.758000  0.560400  0.128200  1.0  0.6741
  C  C125  1  0.665700  0.262900  0.051500  1.0  0.6617
  C  C126  1  0.721900  0.306000  0.025700  1.0  0.0556
  C  C127  1  0.724700  0.373100  0.031500  1.0  -0.1324
  C  C128  1  0.779100  0.405800  0.006200  1.0  -0.1042
  C  C129  1  0.828700  0.370000  0.975300  1.0  -0.1274
  C  C130  1  0.821700  0.302000  0.971900  1.0  0.0594
  C  C131  1  0.871800  0.258000  0.939600  1.0  0.673
  C  C132  1  0.165700  0.237100  0.948500  1.0  0.6612
  C  C133  1  0.221900  0.194000  0.974300  1.0  0.0555
  C  C134  1  0.224700  0.126900  0.968500  1.0  -0.1335
  C  C135  1  0.279100  0.094200  0.993800  1.0  -0.1043
  C  C136  1  0.328700  0.130000  0.024700  1.0  -0.1268
  C  C137  1  0.321700  0.198000  0.028100  1.0  0.0595
  C  C138  1  0.371800  0.242000  0.060400  1.0  0.6726
  C  C139  1  0.834300  0.737100  0.551500  1.0  0.6594
  C  C140  1  0.778100  0.694000  0.525700  1.0  0.0563
  C  C141  1  0.775300  0.626900  0.531500  1.0  -0.1315
  C  C142  1  0.720900  0.594200  0.506200  1.0  -0.1041
  C  C143  1  0.671300  0.630000  0.475300  1.0  -0.1285
  C  C144  1  0.678300  0.698000  0.471900  1.0  0.0594
  C  C145  1  0.628200  0.742000  0.439600  1.0  0.6702
  C  C146  1  0.334300  0.762900  0.448500  1.0  0.6603
  C  C147  1  0.278100  0.806000  0.474300  1.0  0.0566
  C  C148  1  0.275300  0.873100  0.468500  1.0  -0.1314
  C  C149  1  0.220900  0.905800  0.493800  1.0  -0.1045
  C  C150  1  0.171300  0.870000  0.524700  1.0  -0.1275
  C  C151  1  0.178300  0.802000  0.528100  1.0  0.0595
  C  C152  1  0.128200  0.758000  0.560400  1.0  0.6702
  C  C153  1  0.051500  0.665700  0.262900  1.0  0.66
  C  C154  1  0.025700  0.721900  0.306000  1.0  0.0575
  C  C155  1  0.031500  0.724700  0.373100  1.0  -0.1343
  C  C156  1  0.006200  0.779100  0.405800  1.0  -0.1024
  C  C157  1  0.975300  0.828700  0.370000  1.0  -0.1312
  C  C158  1  0.971900  0.821700  0.302000  1.0  0.0613
  C  C159  1  0.939600  0.871800  0.258000  1.0  0.6741
  C  C160  1  0.948500  0.165700  0.237100  1.0  0.6613
  C  C161  1  0.974300  0.221900  0.194000  1.0  0.0572
  C  C162  1  0.968500  0.224700  0.126900  1.0  -0.1353
  C  C163  1  0.993800  0.279100  0.094200  1.0  -0.1013
  C  C164  1  0.024700  0.328700  0.130000  1.0  -0.1294
  C  C165  1  0.028100  0.321700  0.198000  1.0  0.0595
  C  C166  1  0.060400  0.371800  0.242000  1.0  0.6747
  C  C167  1  0.551500  0.834300  0.737100  1.0  0.6594
  C  C168  1  0.525700  0.778100  0.694000  1.0  0.0568
  C  C169  1  0.531500  0.775300  0.626900  1.0  -0.1337
  C  C170  1  0.506200  0.720900  0.594200  1.0  -0.1024
  C  C171  1  0.475300  0.671300  0.630000  1.0  -0.1296
  C  C172  1  0.471900  0.678300  0.698000  1.0  0.0603
  C  C173  1  0.439600  0.628200  0.742000  1.0  0.6751
  C  C174  1  0.448500  0.334300  0.762900  1.0  0.6599
  C  C175  1  0.474300  0.278100  0.806000  1.0  0.0575
  C  C176  1  0.468500  0.275300  0.873100  1.0  -0.1347
  C  C177  1  0.493800  0.220900  0.905800  1.0  -0.1019
  C  C178  1  0.524700  0.171300  0.870000  1.0  -0.1305
  C  C179  1  0.528100  0.178300  0.802000  1.0  0.0606
  C  C180  1  0.560400  0.128200  0.758000  1.0  0.6743
  C  C181  1  0.737100  0.948500  0.334300  1.0  0.6601
  C  C182  1  0.694000  0.974300  0.278100  1.0  0.0587
  C  C183  1  0.626900  0.968500  0.275300  1.0  -0.1346
  C  C184  1  0.594200  0.993800  0.220900  1.0  -0.1039
  C  C185  1  0.630000  0.024700  0.171300  1.0  -0.1303
  C  C186  1  0.698000  0.028100  0.178300  1.0  0.0594
  C  C187  1  0.742000  0.060400  0.128200  1.0  0.6748
  C  C188  1  0.762900  0.051500  0.834300  1.0  0.6593
  C  C189  1  0.806000  0.025700  0.778100  1.0  0.057
  C  C190  1  0.873100  0.031500  0.775300  1.0  -0.1335
  C  C191  1  0.905800  0.006200  0.720900  1.0  -0.1022
  C  C192  1  0.870000  0.975300  0.671300  1.0  -0.1306
  C  C193  1  0.802000  0.971900  0.678300  1.0  0.0593
  C  C194  1  0.758000  0.939600  0.628200  1.0  0.6742
  C  C195  1  0.262900  0.448500  0.165700  1.0  0.6608
  C  C196  1  0.306000  0.474300  0.221900  1.0  0.0573
  C  C197  1  0.373100  0.468500  0.224700  1.0  -0.1345
  C  C198  1  0.405800  0.493800  0.279100  1.0  -0.1025
  C  C199  1  0.370000  0.524700  0.328700  1.0  -0.1313
  C  C200  1  0.302000  0.528100  0.321700  1.0  0.0602
  C  C201  1  0.258000  0.560400  0.371800  1.0  0.6737
  C  C202  1  0.237100  0.551500  0.665700  1.0  0.6608
  C  C203  1  0.194000  0.525700  0.721900  1.0  0.0578
  C  C204  1  0.126900  0.531500  0.724700  1.0  -0.1342
  C  C205  1  0.094200  0.506200  0.779100  1.0  -0.1032
  C  C206  1  0.130000  0.475300  0.828700  1.0  -0.1313
  C  C207  1  0.198000  0.471900  0.821700  1.0  0.0598
  C  C208  1  0.242000  0.439600  0.871800  1.0  0.6753
  C  C209  1  0.334300  0.737100  0.948500  1.0  0.6597
  C  C210  1  0.278100  0.694000  0.974300  1.0  0.056
  C  C211  1  0.275300  0.626900  0.968500  1.0  -0.1324
  C  C212  1  0.220900  0.594200  0.993800  1.0  -0.1044
  C  C213  1  0.171300  0.630000  0.024700  1.0  -0.1273
  C  C214  1  0.178300  0.698000  0.028100  1.0  0.0599
  C  C215  1  0.128200  0.742000  0.060400  1.0  0.6688
  C  C216  1  0.834300  0.762900  0.051500  1.0  0.6602
  C  C217  1  0.778100  0.806000  0.025700  1.0  0.057
  C  C218  1  0.775300  0.873100  0.031500  1.0  -0.1308
  C  C219  1  0.720900  0.905800  0.006200  1.0  -0.1042
  C  C220  1  0.671300  0.870000  0.975300  1.0  -0.1285
  C  C221  1  0.678300  0.802000  0.971900  1.0  0.0591
  C  C222  1  0.628200  0.758000  0.939600  1.0  0.6706
  C  C223  1  0.165700  0.262900  0.448500  1.0  0.6619
  C  C224  1  0.221900  0.306000  0.474300  1.0  0.0553
  C  C225  1  0.224700  0.373100  0.468500  1.0  -0.1331
  C  C226  1  0.279100  0.405800  0.493800  1.0  -0.1044
  C  C227  1  0.328700  0.370000  0.524700  1.0  -0.1265
  C  C228  1  0.321700  0.302000  0.528100  1.0  0.0595
  C  C229  1  0.371800  0.258000  0.560400  1.0  0.6736
  C  C230  1  0.665700  0.237100  0.551500  1.0  0.6607
  C  C231  1  0.721900  0.194000  0.525700  1.0  0.0556
  C  C232  1  0.724700  0.126900  0.531500  1.0  -0.1327
  C  C233  1  0.779100  0.094200  0.506200  1.0  -0.1042
  C  C234  1  0.828700  0.130000  0.475300  1.0  -0.1278
  C  C235  1  0.821700  0.198000  0.471900  1.0  0.0592
  C  C236  1  0.871800  0.242000  0.439600  1.0  0.673
  C  C237  1  0.948500  0.334300  0.737100  1.0  0.6591
  C  C238  1  0.974300  0.278100  0.694000  1.0  0.0568
  C  C239  1  0.968500  0.275300  0.626900  1.0  -0.1347
  C  C240  1  0.993800  0.220900  0.594200  1.0  -0.1012
  C  C241  1  0.024700  0.171300  0.630000  1.0  -0.129
  C  C242  1  0.028100  0.178300  0.698000  1.0  0.0599
  C  C243  1  0.060400  0.128200  0.742000  1.0  0.6755
  C  C244  1  0.051500  0.834300  0.762900  1.0  0.6596
  C  C245  1  0.025700  0.778100  0.806000  1.0  0.0575
  C  C246  1  0.031500  0.775300  0.873100  1.0  -0.1335
  C  C247  1  0.006200  0.720900  0.905800  1.0  -0.1025
  C  C248  1  0.975300  0.671300  0.870000  1.0  -0.1308
  C  C249  1  0.971900  0.678300  0.802000  1.0  0.0605
  C  C250  1  0.939600  0.628200  0.758000  1.0  0.6745
  C  C251  1  0.448500  0.165700  0.262900  1.0  0.6607
  C  C252  1  0.474300  0.221900  0.306000  1.0  0.0572
  C  C253  1  0.468500  0.224700  0.373100  1.0  -0.135
  C  C254  1  0.493800  0.279100  0.405800  1.0  -0.1017
  C  C255  1  0.524700  0.328700  0.370000  1.0  -0.1308
  C  C256  1  0.528100  0.321700  0.302000  1.0  0.0607
  C  C257  1  0.560400  0.371800  0.258000  1.0  0.674
  C  C258  1  0.551500  0.665700  0.237100  1.0  0.6613
  C  C259  1  0.525700  0.721900  0.194000  1.0  0.0576
  C  C260  1  0.531500  0.724700  0.126900  1.0  -0.1349
  C  C261  1  0.506200  0.779100  0.094200  1.0  -0.1025
  C  C262  1  0.475300  0.828700  0.130000  1.0  -0.1299
  C  C263  1  0.471900  0.821700  0.198000  1.0  0.0605
  C  C264  1  0.439600  0.871800  0.242000  1.0  0.6741
  N  N265  1  0.270000  0.994900  0.769200  1.0  -0.4961
  N  N266  1  0.230000  0.005100  0.269200  1.0  -0.4974
  N  N267  1  0.730000  0.494900  0.730800  1.0  -0.497
  N  N268  1  0.770000  0.505100  0.230800  1.0  -0.496
  N  N269  1  0.769200  0.270000  0.994900  1.0  -0.4949
  N  N270  1  0.269200  0.230000  0.005100  1.0  -0.496
  N  N271  1  0.730800  0.730000  0.494900  1.0  -0.496
  N  N272  1  0.230800  0.770000  0.505100  1.0  -0.4939
  N  N273  1  0.994900  0.769200  0.270000  1.0  -0.5013
  N  N274  1  0.005100  0.269200  0.230000  1.0  -0.5015
  N  N275  1  0.494900  0.730800  0.730000  1.0  -0.5019
  N  N276  1  0.505100  0.230800  0.770000  1.0  -0.5007
  N  N277  1  0.730000  0.005100  0.230800  1.0  -0.4972
  N  N278  1  0.770000  0.994900  0.730800  1.0  -0.4959
  N  N279  1  0.270000  0.505100  0.269200  1.0  -0.4962
  N  N280  1  0.230000  0.494900  0.769200  1.0  -0.4971
  N  N281  1  0.230800  0.730000  0.005100  1.0  -0.4958
  N  N282  1  0.730800  0.770000  0.994900  1.0  -0.4942
  N  N283  1  0.269200  0.270000  0.505100  1.0  -0.4944
  N  N284  1  0.769200  0.230000  0.494900  1.0  -0.4963
  N  N285  1  0.005100  0.230800  0.730000  1.0  -0.5012
  N  N286  1  0.994900  0.730800  0.770000  1.0  -0.5009
  N  N287  1  0.505100  0.269200  0.270000  1.0  -0.501
  N  N288  1  0.494900  0.769200  0.230000  1.0  -0.5021
  O  O289  1  0.289100  0.087400  0.623700  1.0  -0.7888
  O  O290  1  0.202950  0.033700  0.667600  1.0  -0.6964
  O  O291  1  0.282500  0.917700  0.923800  1.0  -0.7314
  O  O292  1  0.196530  0.935800  0.856540  1.0  -0.7316
  O  O293  1  0.210900  0.912600  0.123700  1.0  -0.7886
  O  O294  1  0.297050  0.966300  0.167600  1.0  -0.6972
  O  O295  1  0.217500  0.082300  0.423800  1.0  -0.7327
  O  O296  1  0.303470  0.064200  0.356540  1.0  -0.7318
  O  O297  1  0.710900  0.587400  0.876300  1.0  -0.7876
  O  O298  1  0.797050  0.533700  0.832400  1.0  -0.6973
  O  O299  1  0.717500  0.417700  0.576200  1.0  -0.7341
  O  O300  1  0.803470  0.435800  0.643460  1.0  -0.7314
  O  O301  1  0.789100  0.412600  0.376300  1.0  -0.7891
  O  O302  1  0.702950  0.466300  0.332400  1.0  -0.6972
  O  O303  1  0.782500  0.582300  0.076200  1.0  -0.7343
  O  O304  1  0.696530  0.564200  0.143460  1.0  -0.7312
  O  O305  1  0.623700  0.289100  0.087400  1.0  -0.7892
  O  O306  1  0.667600  0.202950  0.033700  1.0  -0.6952
  O  O307  1  0.923800  0.282500  0.917700  1.0  -0.7351
  O  O308  1  0.856540  0.196530  0.935800  1.0  -0.7308
  O  O309  1  0.123700  0.210900  0.912600  1.0  -0.7898
  O  O310  1  0.167600  0.297050  0.966300  1.0  -0.6958
  O  O311  1  0.423800  0.217500  0.082300  1.0  -0.734
  O  O312  1  0.356540  0.303470  0.064200  1.0  -0.7312
  O  O313  1  0.876300  0.710900  0.587400  1.0  -0.7901
  O  O314  1  0.832400  0.797050  0.533700  1.0  -0.6948
  O  O315  1  0.576200  0.717500  0.417700  1.0  -0.7349
  O  O316  1  0.643460  0.803470  0.435800  1.0  -0.729
  O  O317  1  0.376300  0.789100  0.412600  1.0  -0.7887
  O  O318  1  0.332400  0.702950  0.466300  1.0  -0.6956
  O  O319  1  0.076200  0.782500  0.582300  1.0  -0.7336
  O  O320  1  0.143460  0.696530  0.564200  1.0  -0.7288
  O  O321  1  0.087400  0.623700  0.289100  1.0  -0.7882
  O  O322  1  0.033700  0.667600  0.202950  1.0  -0.6976
  O  O323  1  0.917700  0.923800  0.282500  1.0  -0.7321
  O  O324  1  0.935800  0.856540  0.196530  1.0  -0.7326
  O  O325  1  0.912600  0.123700  0.210900  1.0  -0.7888
  O  O326  1  0.966300  0.167600  0.297050  1.0  -0.698
  O  O327  1  0.082300  0.423800  0.217500  1.0  -0.7311
  O  O328  1  0.064200  0.356540  0.303470  1.0  -0.7322
  O  O329  1  0.587400  0.876300  0.710900  1.0  -0.7886
  O  O330  1  0.533700  0.832400  0.797050  1.0  -0.6988
  O  O331  1  0.417700  0.576200  0.717500  1.0  -0.7323
  O  O332  1  0.435800  0.643460  0.803470  1.0  -0.7329
  O  O333  1  0.412600  0.376300  0.789100  1.0  -0.7881
  O  O334  1  0.466300  0.332400  0.702950  1.0  -0.6987
  O  O335  1  0.582300  0.076200  0.782500  1.0  -0.7322
  O  O336  1  0.564200  0.143460  0.696530  1.0  -0.732
  O  O337  1  0.710900  0.912600  0.376300  1.0  -0.7875
  O  O338  1  0.797050  0.966300  0.332400  1.0  -0.6974
  O  O339  1  0.717500  0.082300  0.076200  1.0  -0.7348
  O  O340  1  0.803470  0.064200  0.143460  1.0  -0.7314
  O  O341  1  0.789100  0.087400  0.876300  1.0  -0.7893
  O  O342  1  0.702950  0.033700  0.832400  1.0  -0.6967
  O  O343  1  0.782500  0.917700  0.576200  1.0  -0.7339
  O  O344  1  0.696530  0.935800  0.643460  1.0  -0.7315
  O  O345  1  0.289100  0.412600  0.123700  1.0  -0.7896
  O  O346  1  0.202950  0.466300  0.167600  1.0  -0.6966
  O  O347  1  0.282500  0.582300  0.423800  1.0  -0.7323
  O  O348  1  0.196530  0.564200  0.356540  1.0  -0.7319
  O  O349  1  0.210900  0.587400  0.623700  1.0  -0.7878
  O  O350  1  0.297050  0.533700  0.667600  1.0  -0.697
  O  O351  1  0.217500  0.417700  0.923800  1.0  -0.7315
  O  O352  1  0.303470  0.435800  0.856540  1.0  -0.7315
  O  O353  1  0.376300  0.710900  0.912600  1.0  -0.7896
  O  O354  1  0.332400  0.797050  0.966300  1.0  -0.6951
  O  O355  1  0.076200  0.717500  0.082300  1.0  -0.7335
  O  O356  1  0.143460  0.803470  0.064200  1.0  -0.7299
  O  O357  1  0.876300  0.789100  0.087400  1.0  -0.7892
  O  O358  1  0.832400  0.702950  0.033700  1.0  -0.6955
  O  O359  1  0.576200  0.782500  0.917700  1.0  -0.7349
  O  O360  1  0.643460  0.696530  0.935800  1.0  -0.7291
  O  O361  1  0.123700  0.289100  0.412600  1.0  -0.789
  O  O362  1  0.167600  0.202950  0.466300  1.0  -0.6952
  O  O363  1  0.423800  0.282500  0.582300  1.0  -0.7341
  O  O364  1  0.356540  0.196530  0.564200  1.0  -0.7307
  O  O365  1  0.623700  0.210900  0.587400  1.0  -0.7896
  O  O366  1  0.667600  0.297050  0.533700  1.0  -0.6956
  O  O367  1  0.923800  0.217500  0.417700  1.0  -0.735
  O  O368  1  0.856540  0.303470  0.435800  1.0  -0.73
  O  O369  1  0.912600  0.376300  0.710900  1.0  -0.789
  O  O370  1  0.966300  0.332400  0.797050  1.0  -0.6993
  O  O371  1  0.082300  0.076200  0.717500  1.0  -0.732
  O  O372  1  0.064200  0.143460  0.803470  1.0  -0.7324
  O  O373  1  0.087400  0.876300  0.789100  1.0  -0.7878
  O  O374  1  0.033700  0.832400  0.702950  1.0  -0.6979
  O  O375  1  0.917700  0.576200  0.782500  1.0  -0.7325
  O  O376  1  0.935800  0.643460  0.696530  1.0  -0.7323
  O  O377  1  0.412600  0.123700  0.289100  1.0  -0.7885
  O  O378  1  0.466300  0.167600  0.202950  1.0  -0.6982
  O  O379  1  0.582300  0.423800  0.282500  1.0  -0.7314
  O  O380  1  0.564200  0.356540  0.196530  1.0  -0.7323
  O  O381  1  0.587400  0.623700  0.210900  1.0  -0.7886
  O  O382  1  0.533700  0.667600  0.297050  1.0  -0.6975
  O  O383  1  0.417700  0.923800  0.217500  1.0  -0.7319
  O  O384  1  0.435800  0.856540  0.303470  1.0  -0.7327
