# generated using pymatgen
data_KScH6(CO2)6
_symmetry_space_group_name_H-M   'P 1'
_cell_length_a   9.53690000
_cell_length_b   9.15440000
_cell_length_c   13.31310000
_cell_angle_alpha   90.00000000
_cell_angle_beta   90.48300000
_cell_angle_gamma   90.00000000
_symmetry_Int_Tables_number   1
_chemical_formula_structural   KScH6(CO2)6
_chemical_formula_sum   'K2 Sc2 H12 C12 O24'
_cell_volume   1162.25353676
_cell_formula_units_Z   2
loop_
 _symmetry_equiv_pos_site_id
 _symmetry_equiv_pos_as_xyz
  1  'x, y, z'
loop_
 _atom_site_type_symbol
 _atom_site_label
 _atom_site_symmetry_multiplicity
 _atom_site_fract_x
 _atom_site_fract_y
 _atom_site_fract_z
 _atom_site_occupancy
 _atom_site_charge
  K  K1  1  0.500000  0.500000  0.500000  1.0  0.8279
  K  K2  1  0.000000  0.000000  0.000000  1.0  0.8279
  Sc  Sc3  1  0.000000  0.000000  0.500000  1.0  1.9571
  Sc  Sc4  1  0.500000  0.500000  0.000000  1.0  1.9571
  H  H5  1  0.803200  0.699400  0.506100  1.0  0.035
  H  H6  1  0.715900  0.178200  0.500000  1.0  0.0242
  H  H7  1  0.441400  0.484200  0.759500  1.0  0.0442
  H  H8  1  0.696800  0.199400  0.993900  1.0  0.0333
  H  H9  1  0.784100  0.678200  0.000000  1.0  0.0228
  H  H10  1  0.058600  0.984200  0.740500  1.0  0.0472
  H  H11  1  0.196800  0.300600  0.493900  1.0  0.0338
  H  H12  1  0.284100  0.821800  0.500000  1.0  0.0239
  H  H13  1  0.558600  0.515800  0.240500  1.0  0.0467
  H  H14  1  0.303200  0.800600  0.006100  1.0  0.0347
  H  H15  1  0.215900  0.321800  0.000000  1.0  0.0236
  H  H16  1  0.941400  0.015800  0.259500  1.0  0.0445
  C  C17  1  0.754450  0.772330  0.471940  1.0  0.6394
  C  C18  1  0.778790  0.242190  0.470210  1.0  0.7122
  C  C19  1  0.534670  0.512230  0.766510  1.0  0.711
  C  C20  1  0.745550  0.272330  0.028060  1.0  0.641
  C  C21  1  0.721210  0.742190  0.029790  1.0  0.712
  C  C22  1  0.965330  0.012230  0.733490  1.0  0.7102
  C  C23  1  0.245550  0.227670  0.528060  1.0  0.6426
  C  C24  1  0.221210  0.757810  0.529790  1.0  0.7121
  C  C25  1  0.465330  0.487770  0.233490  1.0  0.711
  C  C26  1  0.254450  0.727670  0.971940  1.0  0.6408
  C  C27  1  0.278790  0.257810  0.970210  1.0  0.7128
  C  C28  1  0.034670  0.987770  0.266510  1.0  0.712
  O  O29  1  0.819710  0.889680  0.455330  1.0  -0.6221
  O  O30  1  0.633670  0.745200  0.447540  1.0  -0.5841
  O  O31  1  0.903280  0.196420  0.458440  1.0  -0.5858
  O  O32  1  0.733910  0.361790  0.446200  1.0  -0.5927
  O  O33  1  0.582360  0.520590  0.855360  1.0  -0.5984
  O  O34  1  0.597530  0.536800  0.689470  1.0  -0.5765
  O  O35  1  0.680290  0.389680  0.044670  1.0  -0.6238
  O  O36  1  0.866330  0.245200  0.052460  1.0  -0.581
  O  O37  1  0.596720  0.696420  0.041560  1.0  -0.5872
  O  O38  1  0.766090  0.861790  0.053800  1.0  -0.5941
  O  O39  1  0.917640  0.020590  0.644640  1.0  -0.5975
  O  O40  1  0.902470  0.036800  0.810530  1.0  -0.5758
  O  O41  1  0.180290  0.110320  0.544670  1.0  -0.6238
  O  O42  1  0.366330  0.254800  0.552460  1.0  -0.5809
  O  O43  1  0.096720  0.803580  0.541560  1.0  -0.5863
  O  O44  1  0.266090  0.638210  0.553800  1.0  -0.5955
  O  O45  1  0.417640  0.479410  0.144640  1.0  -0.5977
  O  O46  1  0.402470  0.463200  0.310530  1.0  -0.5756
  O  O47  1  0.319710  0.610320  0.955330  1.0  -0.6218
  O  O48  1  0.133670  0.754800  0.947540  1.0  -0.5841
  O  O49  1  0.403280  0.303580  0.958440  1.0  -0.5855
  O  O50  1  0.233910  0.138210  0.946200  1.0  -0.5954
  O  O51  1  0.082360  0.979410  0.355360  1.0  -0.5985
  O  O52  1  0.097530  0.963200  0.189470  1.0  -0.5769
