# generated using pymatgen
data_Cd5H12(C3O2)12
_symmetry_space_group_name_H-M   'P 1'
_cell_length_a   10.20080000
_cell_length_b   20.44940000
_cell_length_c   20.58930000
_cell_angle_alpha   88.58900000
_cell_angle_beta   76.39500000
_cell_angle_gamma   87.03300000
_symmetry_Int_Tables_number   1
_chemical_formula_structural   Cd5H12(C3O2)12
_chemical_formula_sum   'Cd10 H24 C72 O48'
_cell_volume   4168.48051757
_cell_formula_units_Z   2
loop_
 _symmetry_equiv_pos_site_id
 _symmetry_equiv_pos_as_xyz
  1  'x, y, z'
loop_
 _atom_site_type_symbol
 _atom_site_label
 _atom_site_symmetry_multiplicity
 _atom_site_fract_x
 _atom_site_fract_y
 _atom_site_fract_z
 _atom_site_occupancy
 _atom_site_charge
  Cd  Cd1  1  0.984130  0.365660  0.339260  1.0  1.1238
  Cd  Cd2  1  0.453960  0.778970  0.035170  1.0  1.1049
  Cd  Cd3  1  0.134730  0.842380  0.133640  1.0  1.0944
  Cd  Cd4  1  0.346140  0.994090  0.506050  1.0  1.0209
  Cd  Cd5  1  0.729490  0.468020  0.279480  1.0  1.0546
  Cd  Cd6  1  0.015870  0.634340  0.660740  1.0  1.1213
  Cd  Cd7  1  0.546040  0.221030  0.964820  1.0  1.1056
  Cd  Cd8  1  0.865270  0.157620  0.866360  1.0  1.0946
  Cd  Cd9  1  0.653860  0.005910  0.493950  1.0  1.0258
  Cd  Cd10  1  0.270510  0.531980  0.720520  1.0  1.0548
  H  H11  1  0.670700  0.205700  0.399900  1.0  0.1295
  H  H12  1  0.278600  0.189600  0.405900  1.0  0.1322
  H  H13  1  0.454900  0.358900  0.346900  1.0  0.1336
  H  H14  1  0.164800  0.320300  0.116100  1.0  0.1348
  H  H15  1  0.052100  0.232400  0.967000  1.0  0.1265
  H  H16  1  0.774700  0.324300  0.111200  1.0  0.1299
  H  H17  1  0.051500  0.628400  0.211700  1.0  0.139
  H  H18  1  0.454200  0.623700  0.182000  1.0  0.1319
  H  H19  1  0.245400  0.475000  0.279400  1.0  0.1369
  H  H20  1  0.657000  0.858700  0.136600  1.0  0.1275
  H  H21  1  0.742900  0.918400  0.305100  1.0  0.1363
  H  H22  1  0.357600  0.910300  0.293400  1.0  0.1293
  H  H23  1  0.329300  0.794300  0.600100  1.0  0.1291
  H  H24  1  0.721400  0.810400  0.594100  1.0  0.1324
  H  H25  1  0.545100  0.641100  0.653100  1.0  0.1341
  H  H26  1  0.835200  0.679700  0.883900  1.0  0.1349
  H  H27  1  0.947900  0.767600  0.033000  1.0  0.1266
  H  H28  1  0.225300  0.675700  0.888800  1.0  0.1311
  H  H29  1  0.948500  0.371600  0.788300  1.0  0.139
  H  H30  1  0.545800  0.376300  0.818000  1.0  0.1319
  H  H31  1  0.754600  0.525000  0.720600  1.0  0.137
  H  H32  1  0.343000  0.141300  0.863400  1.0  0.1275
  H  H33  1  0.257100  0.081600  0.694900  1.0  0.1361
  H  H34  1  0.642400  0.089700  0.706600  1.0  0.1302
  C  C35  1  0.705900  0.327900  0.358900  1.0  0.7134
  C  C36  1  0.582000  0.288300  0.371000  1.0  -0.1428
  C  C37  1  0.588900  0.224200  0.394200  1.0  0.0598
  C  C38  1  0.474200  0.187400  0.409100  1.0  -0.1433
  C  C39  1  0.354900  0.214300  0.397100  1.0  0.0717
  C  C40  1  0.347200  0.277500  0.372300  1.0  -0.1401
  C  C41  1  0.460700  0.315500  0.361000  1.0  0.035
  C  C42  1  0.480200  0.120300  0.440100  1.0  0.7475
  C  C43  1  0.215200  0.306100  0.360300  1.0  0.6936
  C  C44  1  0.925900  0.361800  0.190800  1.0  0.7849
  C  C45  1  0.963500  0.327300  0.124400  1.0  -0.1435
  C  C46  1  0.097300  0.309400  0.095400  1.0  0.0491
  C  C47  1  0.131100  0.275400  0.035400  1.0  -0.1335
  C  C48  1  0.030000  0.256400  0.006200  1.0  0.0423
  C  C49  1  0.895200  0.273200  0.035500  1.0  -0.1543
  C  C50  1  0.863900  0.310500  0.093300  1.0  0.0649
  C  C51  1  0.277500  0.257200  0.005500  1.0  0.6976
  C  C52  1  0.782200  0.250100  0.007600  1.0  0.7181
  C  C53  1  0.995100  0.514700  0.269900  1.0  0.7514
  C  C54  1  0.129300  0.546500  0.248000  1.0  -0.0913
  C  C55  1  0.131600  0.607300  0.216500  1.0  0.0457
  C  C56  1  0.253700  0.636700  0.192200  1.0  -0.1483
  C  C57  1  0.372200  0.604900  0.199700  1.0  0.0666
  C  C58  1  0.370200  0.545200  0.233200  1.0  -0.1412
  C  C59  1  0.247600  0.515300  0.257300  1.0  0.0479
  C  C60  1  0.258000  0.703200  0.158400  1.0  0.7577
  C  C61  1  0.500800  0.514600  0.244300  1.0  0.7171
  C  C62  1  0.388900  0.870500  0.168700  1.0  0.6922
  C  C63  1  0.490900  0.882900  0.208600  1.0  -0.1373
  C  C64  1  0.628200  0.873600  0.180200  1.0  0.0328
  C  C65  1  0.722500  0.886100  0.216400  1.0  -0.1398
  C  C66  1  0.679700  0.908900  0.281100  1.0  0.0596
  C  C67  1  0.542000  0.917600  0.310500  1.0  -0.1508
  C  C68  1  0.449300  0.904500  0.273900  1.0  0.0686
  C  C69  1  0.871400  0.874100  0.186600  1.0  0.6492
  C  C70  1  0.496800  0.943000  0.380700  1.0  0.7544
  C  C71  1  0.294100  0.672100  0.641100  1.0  0.7121
  C  C72  1  0.418000  0.711700  0.629000  1.0  -0.1436
  C  C73  1  0.411100  0.775800  0.605800  1.0  0.059
  C  C74  1  0.525800  0.812600  0.590900  1.0  -0.1425
  C  C75  1  0.645100  0.785700  0.602900  1.0  0.0708
  C  C76  1  0.652800  0.722500  0.627700  1.0  -0.1402
  C  C77  1  0.539300  0.684500  0.639000  1.0  0.0355
  C  C78  1  0.519800  0.879700  0.559900  1.0  0.7476
  C  C79  1  0.784800  0.693900  0.639700  1.0  0.6917
  C  C80  1  0.074100  0.638200  0.809200  1.0  0.7838
  C  C81  1  0.036500  0.672700  0.875600  1.0  -0.1435
  C  C82  1  0.902700  0.690600  0.904600  1.0  0.048
  C  C83  1  0.868900  0.724600  0.964600  1.0  -0.1337
  C  C84  1  0.970000  0.743600  0.993800  1.0  0.0427
  C  C85  1  0.104800  0.726800  0.964500  1.0  -0.1537
  C  C86  1  0.136100  0.689500  0.906700  1.0  0.0657
  C  C87  1  0.722500  0.742800  0.994500  1.0  0.6994
  C  C88  1  0.217800  0.749900  0.992400  1.0  0.7184
  C  C89  1  0.004900  0.485300  0.730100  1.0  0.7517
  C  C90  1  0.870700  0.453500  0.752000  1.0  -0.0914
  C  C91  1  0.868400  0.392700  0.783500  1.0  0.0469
  C  C92  1  0.746300  0.363300  0.807800  1.0  -0.1482
  C  C93  1  0.627800  0.395100  0.800300  1.0  0.0643
  C  C94  1  0.629800  0.454800  0.766800  1.0  -0.1418
  C  C95  1  0.752400  0.484700  0.742700  1.0  0.0476
  C  C96  1  0.742000  0.296800  0.841600  1.0  0.7576
  C  C97  1  0.499200  0.485400  0.755700  1.0  0.718
  C  C98  1  0.611100  0.129500  0.831300  1.0  0.6926
  C  C99  1  0.509100  0.117100  0.791400  1.0  -0.1379
  C  C100  1  0.371800  0.126400  0.819800  1.0  0.0331
  C  C101  1  0.277500  0.113900  0.783600  1.0  -0.1403
  C  C102  1  0.320300  0.091100  0.718900  1.0  0.0599
  C  C103  1  0.458000  0.082400  0.689500  1.0  -0.1494
  C  C104  1  0.550700  0.095500  0.726100  1.0  0.0693
  C  C105  1  0.128600  0.125900  0.813400  1.0  0.6513
  C  C106  1  0.503200  0.057000  0.619300  1.0  0.7529
  O  O107  1  0.147300  0.735700  0.163720  1.0  -0.5696
  O  O108  1  0.817400  0.296500  0.353000  1.0  -0.5633
  O  O109  1  0.690700  0.388980  0.359050  1.0  -0.6613
  O  O110  1  0.372400  0.090710  0.454990  1.0  -0.5908
  O  O111  1  0.593100  0.098990  0.449020  1.0  -0.6498
  O  O112  1  0.115600  0.271800  0.372600  1.0  -0.6364
  O  O113  1  0.210600  0.362910  0.337600  1.0  -0.5952
  O  O114  1  0.011100  0.359030  0.225800  1.0  -0.6243
  O  O115  1  0.810900  0.389550  0.205450  1.0  -0.6069
  O  O116  1  0.667700  0.278740  0.024610  1.0  -0.5772
  O  O117  1  0.804900  0.200800  0.970610  1.0  -0.679
  O  O118  1  0.314600  0.240800  0.946160  1.0  -0.5741
  O  O119  1  0.359800  0.258700  0.041200  1.0  -0.5773
  O  O120  1  0.975800  0.475790  0.319040  1.0  -0.6796
  O  O121  1  0.907600  0.529870  0.237460  1.0  -0.5292
  O  O122  1  0.372200  0.720660  0.127980  1.0  -0.63
  O  O123  1  0.610200  0.538700  0.213990  1.0  -0.6148
  O  O124  1  0.498000  0.467830  0.284270  1.0  -0.6038
  O  O125  1  0.429000  0.864140  0.106430  1.0  -0.6541
  O  O126  1  0.268300  0.867800  0.200180  1.0  -0.5418
  O  O127  1  0.372500  0.947610  0.406300  1.0  -0.5585
  O  O128  1  0.586900  0.958450  0.408850  1.0  -0.7357
  O  O129  1  0.953700  0.897400  0.214400  1.0  -0.6164
  O  O130  1  0.907800  0.839900  0.135920  1.0  -0.5712
  O  O131  1  0.852700  0.264300  0.836280  1.0  -0.5725
  O  O132  1  0.182600  0.703500  0.647000  1.0  -0.5635
  O  O133  1  0.309300  0.611020  0.640950  1.0  -0.6622
  O  O134  1  0.627600  0.909290  0.545010  1.0  -0.5895
  O  O135  1  0.406900  0.901010  0.550980  1.0  -0.6487
  O  O136  1  0.884400  0.728200  0.627400  1.0  -0.638
  O  O137  1  0.789400  0.637090  0.662400  1.0  -0.5935
  O  O138  1  0.988900  0.640970  0.774200  1.0  -0.6245
  O  O139  1  0.189100  0.610450  0.794550  1.0  -0.6084
  O  O140  1  0.332300  0.721260  0.975390  1.0  -0.576
  O  O141  1  0.195100  0.799200  0.029390  1.0  -0.6813
  O  O142  1  0.685400  0.759200  0.053840  1.0  -0.5783
  O  O143  1  0.640200  0.741300  0.958800  1.0  -0.5807
  O  O144  1  0.024200  0.524210  0.680960  1.0  -0.6801
  O  O145  1  0.092400  0.470130  0.762540  1.0  -0.5271
  O  O146  1  0.627800  0.279340  0.872020  1.0  -0.6305
  O  O147  1  0.389800  0.461300  0.786010  1.0  -0.6149
  O  O148  1  0.502000  0.532170  0.715730  1.0  -0.6049
  O  O149  1  0.571000  0.135860  0.893570  1.0  -0.6532
  O  O150  1  0.731700  0.132200  0.799820  1.0  -0.5424
  O  O151  1  0.627500  0.052390  0.593700  1.0  -0.5526
  O  O152  1  0.413100  0.041550  0.591150  1.0  -0.7373
  O  O153  1  0.046300  0.102600  0.785600  1.0  -0.6163
  O  O154  1  0.092200  0.160100  0.864080  1.0  -0.5695
