# generated using pymatgen
data_CdH2(C3O2)2
_symmetry_space_group_name_H-M   'P 1'
_cell_length_a   10.41630000
_cell_length_b   10.54200000
_cell_length_c   17.04780000
_cell_angle_alpha   90.00000000
_cell_angle_beta   95.85400000
_cell_angle_gamma   90.00000000
_symmetry_Int_Tables_number   1
_chemical_formula_structural   CdH2(C3O2)2
_chemical_formula_sum   'Cd6 H12 C36 O24'
_cell_volume   1862.23322797
_cell_formula_units_Z   6
loop_
 _symmetry_equiv_pos_site_id
 _symmetry_equiv_pos_as_xyz
  1  'x, y, z'
loop_
 _atom_site_type_symbol
 _atom_site_label
 _atom_site_symmetry_multiplicity
 _atom_site_fract_x
 _atom_site_fract_y
 _atom_site_fract_z
 _atom_site_occupancy
 _atom_site_charge
  Cd  Cd1  1  0.243870  0.225210  0.079650  1.0  0.9843
  Cd  Cd2  1  0.756130  0.725210  0.420350  1.0  0.9849
  Cd  Cd3  1  0.756130  0.774790  0.920350  1.0  0.9833
  Cd  Cd4  1  0.243870  0.274790  0.579650  1.0  0.9857
  Cd  Cd5  1  0.000000  0.000000  0.000000  1.0  1.0799
  Cd  Cd6  1  0.000000  0.500000  0.500000  1.0  1.0792
  H  H7  1  0.963500  0.358500  0.248200  1.0  0.1143
  H  H8  1  0.586900  0.408700  0.263800  1.0  0.1114
  H  H9  1  0.703700  0.217900  0.081700  1.0  0.121
  H  H10  1  0.036500  0.858500  0.251800  1.0  0.1143
  H  H11  1  0.413100  0.908700  0.236200  1.0  0.1118
  H  H12  1  0.296300  0.717900  0.418300  1.0  0.1211
  H  H13  1  0.036500  0.641500  0.751800  1.0  0.1143
  H  H14  1  0.413100  0.591300  0.736200  1.0  0.112
  H  H15  1  0.296300  0.782100  0.918300  1.0  0.1214
  H  H16  1  0.963500  0.141500  0.748200  1.0  0.1143
  H  H17  1  0.586900  0.091300  0.763800  1.0  0.1118
  H  H18  1  0.703700  0.282100  0.581700  1.0  0.1212
  C  C19  1  0.957700  0.231300  0.113700  1.0  0.7146
  C  C20  1  0.851300  0.281300  0.158300  1.0  -0.1847
  C  C21  1  0.878000  0.346300  0.227900  1.0  0.0352
  C  C22  1  0.779700  0.394100  0.268700  1.0  -0.1635
  C  C23  1  0.653300  0.375500  0.237600  1.0  0.0494
  C  C24  1  0.623100  0.308800  0.168400  1.0  -0.1529
  C  C25  1  0.722700  0.262300  0.128600  1.0  0.0324
  C  C26  1  0.484000  0.282900  0.136500  1.0  0.6669
  C  C27  1  0.810100  0.462300  0.346100  1.0  0.7353
  C  C28  1  0.042300  0.731300  0.386300  1.0  0.7133
  C  C29  1  0.148700  0.781300  0.341700  1.0  -0.1847
  C  C30  1  0.122000  0.846300  0.272100  1.0  0.0354
  C  C31  1  0.220300  0.894100  0.231300  1.0  -0.1618
  C  C32  1  0.346700  0.875500  0.262400  1.0  0.0488
  C  C33  1  0.376900  0.808800  0.331600  1.0  -0.1541
  C  C34  1  0.277300  0.762300  0.371400  1.0  0.0332
  C  C35  1  0.516000  0.782900  0.363500  1.0  0.6666
  C  C36  1  0.189900  0.962300  0.153900  1.0  0.7353
  C  C37  1  0.042300  0.768700  0.886300  1.0  0.7141
  C  C38  1  0.148700  0.718700  0.841700  1.0  -0.1849
  C  C39  1  0.122000  0.653700  0.772100  1.0  0.0352
  C  C40  1  0.220300  0.605900  0.731300  1.0  -0.1623
  C  C41  1  0.346700  0.624500  0.762400  1.0  0.0493
  C  C42  1  0.376900  0.691200  0.831600  1.0  -0.1543
  C  C43  1  0.277300  0.737700  0.871400  1.0  0.0323
  C  C44  1  0.516000  0.717100  0.863500  1.0  0.6666
  C  C45  1  0.189900  0.537700  0.653900  1.0  0.7346
  C  C46  1  0.957700  0.268700  0.613700  1.0  0.7146
  C  C47  1  0.851300  0.218700  0.658300  1.0  -0.1848
  C  C48  1  0.878000  0.153700  0.727900  1.0  0.0353
  C  C49  1  0.779700  0.105900  0.768700  1.0  -0.1631
  C  C50  1  0.653300  0.124500  0.737600  1.0  0.0501
  C  C51  1  0.623100  0.191200  0.668400  1.0  -0.153
  C  C52  1  0.722700  0.237700  0.628600  1.0  0.032
  C  C53  1  0.484000  0.217100  0.636500  1.0  0.6666
  C  C54  1  0.810100  0.037700  0.846100  1.0  0.7348
  O  O55  1  0.070100  0.254000  0.142600  1.0  -0.5869
  O  O56  1  0.925300  0.175800  0.049800  1.0  -0.6309
  O  O57  1  0.397100  0.314200  0.179000  1.0  -0.6156
  O  O58  1  0.462900  0.234700  0.070500  1.0  -0.6036
  O  O59  1  0.723500  0.530000  0.368900  1.0  -0.577
  O  O60  1  0.919800  0.442700  0.379700  1.0  -0.5877
  O  O61  1  0.929900  0.754000  0.357400  1.0  -0.5874
  O  O62  1  0.074700  0.675800  0.450200  1.0  -0.6326
  O  O63  1  0.602900  0.814200  0.321000  1.0  -0.6188
  O  O64  1  0.537100  0.734700  0.429500  1.0  -0.6021
  O  O65  1  0.276500  0.030000  0.131100  1.0  -0.5772
  O  O66  1  0.080200  0.942700  0.120300  1.0  -0.5878
  O  O67  1  0.929900  0.746000  0.857400  1.0  -0.5875
  O  O68  1  0.074700  0.824200  0.950200  1.0  -0.6324
  O  O69  1  0.602900  0.685800  0.821000  1.0  -0.6173
  O  O70  1  0.537100  0.765300  0.929500  1.0  -0.6029
  O  O71  1  0.276500  0.470000  0.631100  1.0  -0.5775
  O  O72  1  0.080200  0.557300  0.620300  1.0  -0.5874
  O  O73  1  0.070100  0.246000  0.642600  1.0  -0.5867
  O  O74  1  0.925300  0.324200  0.549800  1.0  -0.6314
  O  O75  1  0.397100  0.185800  0.679000  1.0  -0.6145
  O  O76  1  0.462900  0.265300  0.570500  1.0  -0.6039
  O  O77  1  0.723500  0.970000  0.868900  1.0  -0.5779
  O  O78  1  0.919800  0.057300  0.879700  1.0  -0.5871
