# generated using pymatgen
data_Ni3H33C54N3O13
_symmetry_space_group_name_H-M   'P 1'
_cell_length_a   24.66610000
_cell_length_b   24.66610000
_cell_length_c   24.66610000
_cell_angle_alpha   109.47100000
_cell_angle_beta   109.47100000
_cell_angle_gamma   109.47100000
_symmetry_Int_Tables_number   1
_chemical_formula_structural   Ni3H33C54N3O13
_chemical_formula_sum   'Ni12 H132 C216 N12 O52'
_cell_volume   11552.69001628
_cell_formula_units_Z   4
loop_
 _symmetry_equiv_pos_site_id
 _symmetry_equiv_pos_as_xyz
  1  'x, y, z'
loop_
 _atom_site_type_symbol
 _atom_site_label
 _atom_site_symmetry_multiplicity
 _atom_site_fract_x
 _atom_site_fract_y
 _atom_site_fract_z
 _atom_site_occupancy
 _atom_site_charge
  Ni  Ni1  1  0.080200  0.089450  0.406860  1.0  0.9888
  Ni  Ni2  1  0.682590  0.673340  0.593130  1.0  0.9891
  Ni  Ni3  1  0.317410  0.910550  0.990750  1.0  0.989
  Ni  Ni4  1  0.919800  0.326660  0.009260  1.0  0.9899
  Ni  Ni5  1  0.990750  0.317410  0.910550  1.0  0.9892
  Ni  Ni6  1  0.009250  0.919790  0.326660  1.0  0.989
  Ni  Ni7  1  0.406860  0.080200  0.089450  1.0  0.9892
  Ni  Ni8  1  0.593140  0.682600  0.673340  1.0  0.9895
  Ni  Ni9  1  0.673340  0.593140  0.682590  1.0  0.9883
  Ni  Ni10  1  0.089460  0.406870  0.080210  1.0  0.9885
  Ni  Ni11  1  0.326660  0.009250  0.919800  1.0  0.9897
  Ni  Ni12  1  0.910540  0.990740  0.317400  1.0  0.9904
  H  H13  1  0.182800  0.109300  0.594300  1.0  0.1274
  H  H14  1  0.242200  0.112600  0.694200  1.0  0.1221
  H  H15  1  0.209900  0.933500  0.594000  1.0  0.1735
  H  H16  1  0.148100  0.926500  0.492400  1.0  0.1126
  H  H17  1  0.301000  0.117500  0.779700  1.0  0.1308
  H  H18  1  0.338600  0.111500  0.872700  1.0  0.0811
  H  H19  1  0.262500  0.921500  0.774200  1.0  0.0861
  H  H20  1  0.222000  0.918900  0.672500  1.0  0.1373
  H  H21  1  0.128100  0.920300  0.232600  1.0  0.1088
  H  H22  1  0.165700  0.869300  0.159600  1.0  0.1271
  H  H23  1  0.221800  0.120200  0.343600  1.0  0.1097
  H  H24  1  0.515000  0.588500  0.405700  1.0  0.1263
  H  H25  1  0.418400  0.548000  0.305800  1.0  0.1236
  H  H26  1  0.339500  0.615900  0.406000  1.0  0.1758
  H  H27  1  0.434100  0.655700  0.507600  1.0  0.1124
  H  H28  1  0.337800  0.521300  0.220300  1.0  0.1301
  H  H29  1  0.238800  0.465900  0.127300  1.0  0.0808
  H  H30  1  0.147300  0.488300  0.225800  1.0  0.0843
  H  H31  1  0.246400  0.549500  0.327500  1.0  0.1379
  H  H32  1  0.687700  0.895500  0.767400  1.0  0.1095
  H  H33  1  0.709700  0.006100  0.840400  1.0  0.127
  H  H34  1  0.776600  0.878200  0.656400  1.0  0.1099
  H  H35  1  0.485000  0.890700  0.073500  1.0  0.1278
  H  H36  1  0.581600  0.887400  0.129600  1.0  0.1235
  H  H37  1  0.660500  0.066500  0.276400  1.0  0.1771
  H  H38  1  0.565900  0.073500  0.221600  1.0  0.1131
  H  H39  1  0.662200  0.882500  0.183500  1.0  0.13
  H  H40  1  0.761200  0.888500  0.227100  1.0  0.0812
  H  H41  1  0.852700  0.078500  0.341000  1.0  0.0853
  H  H42  1  0.753600  0.081100  0.303100  1.0  0.1369
  H  H43  1  0.312300  0.079700  0.207800  1.0  0.1085
  H  H44  1  0.290300  0.130700  0.296400  1.0  0.1293
  H  H45  1  0.223400  0.879800  0.101600  1.0  0.1096
  H  H46  1  0.817200  0.411500  0.926500  1.0  0.1256
  H  H47  1  0.757800  0.452000  0.870400  1.0  0.1226
  H  H48  1  0.790100  0.384100  0.723600  1.0  0.174
  H  H49  1  0.851900  0.344300  0.778400  1.0  0.1128
  H  H50  1  0.699000  0.478700  0.816500  1.0  0.131
  H  H51  1  0.661400  0.534100  0.772900  1.0  0.0813
  H  H52  1  0.737500  0.511700  0.659000  1.0  0.0841
  H  H53  1  0.778000  0.450500  0.696900  1.0  0.1365
  H  H54  1  0.871900  0.104500  0.792200  1.0  0.1089
  H  H55  1  0.834300  0.993900  0.703600  1.0  0.1273
  H  H56  1  0.778200  0.121800  0.898400  1.0  0.1108
  H  H57  1  0.073500  0.485000  0.890700  1.0  0.1272
  H  H58  1  0.129600  0.581600  0.887400  1.0  0.1235
  H  H59  1  0.276400  0.660500  0.066500  1.0  0.1751
  H  H60  1  0.221600  0.565900  0.073500  1.0  0.1124
  H  H61  1  0.183500  0.662200  0.882500  1.0  0.1297
  H  H62  1  0.227100  0.761200  0.888500  1.0  0.081
  H  H63  1  0.341000  0.852700  0.078500  1.0  0.0848
  H  H64  1  0.303100  0.753600  0.081100  1.0  0.1375
  H  H65  1  0.207800  0.312300  0.079700  1.0  0.1092
  H  H66  1  0.296400  0.290300  0.130700  1.0  0.1281
  H  H67  1  0.101600  0.223400  0.879800  1.0  0.11
  H  H68  1  0.926500  0.817200  0.411500  1.0  0.1253
  H  H69  1  0.870400  0.757800  0.452000  1.0  0.121
  H  H70  1  0.723600  0.790100  0.384100  1.0  0.1735
  H  H71  1  0.778400  0.851900  0.344300  1.0  0.1126
  H  H72  1  0.816500  0.699000  0.478700  1.0  0.1287
  H  H73  1  0.772900  0.661400  0.534100  1.0  0.0807
  H  H74  1  0.659000  0.737500  0.511700  1.0  0.085
  H  H75  1  0.696900  0.778000  0.450500  1.0  0.1357
  H  H76  1  0.792200  0.871900  0.104500  1.0  0.1072
  H  H77  1  0.703600  0.834300  0.993900  1.0  0.1272
  H  H78  1  0.898400  0.778200  0.121800  1.0  0.1093
  H  H79  1  0.594300  0.182800  0.109300  1.0  0.1252
  H  H80  1  0.694200  0.242200  0.112600  1.0  0.1232
  H  H81  1  0.594000  0.209900  0.933500  1.0  0.1749
  H  H82  1  0.492400  0.148100  0.926500  1.0  0.1127
  H  H83  1  0.779700  0.301000  0.117500  1.0  0.1317
  H  H84  1  0.872700  0.338600  0.111500  1.0  0.0822
  H  H85  1  0.774200  0.262500  0.921500  1.0  0.0852
  H  H86  1  0.672500  0.222000  0.918900  1.0  0.1369
  H  H87  1  0.232600  0.128100  0.920300  1.0  0.1086
  H  H88  1  0.159600  0.165700  0.869300  1.0  0.126
  H  H89  1  0.343600  0.221800  0.120200  1.0  0.1106
  H  H90  1  0.405700  0.515000  0.588500  1.0  0.1259
  H  H91  1  0.305800  0.418400  0.548000  1.0  0.1204
  H  H92  1  0.406000  0.339500  0.615900  1.0  0.1732
  H  H93  1  0.507600  0.434100  0.655700  1.0  0.1119
  H  H94  1  0.220300  0.337800  0.521300  1.0  0.1296
  H  H95  1  0.127300  0.238800  0.465900  1.0  0.0834
  H  H96  1  0.225800  0.147300  0.488300  1.0  0.0841
  H  H97  1  0.327500  0.246400  0.549500  1.0  0.1355
  H  H98  1  0.767400  0.687700  0.895500  1.0  0.1082
  H  H99  1  0.840400  0.709700  0.006100  1.0  0.1276
  H  H100  1  0.656400  0.776600  0.878200  1.0  0.1097
  H  H101  1  0.588500  0.405700  0.515000  1.0  0.1274
  H  H102  1  0.548000  0.305800  0.418400  1.0  0.1237
  H  H103  1  0.615900  0.406000  0.339500  1.0  0.1753
  H  H104  1  0.655700  0.507600  0.434100  1.0  0.1114
  H  H105  1  0.521300  0.220300  0.337800  1.0  0.1312
  H  H106  1  0.465900  0.127300  0.238800  1.0  0.0818
  H  H107  1  0.488300  0.225800  0.147300  1.0  0.0853
  H  H108  1  0.549500  0.327500  0.246400  1.0  0.1367
  H  H109  1  0.895500  0.767400  0.687700  1.0  0.1097
  H  H110  1  0.006100  0.840400  0.709700  1.0  0.1262
  H  H111  1  0.878200  0.656400  0.776600  1.0  0.1104
  H  H112  1  0.109300  0.594300  0.182800  1.0  0.1258
  H  H113  1  0.112600  0.694200  0.242200  1.0  0.1216
  H  H114  1  0.933500  0.594000  0.209900  1.0  0.1744
  H  H115  1  0.926500  0.492400  0.148100  1.0  0.1129
  H  H116  1  0.117500  0.779700  0.301000  1.0  0.1307
  H  H117  1  0.111500  0.872700  0.338600  1.0  0.0821
  H  H118  1  0.921500  0.774200  0.262500  1.0  0.0844
  H  H119  1  0.918900  0.672500  0.222000  1.0  0.1365
  H  H120  1  0.920300  0.232600  0.128100  1.0  0.108
  H  H121  1  0.869300  0.159600  0.165700  1.0  0.1275
  H  H122  1  0.120200  0.343600  0.221800  1.0  0.1089
  H  H123  1  0.411500  0.926500  0.817200  1.0  0.1263
  H  H124  1  0.452000  0.870400  0.757800  1.0  0.1238
  H  H125  1  0.384100  0.723600  0.790100  1.0  0.1748
  H  H126  1  0.344300  0.778400  0.851900  1.0  0.1127
  H  H127  1  0.478700  0.816500  0.699000  1.0  0.1295
  H  H128  1  0.534100  0.772900  0.661400  1.0  0.08
  H  H129  1  0.511700  0.659000  0.737500  1.0  0.0848
  H  H130  1  0.450500  0.696900  0.778000  1.0  0.1379
  H  H131  1  0.104500  0.792200  0.871900  1.0  0.1098
  H  H132  1  0.993900  0.703600  0.834300  1.0  0.1278
  H  H133  1  0.121800  0.898400  0.778200  1.0  0.1092
  H  H134  1  0.890700  0.073500  0.485000  1.0  0.1278
  H  H135  1  0.887400  0.129600  0.581600  1.0  0.1215
  H  H136  1  0.066500  0.276400  0.660500  1.0  0.177
  H  H137  1  0.073500  0.221600  0.565900  1.0  0.1126
  H  H138  1  0.882500  0.183500  0.662200  1.0  0.1285
  H  H139  1  0.888500  0.227100  0.761200  1.0  0.0807
  H  H140  1  0.078500  0.341000  0.852700  1.0  0.0843
  H  H141  1  0.081100  0.303100  0.753600  1.0  0.1352
  H  H142  1  0.079700  0.207800  0.312300  1.0  0.1082
  H  H143  1  0.130700  0.296400  0.290300  1.0  0.1283
  H  H144  1  0.879800  0.101600  0.223400  1.0  0.1091
  C  C145  1  0.117860  0.012920  0.470560  1.0  0.7112
  C  C146  1  0.158090  0.016320  0.533850  1.0  -0.0986
  C  C147  1  0.186400  0.071790  0.592970  1.0  -0.0577
  C  C148  1  0.221530  0.073390  0.652880  1.0  -0.1159
  C  C149  1  0.225930  0.019360  0.651890  1.0  0.063
  C  C150  1  0.202650  0.969200  0.595070  1.0  -0.1465
  C  C151  1  0.166230  0.965220  0.533330  1.0  -0.078
  C  C152  1  0.253360  0.019740  0.716120  1.0  0.0656
  C  C153  1  0.290360  0.075400  0.776360  1.0  -0.2261
  C  C154  1  0.311930  0.071030  0.831500  1.0  0.1802
  C  C155  1  0.268500  0.961800  0.774900  1.0  0.1718
  C  C156  1  0.243800  0.959060  0.713380  1.0  -0.2239
  C  C157  1  0.119790  0.010330  0.318460  1.0  0.7279
  C  C158  1  0.166460  0.017140  0.290120  1.0  -0.1538
  C  C159  1  0.159820  0.963120  0.244580  1.0  -0.0983
  C  C160  1  0.200350  0.969080  0.213350  1.0  -0.0221
  C  C161  1  0.193720  0.911810  0.167630  1.0  -0.0896
  C  C162  1  0.216080  0.081770  0.310510  1.0  -0.0449
  C  C163  1  0.542360  0.647300  0.529440  1.0  0.7181
  C  C164  1  0.482470  0.624240  0.466150  1.0  -0.1135
  C  C165  1  0.478820  0.593430  0.407030  1.0  -0.0592
  C  C166  1  0.420510  0.568650  0.347120  1.0  -0.1142
  C  C167  1  0.367470  0.574040  0.348110  1.0  0.0645
  C  C168  1  0.374130  0.607580  0.404930  1.0  -0.1395
  C  C169  1  0.431890  0.632900  0.466670  1.0  -0.0784
  C  C170  1  0.303620  0.537240  0.283880  1.0  0.0643
  C  C171  1  0.299040  0.514000  0.223640  1.0  -0.2229
  C  C172  1  0.239530  0.480430  0.168500  1.0  0.1816
  C  C173  1  0.186900  0.493600  0.225100  1.0  0.173
  C  C174  1  0.245680  0.530420  0.286620  1.0  -0.2241
  C  C175  1  0.691870  0.801330  0.681540  1.0  0.738
  C  C176  1  0.727020  0.876340  0.709880  1.0  -0.1466
  C  C177  1  0.718540  0.915240  0.755420  1.0  -0.0938
  C  C178  1  0.755730  0.987000  0.786650  1.0  -0.022
  C  C179  1  0.744180  0.026090  0.832370  1.0  -0.0899
  C  C180  1  0.771260  0.905570  0.689490  1.0  -0.0453
  C  C181  1  0.457640  0.987080  0.104940  1.0  0.7193
  C  C182  1  0.517530  0.983680  0.141770  1.0  -0.1003
  C  C183  1  0.521180  0.928210  0.114610  1.0  -0.056
  C  C184  1  0.579490  0.926610  0.148140  1.0  -0.116
  C  C185  1  0.632530  0.980640  0.206570  1.0  0.058
  C  C186  1  0.625870  0.030800  0.233450  1.0  -0.1414
  C  C187  1  0.568110  0.034780  0.201010  1.0  -0.0811
  C  C188  1  0.696380  0.980260  0.233620  1.0  0.0636
  C  C189  1  0.700960  0.924600  0.214960  1.0  -0.2256
  C  C190  1  0.760470  0.928970  0.240900  1.0  0.1776
  C  C191  1  0.813100  0.038200  0.306700  1.0  0.1701
  C  C192  1  0.754320  0.040940  0.284740  1.0  -0.2244
  C  C193  1  0.308130  0.989670  0.109460  1.0  0.7325
  C  C194  1  0.272980  0.982860  0.149320  1.0  -0.1557
  C  C195  1  0.281460  0.036880  0.196700  1.0  -0.0982
  C  C196  1  0.244270  0.030920  0.231270  1.0  -0.0231
  C  C197  1  0.255820  0.088190  0.281910  1.0  -0.0903
  C  C198  1  0.228740  0.918230  0.134310  1.0  -0.0427
  C  C199  1  0.882140  0.352700  0.895060  1.0  0.7148
  C  C200  1  0.841910  0.375760  0.858230  1.0  -0.0993
  C  C201  1  0.813600  0.406570  0.885390  1.0  -0.0613
  C  C202  1  0.778470  0.431350  0.851860  1.0  -0.1158
  C  C203  1  0.774070  0.425960  0.793430  1.0  0.0592
  C  C204  1  0.797350  0.392420  0.766550  1.0  -0.1416
  C  C205  1  0.833770  0.367100  0.798990  1.0  -0.0798
  C  C206  1  0.746640  0.462760  0.766380  1.0  0.0653
  C  C207  1  0.709640  0.486000  0.785040  1.0  -0.2238
  C  C208  1  0.688070  0.519570  0.759100  1.0  0.1813
  C  C209  1  0.731500  0.506400  0.693300  1.0  0.1746
  C  C210  1  0.756200  0.469580  0.715260  1.0  -0.2208
  C  C211  1  0.880210  0.198670  0.890540  1.0  0.7358
  C  C212  1  0.833540  0.123660  0.850680  1.0  -0.1511
  C  C213  1  0.840180  0.084760  0.803300  1.0  -0.0959
  C  C214  1  0.799650  0.013000  0.768730  1.0  -0.0193
  C  C215  1  0.806280  0.973910  0.718090  1.0  -0.0868
  C  C216  1  0.783920  0.094430  0.865690  1.0  -0.0422
  C  C217  1  0.104940  0.457640  0.987080  1.0  0.7183
  C  C218  1  0.141770  0.517530  0.983680  1.0  -0.0953
  C  C219  1  0.114610  0.521180  0.928210  1.0  -0.0545
  C  C220  1  0.148140  0.579490  0.926610  1.0  -0.1146
  C  C221  1  0.206570  0.632530  0.980640  1.0  0.0626
  C  C222  1  0.233450  0.625870  0.030800  1.0  -0.1376
  C  C223  1  0.201010  0.568110  0.034780  1.0  -0.0784
  C  C224  1  0.233620  0.696380  0.980260  1.0  0.0654
  C  C225  1  0.214960  0.700960  0.924600  1.0  -0.2246
  C  C226  1  0.240900  0.760470  0.928970  1.0  0.1819
  C  C227  1  0.306700  0.813100  0.038200  1.0  0.1726
  C  C228  1  0.284740  0.754320  0.040940  1.0  -0.2224
  C  C229  1  0.109460  0.308130  0.989670  1.0  0.7338
  C  C230  1  0.149320  0.272980  0.982860  1.0  -0.1548
  C  C231  1  0.196700  0.281460  0.036880  1.0  -0.1035
  C  C232  1  0.231270  0.244270  0.030920  1.0  -0.0248
  C  C233  1  0.281910  0.255820  0.088190  1.0  -0.0912
  C  C234  1  0.134310  0.228740  0.918230  1.0  -0.0435
  C  C235  1  0.895060  0.882140  0.352700  1.0  0.716
  C  C236  1  0.858230  0.841910  0.375760  1.0  -0.0959
  C  C237  1  0.885390  0.813600  0.406570  1.0  -0.0596
  C  C238  1  0.851860  0.778470  0.431350  1.0  -0.113
  C  C239  1  0.793430  0.774070  0.425960  1.0  0.064
  C  C240  1  0.766550  0.797350  0.392420  1.0  -0.1414
  C  C241  1  0.798990  0.833770  0.367100  1.0  -0.0789
  C  C242  1  0.766380  0.746640  0.462760  1.0  0.0658
  C  C243  1  0.785040  0.709640  0.486000  1.0  -0.2199
  C  C244  1  0.759100  0.688070  0.519570  1.0  0.1842
  C  C245  1  0.693300  0.731500  0.506400  1.0  0.173
  C  C246  1  0.715260  0.756200  0.469580  1.0  -0.2218
  C  C247  1  0.890540  0.880210  0.198670  1.0  0.7353
  C  C248  1  0.850680  0.833540  0.123660  1.0  -0.1505
  C  C249  1  0.803300  0.840180  0.084760  1.0  -0.0993
  C  C250  1  0.768730  0.799650  0.013000  1.0  -0.0204
  C  C251  1  0.718090  0.806280  0.973910  1.0  -0.0864
  C  C252  1  0.865690  0.783920  0.094430  1.0  -0.0432
  C  C253  1  0.470560  0.117860  0.012920  1.0  0.7091
  C  C254  1  0.533850  0.158090  0.016320  1.0  -0.098
  C  C255  1  0.592970  0.186400  0.071790  1.0  -0.0569
  C  C256  1  0.652880  0.221530  0.073390  1.0  -0.1146
  C  C257  1  0.651890  0.225930  0.019360  1.0  0.0623
  C  C258  1  0.595070  0.202650  0.969200  1.0  -0.1403
  C  C259  1  0.533330  0.166230  0.965220  1.0  -0.0795
  C  C260  1  0.716120  0.253360  0.019740  1.0  0.064
  C  C261  1  0.776360  0.290360  0.075400  1.0  -0.2228
  C  C262  1  0.831500  0.311930  0.071030  1.0  0.1805
  C  C263  1  0.774900  0.268500  0.961800  1.0  0.1749
  C  C264  1  0.713380  0.243800  0.959060  1.0  -0.2215
  C  C265  1  0.318460  0.119790  0.010330  1.0  0.7279
  C  C266  1  0.290120  0.166460  0.017140  1.0  -0.1543
  C  C267  1  0.244580  0.159820  0.963120  1.0  -0.097
  C  C268  1  0.213350  0.200350  0.969080  1.0  -0.0213
  C  C269  1  0.167630  0.193720  0.911810  1.0  -0.0904
  C  C270  1  0.310510  0.216080  0.081770  1.0  -0.0436
  C  C271  1  0.529440  0.542360  0.647300  1.0  0.717
  C  C272  1  0.466150  0.482470  0.624240  1.0  -0.1104
  C  C273  1  0.407030  0.478820  0.593430  1.0  -0.0628
  C  C274  1  0.347120  0.420510  0.568650  1.0  -0.1128
  C  C275  1  0.348110  0.367470  0.574040  1.0  0.061
  C  C276  1  0.404930  0.374130  0.607580  1.0  -0.1381
  C  C277  1  0.466670  0.431890  0.632900  1.0  -0.08
  C  C278  1  0.283880  0.303620  0.537240  1.0  0.0649
  C  C279  1  0.223640  0.299040  0.514000  1.0  -0.2255
  C  C280  1  0.168500  0.239530  0.480430  1.0  0.179
  C  C281  1  0.225100  0.186900  0.493600  1.0  0.1732
  C  C282  1  0.286620  0.245680  0.530420  1.0  -0.217
  C  C283  1  0.681540  0.691870  0.801330  1.0  0.737
  C  C284  1  0.709880  0.727020  0.876340  1.0  -0.1491
  C  C285  1  0.755420  0.718540  0.915240  1.0  -0.0913
  C  C286  1  0.786650  0.755730  0.987000  1.0  -0.0209
  C  C287  1  0.832370  0.744180  0.026090  1.0  -0.0891
  C  C288  1  0.689490  0.771260  0.905570  1.0  -0.0421
  C  C289  1  0.647300  0.529440  0.542360  1.0  0.7179
  C  C290  1  0.624240  0.466150  0.482470  1.0  -0.109
  C  C291  1  0.593430  0.407030  0.478820  1.0  -0.0623
  C  C292  1  0.568650  0.347120  0.420510  1.0  -0.1146
  C  C293  1  0.574040  0.348110  0.367470  1.0  0.0627
  C  C294  1  0.607580  0.404930  0.374130  1.0  -0.1415
  C  C295  1  0.632900  0.466670  0.431890  1.0  -0.0794
  C  C296  1  0.537240  0.283880  0.303620  1.0  0.0654
  C  C297  1  0.514000  0.223640  0.299040  1.0  -0.2234
  C  C298  1  0.480430  0.168500  0.239530  1.0  0.1801
  C  C299  1  0.493600  0.225100  0.186900  1.0  0.1739
  C  C300  1  0.530420  0.286620  0.245680  1.0  -0.221
  C  C301  1  0.801330  0.681540  0.691870  1.0  0.7374
  C  C302  1  0.876340  0.709880  0.727020  1.0  -0.147
  C  C303  1  0.915240  0.755420  0.718540  1.0  -0.0941
  C  C304  1  0.987000  0.786650  0.755730  1.0  -0.0193
  C  C305  1  0.026090  0.832370  0.744180  1.0  -0.0908
  C  C306  1  0.905570  0.689490  0.771260  1.0  -0.0454
  C  C307  1  0.012920  0.470560  0.117860  1.0  0.7098
  C  C308  1  0.016320  0.533850  0.158090  1.0  -0.0957
  C  C309  1  0.071790  0.592970  0.186400  1.0  -0.0564
  C  C310  1  0.073390  0.652880  0.221530  1.0  -0.1128
  C  C311  1  0.019360  0.651890  0.225930  1.0  0.064
  C  C312  1  0.969200  0.595070  0.202650  1.0  -0.1398
  C  C313  1  0.965220  0.533330  0.166230  1.0  -0.0787
  C  C314  1  0.019740  0.716120  0.253360  1.0  0.0649
  C  C315  1  0.075400  0.776360  0.290360  1.0  -0.2206
  C  C316  1  0.071030  0.831500  0.311930  1.0  0.18
  C  C317  1  0.961800  0.774900  0.268500  1.0  0.1711
  C  C318  1  0.959060  0.713380  0.243800  1.0  -0.2231
  C  C319  1  0.010330  0.318460  0.119790  1.0  0.7288
  C  C320  1  0.017140  0.290120  0.166460  1.0  -0.156
  C  C321  1  0.963120  0.244580  0.159820  1.0  -0.0983
  C  C322  1  0.969080  0.213350  0.200350  1.0  -0.023
  C  C323  1  0.911810  0.167630  0.193720  1.0  -0.0885
  C  C324  1  0.081770  0.310510  0.216080  1.0  -0.0418
  C  C325  1  0.352700  0.895060  0.882140  1.0  0.7149
  C  C326  1  0.375760  0.858230  0.841910  1.0  -0.0974
  C  C327  1  0.406570  0.885390  0.813600  1.0  -0.062
  C  C328  1  0.431350  0.851860  0.778470  1.0  -0.1162
  C  C329  1  0.425960  0.793430  0.774070  1.0  0.0636
  C  C330  1  0.392420  0.766550  0.797350  1.0  -0.1434
  C  C331  1  0.367100  0.798990  0.833770  1.0  -0.08
  C  C332  1  0.462760  0.766380  0.746640  1.0  0.063
  C  C333  1  0.486000  0.785040  0.709640  1.0  -0.2259
  C  C334  1  0.519570  0.759100  0.688070  1.0  0.1821
  C  C335  1  0.506400  0.693300  0.731500  1.0  0.171
  C  C336  1  0.469580  0.715260  0.756200  1.0  -0.2243
  C  C337  1  0.198670  0.890540  0.880210  1.0  0.7351
  C  C338  1  0.123660  0.850680  0.833540  1.0  -0.1501
  C  C339  1  0.084760  0.803300  0.840180  1.0  -0.0945
  C  C340  1  0.013000  0.768730  0.799650  1.0  -0.0202
  C  C341  1  0.973910  0.718090  0.806280  1.0  -0.0833
  C  C342  1  0.094430  0.865690  0.783920  1.0  -0.0462
  C  C343  1  0.987080  0.104940  0.457640  1.0  0.7184
  C  C344  1  0.983680  0.141770  0.517530  1.0  -0.0959
  C  C345  1  0.928210  0.114610  0.521180  1.0  -0.0557
  C  C346  1  0.926610  0.148140  0.579490  1.0  -0.1132
  C  C347  1  0.980640  0.206570  0.632530  1.0  0.0633
  C  C348  1  0.030800  0.233450  0.625870  1.0  -0.1446
  C  C349  1  0.034780  0.201010  0.568110  1.0  -0.0798
  C  C350  1  0.980260  0.233620  0.696380  1.0  0.0649
  C  C351  1  0.924600  0.214960  0.700960  1.0  -0.2218
  C  C352  1  0.928970  0.240900  0.760470  1.0  0.1846
  C  C353  1  0.038200  0.306700  0.813100  1.0  0.1717
  C  C354  1  0.040940  0.284740  0.754320  1.0  -0.2211
  C  C355  1  0.989670  0.109460  0.308130  1.0  0.7335
  C  C356  1  0.982860  0.149320  0.272980  1.0  -0.1538
  C  C357  1  0.036880  0.196700  0.281460  1.0  -0.0947
  C  C358  1  0.030920  0.231270  0.244270  1.0  -0.0258
  C  C359  1  0.088190  0.281910  0.255820  1.0  -0.0908
  C  C360  1  0.918230  0.134310  0.228740  1.0  -0.0413
  N  N361  1  0.299670  0.015720  0.833930  1.0  -0.3094
  N  N362  1  0.181790  0.465740  0.166070  1.0  -0.3077
  N  N363  1  0.818210  0.984280  0.283950  1.0  -0.3051
  N  N364  1  0.700330  0.534260  0.716050  1.0  -0.3086
  N  N365  1  0.283950  0.818210  0.984280  1.0  -0.3077
  N  N366  1  0.716050  0.700330  0.534260  1.0  -0.3101
  N  N367  1  0.833930  0.299670  0.015720  1.0  -0.3062
  N  N368  1  0.166070  0.181790  0.465740  1.0  -0.3081
  N  N369  1  0.465740  0.166070  0.181790  1.0  -0.3086
  N  N370  1  0.015720  0.833930  0.299670  1.0  -0.3077
  N  N371  1  0.534260  0.716050  0.700330  1.0  -0.3057
  N  N372  1  0.984280  0.283950  0.818210  1.0  -0.3113
  O  O373  1  0.117240  0.065580  0.476860  1.0  -0.5904
  O  O374  1  0.088090  0.959620  0.419390  1.0  -0.5785
  O  O375  1  0.129960  0.063100  0.359620  1.0  -0.5931
  O  O376  1  0.074480  0.953000  0.295100  1.0  -0.5987
  O  O377  1  0.588720  0.640380  0.523140  1.0  -0.5897
  O  O378  1  0.540230  0.668700  0.580610  1.0  -0.5787
  O  O379  1  0.703480  0.770340  0.640380  1.0  -0.5914
  O  O380  1  0.657900  0.779380  0.704900  1.0  -0.5982
  O  O381  1  0.411280  0.934420  0.051660  1.0  -0.5915
  O  O382  1  0.459770  0.040380  0.128470  1.0  -0.5792
  O  O383  1  0.296520  0.936900  0.066860  1.0  -0.5942
  O  O384  1  0.342100  0.047000  0.121480  1.0  -0.5993
  O  O385  1  0.882760  0.359620  0.948340  1.0  -0.5924
  O  O386  1  0.911910  0.331300  0.871530  1.0  -0.5786
  O  O387  1  0.870040  0.229660  0.933140  1.0  -0.5923
  O  O388  1  0.925520  0.220620  0.878520  1.0  -0.6004
  O  O389  1  0.051660  0.411280  0.934420  1.0  -0.5895
  O  O390  1  0.128470  0.459770  0.040380  1.0  -0.5781
  O  O391  1  0.066860  0.296520  0.936900  1.0  -0.5912
  O  O392  1  0.121480  0.342100  0.047000  1.0  -0.5976
  O  O393  1  0.948340  0.882760  0.359620  1.0  -0.5908
  O  O394  1  0.871530  0.911910  0.331300  1.0  -0.5785
  O  O395  1  0.933140  0.870040  0.229660  1.0  -0.5926
  O  O396  1  0.878520  0.925520  0.220620  1.0  -0.6011
  O  O397  1  0.476860  0.117240  0.065580  1.0  -0.5914
  O  O398  1  0.419390  0.088090  0.959620  1.0  -0.5783
  O  O399  1  0.359620  0.129960  0.063100  1.0  -0.5921
  O  O400  1  0.295100  0.074480  0.953000  1.0  -0.5994
  O  O401  1  0.523140  0.588720  0.640380  1.0  -0.5906
  O  O402  1  0.580610  0.540230  0.668700  1.0  -0.5785
  O  O403  1  0.640380  0.703480  0.770340  1.0  -0.5913
  O  O404  1  0.704900  0.657900  0.779380  1.0  -0.5997
  O  O405  1  0.640380  0.523140  0.588720  1.0  -0.5913
  O  O406  1  0.668700  0.580610  0.540230  1.0  -0.5786
  O  O407  1  0.770340  0.640380  0.703480  1.0  -0.592
  O  O408  1  0.779380  0.704900  0.657900  1.0  -0.5994
  O  O409  1  0.065580  0.476860  0.117240  1.0  -0.5913
  O  O410  1  0.959620  0.419390  0.088090  1.0  -0.5789
  O  O411  1  0.063100  0.359620  0.129960  1.0  -0.5928
  O  O412  1  0.953000  0.295100  0.074480  1.0  -0.5974
  O  O413  1  0.359620  0.948340  0.882760  1.0  -0.5935
  O  O414  1  0.331300  0.871530  0.911910  1.0  -0.5791
  O  O415  1  0.229660  0.933140  0.870040  1.0  -0.592
  O  O416  1  0.220620  0.878520  0.925520  1.0  -0.6011
  O  O417  1  0.934420  0.051660  0.411280  1.0  -0.591
  O  O418  1  0.040380  0.128470  0.459770  1.0  -0.5773
  O  O419  1  0.936900  0.066860  0.296520  1.0  -0.5914
  O  O420  1  0.047000  0.121480  0.342100  1.0  -0.5993
  O  O421  1  0.000000  0.000000  0.348580  1.0  -0.6664
  O  O422  1  0.651420  0.651420  0.651420  1.0  -0.6663
  O  O423  1  0.348580  0.000000  0.000000  1.0  -0.666
  O  O424  1  0.000000  0.348580  0.000000  1.0  -0.6665
