# generated using pymatgen
data_Zn3H32C52(NO2)6
_symmetry_space_group_name_H-M   'P 1'
_cell_length_a   13.95380000
_cell_length_b   13.95380000
_cell_length_c   24.92460000
_cell_angle_alpha   90.00000000
_cell_angle_beta   90.00000000
_cell_angle_gamma   120.00000000
_symmetry_Int_Tables_number   1
_chemical_formula_structural   Zn3H32C52(NO2)6
_chemical_formula_sum   'Zn9 H96 C156 N18 O36'
_cell_volume   4202.84928967
_cell_formula_units_Z   3
loop_
 _symmetry_equiv_pos_site_id
 _symmetry_equiv_pos_as_xyz
  1  'x, y, z'
loop_
 _atom_site_type_symbol
 _atom_site_label
 _atom_site_symmetry_multiplicity
 _atom_site_fract_x
 _atom_site_fract_y
 _atom_site_fract_z
 _atom_site_occupancy
 _atom_site_charge
  Zn  Zn1  1  0.149970  0.692480  0.046760  1.0  0.944
  Zn  Zn2  1  0.307520  0.457490  0.380100  1.0  0.9462
  Zn  Zn3  1  0.542510  0.850030  0.713430  1.0  0.9446
  Zn  Zn4  1  0.692480  0.149970  0.953240  1.0  0.9445
  Zn  Zn5  1  0.457490  0.307520  0.619900  1.0  0.9446
  Zn  Zn6  1  0.850030  0.542510  0.286570  1.0  0.9459
  Zn  Zn7  1  0.000000  0.703350  0.166670  1.0  0.9641
  Zn  Zn8  1  0.296650  0.296650  0.500000  1.0  0.9647
  Zn  Zn9  1  0.703350  0.000000  0.833330  1.0  0.9671
  H  H10  1  0.634500  0.364900  0.164000  1.0  0.1261
  H  H11  1  0.821800  0.458900  0.147900  1.0  0.1033
  H  H12  1  0.772900  0.555300  0.005100  1.0  0.114
  H  H13  1  0.584500  0.464800  0.020100  1.0  0.1188
  H  H14  1  0.534900  0.556000  0.125600  1.0  0.1235
  H  H15  1  0.448300  0.654700  0.106700  1.0  0.113
  H  H16  1  0.194600  0.384600  0.042200  1.0  0.1054
  H  H17  1  0.282100  0.286400  0.058800  1.0  0.1417
  H  H18  1  0.308700  0.241500  0.169100  1.0  0.1313
  H  H19  1  0.198200  0.052600  0.178200  1.0  0.1155
  H  H20  1  0.393600  0.005500  0.078500  1.0  0.1046
  H  H21  1  0.505100  0.194400  0.068500  1.0  0.1178
  H  H22  1  0.331300  0.897700  0.004100  1.0  0.0901
  H  H23  1  0.389900  0.006400  0.928400  1.0  0.1284
  H  H24  1  0.154500  0.749400  0.847300  1.0  0.1323
  H  H25  1  0.095800  0.653000  0.925900  1.0  0.0921
  H  H26  1  0.635100  0.269600  0.497330  1.0  0.1257
  H  H27  1  0.541100  0.362900  0.481230  1.0  0.1034
  H  H28  1  0.444700  0.217600  0.338430  1.0  0.1141
  H  H29  1  0.535200  0.119700  0.353430  1.0  0.1178
  H  H30  1  0.444000  0.978900  0.458930  1.0  0.1233
  H  H31  1  0.345300  0.793600  0.440030  1.0  0.113
  H  H32  1  0.615400  0.810000  0.375530  1.0  0.1062
  H  H33  1  0.713600  0.995700  0.392130  1.0  0.142
  H  H34  1  0.758500  0.067200  0.502430  1.0  0.13
  H  H35  1  0.947400  0.145600  0.511530  1.0  0.115
  H  H36  1  0.994500  0.388100  0.411830  1.0  0.1054
  H  H37  1  0.805600  0.310700  0.401830  1.0  0.118
  H  H38  1  0.102300  0.433600  0.337430  1.0  0.09
  H  H39  1  0.993600  0.383500  0.261730  1.0  0.1299
  H  H40  1  0.250600  0.405100  0.180630  1.0  0.1307
  H  H41  1  0.347000  0.442800  0.259230  1.0  0.0922
  H  H42  1  0.730400  0.365500  0.830670  1.0  0.126
  H  H43  1  0.637100  0.178200  0.814570  1.0  0.1032
  H  H44  1  0.782400  0.227100  0.671770  1.0  0.1146
  H  H45  1  0.880300  0.415500  0.686770  1.0  0.1192
  H  H46  1  0.021100  0.465100  0.792270  1.0  0.1244
  H  H47  1  0.206400  0.551700  0.773370  1.0  0.1122
  H  H48  1  0.190000  0.805400  0.708870  1.0  0.1063
  H  H49  1  0.004300  0.717900  0.725470  1.0  0.1417
  H  H50  1  0.932800  0.691300  0.835770  1.0  0.1311
  H  H51  1  0.854400  0.801800  0.844870  1.0  0.1156
  H  H52  1  0.611900  0.606400  0.745170  1.0  0.104
  H  H53  1  0.689300  0.494900  0.735170  1.0  0.1183
  H  H54  1  0.566400  0.668700  0.670770  1.0  0.0901
  H  H55  1  0.616500  0.610100  0.595070  1.0  0.1285
  H  H56  1  0.594900  0.845500  0.513970  1.0  0.1311
  H  H57  1  0.557200  0.904200  0.592570  1.0  0.0907
  H  H58  1  0.364900  0.634500  0.836000  1.0  0.1261
  H  H59  1  0.458900  0.821800  0.852100  1.0  0.1032
  H  H60  1  0.555300  0.772900  0.994900  1.0  0.1136
  H  H61  1  0.464800  0.584500  0.979900  1.0  0.1196
  H  H62  1  0.556000  0.534900  0.874400  1.0  0.1244
  H  H63  1  0.654700  0.448300  0.893300  1.0  0.1121
  H  H64  1  0.384600  0.194600  0.957800  1.0  0.1063
  H  H65  1  0.286400  0.282100  0.941200  1.0  0.1416
  H  H66  1  0.241500  0.308700  0.830900  1.0  0.1315
  H  H67  1  0.052600  0.198200  0.821800  1.0  0.1149
  H  H68  1  0.005500  0.393600  0.921500  1.0  0.1041
  H  H69  1  0.194400  0.505100  0.931500  1.0  0.1184
  H  H70  1  0.897700  0.331300  0.995900  1.0  0.0898
  H  H71  1  0.006400  0.389900  0.071600  1.0  0.1282
  H  H72  1  0.749400  0.154500  0.152700  1.0  0.1315
  H  H73  1  0.653000  0.095800  0.074100  1.0  0.089
  H  H74  1  0.269600  0.635100  0.502670  1.0  0.1257
  H  H75  1  0.362900  0.541100  0.518770  1.0  0.1031
  H  H76  1  0.217600  0.444700  0.661570  1.0  0.1142
  H  H77  1  0.119700  0.535200  0.646570  1.0  0.1186
  H  H78  1  0.978900  0.444000  0.541070  1.0  0.1237
  H  H79  1  0.793600  0.345300  0.559970  1.0  0.1137
  H  H80  1  0.810000  0.615400  0.624470  1.0  0.1055
  H  H81  1  0.995700  0.713600  0.607870  1.0  0.14
  H  H82  1  0.067200  0.758500  0.497570  1.0  0.132
  H  H83  1  0.145600  0.947400  0.488470  1.0  0.1147
  H  H84  1  0.388100  0.994500  0.588170  1.0  0.1046
  H  H85  1  0.310700  0.805600  0.598170  1.0  0.1178
  H  H86  1  0.433600  0.102300  0.662570  1.0  0.0898
  H  H87  1  0.383500  0.993600  0.738270  1.0  0.1281
  H  H88  1  0.405100  0.250600  0.819370  1.0  0.132
  H  H89  1  0.442800  0.347000  0.740770  1.0  0.0923
  H  H90  1  0.365500  0.730400  0.169330  1.0  0.1259
  H  H91  1  0.178200  0.637100  0.185430  1.0  0.1036
  H  H92  1  0.227100  0.782400  0.328230  1.0  0.1138
  H  H93  1  0.415500  0.880300  0.313230  1.0  0.1179
  H  H94  1  0.465100  0.021100  0.207730  1.0  0.1234
  H  H95  1  0.551700  0.206400  0.226630  1.0  0.1129
  H  H96  1  0.805400  0.190000  0.291130  1.0  0.106
  H  H97  1  0.717900  0.004300  0.274530  1.0  0.1416
  H  H98  1  0.691300  0.932800  0.164230  1.0  0.1307
  H  H99  1  0.801800  0.854400  0.155130  1.0  0.1149
  H  H100  1  0.606400  0.611900  0.254830  1.0  0.1058
  H  H101  1  0.494900  0.689300  0.264830  1.0  0.1177
  H  H102  1  0.668700  0.566400  0.329230  1.0  0.0903
  H  H103  1  0.610100  0.616500  0.404930  1.0  0.1306
  H  H104  1  0.845500  0.594900  0.486030  1.0  0.1313
  H  H105  1  0.904200  0.557200  0.407430  1.0  0.0919
  C  C106  1  0.589600  0.406100  0.093720  1.0  0.1321
  C  C107  1  0.662000  0.403900  0.132180  1.0  -0.1895
  C  C108  1  0.773700  0.460000  0.122350  1.0  -0.0241
  C  C109  1  0.815700  0.517800  0.075400  1.0  -0.12
  C  C110  1  0.744600  0.517900  0.037290  1.0  -0.0085
  C  C111  1  0.631800  0.463300  0.046000  1.0  -0.207
  C  C112  1  0.417900  0.411300  0.094030  1.0  0.162
  C  C113  1  0.466600  0.521700  0.108400  1.0  -0.1906
  C  C114  1  0.414500  0.580300  0.097340  1.0  -0.0473
  C  C115  1  0.312000  0.530400  0.072380  1.0  -0.1682
  C  C116  1  0.263700  0.419400  0.058660  1.0  -0.0368
  C  C117  1  0.315300  0.360500  0.068750  1.0  -0.202
  C  C118  1  0.415300  0.237300  0.114800  1.0  0.1578
  C  C119  1  0.324500  0.194200  0.149680  1.0  -0.1933
  C  C120  1  0.258600  0.081100  0.155070  1.0  -0.0213
  C  C121  1  0.280900  0.009600  0.126760  1.0  -0.1297
  C  C122  1  0.374800  0.053000  0.095710  1.0  -0.0724
  C  C123  1  0.441900  0.166400  0.089700  1.0  -0.1591
  C  C124  1  0.937800  0.581400  0.066000  1.0  0.6796
  C  C125  1  0.252400  0.592800  0.060790  1.0  0.6442
  C  C126  1  0.200100  0.887900  0.125600  1.0  0.7348
  C  C127  1  0.292300  0.869400  0.972330  1.0  0.2002
  C  C128  1  0.329800  0.934800  0.927080  1.0  -0.176
  C  C129  1  0.275100  0.890300  0.880400  1.0  0.199
  C  C130  1  0.189000  0.782500  0.879480  1.0  -0.1766
  C  C131  1  0.155200  0.725100  0.926550  1.0  0.1856
  C  C132  1  0.593900  0.183500  0.427050  1.0  0.1303
  C  C133  1  0.596100  0.258100  0.465510  1.0  -0.1925
  C  C134  1  0.540000  0.313700  0.455680  1.0  -0.0163
  C  C135  1  0.482200  0.297900  0.408730  1.0  -0.1229
  C  C136  1  0.482100  0.226700  0.370620  1.0  -0.0084
  C  C137  1  0.536700  0.168500  0.379330  1.0  -0.2045
  C  C138  1  0.588700  0.006600  0.427360  1.0  0.1617
  C  C139  1  0.478300  0.944900  0.441730  1.0  -0.1893
  C  C140  1  0.419700  0.834200  0.430670  1.0  -0.0466
  C  C141  1  0.469600  0.781600  0.405710  1.0  -0.1664
  C  C142  1  0.580600  0.844300  0.391990  1.0  -0.0339
  C  C143  1  0.639500  0.954800  0.402080  1.0  -0.1965
  C  C144  1  0.762700  0.178000  0.448130  1.0  0.159
  C  C145  1  0.805800  0.130300  0.483010  1.0  -0.189
  C  C146  1  0.918900  0.177500  0.488400  1.0  -0.0181
  C  C147  1  0.990400  0.271300  0.460090  1.0  -0.133
  C  C148  1  0.947000  0.321800  0.429040  1.0  -0.0705
  C  C149  1  0.833600  0.275500  0.423030  1.0  -0.1541
  C  C150  1  0.418600  0.356400  0.399330  1.0  0.68
  C  C151  1  0.407200  0.659600  0.394120  1.0  0.6453
  C  C152  1  0.112100  0.312200  0.458930  1.0  0.732
  C  C153  1  0.130600  0.422900  0.305660  1.0  0.1996
  C  C154  1  0.065200  0.395000  0.260410  1.0  -0.1725
  C  C155  1  0.109700  0.384800  0.213730  1.0  0.2069
  C  C156  1  0.217500  0.406500  0.212810  1.0  -0.1827
  C  C157  1  0.274900  0.430100  0.259880  1.0  0.181
  C  C158  1  0.816500  0.410400  0.760390  1.0  0.1315
  C  C159  1  0.741900  0.338000  0.798850  1.0  -0.1915
  C  C160  1  0.686300  0.226300  0.789020  1.0  -0.0252
  C  C161  1  0.702100  0.184300  0.742070  1.0  -0.1221
  C  C162  1  0.773300  0.255400  0.703960  1.0  -0.0057
  C  C163  1  0.831500  0.368200  0.712670  1.0  -0.2074
  C  C164  1  0.993400  0.582100  0.760700  1.0  0.1619
  C  C165  1  0.055100  0.533400  0.775070  1.0  -0.1922
  C  C166  1  0.165800  0.585500  0.764010  1.0  -0.0532
  C  C167  1  0.218400  0.688000  0.739050  1.0  -0.168
  C  C168  1  0.155700  0.736300  0.725330  1.0  -0.0378
  C  C169  1  0.045200  0.684700  0.735420  1.0  -0.2013
  C  C170  1  0.822000  0.584700  0.781470  1.0  0.1588
  C  C171  1  0.869700  0.675500  0.816350  1.0  -0.1941
  C  C172  1  0.822500  0.741400  0.821740  1.0  -0.0179
  C  C173  1  0.728700  0.719100  0.793430  1.0  -0.1284
  C  C174  1  0.678200  0.625200  0.762380  1.0  -0.071
  C  C175  1  0.724500  0.558100  0.756370  1.0  -0.1544
  C  C176  1  0.643600  0.062200  0.732670  1.0  0.6816
  C  C177  1  0.340400  0.747600  0.727460  1.0  0.6447
  C  C178  1  0.687800  0.799900  0.792270  1.0  0.7326
  C  C179  1  0.577100  0.707700  0.639000  1.0  0.2
  C  C180  1  0.605000  0.670200  0.593750  1.0  -0.1746
  C  C181  1  0.615200  0.724900  0.547070  1.0  0.1985
  C  C182  1  0.593500  0.811000  0.546150  1.0  -0.1797
  C  C183  1  0.569900  0.844800  0.593220  1.0  0.1823
  C  C184  1  0.406100  0.589600  0.906280  1.0  0.1315
  C  C185  1  0.403900  0.662000  0.867820  1.0  -0.1916
  C  C186  1  0.460000  0.773700  0.877650  1.0  -0.0165
  C  C187  1  0.517800  0.815700  0.924600  1.0  -0.1223
  C  C188  1  0.517900  0.744600  0.962710  1.0  -0.0046
  C  C189  1  0.463300  0.631800  0.954000  1.0  -0.206
  C  C190  1  0.411300  0.417900  0.905970  1.0  0.1614
  C  C191  1  0.521700  0.466600  0.891600  1.0  -0.1913
  C  C192  1  0.580300  0.414500  0.902660  1.0  -0.047
  C  C193  1  0.530400  0.312000  0.927620  1.0  -0.168
  C  C194  1  0.419400  0.263700  0.941340  1.0  -0.0404
  C  C195  1  0.360500  0.315300  0.931250  1.0  -0.201
  C  C196  1  0.237300  0.415300  0.885200  1.0  0.1587
  C  C197  1  0.194200  0.324500  0.850320  1.0  -0.1938
  C  C198  1  0.081100  0.258600  0.844930  1.0  -0.0186
  C  C199  1  0.009600  0.280900  0.873240  1.0  -0.13
  C  C200  1  0.053000  0.374800  0.904290  1.0  -0.0712
  C  C201  1  0.166400  0.441900  0.910300  1.0  -0.1542
  C  C202  1  0.581400  0.937800  0.934000  1.0  0.6805
  C  C203  1  0.592800  0.252400  0.939210  1.0  0.6445
  C  C204  1  0.887900  0.200100  0.874400  1.0  0.7324
  C  C205  1  0.869400  0.292300  0.027670  1.0  0.2014
  C  C206  1  0.934800  0.329800  0.072920  1.0  -0.1743
  C  C207  1  0.890300  0.275100  0.119600  1.0  0.2078
  C  C208  1  0.782500  0.189000  0.120520  1.0  -0.1782
  C  C209  1  0.725100  0.155200  0.073450  1.0  0.1823
  C  C210  1  0.183500  0.593900  0.572950  1.0  0.1321
  C  C211  1  0.258100  0.596100  0.534490  1.0  -0.1889
  C  C212  1  0.313700  0.540000  0.544320  1.0  -0.018
  C  C213  1  0.297900  0.482200  0.591270  1.0  -0.1199
  C  C214  1  0.226700  0.482100  0.629380  1.0  -0.0121
  C  C215  1  0.168500  0.536700  0.620670  1.0  -0.2069
  C  C216  1  0.006600  0.588700  0.572640  1.0  0.1614
  C  C217  1  0.944900  0.478300  0.558270  1.0  -0.1902
  C  C218  1  0.834200  0.419700  0.569330  1.0  -0.0494
  C  C219  1  0.781600  0.469600  0.594290  1.0  -0.1687
  C  C220  1  0.844300  0.580600  0.608010  1.0  -0.027
  C  C221  1  0.954800  0.639500  0.597920  1.0  -0.2034
  C  C222  1  0.178000  0.762700  0.551870  1.0  0.1577
  C  C223  1  0.130300  0.805800  0.516990  1.0  -0.1917
  C  C224  1  0.177500  0.918900  0.511600  1.0  -0.0222
  C  C225  1  0.271300  0.990400  0.539910  1.0  -0.1277
  C  C226  1  0.321800  0.947000  0.570960  1.0  -0.0719
  C  C227  1  0.275500  0.833600  0.576970  1.0  -0.1553
  C  C228  1  0.356400  0.418600  0.600670  1.0  0.6788
  C  C229  1  0.659600  0.407200  0.605880  1.0  0.6452
  C  C230  1  0.312200  0.112100  0.541070  1.0  0.7355
  C  C231  1  0.422900  0.130600  0.694340  1.0  0.2012
  C  C232  1  0.395000  0.065200  0.739590  1.0  -0.1764
  C  C233  1  0.384800  0.109700  0.786270  1.0  0.1991
  C  C234  1  0.406500  0.217500  0.787190  1.0  -0.175
  C  C235  1  0.430100  0.274900  0.740120  1.0  0.184
  C  C236  1  0.410400  0.816500  0.239610  1.0  0.1304
  C  C237  1  0.338000  0.741900  0.201150  1.0  -0.1922
  C  C238  1  0.226300  0.686300  0.210980  1.0  -0.0176
  C  C239  1  0.184300  0.702100  0.257930  1.0  -0.122
  C  C240  1  0.255400  0.773300  0.296040  1.0  -0.0026
  C  C241  1  0.368200  0.831500  0.287330  1.0  -0.2036
  C  C242  1  0.582100  0.993400  0.239300  1.0  0.1614
  C  C243  1  0.533400  0.055100  0.224930  1.0  -0.1896
  C  C244  1  0.585500  0.165800  0.235990  1.0  -0.045
  C  C245  1  0.688000  0.218400  0.260950  1.0  -0.1658
  C  C246  1  0.736300  0.155700  0.274670  1.0  -0.0254
  C  C247  1  0.684700  0.045200  0.264580  1.0  -0.1977
  C  C248  1  0.584700  0.822000  0.218530  1.0  0.1587
  C  C249  1  0.675500  0.869700  0.183650  1.0  -0.1891
  C  C250  1  0.741400  0.822500  0.178260  1.0  -0.0183
  C  C251  1  0.719100  0.728700  0.206570  1.0  -0.1324
  C  C252  1  0.625200  0.678200  0.237620  1.0  -0.0704
  C  C253  1  0.558100  0.724500  0.243630  1.0  -0.1547
  C  C254  1  0.062200  0.643600  0.267330  1.0  0.6783
  C  C255  1  0.747600  0.340400  0.272540  1.0  0.6451
  C  C256  1  0.799900  0.687800  0.207730  1.0  0.7325
  C  C257  1  0.707700  0.577100  0.361000  1.0  0.2011
  C  C258  1  0.670200  0.605000  0.406250  1.0  -0.1732
  C  C259  1  0.724900  0.615200  0.452930  1.0  0.2094
  C  C260  1  0.811000  0.593500  0.453850  1.0  -0.178
  C  C261  1  0.844800  0.569900  0.406780  1.0  0.1811
  N  N262  1  0.474800  0.352500  0.104480  1.0  -0.1562
  N  N263  1  0.203800  0.768300  0.973480  1.0  -0.328
  N  N264  1  0.304700  0.949100  0.830630  1.0  -0.1786
  N  N265  1  0.647500  0.122300  0.437810  1.0  -0.1558
  N  N266  1  0.231700  0.435500  0.306810  1.0  -0.328
  N  N267  1  0.050900  0.355600  0.163960  1.0  -0.177
  N  N268  1  0.877700  0.525200  0.771150  1.0  -0.1552
  N  N269  1  0.564500  0.796200  0.640150  1.0  -0.3294
  N  N270  1  0.644400  0.695300  0.497300  1.0  -0.1774
  N  N271  1  0.352500  0.474800  0.895520  1.0  -0.1555
  N  N272  1  0.768300  0.203800  0.026520  1.0  -0.3326
  N  N273  1  0.949100  0.304700  0.169370  1.0  -0.1794
  N  N274  1  0.122300  0.647500  0.562190  1.0  -0.1561
  N  N275  1  0.435500  0.231700  0.693190  1.0  -0.3288
  N  N276  1  0.355600  0.050900  0.836040  1.0  -0.1768
  N  N277  1  0.525200  0.877700  0.228850  1.0  -0.156
  N  N278  1  0.796200  0.564500  0.359850  1.0  -0.3319
  N  N279  1  0.695300  0.644400  0.502700  1.0  -0.1774
  O  O280  1  0.002900  0.612800  0.106150  1.0  -0.6658
  O  O281  1  0.977300  0.606000  0.020730  1.0  -0.5715
  O  O282  1  0.296700  0.691800  0.073930  1.0  -0.5535
  O  O283  1  0.161000  0.546700  0.038720  1.0  -0.5682
  O  O284  1  0.128900  0.849600  0.162320  1.0  -0.6072
  O  O285  1  0.205800  0.833200  0.088170  1.0  -0.6409
  O  O286  1  0.387200  0.390100  0.439480  1.0  -0.6647
  O  O287  1  0.394000  0.371300  0.354060  1.0  -0.5693
  O  O288  1  0.308200  0.604900  0.407260  1.0  -0.5557
  O  O289  1  0.453300  0.614300  0.372050  1.0  -0.5659
  O  O290  1  0.150400  0.279300  0.495650  1.0  -0.608
  O  O291  1  0.166800  0.372600  0.421500  1.0  -0.6421
  O  O292  1  0.609900  0.997100  0.772820  1.0  -0.6661
  O  O293  1  0.628700  0.022700  0.687400  1.0  -0.5706
  O  O294  1  0.395100  0.703300  0.740600  1.0  -0.559
  O  O295  1  0.385700  0.839000  0.705390  1.0  -0.5679
  O  O296  1  0.720700  0.871100  0.828990  1.0  -0.6091
  O  O297  1  0.627400  0.794200  0.754840  1.0  -0.6428
  O  O298  1  0.612800  0.002900  0.893850  1.0  -0.6678
  O  O299  1  0.606000  0.977300  0.979270  1.0  -0.5726
  O  O300  1  0.691800  0.296700  0.926070  1.0  -0.555
  O  O301  1  0.546700  0.161000  0.961280  1.0  -0.5678
  O  O302  1  0.849600  0.128900  0.837680  1.0  -0.6068
  O  O303  1  0.833200  0.205800  0.911830  1.0  -0.6437
  O  O304  1  0.390100  0.387200  0.560520  1.0  -0.6676
  O  O305  1  0.371300  0.394000  0.645940  1.0  -0.5739
  O  O306  1  0.604900  0.308200  0.592740  1.0  -0.5538
  O  O307  1  0.614300  0.453300  0.627950  1.0  -0.5664
  O  O308  1  0.279300  0.150400  0.504350  1.0  -0.6086
  O  O309  1  0.372600  0.166800  0.578500  1.0  -0.6416
  O  O310  1  0.997100  0.609900  0.227180  1.0  -0.6668
  O  O311  1  0.022700  0.628700  0.312600  1.0  -0.5716
  O  O312  1  0.703300  0.395100  0.259400  1.0  -0.558
  O  O313  1  0.839000  0.385700  0.294610  1.0  -0.5665
  O  O314  1  0.871100  0.720700  0.171010  1.0  -0.6074
  O  O315  1  0.794200  0.627400  0.245160  1.0  -0.6431
