# generated using pymatgen
data_ZnH17C26(NO3)2
_symmetry_space_group_name_H-M   'P 1'
_cell_length_a   26.03280000
_cell_length_b   9.16550000
_cell_length_c   27.43820000
_cell_angle_alpha   90.00000000
_cell_angle_beta   117.81400000
_cell_angle_gamma   90.00000000
_symmetry_Int_Tables_number   1
_chemical_formula_structural   ZnH17C26(NO3)2
_chemical_formula_sum   'Zn8 H136 C208 N16 O48'
_cell_volume   5790.47631306
_cell_formula_units_Z   8
loop_
 _symmetry_equiv_pos_site_id
 _symmetry_equiv_pos_as_xyz
  1  'x, y, z'
loop_
 _atom_site_type_symbol
 _atom_site_label
 _atom_site_symmetry_multiplicity
 _atom_site_fract_x
 _atom_site_fract_y
 _atom_site_fract_z
 _atom_site_occupancy
 _atom_site_charge
  Zn  Zn1  1  0.113170  0.136030  0.164570  1.0  0.9756
  Zn  Zn2  1  0.613170  0.636030  0.164570  1.0  0.9756
  Zn  Zn3  1  0.113170  0.863970  0.664570  1.0  0.9756
  Zn  Zn4  1  0.613170  0.363970  0.664570  1.0  0.9756
  Zn  Zn5  1  0.886830  0.136030  0.335430  1.0  0.9739
  Zn  Zn6  1  0.386830  0.636030  0.335430  1.0  0.9739
  Zn  Zn7  1  0.886830  0.863970  0.835430  1.0  0.9739
  Zn  Zn8  1  0.386830  0.363970  0.835430  1.0  0.9739
  H  H9  1  0.114700  0.539600  0.311600  1.0  0.1159
  H  H10  1  0.163300  0.593200  0.404800  1.0  0.1134
  H  H11  1  0.275600  0.269300  0.426700  1.0  0.1083
  H  H12  1  0.224700  0.211800  0.335300  1.0  0.0959
  H  H13  1  0.327700  0.386900  0.583400  1.0  0.1185
  H  H14  1  0.427500  0.375300  0.627100  1.0  0.1119
  H  H15  1  0.430200  0.524200  0.491400  1.0  0.1059
  H  H16  1  0.330600  0.535800  0.446900  1.0  0.1162
  H  H17  1  0.158300  0.383500  0.477200  1.0  0.1114
  H  H18  1  0.108900  0.469800  0.522300  1.0  0.115
  H  H19  1  0.237600  0.754100  0.604700  1.0  0.1016
  H  H20  1  0.286000  0.670900  0.558600  1.0  0.1151
  H  H21  1  0.185200  0.952200  0.267000  1.0  0.0922
  H  H22  1  0.222000  0.721300  0.291300  1.0  0.1185
  H  H23  1  0.205900  0.550900  0.223900  1.0  0.1216
  H  H24  1  0.158300  0.622600  0.133200  1.0  0.1135
  H  H25  1  0.123800  0.855800  0.111600  1.0  0.0854
  H  H26  1  0.614700  0.039600  0.311600  1.0  0.1159
  H  H27  1  0.663300  0.093200  0.404800  1.0  0.1134
  H  H28  1  0.775600  0.769300  0.426700  1.0  0.1083
  H  H29  1  0.724700  0.711800  0.335300  1.0  0.0959
  H  H30  1  0.827700  0.886900  0.583400  1.0  0.1185
  H  H31  1  0.927500  0.875300  0.627100  1.0  0.1119
  H  H32  1  0.930200  0.024200  0.491400  1.0  0.1059
  H  H33  1  0.830600  0.035800  0.446900  1.0  0.1162
  H  H34  1  0.658300  0.883500  0.477200  1.0  0.1114
  H  H35  1  0.608900  0.969800  0.522300  1.0  0.115
  H  H36  1  0.737600  0.254100  0.604700  1.0  0.1016
  H  H37  1  0.786000  0.170900  0.558600  1.0  0.1151
  H  H38  1  0.685200  0.452200  0.267000  1.0  0.0922
  H  H39  1  0.722000  0.221300  0.291300  1.0  0.1185
  H  H40  1  0.705900  0.050900  0.223900  1.0  0.1216
  H  H41  1  0.658300  0.122600  0.133200  1.0  0.1135
  H  H42  1  0.623800  0.355800  0.111600  1.0  0.0854
  H  H43  1  0.114700  0.460400  0.811600  1.0  0.1153
  H  H44  1  0.163300  0.406800  0.904800  1.0  0.1132
  H  H45  1  0.275600  0.730700  0.926700  1.0  0.1083
  H  H46  1  0.224700  0.788200  0.835300  1.0  0.0962
  H  H47  1  0.327700  0.613100  0.083400  1.0  0.1187
  H  H48  1  0.427500  0.624700  0.127100  1.0  0.1117
  H  H49  1  0.430200  0.475800  0.991400  1.0  0.106
  H  H50  1  0.330600  0.464200  0.946900  1.0  0.1161
  H  H51  1  0.158300  0.616500  0.977200  1.0  0.1114
  H  H52  1  0.108900  0.530200  0.022300  1.0  0.1148
  H  H53  1  0.237600  0.245900  0.104700  1.0  0.1023
  H  H54  1  0.286000  0.329100  0.058600  1.0  0.1153
  H  H55  1  0.185200  0.047800  0.767000  1.0  0.0924
  H  H56  1  0.222000  0.278700  0.791300  1.0  0.1185
  H  H57  1  0.205900  0.449100  0.723900  1.0  0.1215
  H  H58  1  0.158300  0.377400  0.633200  1.0  0.1136
  H  H59  1  0.123800  0.144200  0.611600  1.0  0.0855
  H  H60  1  0.614700  0.960400  0.811600  1.0  0.1153
  H  H61  1  0.663300  0.906800  0.904800  1.0  0.1132
  H  H62  1  0.775600  0.230700  0.926700  1.0  0.1083
  H  H63  1  0.724700  0.288200  0.835300  1.0  0.0962
  H  H64  1  0.827700  0.113100  0.083400  1.0  0.1187
  H  H65  1  0.927500  0.124700  0.127100  1.0  0.1117
  H  H66  1  0.930200  0.975800  0.991400  1.0  0.106
  H  H67  1  0.830600  0.964200  0.946900  1.0  0.1161
  H  H68  1  0.658300  0.116500  0.977200  1.0  0.1114
  H  H69  1  0.608900  0.030200  0.022300  1.0  0.1148
  H  H70  1  0.737600  0.745900  0.104700  1.0  0.1023
  H  H71  1  0.786000  0.829100  0.058600  1.0  0.1153
  H  H72  1  0.685200  0.547800  0.767000  1.0  0.0924
  H  H73  1  0.722000  0.778700  0.791300  1.0  0.1185
  H  H74  1  0.705900  0.949100  0.723900  1.0  0.1215
  H  H75  1  0.658300  0.877400  0.633200  1.0  0.1136
  H  H76  1  0.623800  0.644200  0.611600  1.0  0.0855
  H  H77  1  0.885300  0.539600  0.188400  1.0  0.1155
  H  H78  1  0.836700  0.593200  0.095200  1.0  0.1139
  H  H79  1  0.724400  0.269300  0.073300  1.0  0.1095
  H  H80  1  0.775300  0.211800  0.164700  1.0  0.0963
  H  H81  1  0.672300  0.386900  0.916600  1.0  0.1202
  H  H82  1  0.572500  0.375300  0.872900  1.0  0.1116
  H  H83  1  0.569800  0.524200  0.008600  1.0  0.1056
  H  H84  1  0.669400  0.535800  0.053100  1.0  0.1162
  H  H85  1  0.841700  0.383500  0.022800  1.0  0.1119
  H  H86  1  0.891100  0.469800  0.977700  1.0  0.1159
  H  H87  1  0.762400  0.754100  0.895300  1.0  0.1021
  H  H88  1  0.714000  0.670900  0.941400  1.0  0.1142
  H  H89  1  0.814800  0.952200  0.233000  1.0  0.0925
  H  H90  1  0.778000  0.721300  0.208700  1.0  0.1174
  H  H91  1  0.794100  0.550900  0.276100  1.0  0.122
  H  H92  1  0.841700  0.622600  0.366800  1.0  0.1131
  H  H93  1  0.876200  0.855800  0.388400  1.0  0.0851
  H  H94  1  0.385300  0.039600  0.188400  1.0  0.1155
  H  H95  1  0.336700  0.093200  0.095200  1.0  0.1139
  H  H96  1  0.224400  0.769300  0.073300  1.0  0.1095
  H  H97  1  0.275300  0.711800  0.164700  1.0  0.0963
  H  H98  1  0.172300  0.886900  0.916600  1.0  0.1202
  H  H99  1  0.072500  0.875300  0.872900  1.0  0.1116
  H  H100  1  0.069800  0.024200  0.008600  1.0  0.1056
  H  H101  1  0.169400  0.035800  0.053100  1.0  0.1162
  H  H102  1  0.341700  0.883500  0.022800  1.0  0.1119
  H  H103  1  0.391100  0.969800  0.977700  1.0  0.1159
  H  H104  1  0.262400  0.254100  0.895300  1.0  0.1021
  H  H105  1  0.214000  0.170900  0.941400  1.0  0.1142
  H  H106  1  0.314800  0.452200  0.233000  1.0  0.0925
  H  H107  1  0.278000  0.221300  0.208700  1.0  0.1174
  H  H108  1  0.294100  0.050900  0.276100  1.0  0.122
  H  H109  1  0.341700  0.122600  0.366800  1.0  0.1131
  H  H110  1  0.376200  0.355800  0.388400  1.0  0.0851
  H  H111  1  0.885300  0.460400  0.688400  1.0  0.1153
  H  H112  1  0.836700  0.406800  0.595200  1.0  0.114
  H  H113  1  0.724400  0.730700  0.573300  1.0  0.1095
  H  H114  1  0.775300  0.788200  0.664700  1.0  0.0963
  H  H115  1  0.672300  0.613100  0.416600  1.0  0.1199
  H  H116  1  0.572500  0.624700  0.372900  1.0  0.1117
  H  H117  1  0.569800  0.475800  0.508600  1.0  0.1062
  H  H118  1  0.669400  0.464200  0.553100  1.0  0.1166
  H  H119  1  0.841700  0.616500  0.522800  1.0  0.1114
  H  H120  1  0.891100  0.530200  0.477700  1.0  0.1159
  H  H121  1  0.762400  0.245900  0.395300  1.0  0.1022
  H  H122  1  0.714000  0.329100  0.441400  1.0  0.1142
  H  H123  1  0.814800  0.047800  0.733000  1.0  0.0929
  H  H124  1  0.778000  0.278700  0.708700  1.0  0.1173
  H  H125  1  0.794100  0.449100  0.776100  1.0  0.1217
  H  H126  1  0.841700  0.377400  0.866800  1.0  0.1127
  H  H127  1  0.876200  0.144200  0.888400  1.0  0.085
  H  H128  1  0.385300  0.960400  0.688400  1.0  0.1153
  H  H129  1  0.336700  0.906800  0.595200  1.0  0.114
  H  H130  1  0.224400  0.230700  0.573300  1.0  0.1095
  H  H131  1  0.275300  0.288200  0.664700  1.0  0.0963
  H  H132  1  0.172300  0.113100  0.416600  1.0  0.1199
  H  H133  1  0.072500  0.124700  0.372900  1.0  0.1117
  H  H134  1  0.069800  0.975800  0.508600  1.0  0.1062
  H  H135  1  0.169400  0.964200  0.553100  1.0  0.1166
  H  H136  1  0.341700  0.116500  0.522800  1.0  0.1114
  H  H137  1  0.391100  0.030200  0.477700  1.0  0.1159
  H  H138  1  0.262400  0.745900  0.395300  1.0  0.1022
  H  H139  1  0.214000  0.829100  0.441400  1.0  0.1142
  H  H140  1  0.314800  0.547800  0.733000  1.0  0.0929
  H  H141  1  0.278000  0.778700  0.708700  1.0  0.1173
  H  H142  1  0.294100  0.949100  0.776100  1.0  0.1217
  H  H143  1  0.341700  0.877400  0.866800  1.0  0.1127
  H  H144  1  0.376200  0.644200  0.888400  1.0  0.085
  C  C145  1  0.164370  0.369300  0.313660  1.0  -0.131
  C  C146  1  0.146700  0.484000  0.334930  1.0  -0.0346
  C  C147  1  0.176290  0.517300  0.390870  1.0  -0.1999
  C  C148  1  0.224980  0.437900  0.425910  1.0  0.1621
  C  C149  1  0.242860  0.323400  0.403950  1.0  -0.1425
  C  C150  1  0.212540  0.289800  0.349030  1.0  -0.0101
  C  C151  1  0.318060  0.463500  0.510290  1.0  0.1507
  C  C152  1  0.348090  0.414900  0.564710  1.0  -0.1667
  C  C153  1  0.407970  0.408200  0.590870  1.0  -0.0194
  C  C154  1  0.439370  0.449500  0.564180  1.0  -0.1269
  C  C155  1  0.409530  0.496800  0.509970  1.0  -0.0114
  C  C156  1  0.349840  0.503900  0.483250  1.0  -0.1673
  C  C157  1  0.226620  0.520600  0.511870  1.0  0.1632
  C  C158  1  0.173900  0.459700  0.502300  1.0  -0.1305
  C  C159  1  0.144470  0.510900  0.529570  1.0  -0.0082
  C  C160  1  0.167460  0.624000  0.568000  1.0  -0.1706
  C  C161  1  0.221070  0.680700  0.578520  1.0  -0.0136
  C  C162  1  0.250220  0.630700  0.550970  1.0  -0.1773
  C  C163  1  0.132610  0.332500  0.252440  1.0  0.7012
  C  C164  1  0.505180  0.444100  0.592770  1.0  0.709
  C  C165  1  0.133460  0.684000  0.595640  1.0  0.6624
  C  C166  1  0.179430  0.885300  0.239440  1.0  0.1794
  C  C167  1  0.201270  0.746500  0.254280  1.0  -0.1078
  C  C168  1  0.192520  0.646200  0.214600  1.0  -0.0962
  C  C169  1  0.163940  0.688200  0.161120  1.0  -0.0837
  C  C170  1  0.143350  0.828500  0.148440  1.0  0.1821
  C  C171  1  0.664370  0.869300  0.313660  1.0  -0.131
  C  C172  1  0.646700  0.984000  0.334930  1.0  -0.0346
  C  C173  1  0.676290  0.017300  0.390870  1.0  -0.1999
  C  C174  1  0.724980  0.937900  0.425910  1.0  0.1621
  C  C175  1  0.742860  0.823400  0.403950  1.0  -0.1425
  C  C176  1  0.712540  0.789800  0.349030  1.0  -0.0101
  C  C177  1  0.818060  0.963500  0.510290  1.0  0.1507
  C  C178  1  0.848090  0.914900  0.564710  1.0  -0.1667
  C  C179  1  0.907970  0.908200  0.590870  1.0  -0.0194
  C  C180  1  0.939370  0.949500  0.564180  1.0  -0.1269
  C  C181  1  0.909530  0.996800  0.509970  1.0  -0.0114
  C  C182  1  0.849840  0.003900  0.483250  1.0  -0.1673
  C  C183  1  0.726620  0.020600  0.511870  1.0  0.1632
  C  C184  1  0.673900  0.959700  0.502300  1.0  -0.1305
  C  C185  1  0.644470  0.010900  0.529570  1.0  -0.0082
  C  C186  1  0.667460  0.124000  0.568000  1.0  -0.1706
  C  C187  1  0.721070  0.180700  0.578520  1.0  -0.0136
  C  C188  1  0.750220  0.130700  0.550970  1.0  -0.1773
  C  C189  1  0.632610  0.832500  0.252440  1.0  0.7012
  C  C190  1  0.005180  0.944100  0.592770  1.0  0.709
  C  C191  1  0.633460  0.184000  0.595640  1.0  0.6624
  C  C192  1  0.679430  0.385300  0.239440  1.0  0.1794
  C  C193  1  0.701270  0.246500  0.254280  1.0  -0.1078
  C  C194  1  0.692520  0.146200  0.214600  1.0  -0.0962
  C  C195  1  0.663940  0.188200  0.161120  1.0  -0.0837
  C  C196  1  0.643350  0.328500  0.148440  1.0  0.1821
  C  C197  1  0.164370  0.630700  0.813660  1.0  -0.1308
  C  C198  1  0.146700  0.516000  0.834930  1.0  -0.0348
  C  C199  1  0.176290  0.482700  0.890870  1.0  -0.2006
  C  C200  1  0.224980  0.562100  0.925910  1.0  0.1625
  C  C201  1  0.242860  0.676600  0.903950  1.0  -0.1424
  C  C202  1  0.212540  0.710200  0.849030  1.0  -0.0104
  C  C203  1  0.318060  0.536500  0.010290  1.0  0.1504
  C  C204  1  0.348090  0.585100  0.064710  1.0  -0.1668
  C  C205  1  0.407970  0.591800  0.090870  1.0  -0.0203
  C  C206  1  0.439370  0.550500  0.064180  1.0  -0.1266
  C  C207  1  0.409530  0.503200  0.009970  1.0  -0.0113
  C  C208  1  0.349840  0.496100  0.983250  1.0  -0.1675
  C  C209  1  0.226620  0.479400  0.011870  1.0  0.163
  C  C210  1  0.173900  0.540300  0.002300  1.0  -0.1299
  C  C211  1  0.144470  0.489100  0.029570  1.0  -0.0089
  C  C212  1  0.167460  0.376000  0.068000  1.0  -0.17
  C  C213  1  0.221070  0.319300  0.078520  1.0  -0.0142
  C  C214  1  0.250220  0.369300  0.050970  1.0  -0.1774
  C  C215  1  0.132610  0.667500  0.752440  1.0  0.7013
  C  C216  1  0.505180  0.555900  0.092770  1.0  0.709
  C  C217  1  0.133460  0.316000  0.095640  1.0  0.662
  C  C218  1  0.179430  0.114700  0.739440  1.0  0.1796
  C  C219  1  0.201270  0.253500  0.754280  1.0  -0.1081
  C  C220  1  0.192520  0.353800  0.714600  1.0  -0.095
  C  C221  1  0.163940  0.311800  0.661120  1.0  -0.0837
  C  C222  1  0.143350  0.171500  0.648440  1.0  0.181
  C  C223  1  0.664370  0.130700  0.813660  1.0  -0.1308
  C  C224  1  0.646700  0.016000  0.834930  1.0  -0.0348
  C  C225  1  0.676290  0.982700  0.890870  1.0  -0.2006
  C  C226  1  0.724980  0.062100  0.925910  1.0  0.1625
  C  C227  1  0.742860  0.176600  0.903950  1.0  -0.1424
  C  C228  1  0.712540  0.210200  0.849030  1.0  -0.0104
  C  C229  1  0.818060  0.036500  0.010290  1.0  0.1504
  C  C230  1  0.848090  0.085100  0.064710  1.0  -0.1668
  C  C231  1  0.907970  0.091800  0.090870  1.0  -0.0203
  C  C232  1  0.939370  0.050500  0.064180  1.0  -0.1266
  C  C233  1  0.909530  0.003200  0.009970  1.0  -0.0113
  C  C234  1  0.849840  0.996100  0.983250  1.0  -0.1675
  C  C235  1  0.726620  0.979400  0.011870  1.0  0.163
  C  C236  1  0.673900  0.040300  0.002300  1.0  -0.1299
  C  C237  1  0.644470  0.989100  0.029570  1.0  -0.0089
  C  C238  1  0.667460  0.876000  0.068000  1.0  -0.17
  C  C239  1  0.721070  0.819300  0.078520  1.0  -0.0142
  C  C240  1  0.750220  0.869300  0.050970  1.0  -0.1774
  C  C241  1  0.632610  0.167500  0.752440  1.0  0.7013
  C  C242  1  0.005180  0.055900  0.092770  1.0  0.709
  C  C243  1  0.633460  0.816000  0.095640  1.0  0.662
  C  C244  1  0.679430  0.614700  0.739440  1.0  0.1796
  C  C245  1  0.701270  0.753500  0.754280  1.0  -0.1081
  C  C246  1  0.692520  0.853800  0.714600  1.0  -0.095
  C  C247  1  0.663940  0.811800  0.661120  1.0  -0.0837
  C  C248  1  0.643350  0.671500  0.648440  1.0  0.181
  C  C249  1  0.835630  0.369300  0.186340  1.0  -0.1304
  C  C250  1  0.853300  0.484000  0.165070  1.0  -0.0324
  C  C251  1  0.823710  0.517300  0.109130  1.0  -0.1988
  C  C252  1  0.775020  0.437900  0.074090  1.0  0.1626
  C  C253  1  0.757140  0.323400  0.096050  1.0  -0.1405
  C  C254  1  0.787460  0.289800  0.150970  1.0  -0.0095
  C  C255  1  0.681940  0.463500  0.989710  1.0  0.1498
  C  C256  1  0.651910  0.414900  0.935290  1.0  -0.1662
  C  C257  1  0.592030  0.408200  0.909130  1.0  -0.0209
  C  C258  1  0.560630  0.449500  0.935820  1.0  -0.1277
  C  C259  1  0.590470  0.496800  0.990030  1.0  -0.0101
  C  C260  1  0.650160  0.503900  0.016750  1.0  -0.1696
  C  C261  1  0.773380  0.520600  0.988130  1.0  0.1631
  C  C262  1  0.826100  0.459700  0.997700  1.0  -0.1295
  C  C263  1  0.855530  0.510900  0.970430  1.0  -0.0084
  C  C264  1  0.832540  0.624000  0.932000  1.0  -0.1699
  C  C265  1  0.778930  0.680700  0.921480  1.0  -0.014
  C  C266  1  0.749780  0.630700  0.949030  1.0  -0.1762
  C  C267  1  0.867390  0.332500  0.247560  1.0  0.7019
  C  C268  1  0.494820  0.444100  0.907230  1.0  0.7084
  C  C269  1  0.866540  0.684000  0.904360  1.0  0.6611
  C  C270  1  0.820570  0.885300  0.260560  1.0  0.178
  C  C271  1  0.798730  0.746500  0.245720  1.0  -0.1077
  C  C272  1  0.807480  0.646200  0.285400  1.0  -0.0964
  C  C273  1  0.836060  0.688200  0.338880  1.0  -0.0852
  C  C274  1  0.856650  0.828500  0.351560  1.0  0.1815
  C  C275  1  0.335630  0.869300  0.186340  1.0  -0.1304
  C  C276  1  0.353300  0.984000  0.165070  1.0  -0.0324
  C  C277  1  0.323710  0.017300  0.109130  1.0  -0.1988
  C  C278  1  0.275020  0.937900  0.074090  1.0  0.1626
  C  C279  1  0.257140  0.823400  0.096050  1.0  -0.1405
  C  C280  1  0.287460  0.789800  0.150970  1.0  -0.0095
  C  C281  1  0.181940  0.963500  0.989710  1.0  0.1498
  C  C282  1  0.151910  0.914900  0.935290  1.0  -0.1662
  C  C283  1  0.092030  0.908200  0.909130  1.0  -0.0209
  C  C284  1  0.060630  0.949500  0.935820  1.0  -0.1277
  C  C285  1  0.090470  0.996800  0.990030  1.0  -0.0101
  C  C286  1  0.150160  0.003900  0.016750  1.0  -0.1696
  C  C287  1  0.273380  0.020600  0.988130  1.0  0.1631
  C  C288  1  0.326100  0.959700  0.997700  1.0  -0.1295
  C  C289  1  0.355530  0.010900  0.970430  1.0  -0.0084
  C  C290  1  0.332540  0.124000  0.932000  1.0  -0.1699
  C  C291  1  0.278930  0.180700  0.921480  1.0  -0.014
  C  C292  1  0.249780  0.130700  0.949030  1.0  -0.1762
  C  C293  1  0.367390  0.832500  0.247560  1.0  0.7019
  C  C294  1  0.994820  0.944100  0.907230  1.0  0.7084
  C  C295  1  0.366540  0.184000  0.904360  1.0  0.6611
  C  C296  1  0.320570  0.385300  0.260560  1.0  0.178
  C  C297  1  0.298730  0.246500  0.245720  1.0  -0.1077
  C  C298  1  0.307480  0.146200  0.285400  1.0  -0.0964
  C  C299  1  0.336060  0.188200  0.338880  1.0  -0.0852
  C  C300  1  0.356650  0.328500  0.351560  1.0  0.1815
  C  C301  1  0.835630  0.630700  0.686340  1.0  -0.1305
  C  C302  1  0.853300  0.516000  0.665070  1.0  -0.0323
  C  C303  1  0.823710  0.482700  0.609130  1.0  -0.1999
  C  C304  1  0.775020  0.562100  0.574090  1.0  0.163
  C  C305  1  0.757140  0.676600  0.596050  1.0  -0.1406
  C  C306  1  0.787460  0.710200  0.650970  1.0  -0.0089
  C  C307  1  0.681940  0.536500  0.489710  1.0  0.1496
  C  C308  1  0.651910  0.585100  0.435290  1.0  -0.166
  C  C309  1  0.592030  0.591800  0.409130  1.0  -0.0212
  C  C310  1  0.560630  0.550500  0.435820  1.0  -0.1277
  C  C311  1  0.590470  0.503200  0.490030  1.0  -0.0093
  C  C312  1  0.650160  0.496100  0.516750  1.0  -0.1698
  C  C313  1  0.773380  0.479400  0.488130  1.0  0.1628
  C  C314  1  0.826100  0.540300  0.497700  1.0  -0.1284
  C  C315  1  0.855530  0.489100  0.470430  1.0  -0.0083
  C  C316  1  0.832540  0.376000  0.432000  1.0  -0.1697
  C  C317  1  0.778930  0.319300  0.421480  1.0  -0.0137
  C  C318  1  0.749780  0.369300  0.449030  1.0  -0.1763
  C  C319  1  0.867390  0.667500  0.747560  1.0  0.7018
  C  C320  1  0.494820  0.555900  0.407230  1.0  0.7084
  C  C321  1  0.866540  0.316000  0.404360  1.0  0.6609
  C  C322  1  0.820570  0.114700  0.760560  1.0  0.1786
  C  C323  1  0.798730  0.253500  0.745720  1.0  -0.108
  C  C324  1  0.807480  0.353800  0.785400  1.0  -0.0946
  C  C325  1  0.836060  0.311800  0.838880  1.0  -0.0858
  C  C326  1  0.856650  0.171500  0.851560  1.0  0.1814
  C  C327  1  0.335630  0.130700  0.686340  1.0  -0.1305
  C  C328  1  0.353300  0.016000  0.665070  1.0  -0.0323
  C  C329  1  0.323710  0.982700  0.609130  1.0  -0.1999
  C  C330  1  0.275020  0.062100  0.574090  1.0  0.163
  C  C331  1  0.257140  0.176600  0.596050  1.0  -0.1406
  C  C332  1  0.287460  0.210200  0.650970  1.0  -0.0089
  C  C333  1  0.181940  0.036500  0.489710  1.0  0.1496
  C  C334  1  0.151910  0.085100  0.435290  1.0  -0.166
  C  C335  1  0.092030  0.091800  0.409130  1.0  -0.0212
  C  C336  1  0.060630  0.050500  0.435820  1.0  -0.1277
  C  C337  1  0.090470  0.003200  0.490030  1.0  -0.0093
  C  C338  1  0.150160  0.996100  0.516750  1.0  -0.1698
  C  C339  1  0.273380  0.979400  0.488130  1.0  0.1628
  C  C340  1  0.326100  0.040300  0.497700  1.0  -0.1284
  C  C341  1  0.355530  0.989100  0.470430  1.0  -0.0083
  C  C342  1  0.332540  0.876000  0.432000  1.0  -0.1697
  C  C343  1  0.278930  0.819300  0.421480  1.0  -0.0137
  C  C344  1  0.249780  0.869300  0.449030  1.0  -0.1763
  C  C345  1  0.367390  0.167500  0.747560  1.0  0.7018
  C  C346  1  0.994820  0.055900  0.407230  1.0  0.7084
  C  C347  1  0.366540  0.816000  0.404360  1.0  0.6609
  C  C348  1  0.320570  0.614700  0.760560  1.0  0.1786
  C  C349  1  0.298730  0.753500  0.745720  1.0  -0.108
  C  C350  1  0.307480  0.853800  0.785400  1.0  -0.0946
  C  C351  1  0.336060  0.811800  0.838880  1.0  -0.0858
  C  C352  1  0.356650  0.671500  0.851560  1.0  0.1814
  N  N353  1  0.256250  0.471100  0.482840  1.0  -0.1897
  N  N354  1  0.150230  0.927700  0.186930  1.0  -0.3294
  N  N355  1  0.756250  0.971100  0.482840  1.0  -0.1897
  N  N356  1  0.650230  0.427700  0.186930  1.0  -0.3294
  N  N357  1  0.256250  0.528900  0.982840  1.0  -0.1894
  N  N358  1  0.150230  0.072300  0.686930  1.0  -0.3298
  N  N359  1  0.756250  0.028900  0.982840  1.0  -0.1894
  N  N360  1  0.650230  0.572300  0.686930  1.0  -0.3298
  N  N361  1  0.743750  0.471100  0.017160  1.0  -0.1898
  N  N362  1  0.849770  0.927700  0.313070  1.0  -0.328
  N  N363  1  0.243750  0.971100  0.017160  1.0  -0.1898
  N  N364  1  0.349770  0.427700  0.313070  1.0  -0.328
  N  N365  1  0.743750  0.528900  0.517160  1.0  -0.1896
  N  N366  1  0.849770  0.072300  0.813070  1.0  -0.3281
  N  N367  1  0.243750  0.028900  0.517160  1.0  -0.1896
  N  N368  1  0.349770  0.572300  0.813070  1.0  -0.3281
  O  O369  1  0.095620  0.415700  0.221180  1.0  -0.5172
  O  O370  1  0.148270  0.214700  0.239440  1.0  -0.5993
  O  O371  1  0.531760  0.504900  0.571130  1.0  -0.585
  O  O372  1  0.529300  0.378000  0.638240  1.0  -0.6043
  O  O373  1  0.157050  0.788700  0.628480  1.0  -0.584
  O  O374  1  0.085330  0.632900  0.583980  1.0  -0.5401
  O  O375  1  0.595620  0.915700  0.221180  1.0  -0.5172
  O  O376  1  0.648270  0.714700  0.239440  1.0  -0.5993
  O  O377  1  0.031760  0.004900  0.571130  1.0  -0.585
  O  O378  1  0.029300  0.878000  0.638240  1.0  -0.6043
  O  O379  1  0.657050  0.288700  0.628480  1.0  -0.584
  O  O380  1  0.585330  0.132900  0.583980  1.0  -0.5401
  O  O381  1  0.095620  0.584300  0.721180  1.0  -0.5167
  O  O382  1  0.148270  0.785300  0.739440  1.0  -0.5999
  O  O383  1  0.531760  0.495100  0.071130  1.0  -0.5848
  O  O384  1  0.529300  0.622000  0.138240  1.0  -0.6043
  O  O385  1  0.157050  0.211300  0.128480  1.0  -0.5841
  O  O386  1  0.085330  0.367100  0.083980  1.0  -0.5416
  O  O387  1  0.595620  0.084300  0.721180  1.0  -0.5167
  O  O388  1  0.648270  0.285300  0.739440  1.0  -0.5999
  O  O389  1  0.031760  0.995100  0.071130  1.0  -0.5848
  O  O390  1  0.029300  0.122000  0.138240  1.0  -0.6043
  O  O391  1  0.657050  0.711300  0.128480  1.0  -0.5841
  O  O392  1  0.585330  0.867100  0.083980  1.0  -0.5416
  O  O393  1  0.904380  0.415700  0.278820  1.0  -0.5176
  O  O394  1  0.851730  0.214700  0.260560  1.0  -0.598
  O  O395  1  0.468240  0.504900  0.928870  1.0  -0.5852
  O  O396  1  0.470700  0.378000  0.861760  1.0  -0.6025
  O  O397  1  0.842950  0.788700  0.871520  1.0  -0.5837
  O  O398  1  0.914670  0.632900  0.916020  1.0  -0.5431
  O  O399  1  0.404380  0.915700  0.278820  1.0  -0.5176
  O  O400  1  0.351730  0.714700  0.260560  1.0  -0.598
  O  O401  1  0.968240  0.004900  0.928870  1.0  -0.5852
  O  O402  1  0.970700  0.878000  0.861760  1.0  -0.6025
  O  O403  1  0.342950  0.288700  0.871520  1.0  -0.5837
  O  O404  1  0.414670  0.132900  0.916020  1.0  -0.5431
  O  O405  1  0.904380  0.584300  0.778820  1.0  -0.5194
  O  O406  1  0.851730  0.785300  0.760560  1.0  -0.5988
  O  O407  1  0.468240  0.495100  0.428870  1.0  -0.5848
  O  O408  1  0.470700  0.622000  0.361760  1.0  -0.6025
  O  O409  1  0.842950  0.211300  0.371520  1.0  -0.5844
  O  O410  1  0.914670  0.367100  0.416020  1.0  -0.5417
  O  O411  1  0.404380  0.084300  0.778820  1.0  -0.5194
  O  O412  1  0.351730  0.285300  0.760560  1.0  -0.5988
  O  O413  1  0.968240  0.995100  0.428870  1.0  -0.5848
  O  O414  1  0.970700  0.122000  0.361760  1.0  -0.6025
  O  O415  1  0.342950  0.711300  0.371520  1.0  -0.5844
  O  O416  1  0.414670  0.867100  0.416020  1.0  -0.5417
