# generated using pymatgen
data_Cu2H6C9N3ClO3
_symmetry_space_group_name_H-M   'P 1'
_cell_length_a   13.30690000
_cell_length_b   25.62900000
_cell_length_c   9.85600000
_cell_angle_alpha   90.00000000
_cell_angle_beta   91.45500000
_cell_angle_gamma   90.00000000
_symmetry_Int_Tables_number   1
_chemical_formula_structural   Cu2H6C9N3ClO3
_chemical_formula_sum   'Cu16 H48 C72 N24 Cl8 O24'
_cell_volume   3360.23150645
_cell_formula_units_Z   8
loop_
 _symmetry_equiv_pos_site_id
 _symmetry_equiv_pos_as_xyz
  1  'x, y, z'
loop_
 _atom_site_type_symbol
 _atom_site_label
 _atom_site_symmetry_multiplicity
 _atom_site_fract_x
 _atom_site_fract_y
 _atom_site_fract_z
 _atom_site_occupancy
 _atom_site_charge
  Cu  Cu1  1  0.281580  0.514510  0.617770  1.0  0.9646
  Cu  Cu2  1  0.459750  0.459680  0.550240  1.0  0.9935
  Cu  Cu3  1  0.387410  0.548770  0.350970  1.0  0.9131
  Cu  Cu4  1  0.766720  0.889460  0.609640  1.0  0.7049
  Cu  Cu5  1  0.781580  0.014510  0.617770  1.0  0.9646
  Cu  Cu6  1  0.959750  0.959680  0.550240  1.0  0.9935
  Cu  Cu7  1  0.887410  0.048770  0.350970  1.0  0.9131
  Cu  Cu8  1  0.266720  0.389460  0.609640  1.0  0.7049
  Cu  Cu9  1  0.281580  0.485490  0.117770  1.0  0.9644
  Cu  Cu10  1  0.459750  0.540320  0.050240  1.0  0.9934
  Cu  Cu11  1  0.387410  0.451230  0.850970  1.0  0.9135
  Cu  Cu12  1  0.766720  0.110540  0.109640  1.0  0.7053
  Cu  Cu13  1  0.781580  0.985490  0.117770  1.0  0.9644
  Cu  Cu14  1  0.959750  0.040320  0.050240  1.0  0.9934
  Cu  Cu15  1  0.887410  0.951230  0.850970  1.0  0.9135
  Cu  Cu16  1  0.266720  0.610540  0.109640  1.0  0.7053
  H  H17  1  0.237100  0.699000  0.323800  1.0  0.1236
  H  H18  1  0.837700  0.594900  0.150600  1.0  0.1373
  H  H19  1  0.050900  0.462900  0.207400  1.0  0.1205
  H  H20  1  0.145800  0.775800  0.348100  1.0  0.119
  H  H21  1  0.094300  0.638900  0.649100  1.0  0.111
  H  H22  1  0.926200  0.471100  0.385400  1.0  0.1213
  H  H23  1  0.673900  0.578300  0.206300  1.0  0.0922
  H  H24  1  0.117200  0.859700  0.490000  1.0  0.1173
  H  H25  1  0.759500  0.454400  0.428900  1.0  0.1022
  H  H26  1  0.006900  0.715900  0.671800  1.0  0.1389
  H  H27  1  0.874400  0.777300  0.572300  1.0  0.1082
  H  H28  1  0.025100  0.617600  0.196900  1.0  0.1011
  H  H29  1  0.737100  0.199000  0.323800  1.0  0.1236
  H  H30  1  0.337700  0.094900  0.150600  1.0  0.1373
  H  H31  1  0.550900  0.962900  0.207400  1.0  0.1205
  H  H32  1  0.645800  0.275800  0.348100  1.0  0.119
  H  H33  1  0.594300  0.138900  0.649100  1.0  0.111
  H  H34  1  0.426200  0.971100  0.385400  1.0  0.1213
  H  H35  1  0.173900  0.078300  0.206300  1.0  0.0922
  H  H36  1  0.617200  0.359700  0.490000  1.0  0.1173
  H  H37  1  0.259500  0.954400  0.428900  1.0  0.1022
  H  H38  1  0.506900  0.215900  0.671800  1.0  0.1389
  H  H39  1  0.374400  0.277300  0.572300  1.0  0.1082
  H  H40  1  0.525100  0.117600  0.196900  1.0  0.1011
  H  H41  1  0.237100  0.301000  0.823800  1.0  0.1239
  H  H42  1  0.837700  0.405100  0.650600  1.0  0.1373
  H  H43  1  0.050900  0.537100  0.707400  1.0  0.1205
  H  H44  1  0.145800  0.224200  0.848100  1.0  0.1192
  H  H45  1  0.094300  0.361100  0.149100  1.0  0.1105
  H  H46  1  0.926200  0.528900  0.885400  1.0  0.1211
  H  H47  1  0.673900  0.421700  0.706300  1.0  0.0915
  H  H48  1  0.117200  0.140300  0.990000  1.0  0.1175
  H  H49  1  0.759500  0.545600  0.928900  1.0  0.102
  H  H50  1  0.006900  0.284100  0.171800  1.0  0.1389
  H  H51  1  0.874400  0.222700  0.072300  1.0  0.1091
  H  H52  1  0.025100  0.382400  0.696900  1.0  0.1014
  H  H53  1  0.737100  0.801000  0.823800  1.0  0.1239
  H  H54  1  0.337700  0.905100  0.650600  1.0  0.1373
  H  H55  1  0.550900  0.037100  0.707400  1.0  0.1205
  H  H56  1  0.645800  0.724200  0.848100  1.0  0.1192
  H  H57  1  0.594300  0.861100  0.149100  1.0  0.1105
  H  H58  1  0.426200  0.028900  0.885400  1.0  0.1211
  H  H59  1  0.173900  0.921700  0.706300  1.0  0.0915
  H  H60  1  0.617200  0.640300  0.990000  1.0  0.1175
  H  H61  1  0.259500  0.045600  0.928900  1.0  0.102
  H  H62  1  0.506900  0.784100  0.171800  1.0  0.1389
  H  H63  1  0.374400  0.722700  0.072300  1.0  0.1091
  H  H64  1  0.525100  0.882400  0.696900  1.0  0.1014
  C  C65  1  0.175400  0.660590  0.488900  1.0  -0.1282
  C  C66  1  0.700800  0.516020  0.322000  1.0  -0.1484
  C  C67  1  0.190600  0.702480  0.394800  1.0  -0.0946
  C  C68  1  0.821900  0.566300  0.207300  1.0  -0.1606
  C  C69  1  0.065200  0.499000  0.196600  1.0  0.1109
  C  C70  1  0.136700  0.747730  0.409500  1.0  -0.1455
  C  C71  1  0.106100  0.666900  0.588200  1.0  0.0064
  C  C72  1  0.874500  0.492200  0.346200  1.0  -0.2124
  C  C73  1  0.725700  0.556200  0.241000  1.0  -0.0294
  C  C74  1  0.897300  0.533180  0.258500  1.0  0.1381
  C  C75  1  0.050900  0.850260  0.513900  1.0  0.1178
  C  C76  1  0.776800  0.483300  0.373700  1.0  -0.0197
  C  C77  1  0.054000  0.711900  0.601700  1.0  -0.1823
  C  C78  1  0.919200  0.805650  0.558700  1.0  0.139
  C  C79  1  0.231400  0.610620  0.473900  1.0  0.7234
  C  C80  1  0.592700  0.504990  0.360900  1.0  0.7135
  C  C81  1  0.071400  0.752630  0.509600  1.0  0.1741
  C  C82  1  0.051500  0.583300  0.191700  1.0  0.1115
  C  C83  1  0.675400  0.160590  0.488900  1.0  -0.1282
  C  C84  1  0.200800  0.016020  0.322000  1.0  -0.1484
  C  C85  1  0.690600  0.202480  0.394800  1.0  -0.0946
  C  C86  1  0.321900  0.066300  0.207300  1.0  -0.1606
  C  C87  1  0.565200  0.999000  0.196600  1.0  0.1109
  C  C88  1  0.636700  0.247730  0.409500  1.0  -0.1455
  C  C89  1  0.606100  0.166900  0.588200  1.0  0.0064
  C  C90  1  0.374500  0.992200  0.346200  1.0  -0.2124
  C  C91  1  0.225700  0.056200  0.241000  1.0  -0.0294
  C  C92  1  0.397300  0.033180  0.258500  1.0  0.1381
  C  C93  1  0.550900  0.350260  0.513900  1.0  0.1178
  C  C94  1  0.276800  0.983300  0.373700  1.0  -0.0197
  C  C95  1  0.554000  0.211900  0.601700  1.0  -0.1823
  C  C96  1  0.419200  0.305650  0.558700  1.0  0.139
  C  C97  1  0.731400  0.110620  0.473900  1.0  0.7234
  C  C98  1  0.092700  0.004990  0.360900  1.0  0.7135
  C  C99  1  0.571400  0.252630  0.509600  1.0  0.1741
  C  C100  1  0.551500  0.083300  0.191700  1.0  0.1115
  C  C101  1  0.175400  0.339410  0.988900  1.0  -0.1298
  C  C102  1  0.700800  0.483980  0.822000  1.0  -0.1484
  C  C103  1  0.190600  0.297520  0.894800  1.0  -0.0945
  C  C104  1  0.821900  0.433700  0.707300  1.0  -0.1588
  C  C105  1  0.065200  0.501000  0.696600  1.0  0.1118
  C  C106  1  0.136700  0.252270  0.909500  1.0  -0.1455
  C  C107  1  0.106100  0.333100  0.088200  1.0  0.0062
  C  C108  1  0.874500  0.507800  0.846200  1.0  -0.212
  C  C109  1  0.725700  0.443800  0.741000  1.0  -0.0288
  C  C110  1  0.897300  0.466820  0.758500  1.0  0.1381
  C  C111  1  0.050900  0.149740  0.013900  1.0  0.1172
  C  C112  1  0.776800  0.516700  0.873700  1.0  -0.0199
  C  C113  1  0.054000  0.288100  0.101700  1.0  -0.1825
  C  C114  1  0.919200  0.194350  0.058700  1.0  0.1393
  C  C115  1  0.231400  0.389380  0.973900  1.0  0.7234
  C  C116  1  0.592700  0.495010  0.860900  1.0  0.7137
  C  C117  1  0.071400  0.247370  0.009600  1.0  0.174
  C  C118  1  0.051500  0.416700  0.691700  1.0  0.1119
  C  C119  1  0.675400  0.839410  0.988900  1.0  -0.1298
  C  C120  1  0.200800  0.983980  0.822000  1.0  -0.1484
  C  C121  1  0.690600  0.797520  0.894800  1.0  -0.0945
  C  C122  1  0.321900  0.933700  0.707300  1.0  -0.1588
  C  C123  1  0.565200  0.001000  0.696600  1.0  0.1118
  C  C124  1  0.636700  0.752270  0.909500  1.0  -0.1455
  C  C125  1  0.606100  0.833100  0.088200  1.0  0.0062
  C  C126  1  0.374500  0.007800  0.846200  1.0  -0.212
  C  C127  1  0.225700  0.943800  0.741000  1.0  -0.0288
  C  C128  1  0.397300  0.966820  0.758500  1.0  0.1381
  C  C129  1  0.550900  0.649740  0.013900  1.0  0.1172
  C  C130  1  0.276800  0.016700  0.873700  1.0  -0.0199
  C  C131  1  0.554000  0.788100  0.101700  1.0  -0.1825
  C  C132  1  0.419200  0.694350  0.058700  1.0  0.1393
  C  C133  1  0.731400  0.889380  0.973900  1.0  0.7234
  C  C134  1  0.092700  0.995010  0.860900  1.0  0.7137
  C  C135  1  0.571400  0.747370  0.009600  1.0  0.174
  C  C136  1  0.551500  0.916700  0.691700  1.0  0.1119
  N  N137  1  0.014700  0.800250  0.523900  1.0  0.0297
  N  N138  1  0.142600  0.571750  0.158000  1.0  -0.1886
  N  N139  1  0.149400  0.518230  0.159300  1.0  -0.1753
  N  N140  1  0.999900  0.539040  0.218100  1.0  0.0459
  N  N141  1  0.979400  0.882400  0.542500  1.0  -0.2257
  N  N142  1  0.895300  0.853500  0.571600  1.0  -0.2351
  N  N143  1  0.514700  0.300250  0.523900  1.0  0.0297
  N  N144  1  0.642600  0.071750  0.158000  1.0  -0.1886
  N  N145  1  0.649400  0.018230  0.159300  1.0  -0.1753
  N  N146  1  0.499900  0.039040  0.218100  1.0  0.0459
  N  N147  1  0.479400  0.382400  0.542500  1.0  -0.2257
  N  N148  1  0.395300  0.353500  0.571600  1.0  -0.2352
  N  N149  1  0.014700  0.199750  0.023900  1.0  0.0301
  N  N150  1  0.142600  0.428250  0.658000  1.0  -0.1883
  N  N151  1  0.149400  0.481770  0.659300  1.0  -0.1747
  N  N152  1  0.999900  0.460960  0.718100  1.0  0.0462
  N  N153  1  0.979400  0.117600  0.042500  1.0  -0.2278
  N  N154  1  0.895300  0.146500  0.071600  1.0  -0.2355
  N  N155  1  0.514700  0.699750  0.023900  1.0  0.0301
  N  N156  1  0.642600  0.928250  0.658000  1.0  -0.1884
  N  N157  1  0.649400  0.981770  0.659300  1.0  -0.1747
  N  N158  1  0.499900  0.960960  0.718100  1.0  0.0462
  N  N159  1  0.479400  0.617600  0.042500  1.0  -0.2278
  N  N160  1  0.395300  0.646500  0.071600  1.0  -0.2357
  Cl  Cl161  1  0.676170  0.819980  0.540220  1.0  -0.4511
  Cl  Cl162  1  0.300790  0.548600  0.861570  1.0  -0.5863
  Cl  Cl163  1  0.176170  0.319980  0.540220  1.0  -0.4511
  Cl  Cl164  1  0.800790  0.048600  0.861570  1.0  -0.5863
  Cl  Cl165  1  0.676170  0.180020  0.040220  1.0  -0.4523
  Cl  Cl166  1  0.300790  0.451400  0.361570  1.0  -0.5865
  Cl  Cl167  1  0.176170  0.680020  0.040220  1.0  -0.4523
  Cl  Cl168  1  0.800790  0.951400  0.361570  1.0  -0.5865
  O  O169  1  0.298400  0.608390  0.386000  1.0  -0.6137
  O  O170  1  0.347000  0.449260  0.664500  1.0  -1.0815
  O  O171  1  0.412700  0.533350  0.541700  1.0  -0.7828
  O  O172  1  0.581400  0.473590  0.457400  1.0  -0.5832
  O  O173  1  0.208800  0.575610  0.555700  1.0  -0.5946
  O  O174  1  0.525400  0.529450  0.296000  1.0  -0.6391
  O  O175  1  0.798400  0.108390  0.386000  1.0  -0.6137
  O  O176  1  0.847000  0.949260  0.664500  1.0  -1.0815
  O  O177  1  0.912700  0.033350  0.541700  1.0  -0.7828
  O  O178  1  0.081400  0.973590  0.457400  1.0  -0.5832
  O  O179  1  0.708800  0.075610  0.555700  1.0  -0.5946
  O  O180  1  0.025400  0.029450  0.296000  1.0  -0.6391
  O  O181  1  0.298400  0.391610  0.886000  1.0  -0.6136
  O  O182  1  0.347000  0.550740  0.164500  1.0  -1.0819
  O  O183  1  0.412700  0.466650  0.041700  1.0  -0.7835
  O  O184  1  0.581400  0.526410  0.957400  1.0  -0.5835
  O  O185  1  0.208800  0.424390  0.055700  1.0  -0.5942
  O  O186  1  0.525400  0.470550  0.796000  1.0  -0.6401
  O  O187  1  0.798400  0.891610  0.886000  1.0  -0.6136
  O  O188  1  0.847000  0.050740  0.164500  1.0  -1.0819
  O  O189  1  0.912700  0.966650  0.041700  1.0  -0.7835
  O  O190  1  0.081400  0.026410  0.957400  1.0  -0.5835
  O  O191  1  0.708800  0.924390  0.055700  1.0  -0.5942
  O  O192  1  0.025400  0.970550  0.796000  1.0  -0.6401
