# generated using pymatgen
data_Co5H45C99O20
_symmetry_space_group_name_H-M   'P 1'
_cell_length_a   25.05600000
_cell_length_b   36.88400000
_cell_length_c   19.66900000
_cell_angle_alpha   90.00000000
_cell_angle_beta   123.27200000
_cell_angle_gamma   90.00000000
_symmetry_Int_Tables_number   1
_chemical_formula_structural   Co5H45C99O20
_chemical_formula_sum   'Co20 H180 C396 O80'
_cell_volume   15197.68941622
_cell_formula_units_Z   4
loop_
 _symmetry_equiv_pos_site_id
 _symmetry_equiv_pos_as_xyz
  1  'x, y, z'
loop_
 _atom_site_type_symbol
 _atom_site_label
 _atom_site_symmetry_multiplicity
 _atom_site_fract_x
 _atom_site_fract_y
 _atom_site_fract_z
 _atom_site_occupancy
 _atom_site_charge
  Co  Co1  1  0.598800  0.213950  0.757030  1.0  1.0142
  Co  Co2  1  0.501740  0.176350  0.580800  1.0  0.979
  Co  Co3  1  0.098800  0.713950  0.757030  1.0  1.0142
  Co  Co4  1  0.001740  0.676350  0.580800  1.0  0.9786
  Co  Co5  1  0.401200  0.213950  0.742970  1.0  1.0134
  Co  Co6  1  0.498260  0.176350  0.919200  1.0  0.979
  Co  Co7  1  0.901200  0.713950  0.742970  1.0  1.0134
  Co  Co8  1  0.998260  0.676350  0.919200  1.0  0.979
  Co  Co9  1  0.500000  0.146260  0.750000  1.0  0.969
  Co  Co10  1  0.000000  0.646260  0.750000  1.0  0.9692
  Co  Co11  1  0.401200  0.786050  0.242970  1.0  1.0115
  Co  Co12  1  0.498260  0.823650  0.419200  1.0  0.9784
  Co  Co13  1  0.901200  0.286050  0.242970  1.0  1.0115
  Co  Co14  1  0.998260  0.323650  0.419200  1.0  0.978
  Co  Co15  1  0.598800  0.786050  0.257030  1.0  1.0123
  Co  Co16  1  0.501740  0.823650  0.080800  1.0  0.9791
  Co  Co17  1  0.098800  0.286050  0.257030  1.0  1.0123
  Co  Co18  1  0.001740  0.323650  0.080800  1.0  0.9791
  Co  Co19  1  0.500000  0.853740  0.250000  1.0  0.9656
  Co  Co20  1  0.000000  0.353740  0.250000  1.0  0.9659
  H  H21  1  0.450400  0.275100  0.434400  1.0  0.1185
  H  H22  1  0.431700  0.332300  0.376500  1.0  0.1165
  H  H23  1  0.557600  0.374700  0.598200  1.0  0.1163
  H  H24  1  0.575100  0.317000  0.654900  1.0  0.1135
  H  H25  1  0.375600  0.470200  0.346000  1.0  0.1297
  H  H26  1  0.469700  0.564600  0.379700  1.0  0.1037
  H  H27  1  0.568900  0.471000  0.467800  1.0  0.1288
  H  H28  1  0.212400  0.577900  0.281700  1.0  0.1352
  H  H29  1  0.124500  0.614400  0.193600  1.0  0.1164
  H  H30  1  0.183900  0.622500  0.043300  1.0  0.1108
  H  H31  1  0.273100  0.588100  0.131000  1.0  0.1209
  H  H32  1  0.648200  0.629900  0.493700  1.0  0.1175
  H  H33  1  0.741100  0.664200  0.555700  1.0  0.1084
  H  H34  1  0.844400  0.573500  0.624700  1.0  0.1239
  H  H35  1  0.752200  0.540200  0.555800  1.0  0.1136
  H  H36  1  0.403600  0.308500  0.674200  1.0  0.1192
  H  H37  1  0.403500  0.371900  0.674800  1.0  0.1283
  H  H38  1  0.404300  0.494400  0.698100  1.0  0.1298
  H  H39  1  0.224600  0.592000  0.562800  1.0  0.1287
  H  H40  1  0.257000  0.652100  0.790800  1.0  0.1131
  H  H41  1  0.338900  0.618400  0.800100  1.0  0.1195
  H  H42  1  0.141300  0.624000  0.555300  1.0  0.1222
  H  H43  1  0.950400  0.775100  0.434400  1.0  0.1185
  H  H44  1  0.931700  0.832300  0.376500  1.0  0.1165
  H  H45  1  0.057600  0.874700  0.598200  1.0  0.1163
  H  H46  1  0.075100  0.817000  0.654900  1.0  0.1135
  H  H47  1  0.875600  0.970200  0.346000  1.0  0.1297
  H  H48  1  0.969700  0.064600  0.379700  1.0  0.1037
  H  H49  1  0.068900  0.971000  0.467800  1.0  0.1288
  H  H50  1  0.712400  0.077900  0.281700  1.0  0.1352
  H  H51  1  0.624500  0.114400  0.193600  1.0  0.116
  H  H52  1  0.683900  0.122500  0.043300  1.0  0.1108
  H  H53  1  0.773100  0.088100  0.131000  1.0  0.1209
  H  H54  1  0.148200  0.129900  0.493700  1.0  0.1175
  H  H55  1  0.241100  0.164200  0.555700  1.0  0.1084
  H  H56  1  0.344400  0.073500  0.624700  1.0  0.1239
  H  H57  1  0.252200  0.040200  0.555800  1.0  0.1136
  H  H58  1  0.903600  0.808500  0.674200  1.0  0.1192
  H  H59  1  0.903500  0.871900  0.674800  1.0  0.1283
  H  H60  1  0.904300  0.994400  0.698100  1.0  0.1298
  H  H61  1  0.724600  0.092000  0.562800  1.0  0.1287
  H  H62  1  0.757000  0.152100  0.790800  1.0  0.1131
  H  H63  1  0.838900  0.118400  0.800100  1.0  0.1195
  H  H64  1  0.641300  0.124000  0.555300  1.0  0.1222
  H  H65  1  0.549600  0.275100  0.065600  1.0  0.1188
  H  H66  1  0.568300  0.332300  0.123500  1.0  0.1163
  H  H67  1  0.442400  0.374700  0.901800  1.0  0.1165
  H  H68  1  0.424900  0.317000  0.845100  1.0  0.1133
  H  H69  1  0.624400  0.470200  0.154000  1.0  0.1291
  H  H70  1  0.530300  0.564600  0.120300  1.0  0.104
  H  H71  1  0.431100  0.471000  0.032200  1.0  0.1299
  H  H72  1  0.787600  0.577900  0.218300  1.0  0.1342
  H  H73  1  0.875500  0.614400  0.306400  1.0  0.1163
  H  H74  1  0.816100  0.622500  0.456700  1.0  0.1097
  H  H75  1  0.726900  0.588100  0.369000  1.0  0.1215
  H  H76  1  0.351800  0.629900  0.006300  1.0  0.1176
  H  H77  1  0.258900  0.664200  0.944300  1.0  0.1077
  H  H78  1  0.155600  0.573500  0.875300  1.0  0.1235
  H  H79  1  0.247800  0.540200  0.944200  1.0  0.1138
  H  H80  1  0.596400  0.308500  0.825800  1.0  0.119
  H  H81  1  0.596500  0.371900  0.825200  1.0  0.1283
  H  H82  1  0.595700  0.494400  0.801900  1.0  0.1296
  H  H83  1  0.775400  0.592000  0.937200  1.0  0.13
  H  H84  1  0.743000  0.652100  0.709200  1.0  0.1128
  H  H85  1  0.661100  0.618400  0.699900  1.0  0.1203
  H  H86  1  0.858700  0.624000  0.944700  1.0  0.1214
  H  H87  1  0.049600  0.775100  0.065600  1.0  0.1188
  H  H88  1  0.068300  0.832300  0.123500  1.0  0.1163
  H  H89  1  0.942400  0.874700  0.901800  1.0  0.1165
  H  H90  1  0.924900  0.817000  0.845100  1.0  0.1133
  H  H91  1  0.124400  0.970200  0.154000  1.0  0.1291
  H  H92  1  0.030300  0.064600  0.120300  1.0  0.104
  H  H93  1  0.931100  0.971000  0.032200  1.0  0.1299
  H  H94  1  0.287600  0.077900  0.218300  1.0  0.1342
  H  H95  1  0.375500  0.114400  0.306400  1.0  0.1163
  H  H96  1  0.316100  0.122500  0.456700  1.0  0.1097
  H  H97  1  0.226900  0.088100  0.369000  1.0  0.1215
  H  H98  1  0.851800  0.129900  0.006300  1.0  0.1176
  H  H99  1  0.758900  0.164200  0.944300  1.0  0.1077
  H  H100  1  0.655600  0.073500  0.875300  1.0  0.1235
  H  H101  1  0.747800  0.040200  0.944200  1.0  0.1138
  H  H102  1  0.096400  0.808500  0.825800  1.0  0.119
  H  H103  1  0.096500  0.871900  0.825200  1.0  0.1283
  H  H104  1  0.095700  0.994400  0.801900  1.0  0.1296
  H  H105  1  0.275400  0.092000  0.937200  1.0  0.13
  H  H106  1  0.243000  0.152100  0.709200  1.0  0.1128
  H  H107  1  0.161100  0.118400  0.699900  1.0  0.1203
  H  H108  1  0.358700  0.124000  0.944700  1.0  0.1214
  H  H109  1  0.500000  0.589700  0.750000  1.0  0.13
  H  H110  1  0.000000  0.089700  0.750000  1.0  0.13
  H  H111  1  0.549600  0.724900  0.565600  1.0  0.119
  H  H112  1  0.568300  0.667700  0.623500  1.0  0.116
  H  H113  1  0.442400  0.625300  0.401800  1.0  0.1164
  H  H114  1  0.424900  0.683000  0.345100  1.0  0.1127
  H  H115  1  0.624400  0.529800  0.654000  1.0  0.1293
  H  H116  1  0.530300  0.435400  0.620300  1.0  0.1053
  H  H117  1  0.431100  0.529000  0.532200  1.0  0.1301
  H  H118  1  0.787600  0.422100  0.718300  1.0  0.1342
  H  H119  1  0.875500  0.385600  0.806400  1.0  0.1161
  H  H120  1  0.816100  0.377500  0.956700  1.0  0.11
  H  H121  1  0.726900  0.411900  0.869000  1.0  0.1214
  H  H122  1  0.351800  0.370100  0.506300  1.0  0.1175
  H  H123  1  0.258900  0.335800  0.444300  1.0  0.1082
  H  H124  1  0.155600  0.426500  0.375300  1.0  0.1237
  H  H125  1  0.247800  0.459800  0.444200  1.0  0.1131
  H  H126  1  0.596400  0.691500  0.325800  1.0  0.119
  H  H127  1  0.596500  0.628100  0.325200  1.0  0.1284
  H  H128  1  0.595700  0.505600  0.301900  1.0  0.1293
  H  H129  1  0.775400  0.408000  0.437200  1.0  0.1304
  H  H130  1  0.743000  0.347900  0.209200  1.0  0.1129
  H  H131  1  0.661100  0.381600  0.199900  1.0  0.1204
  H  H132  1  0.858700  0.376000  0.444700  1.0  0.1214
  H  H133  1  0.049600  0.224900  0.565600  1.0  0.119
  H  H134  1  0.068300  0.167700  0.623500  1.0  0.116
  H  H135  1  0.942400  0.125300  0.401800  1.0  0.1164
  H  H136  1  0.924900  0.183000  0.345100  1.0  0.1127
  H  H137  1  0.124400  0.029800  0.654000  1.0  0.1293
  H  H138  1  0.030300  0.935400  0.620300  1.0  0.1053
  H  H139  1  0.931100  0.029000  0.532200  1.0  0.1301
  H  H140  1  0.287600  0.922100  0.718300  1.0  0.1342
  H  H141  1  0.375500  0.885600  0.806400  1.0  0.1158
  H  H142  1  0.316100  0.877500  0.956700  1.0  0.11
  H  H143  1  0.226900  0.911900  0.869000  1.0  0.1214
  H  H144  1  0.851800  0.870100  0.506300  1.0  0.1175
  H  H145  1  0.758900  0.835800  0.444300  1.0  0.1082
  H  H146  1  0.655600  0.926500  0.375300  1.0  0.1237
  H  H147  1  0.747800  0.959800  0.444200  1.0  0.1131
  H  H148  1  0.096400  0.191500  0.325800  1.0  0.119
  H  H149  1  0.096500  0.128100  0.325200  1.0  0.1284
  H  H150  1  0.095700  0.005600  0.301900  1.0  0.1293
  H  H151  1  0.275400  0.908000  0.437200  1.0  0.1304
  H  H152  1  0.243000  0.847900  0.209200  1.0  0.1129
  H  H153  1  0.161100  0.881600  0.199900  1.0  0.1204
  H  H154  1  0.358700  0.876000  0.444700  1.0  0.1214
  H  H155  1  0.450400  0.724900  0.934400  1.0  0.1189
  H  H156  1  0.431700  0.667700  0.876500  1.0  0.1157
  H  H157  1  0.557600  0.625300  0.098200  1.0  0.1162
  H  H158  1  0.575100  0.683000  0.154900  1.0  0.1141
  H  H159  1  0.375600  0.529800  0.846000  1.0  0.1296
  H  H160  1  0.469700  0.435400  0.879700  1.0  0.1052
  H  H161  1  0.568900  0.529000  0.967800  1.0  0.1293
  H  H162  1  0.212400  0.422100  0.781700  1.0  0.1349
  H  H163  1  0.124500  0.385600  0.693600  1.0  0.1163
  H  H164  1  0.183900  0.377500  0.543300  1.0  0.1109
  H  H165  1  0.273100  0.411900  0.631000  1.0  0.121
  H  H166  1  0.648200  0.370100  0.993700  1.0  0.1174
  H  H167  1  0.741100  0.335800  0.055700  1.0  0.1085
  H  H168  1  0.844400  0.426500  0.124700  1.0  0.1239
  H  H169  1  0.752200  0.459800  0.055800  1.0  0.1132
  H  H170  1  0.403600  0.691500  0.174200  1.0  0.119
  H  H171  1  0.403500  0.628100  0.174800  1.0  0.1281
  H  H172  1  0.404300  0.505600  0.198100  1.0  0.1298
  H  H173  1  0.224600  0.408000  0.062800  1.0  0.129
  H  H174  1  0.257000  0.347900  0.290800  1.0  0.1135
  H  H175  1  0.338900  0.381600  0.300100  1.0  0.1199
  H  H176  1  0.141300  0.376000  0.055300  1.0  0.1224
  H  H177  1  0.950400  0.224900  0.934400  1.0  0.1189
  H  H178  1  0.931700  0.167700  0.876500  1.0  0.1157
  H  H179  1  0.057600  0.125300  0.098200  1.0  0.1162
  H  H180  1  0.075100  0.183000  0.154900  1.0  0.1141
  H  H181  1  0.875600  0.029800  0.846000  1.0  0.1296
  H  H182  1  0.969700  0.935400  0.879700  1.0  0.1052
  H  H183  1  0.068900  0.029000  0.967800  1.0  0.1293
  H  H184  1  0.712400  0.922100  0.781700  1.0  0.1349
  H  H185  1  0.624500  0.885600  0.693600  1.0  0.1163
  H  H186  1  0.683900  0.877500  0.543300  1.0  0.1109
  H  H187  1  0.773100  0.911900  0.631000  1.0  0.121
  H  H188  1  0.148200  0.870100  0.993700  1.0  0.1174
  H  H189  1  0.241100  0.835800  0.055700  1.0  0.1085
  H  H190  1  0.344400  0.926500  0.124700  1.0  0.1239
  H  H191  1  0.252200  0.959800  0.055800  1.0  0.1132
  H  H192  1  0.903600  0.191500  0.174200  1.0  0.119
  H  H193  1  0.903500  0.128100  0.174800  1.0  0.1281
  H  H194  1  0.904300  0.005600  0.198100  1.0  0.1298
  H  H195  1  0.724600  0.908000  0.062800  1.0  0.129
  H  H196  1  0.757000  0.847900  0.290800  1.0  0.1135
  H  H197  1  0.838900  0.881600  0.300100  1.0  0.1199
  H  H198  1  0.641300  0.876000  0.055300  1.0  0.1224
  H  H199  1  0.500000  0.410300  0.250000  1.0  0.1295
  H  H200  1  0.000000  0.910300  0.250000  1.0  0.1295
  C  C201  1  0.526460  0.253680  0.588300  1.0  0.7322
  C  C202  1  0.513990  0.290490  0.549700  1.0  -0.1303
  C  C203  1  0.472100  0.295450  0.468100  1.0  -0.048
  C  C204  1  0.460800  0.329570  0.433500  1.0  -0.1059
  C  C205  1  0.490870  0.359320  0.480200  1.0  0.0096
  C  C206  1  0.535100  0.354440  0.564600  1.0  -0.0978
  C  C207  1  0.545700  0.320170  0.598100  1.0  -0.0144
  C  C208  1  0.480760  0.395660  0.447400  1.0  -0.0405
  C  C209  1  0.475210  0.426590  0.426400  1.0  -0.0211
  C  C210  1  0.472670  0.464790  0.409230  1.0  -0.0132
  C  C211  1  0.414380  0.483090  0.367000  1.0  -0.0537
  C  C212  1  0.413530  0.520400  0.355830  1.0  -0.0209
  C  C213  1  0.470550  0.539120  0.387100  1.0  -0.1285
  C  C214  1  0.528670  0.521200  0.428900  1.0  0.0006
  C  C215  1  0.529380  0.483670  0.439600  1.0  -0.048
  C  C216  1  0.354680  0.540180  0.309200  1.0  -0.0326
  C  C217  1  0.308580  0.558570  0.269100  1.0  -0.0986
  C  C218  1  0.252900  0.580580  0.216200  1.0  0.0476
  C  C219  1  0.207700  0.587530  0.233900  1.0  -0.1272
  C  C220  1  0.154900  0.608930  0.180600  1.0  -0.0424
  C  C221  1  0.146200  0.622100  0.110700  1.0  -0.1143
  C  C222  1  0.190000  0.613900  0.092700  1.0  -0.0627
  C  C223  1  0.243000  0.593420  0.144800  1.0  -0.1192
  C  C224  1  0.088600  0.644750  0.051500  1.0  0.7149
  C  C225  1  0.587120  0.541180  0.461200  1.0  -0.0055
  C  C226  1  0.633960  0.559380  0.487800  1.0  0.0749
  C  C227  1  0.690720  0.581180  0.522500  1.0  0.0727
  C  C228  1  0.688400  0.617980  0.520800  1.0  -0.1063
  C  C229  1  0.744200  0.638550  0.558300  1.0  -0.0965
  C  C230  1  0.802800  0.622920  0.598600  1.0  -0.0749
  C  C231  1  0.804400  0.585610  0.597600  1.0  -0.146
  C  C232  1  0.749300  0.565790  0.558300  1.0  -0.1254
  C  C233  1  0.862900  0.644250  0.644400  1.0  0.7034
  C  C234  1  0.442780  0.321320  0.705100  1.0  -0.0022
  C  C235  1  0.442570  0.358950  0.705200  1.0  -0.0831
  C  C236  1  0.443270  0.507280  0.720100  1.0  -0.028
  C  C237  1  0.443580  0.545100  0.722300  1.0  -0.0122
  C  C238  1  0.386770  0.564870  0.700600  1.0  -0.0372
  C  C239  1  0.341500  0.581500  0.688900  1.0  -0.0802
  C  C240  1  0.290160  0.602090  0.682000  1.0  0.053
  C  C241  1  0.231400  0.604040  0.609600  1.0  -0.1139
  C  C242  1  0.137620  0.662630  0.666300  1.0  0.7305
  C  C243  1  0.191260  0.641830  0.670700  1.0  -0.1095
  C  C244  1  0.250320  0.639800  0.744300  1.0  -0.0349
  C  C245  1  0.298890  0.619950  0.749600  1.0  -0.095
  C  C246  1  0.182100  0.623480  0.605000  1.0  -0.0262
  C  C247  1  0.026460  0.753680  0.588300  1.0  0.7322
  C  C248  1  0.013990  0.790490  0.549700  1.0  -0.1303
  C  C249  1  0.972100  0.795450  0.468100  1.0  -0.048
  C  C250  1  0.960800  0.829570  0.433500  1.0  -0.1059
  C  C251  1  0.990870  0.859320  0.480200  1.0  0.0096
  C  C252  1  0.035100  0.854440  0.564600  1.0  -0.0978
  C  C253  1  0.045700  0.820170  0.598100  1.0  -0.0144
  C  C254  1  0.980760  0.895660  0.447400  1.0  -0.0405
  C  C255  1  0.975210  0.926590  0.426400  1.0  -0.0211
  C  C256  1  0.972670  0.964790  0.409230  1.0  -0.0132
  C  C257  1  0.914380  0.983090  0.367000  1.0  -0.0537
  C  C258  1  0.913530  0.020400  0.355830  1.0  -0.0209
  C  C259  1  0.970550  0.039120  0.387100  1.0  -0.1285
  C  C260  1  0.028670  0.021200  0.428900  1.0  0.0006
  C  C261  1  0.029380  0.983670  0.439600  1.0  -0.048
  C  C262  1  0.854680  0.040180  0.309200  1.0  -0.0326
  C  C263  1  0.808580  0.058570  0.269100  1.0  -0.0986
  C  C264  1  0.752900  0.080580  0.216200  1.0  0.0476
  C  C265  1  0.707700  0.087530  0.233900  1.0  -0.1272
  C  C266  1  0.654900  0.108930  0.180600  1.0  -0.0529
  C  C267  1  0.646200  0.122100  0.110700  1.0  -0.1098
  C  C268  1  0.690000  0.113900  0.092700  1.0  -0.0627
  C  C269  1  0.743000  0.093420  0.144800  1.0  -0.1192
  C  C270  1  0.588600  0.144750  0.051500  1.0  0.7149
  C  C271  1  0.087120  0.041180  0.461200  1.0  -0.0055
  C  C272  1  0.133960  0.059380  0.487800  1.0  0.0749
  C  C273  1  0.190720  0.081180  0.522500  1.0  0.0727
  C  C274  1  0.188400  0.117980  0.520800  1.0  -0.1063
  C  C275  1  0.244200  0.138550  0.558300  1.0  -0.0965
  C  C276  1  0.302800  0.122920  0.598600  1.0  -0.0749
  C  C277  1  0.304400  0.085610  0.597600  1.0  -0.146
  C  C278  1  0.249300  0.065790  0.558300  1.0  -0.1254
  C  C279  1  0.362900  0.144250  0.644400  1.0  0.7034
  C  C280  1  0.942780  0.821320  0.705100  1.0  -0.0022
  C  C281  1  0.942570  0.858950  0.705200  1.0  -0.0831
  C  C282  1  0.943270  0.007280  0.720100  1.0  -0.028
  C  C283  1  0.943580  0.045100  0.722300  1.0  -0.0122
  C  C284  1  0.886770  0.064870  0.700600  1.0  -0.0372
  C  C285  1  0.841500  0.081500  0.688900  1.0  -0.0802
  C  C286  1  0.790160  0.102090  0.682000  1.0  0.053
  C  C287  1  0.731400  0.104040  0.609600  1.0  -0.1139
  C  C288  1  0.637620  0.162630  0.666300  1.0  0.7305
  C  C289  1  0.691260  0.141830  0.670700  1.0  -0.1095
  C  C290  1  0.750320  0.139800  0.744300  1.0  -0.0349
  C  C291  1  0.798890  0.119950  0.749600  1.0  -0.095
  C  C292  1  0.682100  0.123480  0.605000  1.0  -0.0262
  C  C293  1  0.473540  0.253680  0.911700  1.0  0.7327
  C  C294  1  0.486010  0.290490  0.950300  1.0  -0.1296
  C  C295  1  0.527900  0.295450  0.031900  1.0  -0.0489
  C  C296  1  0.539200  0.329570  0.066500  1.0  -0.1054
  C  C297  1  0.509130  0.359320  0.019800  1.0  0.0102
  C  C298  1  0.464900  0.354440  0.935400  1.0  -0.0997
  C  C299  1  0.454300  0.320170  0.901900  1.0  -0.0165
  C  C300  1  0.519240  0.395660  0.052600  1.0  -0.0388
  C  C301  1  0.524790  0.426590  0.073600  1.0  -0.0205
  C  C302  1  0.527330  0.464790  0.090770  1.0  -0.0131
  C  C303  1  0.585620  0.483090  0.133000  1.0  -0.0542
  C  C304  1  0.586470  0.520400  0.144170  1.0  -0.0183
  C  C305  1  0.529450  0.539120  0.112900  1.0  -0.1293
  C  C306  1  0.471330  0.521200  0.071100  1.0  -0.0022
  C  C307  1  0.470620  0.483670  0.060400  1.0  -0.0477
  C  C308  1  0.645320  0.540180  0.190800  1.0  -0.0293
  C  C309  1  0.691420  0.558570  0.230900  1.0  -0.0988
  C  C310  1  0.747100  0.580580  0.283800  1.0  0.0457
  C  C311  1  0.792300  0.587530  0.266100  1.0  -0.1281
  C  C312  1  0.845100  0.608930  0.319400  1.0  -0.0432
  C  C313  1  0.853800  0.622100  0.389300  1.0  -0.1132
  C  C314  1  0.810000  0.613900  0.407300  1.0  -0.0621
  C  C315  1  0.757000  0.593420  0.355200  1.0  -0.1204
  C  C316  1  0.911400  0.644750  0.448500  1.0  0.7147
  C  C317  1  0.412880  0.541180  0.038800  1.0  -0.0082
  C  C318  1  0.366040  0.559380  0.012200  1.0  0.0757
  C  C319  1  0.309280  0.581180  0.977500  1.0  0.0724
  C  C320  1  0.311600  0.617980  0.979200  1.0  -0.1055
  C  C321  1  0.255800  0.638550  0.941700  1.0  -0.0951
  C  C322  1  0.197200  0.622920  0.901400  1.0  -0.0767
  C  C323  1  0.195600  0.585610  0.902400  1.0  -0.146
  C  C324  1  0.250700  0.565790  0.941700  1.0  -0.1254
  C  C325  1  0.137100  0.644250  0.855600  1.0  0.7044
  C  C326  1  0.557220  0.321320  0.794900  1.0  -0.0006
  C  C327  1  0.557430  0.358950  0.794800  1.0  -0.0832
  C  C328  1  0.556730  0.507280  0.779900  1.0  -0.0276
  C  C329  1  0.556420  0.545100  0.777700  1.0  -0.012
  C  C330  1  0.613230  0.564870  0.799400  1.0  -0.0317
  C  C331  1  0.658500  0.581500  0.811100  1.0  -0.0794
  C  C332  1  0.709840  0.602090  0.818000  1.0  0.0515
  C  C333  1  0.768600  0.604040  0.890400  1.0  -0.1162
  C  C334  1  0.862380  0.662630  0.833700  1.0  0.7303
  C  C335  1  0.808740  0.641830  0.829300  1.0  -0.1096
  C  C336  1  0.749680  0.639800  0.755700  1.0  -0.035
  C  C337  1  0.701110  0.619950  0.750400  1.0  -0.0932
  C  C338  1  0.817900  0.623480  0.895000  1.0  -0.0273
  C  C339  1  0.973540  0.753680  0.911700  1.0  0.7327
  C  C340  1  0.986010  0.790490  0.950300  1.0  -0.1296
  C  C341  1  0.027900  0.795450  0.031900  1.0  -0.0489
  C  C342  1  0.039200  0.829570  0.066500  1.0  -0.1054
  C  C343  1  0.009130  0.859320  0.019800  1.0  0.0102
  C  C344  1  0.964900  0.854440  0.935400  1.0  -0.0997
  C  C345  1  0.954300  0.820170  0.901900  1.0  -0.0165
  C  C346  1  0.019240  0.895660  0.052600  1.0  -0.0388
  C  C347  1  0.024790  0.926590  0.073600  1.0  -0.0205
  C  C348  1  0.027330  0.964790  0.090770  1.0  -0.0131
  C  C349  1  0.085620  0.983090  0.133000  1.0  -0.0542
  C  C350  1  0.086470  0.020400  0.144170  1.0  -0.0183
  C  C351  1  0.029450  0.039120  0.112900  1.0  -0.1293
  C  C352  1  0.971330  0.021200  0.071100  1.0  -0.0022
  C  C353  1  0.970620  0.983670  0.060400  1.0  -0.0477
  C  C354  1  0.145320  0.040180  0.190800  1.0  -0.0293
  C  C355  1  0.191420  0.058570  0.230900  1.0  -0.0988
  C  C356  1  0.247100  0.080580  0.283800  1.0  0.0457
  C  C357  1  0.292300  0.087530  0.266100  1.0  -0.1281
  C  C358  1  0.345100  0.108930  0.319400  1.0  -0.0432
  C  C359  1  0.353800  0.122100  0.389300  1.0  -0.1132
  C  C360  1  0.310000  0.113900  0.407300  1.0  -0.0621
  C  C361  1  0.257000  0.093420  0.355200  1.0  -0.1204
  C  C362  1  0.411400  0.144750  0.448500  1.0  0.7147
  C  C363  1  0.912880  0.041180  0.038800  1.0  -0.0082
  C  C364  1  0.866040  0.059380  0.012200  1.0  0.0757
  C  C365  1  0.809280  0.081180  0.977500  1.0  0.0724
  C  C366  1  0.811600  0.117980  0.979200  1.0  -0.1055
  C  C367  1  0.755800  0.138550  0.941700  1.0  -0.0951
  C  C368  1  0.697200  0.122920  0.901400  1.0  -0.0767
  C  C369  1  0.695600  0.085610  0.902400  1.0  -0.146
  C  C370  1  0.750700  0.065790  0.941700  1.0  -0.1254
  C  C371  1  0.637100  0.144250  0.855600  1.0  0.7044
  C  C372  1  0.057220  0.821320  0.794900  1.0  -0.0006
  C  C373  1  0.057430  0.858950  0.794800  1.0  -0.0832
  C  C374  1  0.056730  0.007280  0.779900  1.0  -0.0276
  C  C375  1  0.056420  0.045100  0.777700  1.0  -0.012
  C  C376  1  0.113230  0.064870  0.799400  1.0  -0.0317
  C  C377  1  0.158500  0.081500  0.811100  1.0  -0.0794
  C  C378  1  0.209840  0.102090  0.818000  1.0  0.0515
  C  C379  1  0.268600  0.104040  0.890400  1.0  -0.1162
  C  C380  1  0.362380  0.162630  0.833700  1.0  0.7303
  C  C381  1  0.308740  0.141830  0.829300  1.0  -0.1096
  C  C382  1  0.249680  0.139800  0.755700  1.0  -0.035
  C  C383  1  0.201110  0.119950  0.750400  1.0  -0.0932
  C  C384  1  0.317900  0.123480  0.895000  1.0  -0.0273
  C  C385  1  0.500000  0.261440  0.750000  1.0  0.6844
  C  C386  1  0.500000  0.302210  0.750000  1.0  -0.0952
  C  C387  1  0.500000  0.377370  0.750000  1.0  -0.0399
  C  C388  1  0.500000  0.416990  0.750000  1.0  0.1256
  C  C389  1  0.500000  0.449330  0.750000  1.0  0.1089
  C  C390  1  0.500000  0.488420  0.750000  1.0  -0.011
  C  C391  1  0.500000  0.563950  0.750000  1.0  -0.0217
  C  C392  1  0.000000  0.761440  0.750000  1.0  0.6844
  C  C393  1  0.000000  0.802210  0.750000  1.0  -0.0952
  C  C394  1  0.000000  0.877370  0.750000  1.0  -0.0399
  C  C395  1  0.000000  0.916990  0.750000  1.0  0.1256
  C  C396  1  0.000000  0.949330  0.750000  1.0  0.1089
  C  C397  1  0.000000  0.988420  0.750000  1.0  -0.011
  C  C398  1  0.000000  0.063950  0.750000  1.0  -0.0217
  C  C399  1  0.473540  0.746320  0.411700  1.0  0.7331
  C  C400  1  0.486010  0.709510  0.450300  1.0  -0.1304
  C  C401  1  0.527900  0.704550  0.531900  1.0  -0.0477
  C  C402  1  0.539200  0.670430  0.566500  1.0  -0.1054
  C  C403  1  0.509130  0.640680  0.519800  1.0  0.0102
  C  C404  1  0.464900  0.645560  0.435400  1.0  -0.0991
  C  C405  1  0.454300  0.679830  0.401900  1.0  -0.0165
  C  C406  1  0.519240  0.604340  0.552600  1.0  -0.0418
  C  C407  1  0.524790  0.573410  0.573600  1.0  -0.0175
  C  C408  1  0.527330  0.535210  0.590770  1.0  -0.0106
  C  C409  1  0.585620  0.516910  0.633000  1.0  -0.0533
  C  C410  1  0.586470  0.479600  0.644170  1.0  -0.019
  C  C411  1  0.529450  0.460880  0.612900  1.0  -0.1274
  C  C412  1  0.471330  0.478800  0.571100  1.0  -0.0023
  C  C413  1  0.470620  0.516330  0.560400  1.0  -0.0482
  C  C414  1  0.645320  0.459820  0.690800  1.0  -0.0289
  C  C415  1  0.691420  0.441430  0.730900  1.0  -0.0989
  C  C416  1  0.747100  0.419420  0.783800  1.0  0.0465
  C  C417  1  0.792300  0.412470  0.766100  1.0  -0.128
  C  C418  1  0.845100  0.391070  0.819400  1.0  -0.0429
  C  C419  1  0.853800  0.377900  0.889300  1.0  -0.1134
  C  C420  1  0.810000  0.386100  0.907300  1.0  -0.0619
  C  C421  1  0.757000  0.406580  0.855200  1.0  -0.121
  C  C422  1  0.911400  0.355250  0.948500  1.0  0.7146
  C  C423  1  0.412880  0.458820  0.538800  1.0  -0.009
  C  C424  1  0.366040  0.440620  0.512200  1.0  0.0755
  C  C425  1  0.309280  0.418820  0.477500  1.0  0.0731
  C  C426  1  0.311600  0.382020  0.479200  1.0  -0.1052
  C  C427  1  0.255800  0.361450  0.441700  1.0  -0.0976
  C  C428  1  0.197200  0.377080  0.401400  1.0  -0.0777
  C  C429  1  0.195600  0.414390  0.402400  1.0  -0.1464
  C  C430  1  0.250700  0.434210  0.441700  1.0  -0.1219
  C  C431  1  0.137100  0.355750  0.355600  1.0  0.7042
  C  C432  1  0.557220  0.678680  0.294900  1.0  -0.001
  C  C433  1  0.557430  0.641050  0.294800  1.0  -0.0838
  C  C434  1  0.556730  0.492720  0.279900  1.0  -0.0262
  C  C435  1  0.556420  0.454900  0.277700  1.0  -0.0143
  C  C436  1  0.613230  0.435130  0.299400  1.0  -0.0319
  C  C437  1  0.658500  0.418500  0.311100  1.0  -0.0792
  C  C438  1  0.709840  0.397910  0.318000  1.0  0.051
  C  C439  1  0.768600  0.395960  0.390400  1.0  -0.1159
  C  C440  1  0.862380  0.337370  0.333700  1.0  0.7299
  C  C441  1  0.808740  0.358170  0.329300  1.0  -0.1092
  C  C442  1  0.749680  0.360200  0.255700  1.0  -0.0355
  C  C443  1  0.701110  0.380050  0.250400  1.0  -0.0932
  C  C444  1  0.817900  0.376520  0.395000  1.0  -0.0271
  C  C445  1  0.973540  0.246320  0.411700  1.0  0.7331
  C  C446  1  0.986010  0.209510  0.450300  1.0  -0.1304
  C  C447  1  0.027900  0.204550  0.531900  1.0  -0.0477
  C  C448  1  0.039200  0.170430  0.566500  1.0  -0.1054
  C  C449  1  0.009130  0.140680  0.519800  1.0  0.0102
  C  C450  1  0.964900  0.145560  0.435400  1.0  -0.0991
  C  C451  1  0.954300  0.179830  0.401900  1.0  -0.0165
  C  C452  1  0.019240  0.104340  0.552600  1.0  -0.0418
  C  C453  1  0.024790  0.073410  0.573600  1.0  -0.0175
  C  C454  1  0.027330  0.035210  0.590770  1.0  -0.0106
  C  C455  1  0.085620  0.016910  0.633000  1.0  -0.0533
  C  C456  1  0.086470  0.979600  0.644170  1.0  -0.019
  C  C457  1  0.029450  0.960880  0.612900  1.0  -0.1274
  C  C458  1  0.971330  0.978800  0.571100  1.0  -0.0023
  C  C459  1  0.970620  0.016330  0.560400  1.0  -0.0482
  C  C460  1  0.145320  0.959820  0.690800  1.0  -0.0289
  C  C461  1  0.191420  0.941430  0.730900  1.0  -0.0989
  C  C462  1  0.247100  0.919420  0.783800  1.0  0.0465
  C  C463  1  0.292300  0.912470  0.766100  1.0  -0.128
  C  C464  1  0.345100  0.891070  0.819400  1.0  -0.0538
  C  C465  1  0.353800  0.877900  0.889300  1.0  -0.1095
  C  C466  1  0.310000  0.886100  0.907300  1.0  -0.0619
  C  C467  1  0.257000  0.906580  0.855200  1.0  -0.121
  C  C468  1  0.411400  0.855250  0.948500  1.0  0.7146
  C  C469  1  0.912880  0.958820  0.538800  1.0  -0.009
  C  C470  1  0.866040  0.940620  0.512200  1.0  0.0755
  C  C471  1  0.809280  0.918820  0.477500  1.0  0.0731
  C  C472  1  0.811600  0.882020  0.479200  1.0  -0.1052
  C  C473  1  0.755800  0.861450  0.441700  1.0  -0.0976
  C  C474  1  0.697200  0.877080  0.401400  1.0  -0.0777
  C  C475  1  0.695600  0.914390  0.402400  1.0  -0.1464
  C  C476  1  0.750700  0.934210  0.441700  1.0  -0.1219
  C  C477  1  0.637100  0.855750  0.355600  1.0  0.7042
  C  C478  1  0.057220  0.178680  0.294900  1.0  -0.001
  C  C479  1  0.057430  0.141050  0.294800  1.0  -0.0838
  C  C480  1  0.056730  0.992720  0.279900  1.0  -0.0262
  C  C481  1  0.056420  0.954900  0.277700  1.0  -0.0143
  C  C482  1  0.113230  0.935130  0.299400  1.0  -0.0319
  C  C483  1  0.158500  0.918500  0.311100  1.0  -0.0792
  C  C484  1  0.209840  0.897910  0.318000  1.0  0.051
  C  C485  1  0.268600  0.895960  0.390400  1.0  -0.1159
  C  C486  1  0.362380  0.837370  0.333700  1.0  0.7299
  C  C487  1  0.308740  0.858170  0.329300  1.0  -0.1092
  C  C488  1  0.249680  0.860200  0.255700  1.0  -0.0355
  C  C489  1  0.201110  0.880050  0.250400  1.0  -0.0932
  C  C490  1  0.317900  0.876520  0.395000  1.0  -0.0271
  C  C491  1  0.526460  0.746320  0.088300  1.0  0.7325
  C  C492  1  0.513990  0.709510  0.049700  1.0  -0.1293
  C  C493  1  0.472100  0.704550  0.968100  1.0  -0.0479
  C  C494  1  0.460800  0.670430  0.933500  1.0  -0.1052
  C  C495  1  0.490870  0.640680  0.980200  1.0  0.0084
  C  C496  1  0.535100  0.645560  0.064600  1.0  -0.0968
  C  C497  1  0.545700  0.679830  0.098100  1.0  -0.014
  C  C498  1  0.480760  0.604340  0.947400  1.0  -0.0437
  C  C499  1  0.475210  0.573410  0.926400  1.0  -0.0171
  C  C500  1  0.472670  0.535210  0.909230  1.0  -0.0106
  C  C501  1  0.414380  0.516910  0.867000  1.0  -0.0543
  C  C502  1  0.413530  0.479600  0.855830  1.0  -0.0215
  C  C503  1  0.470550  0.460880  0.887100  1.0  -0.1267
  C  C504  1  0.528670  0.478800  0.928900  1.0  0.0
  C  C505  1  0.529380  0.516330  0.939600  1.0  -0.0474
  C  C506  1  0.354680  0.459820  0.809200  1.0  -0.0322
  C  C507  1  0.308580  0.441430  0.769100  1.0  -0.0985
  C  C508  1  0.252900  0.419420  0.716200  1.0  0.0474
  C  C509  1  0.207700  0.412470  0.733900  1.0  -0.1283
  C  C510  1  0.154900  0.391070  0.680600  1.0  -0.042
  C  C511  1  0.146200  0.377900  0.610700  1.0  -0.1152
  C  C512  1  0.190000  0.386100  0.592700  1.0  -0.0628
  C  C513  1  0.243000  0.406580  0.644800  1.0  -0.1189
  C  C514  1  0.088600  0.355250  0.551500  1.0  0.7156
  C  C515  1  0.587120  0.458820  0.961200  1.0  -0.0058
  C  C516  1  0.633960  0.440620  0.987800  1.0  0.0742
  C  C517  1  0.690720  0.418820  0.022500  1.0  0.0741
  C  C518  1  0.688400  0.382020  0.020800  1.0  -0.106
  C  C519  1  0.744200  0.361450  0.058300  1.0  -0.0982
  C  C520  1  0.802800  0.377080  0.098600  1.0  -0.0756
  C  C521  1  0.804400  0.414390  0.097600  1.0  -0.1468
  C  C522  1  0.749300  0.434210  0.058300  1.0  -0.1236
  C  C523  1  0.862900  0.355750  0.144400  1.0  0.7029
  C  C524  1  0.442780  0.678680  0.205100  1.0  -0.0028
  C  C525  1  0.442570  0.641050  0.205200  1.0  -0.0836
  C  C526  1  0.443270  0.492720  0.220100  1.0  -0.0275
  C  C527  1  0.443580  0.454900  0.222300  1.0  -0.0158
  C  C528  1  0.386770  0.435130  0.200600  1.0  -0.0367
  C  C529  1  0.341500  0.418500  0.188900  1.0  -0.0793
  C  C530  1  0.290160  0.397910  0.182000  1.0  0.0531
  C  C531  1  0.231400  0.395960  0.109600  1.0  -0.1136
  C  C532  1  0.137620  0.337370  0.166300  1.0  0.7305
  C  C533  1  0.191260  0.358170  0.170700  1.0  -0.1095
  C  C534  1  0.250320  0.360200  0.244300  1.0  -0.0351
  C  C535  1  0.298890  0.380050  0.249600  1.0  -0.0946
  C  C536  1  0.182100  0.376520  0.105000  1.0  -0.0261
  C  C537  1  0.026460  0.246320  0.088300  1.0  0.7325
  C  C538  1  0.013990  0.209510  0.049700  1.0  -0.1293
  C  C539  1  0.972100  0.204550  0.968100  1.0  -0.0479
  C  C540  1  0.960800  0.170430  0.933500  1.0  -0.1052
  C  C541  1  0.990870  0.140680  0.980200  1.0  0.0084
  C  C542  1  0.035100  0.145560  0.064600  1.0  -0.0968
  C  C543  1  0.045700  0.179830  0.098100  1.0  -0.014
  C  C544  1  0.980760  0.104340  0.947400  1.0  -0.0437
  C  C545  1  0.975210  0.073410  0.926400  1.0  -0.0171
  C  C546  1  0.972670  0.035210  0.909230  1.0  -0.0106
  C  C547  1  0.914380  0.016910  0.867000  1.0  -0.0543
  C  C548  1  0.913530  0.979600  0.855830  1.0  -0.0215
  C  C549  1  0.970550  0.960880  0.887100  1.0  -0.1267
  C  C550  1  0.028670  0.978800  0.928900  1.0  0.0
  C  C551  1  0.029380  0.016330  0.939600  1.0  -0.0474
  C  C552  1  0.854680  0.959820  0.809200  1.0  -0.0322
  C  C553  1  0.808580  0.941430  0.769100  1.0  -0.0985
  C  C554  1  0.752900  0.919420  0.716200  1.0  0.0474
  C  C555  1  0.707700  0.912470  0.733900  1.0  -0.1283
  C  C556  1  0.654900  0.891070  0.680600  1.0  -0.042
  C  C557  1  0.646200  0.877900  0.610700  1.0  -0.1152
  C  C558  1  0.690000  0.886100  0.592700  1.0  -0.0628
  C  C559  1  0.743000  0.906580  0.644800  1.0  -0.1189
  C  C560  1  0.588600  0.855250  0.551500  1.0  0.7156
  C  C561  1  0.087120  0.958820  0.961200  1.0  -0.0058
  C  C562  1  0.133960  0.940620  0.987800  1.0  0.0742
  C  C563  1  0.190720  0.918820  0.022500  1.0  0.0741
  C  C564  1  0.188400  0.882020  0.020800  1.0  -0.106
  C  C565  1  0.244200  0.861450  0.058300  1.0  -0.0982
  C  C566  1  0.302800  0.877080  0.098600  1.0  -0.0756
  C  C567  1  0.304400  0.914390  0.097600  1.0  -0.1468
  C  C568  1  0.249300  0.934210  0.058300  1.0  -0.1236
  C  C569  1  0.362900  0.855750  0.144400  1.0  0.7029
  C  C570  1  0.942780  0.178680  0.205100  1.0  -0.0028
  C  C571  1  0.942570  0.141050  0.205200  1.0  -0.0836
  C  C572  1  0.943270  0.992720  0.220100  1.0  -0.0275
  C  C573  1  0.943580  0.954900  0.222300  1.0  -0.0158
  C  C574  1  0.886770  0.935130  0.200600  1.0  -0.0367
  C  C575  1  0.841500  0.918500  0.188900  1.0  -0.0793
  C  C576  1  0.790160  0.897910  0.182000  1.0  0.0531
  C  C577  1  0.731400  0.895960  0.109600  1.0  -0.1136
  C  C578  1  0.637620  0.837370  0.166300  1.0  0.7305
  C  C579  1  0.691260  0.858170  0.170700  1.0  -0.1095
  C  C580  1  0.750320  0.860200  0.244300  1.0  -0.0351
  C  C581  1  0.798890  0.880050  0.249600  1.0  -0.0946
  C  C582  1  0.682100  0.876520  0.105000  1.0  -0.0261
  C  C583  1  0.500000  0.738560  0.250000  1.0  0.685
  C  C584  1  0.500000  0.697790  0.250000  1.0  -0.0954
  C  C585  1  0.500000  0.622630  0.250000  1.0  -0.0415
  C  C586  1  0.500000  0.583010  0.250000  1.0  0.125
  C  C587  1  0.500000  0.550670  0.250000  1.0  0.1081
  C  C588  1  0.500000  0.511580  0.250000  1.0  -0.0089
  C  C589  1  0.500000  0.436050  0.250000  1.0  -0.0205
  C  C590  1  0.000000  0.238560  0.250000  1.0  0.685
  C  C591  1  0.000000  0.197790  0.250000  1.0  -0.0954
  C  C592  1  0.000000  0.122630  0.250000  1.0  -0.0415
  C  C593  1  0.000000  0.083010  0.250000  1.0  0.125
  C  C594  1  0.000000  0.050670  0.250000  1.0  0.1081
  C  C595  1  0.000000  0.011580  0.250000  1.0  -0.0089
  C  C596  1  0.000000  0.936050  0.250000  1.0  -0.0205
  O  O597  1  0.495310  0.227270  0.541520  1.0  -0.5896
  O  O598  1  0.567000  0.251600  0.663950  1.0  -0.6229
  O  O599  1  0.047580  0.651030  0.063800  1.0  -0.568
  O  O600  1  0.083600  0.654980  0.989900  1.0  -0.5739
  O  O601  1  0.859460  0.678180  0.642530  1.0  -0.627
  O  O602  1  0.914020  0.626250  0.684200  1.0  -0.6174
  O  O603  1  0.083100  0.657460  0.602980  1.0  -0.5835
  O  O604  1  0.150880  0.683130  0.723810  1.0  -0.6301
  O  O605  1  0.551820  0.245610  0.800580  1.0  -0.6017
  O  O606  1  0.512780  0.185540  0.687060  1.0  -0.7798
  O  O607  1  0.995310  0.727270  0.541520  1.0  -0.5896
  O  O608  1  0.067000  0.751600  0.663950  1.0  -0.6229
  O  O609  1  0.547580  0.151030  0.063800  1.0  -0.568
  O  O610  1  0.583600  0.154980  0.989900  1.0  -0.5739
  O  O611  1  0.359460  0.178180  0.642530  1.0  -0.627
  O  O612  1  0.414020  0.126250  0.684200  1.0  -0.6176
  O  O613  1  0.583100  0.157460  0.602980  1.0  -0.5835
  O  O614  1  0.650880  0.183130  0.723810  1.0  -0.6304
  O  O615  1  0.051820  0.745610  0.800580  1.0  -0.6017
  O  O616  1  0.012780  0.685540  0.687060  1.0  -0.7798
  O  O617  1  0.504690  0.227270  0.958480  1.0  -0.5899
  O  O618  1  0.433000  0.251600  0.836050  1.0  -0.6223
  O  O619  1  0.952420  0.651030  0.436200  1.0  -0.5685
  O  O620  1  0.916400  0.654980  0.510100  1.0  -0.574
  O  O621  1  0.140540  0.678180  0.857470  1.0  -0.6266
  O  O622  1  0.085980  0.626250  0.815800  1.0  -0.6178
  O  O623  1  0.916900  0.657460  0.897020  1.0  -0.5843
  O  O624  1  0.849120  0.683130  0.776190  1.0  -0.6304
  O  O625  1  0.448180  0.245610  0.699420  1.0  -0.5998
  O  O626  1  0.487220  0.185540  0.812940  1.0  -0.7803
  O  O627  1  0.004690  0.727270  0.958480  1.0  -0.5899
  O  O628  1  0.933000  0.751600  0.836050  1.0  -0.6223
  O  O629  1  0.452420  0.151030  0.436200  1.0  -0.5685
  O  O630  1  0.416400  0.154980  0.510100  1.0  -0.574
  O  O631  1  0.640540  0.178180  0.857470  1.0  -0.6266
  O  O632  1  0.585980  0.126250  0.815800  1.0  -0.6177
  O  O633  1  0.416900  0.157460  0.897020  1.0  -0.5843
  O  O634  1  0.349120  0.183130  0.776190  1.0  -0.631
  O  O635  1  0.948180  0.745610  0.699420  1.0  -0.5998
  O  O636  1  0.987220  0.685540  0.812940  1.0  -0.7803
  O  O637  1  0.504690  0.772730  0.458480  1.0  -0.589
  O  O638  1  0.433000  0.748400  0.336050  1.0  -0.6221
  O  O639  1  0.952420  0.348970  0.936200  1.0  -0.5687
  O  O640  1  0.916400  0.345020  0.010100  1.0  -0.5748
  O  O641  1  0.140540  0.321820  0.357470  1.0  -0.6286
  O  O642  1  0.085980  0.373750  0.315800  1.0  -0.6185
  O  O643  1  0.916900  0.342540  0.397020  1.0  -0.5837
  O  O644  1  0.849120  0.316870  0.276190  1.0  -0.6317
  O  O645  1  0.448180  0.754390  0.199420  1.0  -0.5992
  O  O646  1  0.487220  0.814460  0.312940  1.0  -0.7809
  O  O647  1  0.004690  0.272730  0.458480  1.0  -0.589
  O  O648  1  0.933000  0.248400  0.336050  1.0  -0.6221
  O  O649  1  0.452420  0.848970  0.936200  1.0  -0.5687
  O  O650  1  0.416400  0.845020  0.010100  1.0  -0.5748
  O  O651  1  0.640540  0.821820  0.357470  1.0  -0.6286
  O  O652  1  0.585980  0.873750  0.315800  1.0  -0.6186
  O  O653  1  0.416900  0.842540  0.397020  1.0  -0.5837
  O  O654  1  0.349120  0.816870  0.276190  1.0  -0.632
  O  O655  1  0.948180  0.254390  0.199420  1.0  -0.5992
  O  O656  1  0.987220  0.314460  0.312940  1.0  -0.7809
  O  O657  1  0.495310  0.772730  0.041520  1.0  -0.5894
  O  O658  1  0.567000  0.748400  0.163950  1.0  -0.6229
  O  O659  1  0.047580  0.348970  0.563800  1.0  -0.568
  O  O660  1  0.083600  0.345020  0.489900  1.0  -0.5728
  O  O661  1  0.859460  0.321820  0.142530  1.0  -0.6291
  O  O662  1  0.914020  0.373750  0.184200  1.0  -0.6178
  O  O663  1  0.083100  0.342540  0.102980  1.0  -0.5833
  O  O664  1  0.150880  0.316870  0.223810  1.0  -0.6301
  O  O665  1  0.551820  0.754390  0.300580  1.0  -0.6014
  O  O666  1  0.512780  0.814460  0.187060  1.0  -0.7799
  O  O667  1  0.995310  0.272730  0.041520  1.0  -0.5894
  O  O668  1  0.067000  0.248400  0.163950  1.0  -0.6229
  O  O669  1  0.547580  0.848970  0.563800  1.0  -0.568
  O  O670  1  0.583600  0.845020  0.489900  1.0  -0.5728
  O  O671  1  0.359460  0.821820  0.142530  1.0  -0.6291
  O  O672  1  0.414020  0.873750  0.184200  1.0  -0.6177
  O  O673  1  0.583100  0.842540  0.102980  1.0  -0.5833
  O  O674  1  0.650880  0.816870  0.223810  1.0  -0.6307
  O  O675  1  0.051820  0.254390  0.300580  1.0  -0.6014
  O  O676  1  0.012780  0.314460  0.187060  1.0  -0.7799
