# generated using pymatgen
data_Co5H45C99O20
_symmetry_space_group_name_H-M   'P 1'
_cell_length_a   21.49800000
_cell_length_b   36.91000000
_cell_length_c   20.05900000
_cell_angle_alpha   90.00000000
_cell_angle_beta   106.85200000
_cell_angle_gamma   90.00000000
_symmetry_Int_Tables_number   1
_chemical_formula_structural   Co5H45C99O20
_chemical_formula_sum   'Co20 H180 C396 O80'
_cell_volume   15233.12792580
_cell_formula_units_Z   4
loop_
 _symmetry_equiv_pos_site_id
 _symmetry_equiv_pos_as_xyz
  1  'x, y, z'
loop_
 _atom_site_type_symbol
 _atom_site_label
 _atom_site_symmetry_multiplicity
 _atom_site_fract_x
 _atom_site_fract_y
 _atom_site_fract_z
 _atom_site_occupancy
 _atom_site_charge
  Co  Co1  1  0.357080  0.038400  0.040730  1.0  1.0174
  Co  Co2  1  0.190380  0.038940  0.929050  1.0  1.0824
  Co  Co3  1  0.300170  0.060090  0.860950  1.0  1.0207
  Co  Co4  1  0.305940  0.122780  0.093940  1.0  1.0614
  Co  Co5  1  0.221770  0.043330  0.096760  1.0  0.9825
  Co  Co6  1  0.642920  0.538400  0.459270  1.0  1.0158
  Co  Co7  1  0.809620  0.538940  0.570950  1.0  1.0809
  Co  Co8  1  0.699830  0.560090  0.639050  1.0  1.0248
  Co  Co9  1  0.694060  0.622780  0.406060  1.0  1.0617
  Co  Co10  1  0.778230  0.543330  0.403240  1.0  0.9846
  Co  Co11  1  0.642920  0.961600  0.959270  1.0  1.0136
  Co  Co12  1  0.809620  0.961070  0.070950  1.0  1.0827
  Co  Co13  1  0.699830  0.939910  0.139050  1.0  1.0248
  Co  Co14  1  0.694060  0.877220  0.906060  1.0  1.0592
  Co  Co15  1  0.778230  0.956670  0.903240  1.0  0.9854
  Co  Co16  1  0.357080  0.461600  0.540730  1.0  1.0156
  Co  Co17  1  0.190380  0.461070  0.429050  1.0  1.0814
  Co  Co18  1  0.300170  0.439910  0.360950  1.0  1.0205
  Co  Co19  1  0.305940  0.377220  0.593940  1.0  1.0588
  Co  Co20  1  0.221770  0.456670  0.596760  1.0  0.9834
  H  H21  1  0.340300  0.953200  0.792400  1.0  0.1137
  H  H22  1  0.340500  0.892400  0.757400  1.0  0.1061
  H  H23  1  0.173800  0.875600  0.805200  1.0  0.1087
  H  H24  1  0.177400  0.933300  0.848500  1.0  0.1064
  H  H25  1  0.340000  0.762700  0.737700  1.0  0.1123
  H  H26  1  0.225900  0.674400  0.673400  1.0  0.1099
  H  H27  1  0.144300  0.772000  0.685300  1.0  0.1166
  H  H28  1  0.379600  0.603300  0.679100  1.0  0.1267
  H  H29  1  0.427400  0.183800  0.036100  1.0  0.1187
  H  H30  1  0.521500  0.219000  0.054800  1.0  0.1182
  H  H31  1  0.627800  0.129300  0.062300  1.0  0.1159
  H  H32  1  0.533400  0.094800  0.041500  1.0  0.0964
  H  H33  1  0.718300  0.285300  0.118700  1.0  0.1175
  H  H34  1  0.915100  0.280000  0.196900  1.0  0.1231
  H  H35  1  0.808300  0.188200  0.131700  1.0  0.1022
  H  H36  1  0.328000  0.922100  0.042400  1.0  0.1099
  H  H37  1  0.302100  0.862100  0.044300  1.0  0.1044
  H  H38  1  0.111200  0.887900  0.992100  1.0  0.126
  H  H39  1  0.139700  0.948900  0.997800  1.0  0.1069
  H  H40  1  0.276400  0.751600  0.064900  1.0  0.1143
  H  H41  1  0.174900  0.658100  0.011400  1.0  0.1239
  H  H42  1  0.081000  0.754000  0.964900  1.0  0.1142
  H  H43  1  0.944000  0.612800  0.699900  1.0  0.0895
  H  H44  1  0.021000  0.644400  0.782200  1.0  0.1063
  H  H45  1  0.901700  0.647900  0.904700  1.0  0.1181
  H  H46  1  0.824400  0.613000  0.822400  1.0  0.1161
  H  H47  1  0.952800  0.587000  0.540000  1.0  0.1269
  H  H48  1  0.046000  0.619300  0.589000  1.0  0.0922
  H  H49  1  0.941600  0.708600  0.599200  1.0  0.1311
  H  H50  1  0.847500  0.675700  0.549500  1.0  0.1065
  H  H51  1  0.502800  0.656200  0.304600  1.0  0.101
  H  H52  1  0.402900  0.678600  0.235800  1.0  0.0919
  H  H53  1  0.903400  0.451200  0.330600  1.0  0.0963
  H  H54  1  0.914000  0.401700  0.266500  1.0  0.1009
  H  H55  1  0.728900  0.386300  0.221500  1.0  0.0709
  H  H56  1  0.714700  0.446200  0.259000  1.0  0.1146
  H  H57  1  0.096100  0.209900  0.214600  1.0  0.0824
  H  H58  1  0.188300  0.177500  0.200400  1.0  0.1079
  H  H59  1  0.080100  0.096400  0.139900  1.0  0.09
  H  H60  1  0.990300  0.127100  0.154800  1.0  0.106
  H  H61  1  0.507000  0.687100  0.689300  1.0  0.1376
  H  H62  1  0.454200  0.564700  0.648100  1.0  0.109
  H  H63  1  0.508700  0.589100  0.151800  1.0  0.1068
  H  H64  1  0.410100  0.612100  0.082300  1.0  0.1288
  H  H65  1  0.579600  0.645600  0.664000  1.0  0.1019
  H  H66  1  0.659700  0.453200  0.707600  1.0  0.1134
  H  H67  1  0.659500  0.392400  0.742600  1.0  0.1056
  H  H68  1  0.826200  0.375600  0.694800  1.0  0.1093
  H  H69  1  0.822600  0.433300  0.651500  1.0  0.1062
  H  H70  1  0.660000  0.262700  0.762300  1.0  0.1118
  H  H71  1  0.774100  0.174400  0.826600  1.0  0.1098
  H  H72  1  0.855700  0.272000  0.814700  1.0  0.1172
  H  H73  1  0.620400  0.103300  0.820900  1.0  0.1271
  H  H74  1  0.572600  0.683800  0.463900  1.0  0.1186
  H  H75  1  0.478500  0.719000  0.445200  1.0  0.1187
  H  H76  1  0.372200  0.629300  0.437700  1.0  0.1158
  H  H77  1  0.466600  0.594800  0.458500  1.0  0.0968
  H  H78  1  0.281700  0.785300  0.381300  1.0  0.1166
  H  H79  1  0.084900  0.780000  0.303100  1.0  0.123
  H  H80  1  0.191700  0.688200  0.368300  1.0  0.1024
  H  H81  1  0.672000  0.422100  0.457600  1.0  0.1092
  H  H82  1  0.697900  0.362100  0.455700  1.0  0.1045
  H  H83  1  0.888800  0.387900  0.507900  1.0  0.1272
  H  H84  1  0.860300  0.448900  0.502200  1.0  0.1068
  H  H85  1  0.723600  0.251600  0.435100  1.0  0.114
  H  H86  1  0.825100  0.158100  0.488600  1.0  0.1239
  H  H87  1  0.919000  0.254000  0.535100  1.0  0.114
  H  H88  1  0.056000  0.112800  0.800100  1.0  0.0892
  H  H89  1  0.979000  0.144400  0.717800  1.0  0.1066
  H  H90  1  0.098300  0.147900  0.595300  1.0  0.1173
  H  H91  1  0.175600  0.113000  0.677600  1.0  0.1135
  H  H92  1  0.047200  0.087000  0.960000  1.0  0.1271
  H  H93  1  0.954000  0.119300  0.911000  1.0  0.0921
  H  H94  1  0.058400  0.208600  0.900800  1.0  0.132
  H  H95  1  0.152500  0.175700  0.950500  1.0  0.1062
  H  H96  1  0.497200  0.156200  0.195400  1.0  0.1013
  H  H97  1  0.597100  0.178600  0.264200  1.0  0.0922
  H  H98  1  0.096600  0.951200  0.169400  1.0  0.0961
  H  H99  1  0.086000  0.901700  0.233500  1.0  0.1009
  H  H100  1  0.271100  0.886300  0.278500  1.0  0.0726
  H  H101  1  0.285300  0.946200  0.241000  1.0  0.1154
  H  H102  1  0.903900  0.709900  0.285400  1.0  0.0834
  H  H103  1  0.811700  0.677500  0.299600  1.0  0.1081
  H  H104  1  0.919900  0.596400  0.360100  1.0  0.0907
  H  H105  1  0.009700  0.627100  0.345200  1.0  0.1058
  H  H106  1  0.493000  0.187100  0.810700  1.0  0.1382
  H  H107  1  0.545800  0.064700  0.851900  1.0  0.1093
  H  H108  1  0.491300  0.089100  0.348200  1.0  0.1071
  H  H109  1  0.589900  0.112100  0.417700  1.0  0.1289
  H  H110  1  0.420400  0.145600  0.836000  1.0  0.1012
  H  H111  1  0.659700  0.046800  0.207600  1.0  0.1132
  H  H112  1  0.659500  0.107600  0.242600  1.0  0.1063
  H  H113  1  0.826200  0.124400  0.194800  1.0  0.1089
  H  H114  1  0.822600  0.066700  0.151500  1.0  0.106
  H  H115  1  0.660000  0.237300  0.262300  1.0  0.1117
  H  H116  1  0.774100  0.325600  0.326600  1.0  0.1096
  H  H117  1  0.855700  0.228000  0.314700  1.0  0.117
  H  H118  1  0.620400  0.396700  0.320900  1.0  0.1268
  H  H119  1  0.572600  0.816200  0.963900  1.0  0.1181
  H  H120  1  0.478500  0.781000  0.945200  1.0  0.1189
  H  H121  1  0.372200  0.870700  0.937700  1.0  0.1154
  H  H122  1  0.466600  0.905200  0.958500  1.0  0.0962
  H  H123  1  0.281700  0.714700  0.881300  1.0  0.1162
  H  H124  1  0.084900  0.720000  0.803100  1.0  0.1233
  H  H125  1  0.191700  0.811800  0.868300  1.0  0.1017
  H  H126  1  0.672000  0.077900  0.957600  1.0  0.1092
  H  H127  1  0.697900  0.137900  0.955700  1.0  0.1045
  H  H128  1  0.888800  0.112100  0.007900  1.0  0.1271
  H  H129  1  0.860300  0.051100  0.002200  1.0  0.1075
  H  H130  1  0.723600  0.248400  0.935100  1.0  0.114
  H  H131  1  0.825100  0.341900  0.988600  1.0  0.1239
  H  H132  1  0.919000  0.246000  0.035100  1.0  0.1138
  H  H133  1  0.056000  0.387200  0.300100  1.0  0.089
  H  H134  1  0.979000  0.355600  0.217800  1.0  0.1068
  H  H135  1  0.098300  0.352100  0.095300  1.0  0.1174
  H  H136  1  0.175600  0.387000  0.177600  1.0  0.1153
  H  H137  1  0.047200  0.413000  0.460000  1.0  0.1267
  H  H138  1  0.954000  0.380700  0.411000  1.0  0.0917
  H  H139  1  0.058400  0.291400  0.400800  1.0  0.1312
  H  H140  1  0.152500  0.324300  0.450500  1.0  0.1054
  H  H141  1  0.497200  0.343800  0.695400  1.0  0.1013
  H  H142  1  0.597100  0.321400  0.764200  1.0  0.0919
  H  H143  1  0.096600  0.548800  0.669400  1.0  0.096
  H  H144  1  0.086000  0.598300  0.733500  1.0  0.1012
  H  H145  1  0.271100  0.613700  0.778500  1.0  0.0738
  H  H146  1  0.285300  0.553800  0.741000  1.0  0.1152
  H  H147  1  0.903900  0.790100  0.785400  1.0  0.0828
  H  H148  1  0.811700  0.822500  0.799600  1.0  0.108
  H  H149  1  0.919900  0.903600  0.860100  1.0  0.0902
  H  H150  1  0.009700  0.872900  0.845200  1.0  0.1061
  H  H151  1  0.493000  0.312900  0.310700  1.0  0.1375
  H  H152  1  0.545800  0.435300  0.351900  1.0  0.1099
  H  H153  1  0.491300  0.410900  0.848200  1.0  0.1074
  H  H154  1  0.589900  0.387900  0.917700  1.0  0.129
  H  H155  1  0.420400  0.354400  0.336000  1.0  0.1014
  H  H156  1  0.340300  0.546800  0.292400  1.0  0.1131
  H  H157  1  0.340500  0.607600  0.257400  1.0  0.1068
  H  H158  1  0.173800  0.624400  0.305200  1.0  0.1085
  H  H159  1  0.177400  0.566700  0.348500  1.0  0.1065
  H  H160  1  0.340000  0.737300  0.237700  1.0  0.1121
  H  H161  1  0.225900  0.825600  0.173400  1.0  0.1098
  H  H162  1  0.144300  0.728000  0.185300  1.0  0.1165
  H  H163  1  0.379600  0.896700  0.179100  1.0  0.1267
  H  H164  1  0.427400  0.316200  0.536100  1.0  0.1178
  H  H165  1  0.521500  0.281000  0.554800  1.0  0.1187
  H  H166  1  0.627800  0.370700  0.562300  1.0  0.1158
  H  H167  1  0.533400  0.405200  0.541500  1.0  0.0959
  H  H168  1  0.718300  0.214700  0.618700  1.0  0.1171
  H  H169  1  0.915100  0.220000  0.696900  1.0  0.1235
  H  H170  1  0.808300  0.311800  0.631700  1.0  0.1016
  H  H171  1  0.328000  0.577900  0.542400  1.0  0.1096
  H  H172  1  0.302100  0.637900  0.544300  1.0  0.1039
  H  H173  1  0.111200  0.612100  0.492100  1.0  0.1259
  H  H174  1  0.139700  0.551100  0.497800  1.0  0.1065
  H  H175  1  0.276400  0.748400  0.564900  1.0  0.1141
  H  H176  1  0.174900  0.841900  0.511400  1.0  0.1241
  H  H177  1  0.081000  0.746000  0.464900  1.0  0.1139
  H  H178  1  0.944000  0.887200  0.199900  1.0  0.0896
  H  H179  1  0.021000  0.855600  0.282200  1.0  0.1064
  H  H180  1  0.901700  0.852100  0.404700  1.0  0.1182
  H  H181  1  0.824400  0.887000  0.322400  1.0  0.1139
  H  H182  1  0.952800  0.913000  0.040000  1.0  0.1266
  H  H183  1  0.046000  0.880700  0.089000  1.0  0.0923
  H  H184  1  0.941600  0.791400  0.099200  1.0  0.1311
  H  H185  1  0.847500  0.824300  0.049500  1.0  0.1054
  H  H186  1  0.502800  0.843800  0.804600  1.0  0.1011
  H  H187  1  0.402900  0.821400  0.735800  1.0  0.0918
  H  H188  1  0.903400  0.048800  0.830600  1.0  0.096
  H  H189  1  0.914000  0.098300  0.766500  1.0  0.1014
  H  H190  1  0.728900  0.113700  0.721500  1.0  0.0727
  H  H191  1  0.714700  0.053800  0.759000  1.0  0.1151
  H  H192  1  0.096100  0.290100  0.714600  1.0  0.0823
  H  H193  1  0.188300  0.322500  0.700400  1.0  0.1076
  H  H194  1  0.080100  0.403600  0.639900  1.0  0.0905
  H  H195  1  0.990300  0.372900  0.654800  1.0  0.1055
  H  H196  1  0.507000  0.812900  0.189300  1.0  0.137
  H  H197  1  0.454200  0.935300  0.148100  1.0  0.1093
  H  H198  1  0.508700  0.910900  0.651800  1.0  0.1074
  H  H199  1  0.410100  0.887900  0.582300  1.0  0.1288
  H  H200  1  0.579600  0.854400  0.164000  1.0  0.1015
  C  C201  1  0.256000  0.988390  0.843400  1.0  0.7117
  C  C202  1  0.257400  0.949770  0.821500  1.0  -0.1296
  C  C203  1  0.306500  0.937290  0.795700  1.0  -0.0463
  C  C204  1  0.306400  0.901130  0.774300  1.0  -0.0982
  C  C205  1  0.257100  0.878240  0.777600  1.0  -0.0653
  C  C206  1  0.208600  0.891170  0.803800  1.0  -0.142
  C  C207  1  0.209600  0.925620  0.827600  1.0  -0.0569
  C  C208  1  0.254100  0.841480  0.753000  1.0  0.0668
  C  C209  1  0.250000  0.810630  0.733200  1.0  -0.0138
  C  C210  1  0.242900  0.773220  0.715100  1.0  0.0289
  C  C211  1  0.298100  0.752090  0.721600  1.0  -0.0776
  C  C212  1  0.291700  0.714750  0.704100  1.0  0.0098
  C  C213  1  0.230400  0.699640  0.682900  1.0  -0.1186
  C  C214  1  0.181900  0.757400  0.691000  1.0  -0.0725
  C  C215  1  0.346700  0.693190  0.704500  1.0  -0.0071
  C  C216  1  0.389300  0.673700  0.698600  1.0  -0.057
  C  C217  1  0.437600  0.648800  0.690700  1.0  0.0199
  C  C218  1  0.420300  0.612200  0.676700  1.0  -0.1059
  C  C219  1  0.412800  0.112550  0.032700  1.0  0.684
  C  C220  1  0.472100  0.135680  0.038000  1.0  -0.1246
  C  C221  1  0.468200  0.172430  0.041500  1.0  -0.0977
  C  C222  1  0.524600  0.193330  0.053200  1.0  -0.0914
  C  C223  1  0.584700  0.177420  0.062300  1.0  0.0051
  C  C224  1  0.587400  0.140930  0.057400  1.0  -0.1359
  C  C225  1  0.530600  0.120430  0.045000  1.0  -0.054
  C  C226  1  0.642200  0.198870  0.077000  1.0  -0.0923
  C  C227  1  0.692300  0.215750  0.094900  1.0  -0.0441
  C  C228  1  0.753400  0.234040  0.120300  1.0  0.0052
  C  C229  1  0.756900  0.271150  0.131400  1.0  -0.068
  C  C230  1  0.817000  0.287890  0.161300  1.0  0.0
  C  C231  1  0.874400  0.268340  0.177700  1.0  -0.1577
  C  C232  1  0.870800  0.230140  0.164700  1.0  -0.0117
  C  C233  1  0.810600  0.213760  0.138000  1.0  -0.1662
  C  C234  1  0.818400  0.325990  0.177000  1.0  0.0616
  C  C235  1  0.819900  0.356080  0.199800  1.0  0.0731
  C  C236  1  0.819100  0.389900  0.232900  1.0  0.2453
  C  C237  1  0.929300  0.210070  0.176800  1.0  -0.0014
  C  C238  1  0.978200  0.192690  0.181600  1.0  0.0457
  C  C239  1  0.256300  0.980150  0.027200  1.0  0.6867
  C  C240  1  0.236800  0.941360  0.022300  1.0  -0.1302
  C  C241  1  0.283800  0.915160  0.033800  1.0  -0.0798
  C  C242  1  0.268300  0.879600  0.033100  1.0  -0.112
  C  C243  1  0.204300  0.868060  0.016500  1.0  -0.0067
  C  C244  1  0.155600  0.894680  0.003300  1.0  -0.1113
  C  C245  1  0.172800  0.930960  0.006500  1.0  -0.0368
  C  C246  1  0.188700  0.830120  0.015000  1.0  0.0515
  C  C247  1  0.182900  0.798350  0.014600  1.0  -0.0286
  C  C248  1  0.179800  0.759650  0.016600  1.0  -0.0158
  C  C249  1  0.236300  0.739420  0.045400  1.0  -0.1118
  C  C250  1  0.234600  0.702060  0.045900  1.0  0.073
  C  C251  1  0.175900  0.683860  0.013200  1.0  -0.0128
  C  C252  1  0.119200  0.703770  0.983200  1.0  0.0175
  C  C253  1  0.119900  0.740730  0.984800  1.0  -0.0856
  C  C254  1  0.828700  0.587870  0.697800  1.0  0.7274
  C  C255  1  0.877300  0.609620  0.752800  1.0  -0.1297
  C  C256  1  0.935600  0.619460  0.742200  1.0  -0.025
  C  C257  1  0.980900  0.638330  0.790500  1.0  -0.118
  C  C258  1  0.969400  0.648800  0.851500  1.0  0.0128
  C  C259  1  0.910500  0.640100  0.863200  1.0  -0.1174
  C  C260  1  0.864200  0.619700  0.814000  1.0  -0.0672
  C  C261  1  0.019400  0.668780  0.904100  1.0  0.0878
  C  C262  1  0.060600  0.684850  0.941800  1.0  0.1383
  C  C263  1  0.829100  0.607910  0.505300  1.0  0.7084
  C  C264  1  0.890000  0.628520  0.540200  1.0  -0.1635
  C  C265  1  0.950200  0.611730  0.551900  1.0  -0.1637
  C  C266  1  0.005100  0.631110  0.580300  1.0  -0.0884
  C  C267  1  0.004000  0.667830  0.597400  1.0  0.0151
  C  C268  1  0.944400  0.683920  0.586700  1.0  -0.1401
  C  C269  1  0.888500  0.664100  0.557600  1.0  -0.0608
  C  C270  1  0.062100  0.688340  0.626300  1.0  -0.0371
  C  C271  1  0.112400  0.704290  0.649700  1.0  -0.0319
  C  C272  1  0.174700  0.720970  0.675200  1.0  0.0256
  C  C273  1  0.582700  0.608250  0.279800  1.0  0.7363
  C  C274  1  0.516800  0.621930  0.233500  1.0  -0.1198
  C  C275  1  0.485000  0.647400  0.258500  1.0  -0.0803
  C  C276  1  0.425300  0.661100  0.216800  1.0  -0.1235
  C  C277  1  0.399600  0.650150  0.152100  1.0  0.1203
  C  C278  1  0.339600  0.666510  0.109200  1.0  -0.0368
  C  C279  1  0.291200  0.681980  0.078500  1.0  -0.0204
  C  C280  1  0.802500  0.489100  0.336200  1.0  0.6343
  C  C281  1  0.808300  0.454300  0.299600  1.0  0.0094
  C  C282  1  0.865200  0.439700  0.302400  1.0  -0.0539
  C  C283  1  0.872000  0.409400  0.267200  1.0  -0.1489
  C  C284  1  0.765900  0.401500  0.237500  1.0  -0.0754
  C  C285  1  0.757000  0.436500  0.265400  1.0  -0.0907
  C  C286  1  0.034300  0.172100  0.183000  1.0  0.2039
  C  C287  1  0.090400  0.185500  0.198500  1.0  -0.1118
  C  C288  1  0.148000  0.165200  0.193100  1.0  -0.129
  C  C289  1  0.086000  0.120100  0.159300  1.0  -0.1156
  C  C290  1  0.031000  0.139200  0.164900  1.0  -0.1336
  C  C291  1  0.496400  0.662100  0.683600  1.0  -0.1196
  C  C292  1  0.465100  0.589300  0.659000  1.0  -0.0311
  C  C293  1  0.488100  0.608300  0.168900  1.0  -0.0668
  C  C294  1  0.429600  0.621900  0.127300  1.0  -0.1268
  C  C295  1  0.572200  0.576100  0.636100  1.0  0.7584
  C  C296  1  0.524400  0.602200  0.657200  1.0  -0.1522
  C  C297  1  0.538900  0.637200  0.667600  1.0  -0.0286
  C  C298  1  0.200600  0.112800  0.170200  1.0  0.761
  C  C299  1  0.144600  0.133400  0.179600  1.0  0.1086
  C  C300  1  0.744000  0.488390  0.656600  1.0  0.7109
  C  C301  1  0.742600  0.449770  0.678500  1.0  -0.1308
  C  C302  1  0.693500  0.437290  0.704300  1.0  -0.0474
  C  C303  1  0.693600  0.401130  0.725700  1.0  -0.0997
  C  C304  1  0.742900  0.378240  0.722400  1.0  -0.0642
  C  C305  1  0.791400  0.391170  0.696200  1.0  -0.1428
  C  C306  1  0.790400  0.425620  0.672400  1.0  -0.0584
  C  C307  1  0.745900  0.341480  0.747000  1.0  0.0687
  C  C308  1  0.750000  0.310630  0.766800  1.0  -0.0122
  C  C309  1  0.757100  0.273220  0.784900  1.0  0.0279
  C  C310  1  0.701900  0.252090  0.778400  1.0  -0.08
  C  C311  1  0.708300  0.214750  0.795900  1.0  0.0081
  C  C312  1  0.769600  0.199640  0.817100  1.0  -0.1191
  C  C313  1  0.818100  0.257400  0.809000  1.0  -0.0713
  C  C314  1  0.653300  0.193190  0.795500  1.0  -0.0111
  C  C315  1  0.610700  0.173700  0.801400  1.0  -0.0584
  C  C316  1  0.562400  0.148800  0.809300  1.0  0.0239
  C  C317  1  0.579700  0.112200  0.823300  1.0  -0.1063
  C  C318  1  0.587200  0.612550  0.467300  1.0  0.683
  C  C319  1  0.527900  0.635680  0.462000  1.0  -0.1238
  C  C320  1  0.531800  0.672430  0.458500  1.0  -0.0969
  C  C321  1  0.475400  0.693330  0.446800  1.0  -0.0909
  C  C322  1  0.415300  0.677420  0.437700  1.0  0.004
  C  C323  1  0.412600  0.640930  0.442600  1.0  -0.1388
  C  C324  1  0.469400  0.620430  0.455000  1.0  -0.055
  C  C325  1  0.357800  0.698870  0.423000  1.0  -0.0917
  C  C326  1  0.307700  0.715750  0.405100  1.0  -0.0431
  C  C327  1  0.246600  0.734040  0.379700  1.0  0.0054
  C  C328  1  0.243100  0.771150  0.368600  1.0  -0.0665
  C  C329  1  0.183000  0.787890  0.338700  1.0  0.0003
  C  C330  1  0.125600  0.768340  0.322300  1.0  -0.1579
  C  C331  1  0.129200  0.730140  0.335300  1.0  -0.0114
  C  C332  1  0.189400  0.713760  0.362000  1.0  -0.1662
  C  C333  1  0.181600  0.825990  0.323000  1.0  0.0607
  C  C334  1  0.180100  0.856080  0.300200  1.0  0.0695
  C  C335  1  0.180900  0.889900  0.267100  1.0  0.241
  C  C336  1  0.070700  0.710070  0.323200  1.0  -0.0076
  C  C337  1  0.021800  0.692690  0.318400  1.0  0.0469
  C  C338  1  0.743700  0.480150  0.472800  1.0  0.6864
  C  C339  1  0.763200  0.441360  0.477700  1.0  -0.1305
  C  C340  1  0.716200  0.415160  0.466200  1.0  -0.0783
  C  C341  1  0.731700  0.379600  0.466900  1.0  -0.1119
  C  C342  1  0.795700  0.368060  0.483500  1.0  -0.0057
  C  C343  1  0.844400  0.394680  0.496700  1.0  -0.1122
  C  C344  1  0.827200  0.430960  0.493500  1.0  -0.0364
  C  C345  1  0.811300  0.330120  0.485000  1.0  0.0515
  C  C346  1  0.817100  0.298350  0.485400  1.0  -0.0284
  C  C347  1  0.820200  0.259650  0.483400  1.0  -0.0146
  C  C348  1  0.763700  0.239420  0.454600  1.0  -0.1118
  C  C349  1  0.765400  0.202060  0.454100  1.0  0.0735
  C  C350  1  0.824100  0.183860  0.486800  1.0  -0.013
  C  C351  1  0.880800  0.203770  0.516800  1.0  0.0193
  C  C352  1  0.880100  0.240730  0.515200  1.0  -0.0838
  C  C353  1  0.171300  0.087870  0.802200  1.0  0.7274
  C  C354  1  0.122700  0.109620  0.747200  1.0  -0.1293
  C  C355  1  0.064400  0.119460  0.757800  1.0  -0.0253
  C  C356  1  0.019100  0.138330  0.709500  1.0  -0.1162
  C  C357  1  0.030600  0.148800  0.648500  1.0  0.0136
  C  C358  1  0.089500  0.140100  0.636800  1.0  -0.1146
  C  C359  1  0.135800  0.119700  0.686000  1.0  -0.0754
  C  C360  1  0.980600  0.168780  0.595900  1.0  0.0871
  C  C361  1  0.939400  0.184850  0.558200  1.0  0.1394
  C  C362  1  0.170900  0.107910  0.994700  1.0  0.7089
  C  C363  1  0.110000  0.128520  0.959800  1.0  -0.1626
  C  C364  1  0.049800  0.111730  0.948100  1.0  -0.1627
  C  C365  1  0.994900  0.131110  0.919700  1.0  -0.0895
  C  C366  1  0.996000  0.167830  0.902600  1.0  0.0122
  C  C367  1  0.055600  0.183920  0.913300  1.0  -0.139
  C  C368  1  0.111500  0.164100  0.942400  1.0  -0.0604
  C  C369  1  0.937900  0.188340  0.873700  1.0  -0.0394
  C  C370  1  0.887600  0.204290  0.850300  1.0  -0.0321
  C  C371  1  0.825300  0.220970  0.824800  1.0  0.0257
  C  C372  1  0.417300  0.108250  0.220200  1.0  0.7368
  C  C373  1  0.483200  0.121930  0.266500  1.0  -0.1217
  C  C374  1  0.515000  0.147400  0.241500  1.0  -0.0813
  C  C375  1  0.574700  0.161100  0.283200  1.0  -0.1223
  C  C376  1  0.600400  0.150150  0.347900  1.0  0.1189
  C  C377  1  0.660400  0.166510  0.390800  1.0  -0.0352
  C  C378  1  0.708800  0.181980  0.421500  1.0  -0.0202
  C  C379  1  0.197500  0.989100  0.163800  1.0  0.6346
  C  C380  1  0.191700  0.954300  0.200400  1.0  0.0082
  C  C381  1  0.134800  0.939700  0.197600  1.0  -0.0558
  C  C382  1  0.128000  0.909400  0.232800  1.0  -0.1501
  C  C383  1  0.234100  0.901500  0.262500  1.0  -0.0733
  C  C384  1  0.243000  0.936500  0.234600  1.0  -0.0903
  C  C385  1  0.965700  0.672100  0.317000  1.0  0.2071
  C  C386  1  0.909600  0.685500  0.301500  1.0  -0.1141
  C  C387  1  0.852000  0.665200  0.306900  1.0  -0.1285
  C  C388  1  0.914000  0.620100  0.340700  1.0  -0.1143
  C  C389  1  0.969000  0.639200  0.335100  1.0  -0.1337
  C  C390  1  0.503600  0.162100  0.816400  1.0  -0.1224
  C  C391  1  0.534900  0.089300  0.841000  1.0  -0.0319
  C  C392  1  0.511900  0.108300  0.331100  1.0  -0.0683
  C  C393  1  0.570400  0.121900  0.372700  1.0  -0.1233
  C  C394  1  0.427800  0.076100  0.863900  1.0  0.7602
  C  C395  1  0.475600  0.102200  0.842800  1.0  -0.1548
  C  C396  1  0.461100  0.137200  0.832400  1.0  -0.0315
  C  C397  1  0.799400  0.612800  0.329800  1.0  0.7593
  C  C398  1  0.855400  0.633400  0.320400  1.0  0.1037
  C  C399  1  0.744000  0.011610  0.156600  1.0  0.7107
  C  C400  1  0.742600  0.050230  0.178500  1.0  -0.1306
  C  C401  1  0.693500  0.062710  0.204300  1.0  -0.0474
  C  C402  1  0.693600  0.098870  0.225700  1.0  -0.0994
  C  C403  1  0.742900  0.121760  0.222400  1.0  -0.0645
  C  C404  1  0.791400  0.108830  0.196200  1.0  -0.1418
  C  C405  1  0.790400  0.074380  0.172400  1.0  -0.0594
  C  C406  1  0.745900  0.158520  0.247000  1.0  0.0681
  C  C407  1  0.750000  0.189370  0.266800  1.0  -0.0127
  C  C408  1  0.757100  0.226780  0.284900  1.0  0.026
  C  C409  1  0.701900  0.247910  0.278400  1.0  -0.0795
  C  C410  1  0.708300  0.285250  0.295900  1.0  0.0097
  C  C411  1  0.769600  0.300360  0.317100  1.0  -0.119
  C  C412  1  0.818100  0.242600  0.309000  1.0  -0.0717
  C  C413  1  0.653300  0.306810  0.295500  1.0  -0.0109
  C  C414  1  0.610700  0.326300  0.301400  1.0  -0.0578
  C  C415  1  0.562400  0.351200  0.309300  1.0  0.0238
  C  C416  1  0.579700  0.387800  0.323300  1.0  -0.1061
  C  C417  1  0.587200  0.887450  0.967300  1.0  0.6834
  C  C418  1  0.527900  0.864320  0.962000  1.0  -0.1229
  C  C419  1  0.531800  0.827570  0.958500  1.0  -0.0961
  C  C420  1  0.475400  0.806670  0.946800  1.0  -0.0972
  C  C421  1  0.415300  0.822580  0.937700  1.0  0.0025
  C  C422  1  0.412600  0.859070  0.942600  1.0  -0.1393
  C  C423  1  0.469400  0.879570  0.955000  1.0  -0.0533
  C  C424  1  0.357800  0.801130  0.923000  1.0  -0.0919
  C  C425  1  0.307700  0.784250  0.905100  1.0  -0.0435
  C  C426  1  0.246600  0.765960  0.879700  1.0  0.0064
  C  C427  1  0.243100  0.728850  0.868600  1.0  -0.0666
  C  C428  1  0.183000  0.712110  0.838700  1.0  -0.0007
  C  C429  1  0.125600  0.731660  0.822300  1.0  -0.1582
  C  C430  1  0.129200  0.769860  0.835300  1.0  -0.0098
  C  C431  1  0.189400  0.786240  0.862000  1.0  -0.167
  C  C432  1  0.181600  0.674010  0.823000  1.0  0.0612
  C  C433  1  0.180100  0.643920  0.800200  1.0  0.0698
  C  C434  1  0.180900  0.610100  0.767100  1.0  0.2393
  C  C435  1  0.070700  0.789930  0.823200  1.0  -0.0051
  C  C436  1  0.021800  0.807310  0.818400  1.0  0.0469
  C  C437  1  0.743700  0.019850  0.972800  1.0  0.6865
  C  C438  1  0.763200  0.058640  0.977700  1.0  -0.1303
  C  C439  1  0.716200  0.084840  0.966200  1.0  -0.0781
  C  C440  1  0.731700  0.120400  0.966900  1.0  -0.113
  C  C441  1  0.795700  0.131940  0.983500  1.0  -0.0047
  C  C442  1  0.844400  0.105320  0.996700  1.0  -0.1125
  C  C443  1  0.827200  0.069040  0.993500  1.0  -0.0359
  C  C444  1  0.811300  0.169880  0.985000  1.0  0.0517
  C  C445  1  0.817100  0.201650  0.985400  1.0  -0.027
  C  C446  1  0.820200  0.240350  0.983400  1.0  -0.0155
  C  C447  1  0.763700  0.260580  0.954600  1.0  -0.1116
  C  C448  1  0.765400  0.297940  0.954100  1.0  0.0755
  C  C449  1  0.824100  0.316140  0.986800  1.0  -0.0107
  C  C450  1  0.880800  0.296230  0.016800  1.0  0.0173
  C  C451  1  0.880100  0.259270  0.015200  1.0  -0.0844
  C  C452  1  0.171300  0.412130  0.302200  1.0  0.7273
  C  C453  1  0.122700  0.390380  0.247200  1.0  -0.129
  C  C454  1  0.064400  0.380540  0.257800  1.0  -0.0253
  C  C455  1  0.019100  0.361670  0.209500  1.0  -0.116
  C  C456  1  0.030600  0.351200  0.148500  1.0  0.0111
  C  C457  1  0.089500  0.359900  0.136800  1.0  -0.1165
  C  C458  1  0.135800  0.380300  0.186000  1.0  -0.0655
  C  C459  1  0.980600  0.331220  0.095900  1.0  0.0868
  C  C460  1  0.939400  0.315150  0.058200  1.0  0.1389
  C  C461  1  0.170900  0.392090  0.494700  1.0  0.7095
  C  C462  1  0.110000  0.371480  0.459800  1.0  -0.1626
  C  C463  1  0.049800  0.388270  0.448100  1.0  -0.1612
  C  C464  1  0.994900  0.368890  0.419700  1.0  -0.0894
  C  C465  1  0.996000  0.332170  0.402600  1.0  0.009
  C  C466  1  0.055600  0.316080  0.413300  1.0  -0.1421
  C  C467  1  0.111500  0.335900  0.442400  1.0  -0.0614
  C  C468  1  0.937900  0.311660  0.373700  1.0  -0.0391
  C  C469  1  0.887600  0.295710  0.350300  1.0  -0.032
  C  C470  1  0.825300  0.279030  0.324800  1.0  0.0258
  C  C471  1  0.417300  0.391750  0.720200  1.0  0.737
  C  C472  1  0.483200  0.378070  0.766500  1.0  -0.1212
  C  C473  1  0.515000  0.352600  0.741500  1.0  -0.0821
  C  C474  1  0.574700  0.338900  0.783200  1.0  -0.1216
  C  C475  1  0.600400  0.349850  0.847900  1.0  0.1191
  C  C476  1  0.660400  0.333490  0.890800  1.0  -0.0344
  C  C477  1  0.708800  0.318020  0.921500  1.0  -0.0217
  C  C478  1  0.197500  0.510900  0.663800  1.0  0.6341
  C  C479  1  0.191700  0.545700  0.700400  1.0  0.0077
  C  C480  1  0.134800  0.560300  0.697600  1.0  -0.0552
  C  C481  1  0.128000  0.590600  0.732800  1.0  -0.1503
  C  C482  1  0.234100  0.598500  0.762500  1.0  -0.0721
  C  C483  1  0.243000  0.563500  0.734600  1.0  -0.0903
  C  C484  1  0.965700  0.827900  0.817000  1.0  0.2087
  C  C485  1  0.909600  0.814500  0.801500  1.0  -0.112
  C  C486  1  0.852000  0.834800  0.806900  1.0  -0.1299
  C  C487  1  0.914000  0.879900  0.840700  1.0  -0.1133
  C  C488  1  0.969000  0.860800  0.835100  1.0  -0.1346
  C  C489  1  0.503600  0.337900  0.316400  1.0  -0.124
  C  C490  1  0.534900  0.410700  0.341000  1.0  -0.0326
  C  C491  1  0.511900  0.391700  0.831100  1.0  -0.0695
  C  C492  1  0.570400  0.378100  0.872700  1.0  -0.1245
  C  C493  1  0.427800  0.423900  0.363900  1.0  0.759
  C  C494  1  0.475600  0.397800  0.342800  1.0  -0.1533
  C  C495  1  0.461100  0.362800  0.332400  1.0  -0.0316
  C  C496  1  0.799400  0.887200  0.829800  1.0  0.7598
  C  C497  1  0.855400  0.866600  0.820400  1.0  0.105
  C  C498  1  0.256000  0.511610  0.343400  1.0  0.7119
  C  C499  1  0.257400  0.550230  0.321500  1.0  -0.1309
  C  C500  1  0.306500  0.562710  0.295700  1.0  -0.0477
  C  C501  1  0.306400  0.598870  0.274300  1.0  -0.0987
  C  C502  1  0.257100  0.621760  0.277600  1.0  -0.0642
  C  C503  1  0.208600  0.608830  0.303800  1.0  -0.142
  C  C504  1  0.209600  0.574380  0.327600  1.0  -0.057
  C  C505  1  0.254100  0.658520  0.253000  1.0  0.0666
  C  C506  1  0.250000  0.689370  0.233200  1.0  -0.0141
  C  C507  1  0.242900  0.726780  0.215100  1.0  0.027
  C  C508  1  0.298100  0.747910  0.221600  1.0  -0.0772
  C  C509  1  0.291700  0.785250  0.204100  1.0  0.011
  C  C510  1  0.230400  0.800360  0.182900  1.0  -0.1198
  C  C511  1  0.181900  0.742600  0.191000  1.0  -0.0722
  C  C512  1  0.346700  0.806810  0.204500  1.0  -0.0071
  C  C513  1  0.389300  0.826300  0.198600  1.0  -0.0566
  C  C514  1  0.437600  0.851200  0.190700  1.0  0.0198
  C  C515  1  0.420300  0.887800  0.176700  1.0  -0.1063
  C  C516  1  0.412800  0.387450  0.532700  1.0  0.6841
  C  C517  1  0.472100  0.364320  0.538000  1.0  -0.1243
  C  C518  1  0.468200  0.327570  0.541500  1.0  -0.0966
  C  C519  1  0.524600  0.306670  0.553200  1.0  -0.0972
  C  C520  1  0.584700  0.322580  0.562300  1.0  0.0036
  C  C521  1  0.587400  0.359070  0.557400  1.0  -0.1362
  C  C522  1  0.530600  0.379570  0.545000  1.0  -0.0526
  C  C523  1  0.642200  0.301130  0.577000  1.0  -0.0936
  C  C524  1  0.692300  0.284250  0.594900  1.0  -0.044
  C  C525  1  0.753400  0.265960  0.620300  1.0  0.0063
  C  C526  1  0.756900  0.228850  0.631400  1.0  -0.0666
  C  C527  1  0.817000  0.212110  0.661300  1.0  -0.0012
  C  C528  1  0.874400  0.231660  0.677700  1.0  -0.1584
  C  C529  1  0.870800  0.269860  0.664700  1.0  -0.0111
  C  C530  1  0.810600  0.286240  0.638000  1.0  -0.1669
  C  C531  1  0.818400  0.174010  0.677000  1.0  0.0617
  C  C532  1  0.819900  0.143920  0.699800  1.0  0.074
  C  C533  1  0.819100  0.110100  0.732900  1.0  0.2463
  C  C534  1  0.929300  0.289930  0.676800  1.0  0.0009
  C  C535  1  0.978200  0.307310  0.681600  1.0  0.0457
  C  C536  1  0.256300  0.519850  0.527200  1.0  0.6868
  C  C537  1  0.236800  0.558640  0.522300  1.0  -0.1299
  C  C538  1  0.283800  0.584840  0.533800  1.0  -0.0799
  C  C539  1  0.268300  0.620400  0.533100  1.0  -0.1129
  C  C540  1  0.204300  0.631940  0.516500  1.0  -0.005
  C  C541  1  0.155600  0.605320  0.503300  1.0  -0.1119
  C  C542  1  0.172800  0.569040  0.506500  1.0  -0.0369
  C  C543  1  0.188700  0.669880  0.515000  1.0  0.0517
  C  C544  1  0.182900  0.701650  0.514600  1.0  -0.0277
  C  C545  1  0.179800  0.740350  0.516600  1.0  -0.0169
  C  C546  1  0.236300  0.760580  0.545400  1.0  -0.1121
  C  C547  1  0.234600  0.797940  0.545900  1.0  0.0748
  C  C548  1  0.175900  0.816140  0.513200  1.0  -0.0099
  C  C549  1  0.119200  0.796230  0.483200  1.0  0.0182
  C  C550  1  0.119900  0.759270  0.484800  1.0  -0.0847
  C  C551  1  0.828700  0.912130  0.197800  1.0  0.7276
  C  C552  1  0.877300  0.890380  0.252800  1.0  -0.1297
  C  C553  1  0.935600  0.880540  0.242200  1.0  -0.0245
  C  C554  1  0.980900  0.861670  0.290500  1.0  -0.1184
  C  C555  1  0.969400  0.851200  0.351500  1.0  0.0158
  C  C556  1  0.910500  0.859900  0.363200  1.0  -0.1146
  C  C557  1  0.864200  0.880300  0.314000  1.0  -0.0749
  C  C558  1  0.019400  0.831220  0.404100  1.0  0.0879
  C  C559  1  0.060600  0.815150  0.441800  1.0  0.1385
  C  C560  1  0.829100  0.892090  0.005300  1.0  0.7087
  C  C561  1  0.890000  0.871480  0.040200  1.0  -0.1641
  C  C562  1  0.950200  0.888270  0.051900  1.0  -0.1614
  C  C563  1  0.005100  0.868890  0.080300  1.0  -0.0882
  C  C564  1  0.004000  0.832170  0.097400  1.0  0.0123
  C  C565  1  0.944400  0.816080  0.086700  1.0  -0.1432
  C  C566  1  0.888500  0.835900  0.057600  1.0  -0.0613
  C  C567  1  0.062100  0.811660  0.126300  1.0  -0.0376
  C  C568  1  0.112400  0.795710  0.149700  1.0  -0.0314
  C  C569  1  0.174700  0.779030  0.175200  1.0  0.0259
  C  C570  1  0.582700  0.891750  0.779800  1.0  0.7366
  C  C571  1  0.516800  0.878070  0.733500  1.0  -0.1199
  C  C572  1  0.485000  0.852600  0.758500  1.0  -0.0802
  C  C573  1  0.425300  0.838900  0.716800  1.0  -0.1229
  C  C574  1  0.399600  0.849850  0.652100  1.0  0.1198
  C  C575  1  0.339600  0.833490  0.609200  1.0  -0.0365
  C  C576  1  0.291200  0.818020  0.578500  1.0  -0.0215
  C  C577  1  0.802500  0.010900  0.836200  1.0  0.6333
  C  C578  1  0.808300  0.045700  0.799600  1.0  0.0088
  C  C579  1  0.865200  0.060300  0.802400  1.0  -0.053
  C  C580  1  0.872000  0.090600  0.767200  1.0  -0.1486
  C  C581  1  0.765900  0.098500  0.737500  1.0  -0.0748
  C  C582  1  0.757000  0.063500  0.765400  1.0  -0.0906
  C  C583  1  0.034300  0.327900  0.683000  1.0  0.2046
  C  C584  1  0.090400  0.314500  0.698500  1.0  -0.111
  C  C585  1  0.148000  0.334800  0.693100  1.0  -0.1299
  C  C586  1  0.086000  0.379900  0.659300  1.0  -0.1125
  C  C587  1  0.031000  0.360800  0.664900  1.0  -0.1353
  C  C588  1  0.496400  0.837900  0.183600  1.0  -0.1219
  C  C589  1  0.465100  0.910700  0.159000  1.0  -0.0324
  C  C590  1  0.488100  0.891700  0.668900  1.0  -0.0666
  C  C591  1  0.429600  0.878100  0.627300  1.0  -0.1273
  C  C592  1  0.572200  0.923900  0.136100  1.0  0.7581
  C  C593  1  0.524400  0.897800  0.157200  1.0  -0.153
  C  C594  1  0.538900  0.862800  0.167600  1.0  -0.0289
  C  C595  1  0.200600  0.387200  0.670200  1.0  0.7611
  C  C596  1  0.144600  0.366600  0.679600  1.0  0.1073
  O  O597  1  0.284540  0.059650  0.952800  1.0  -0.7503
  O  O598  1  0.305300  0.065990  0.100300  1.0  -0.7483
  O  O599  1  0.314200  0.988280  0.041200  1.0  -0.6017
  O  O600  1  0.422390  0.078980  0.040400  1.0  -0.6234
  O  O601  1  0.210300  0.004210  0.014000  1.0  -0.6965
  O  O602  1  0.833100  0.574300  0.497000  1.0  -0.66
  O  O603  1  0.212800  0.997790  0.870200  1.0  -0.6465
  O  O604  1  0.844470  0.576860  0.647900  1.0  -0.5915
  O  O605  1  0.299000  0.009210  0.832000  1.0  -0.5853
  O  O606  1  0.626900  0.587820  0.648900  1.0  -0.5524
  O  O607  1  0.772700  0.583190  0.708200  1.0  -0.5909
  O  O608  1  0.608300  0.626590  0.330700  1.0  -0.5932
  O  O609  1  0.247800  0.129940  0.161900  1.0  -0.6457
  O  O610  1  0.777000  0.625680  0.488400  1.0  -0.6102
  O  O611  1  0.357590  0.127520  0.020000  1.0  -0.609
  O  O612  1  0.852100  0.504720  0.377400  1.0  -0.599
  O  O613  1  0.194600  0.079460  0.164900  1.0  -0.6083
  O  O614  1  0.743700  0.503390  0.323500  1.0  -0.5423
  O  O615  1  0.606000  0.580410  0.258300  1.0  -0.4954
  O  O616  1  0.551300  0.546400  0.612400  1.0  -0.4774
  O  O617  1  0.715460  0.559650  0.547200  1.0  -0.7489
  O  O618  1  0.694700  0.565990  0.399700  1.0  -0.7486
  O  O619  1  0.685800  0.488280  0.458800  1.0  -0.6018
  O  O620  1  0.577610  0.578980  0.459600  1.0  -0.623
  O  O621  1  0.789700  0.504210  0.486000  1.0  -0.6961
  O  O622  1  0.166900  0.074300  0.003000  1.0  -0.6603
  O  O623  1  0.787200  0.497790  0.629800  1.0  -0.6443
  O  O624  1  0.155530  0.076860  0.852100  1.0  -0.5921
  O  O625  1  0.701000  0.509210  0.668000  1.0  -0.5849
  O  O626  1  0.373100  0.087820  0.851100  1.0  -0.5524
  O  O627  1  0.227300  0.083190  0.791800  1.0  -0.5909
  O  O628  1  0.391700  0.126590  0.169300  1.0  -0.5927
  O  O629  1  0.752200  0.629940  0.338100  1.0  -0.6446
  O  O630  1  0.223000  0.125680  0.011600  1.0  -0.6097
  O  O631  1  0.642410  0.627520  0.480000  1.0  -0.6102
  O  O632  1  0.147900  0.004720  0.122600  1.0  -0.5995
  O  O633  1  0.805400  0.579460  0.335100  1.0  -0.6084
  O  O634  1  0.256300  0.003390  0.176500  1.0  -0.5411
  O  O635  1  0.394000  0.080410  0.241700  1.0  -0.4967
  O  O636  1  0.448700  0.046400  0.887600  1.0  -0.476
  O  O637  1  0.715460  0.940350  0.047200  1.0  -0.7498
  O  O638  1  0.694700  0.934010  0.899700  1.0  -0.7489
  O  O639  1  0.685800  0.011720  0.958800  1.0  -0.6015
  O  O640  1  0.577610  0.921020  0.959600  1.0  -0.6245
  O  O641  1  0.789700  0.995790  0.986000  1.0  -0.696
  O  O642  1  0.166900  0.425700  0.503000  1.0  -0.6603
  O  O643  1  0.787200  0.002210  0.129800  1.0  -0.6442
  O  O644  1  0.155530  0.423140  0.352100  1.0  -0.5924
  O  O645  1  0.701000  0.990790  0.168000  1.0  -0.5846
  O  O646  1  0.373100  0.412180  0.351100  1.0  -0.5524
  O  O647  1  0.227300  0.416810  0.291800  1.0  -0.5905
  O  O648  1  0.391700  0.373410  0.669300  1.0  -0.593
  O  O649  1  0.752200  0.870060  0.838100  1.0  -0.645
  O  O650  1  0.223000  0.374320  0.511600  1.0  -0.6097
  O  O651  1  0.642410  0.872480  0.980000  1.0  -0.611
  O  O652  1  0.147900  0.495280  0.622600  1.0  -0.5977
  O  O653  1  0.805400  0.920540  0.835100  1.0  -0.6101
  O  O654  1  0.256300  0.496610  0.676500  1.0  -0.5412
  O  O655  1  0.394000  0.419590  0.741700  1.0  -0.497
  O  O656  1  0.448700  0.453600  0.387600  1.0  -0.4787
  O  O657  1  0.284540  0.440350  0.452800  1.0  -0.751
  O  O658  1  0.305300  0.434010  0.600300  1.0  -0.7493
  O  O659  1  0.314200  0.511720  0.541200  1.0  -0.6014
  O  O660  1  0.422390  0.421020  0.540400  1.0  -0.6243
  O  O661  1  0.210300  0.495790  0.514000  1.0  -0.697
  O  O662  1  0.833100  0.925700  0.997000  1.0  -0.6596
  O  O663  1  0.212800  0.502210  0.370200  1.0  -0.6466
  O  O664  1  0.844470  0.923140  0.147900  1.0  -0.592
  O  O665  1  0.299000  0.490790  0.332000  1.0  -0.5854
  O  O666  1  0.626900  0.912180  0.148900  1.0  -0.5527
  O  O667  1  0.772700  0.916810  0.208200  1.0  -0.5906
  O  O668  1  0.608300  0.873410  0.830700  1.0  -0.5931
  O  O669  1  0.247800  0.370060  0.661900  1.0  -0.6454
  O  O670  1  0.777000  0.874320  0.988400  1.0  -0.6101
  O  O671  1  0.357590  0.372480  0.520000  1.0  -0.6101
  O  O672  1  0.852100  0.995280  0.877400  1.0  -0.6006
  O  O673  1  0.194600  0.420540  0.664900  1.0  -0.6079
  O  O674  1  0.743700  0.996610  0.823500  1.0  -0.5424
  O  O675  1  0.606000  0.919590  0.758300  1.0  -0.4991
  O  O676  1  0.551300  0.953600  0.112400  1.0  -0.4788
