# generated using pymatgen
data_CdH5C6(NO)2
_symmetry_space_group_name_H-M   'P 1'
_cell_length_a   12.50780000
_cell_length_b   9.43040000
_cell_length_c   7.06370000
_cell_angle_alpha   90.00000000
_cell_angle_beta   106.72400000
_cell_angle_gamma   90.00000000
_symmetry_Int_Tables_number   1
_chemical_formula_structural   CdH5C6(NO)2
_chemical_formula_sum   'Cd4 H20 C24 N8 O8'
_cell_volume   797.94636710
_cell_formula_units_Z   4
loop_
 _symmetry_equiv_pos_site_id
 _symmetry_equiv_pos_as_xyz
  1  'x, y, z'
loop_
 _atom_site_type_symbol
 _atom_site_label
 _atom_site_symmetry_multiplicity
 _atom_site_fract_x
 _atom_site_fract_y
 _atom_site_fract_z
 _atom_site_occupancy
 _atom_site_charge
  Cd  Cd1  1  0.786170  0.162210  0.621130  1.0  0.9521
  Cd  Cd2  1  0.286170  0.662210  0.621130  1.0  0.9521
  Cd  Cd3  1  0.786170  0.837790  0.121130  1.0  0.9497
  Cd  Cd4  1  0.286170  0.337790  0.121130  1.0  0.9497
  H  H5  1  0.235100  0.325800  0.787200  1.0  0.3374
  H  H6  1  0.154000  0.210100  0.787300  1.0  0.3233
  H  H7  1  0.487600  0.867300  0.661300  1.0  0.0484
  H  H8  1  0.412900  0.274600  0.713600  1.0  0.0923
  H  H9  1  0.200000  0.962800  0.743800  1.0  0.0679
  H  H10  1  0.735100  0.825800  0.787200  1.0  0.3374
  H  H11  1  0.654000  0.710100  0.787300  1.0  0.3233
  H  H12  1  0.987600  0.367300  0.661300  1.0  0.0484
  H  H13  1  0.912900  0.774600  0.713600  1.0  0.0923
  H  H14  1  0.700000  0.462800  0.743800  1.0  0.0679
  H  H15  1  0.235100  0.674200  0.287200  1.0  0.335
  H  H16  1  0.154000  0.789900  0.287300  1.0  0.3237
  H  H17  1  0.487600  0.132700  0.161300  1.0  0.0486
  H  H18  1  0.412900  0.725400  0.213600  1.0  0.0925
  H  H19  1  0.200000  0.037200  0.243800  1.0  0.0677
  H  H20  1  0.735100  0.174200  0.287200  1.0  0.335
  H  H21  1  0.654000  0.289900  0.287300  1.0  0.3237
  H  H22  1  0.987600  0.632700  0.161300  1.0  0.0486
  H  H23  1  0.912900  0.225400  0.213600  1.0  0.0925
  H  H24  1  0.700000  0.537200  0.243800  1.0  0.0677
  C  C25  1  0.578900  0.118500  0.662100  1.0  0.6503
  C  C26  1  0.467800  0.078300  0.684700  1.0  -0.1989
  C  C27  1  0.437800  0.935500  0.679600  1.0  0.1233
  C  C28  1  0.394300  0.179000  0.710500  1.0  -0.1642
  C  C29  1  0.267800  0.992200  0.727400  1.0  0.0447
  C  C30  1  0.291500  0.137400  0.732100  1.0  0.1513
  C  C31  1  0.078900  0.618500  0.662100  1.0  0.6503
  C  C32  1  0.967800  0.578300  0.684700  1.0  -0.1989
  C  C33  1  0.937800  0.435500  0.679600  1.0  0.1233
  C  C34  1  0.894300  0.679000  0.710500  1.0  -0.1642
  C  C35  1  0.767800  0.492200  0.727400  1.0  0.0447
  C  C36  1  0.791500  0.637400  0.732100  1.0  0.1513
  C  C37  1  0.578900  0.881500  0.162100  1.0  0.6503
  C  C38  1  0.467800  0.921700  0.184700  1.0  -0.1988
  C  C39  1  0.437800  0.064500  0.179600  1.0  0.1233
  C  C40  1  0.394300  0.821000  0.210500  1.0  -0.165
  C  C41  1  0.267800  0.007800  0.227400  1.0  0.0445
  C  C42  1  0.291500  0.862600  0.232100  1.0  0.1516
  C  C43  1  0.078900  0.381500  0.162100  1.0  0.6503
  C  C44  1  0.967800  0.421700  0.184700  1.0  -0.1988
  C  C45  1  0.937800  0.564500  0.179600  1.0  0.1233
  C  C46  1  0.894300  0.321000  0.210500  1.0  -0.165
  C  C47  1  0.767800  0.507800  0.227400  1.0  0.0445
  C  C48  1  0.791500  0.362600  0.232100  1.0  0.1516
  N  N49  1  0.217100  0.237600  0.774400  1.0  -0.7106
  N  N50  1  0.339900  0.893800  0.700100  1.0  -0.3952
  N  N51  1  0.717100  0.737600  0.774400  1.0  -0.7106
  N  N52  1  0.839900  0.393800  0.700100  1.0  -0.3952
  N  N53  1  0.217100  0.762400  0.274400  1.0  -0.711
  N  N54  1  0.339900  0.106200  0.200100  1.0  -0.3926
  N  N55  1  0.717100  0.262400  0.274400  1.0  -0.711
  N  N56  1  0.839900  0.606200  0.200100  1.0  -0.3926
  O  O57  1  0.612400  0.241600  0.695800  1.0  -0.6643
  O  O58  1  0.635500  0.023500  0.604200  1.0  -0.6568
  O  O59  1  0.112400  0.741600  0.695800  1.0  -0.6643
  O  O60  1  0.135500  0.523500  0.604200  1.0  -0.6568
  O  O61  1  0.612400  0.758400  0.195800  1.0  -0.6638
  O  O62  1  0.635500  0.976500  0.104200  1.0  -0.6567
  O  O63  1  0.112400  0.258400  0.195800  1.0  -0.6638
  O  O64  1  0.135500  0.476500  0.104200  1.0  -0.6567
