# generated using pymatgen
data_Zn4H12C42O13
_symmetry_space_group_name_H-M   'P 1'
_cell_length_a   23.82120000
_cell_length_b   23.82120000
_cell_length_c   30.29380000
_cell_angle_alpha   90.00000000
_cell_angle_beta   90.00000000
_cell_angle_gamma   120.00000000
_symmetry_Int_Tables_number   1
_chemical_formula_structural   Zn4H12C42O13
_chemical_formula_sum   'Zn24 H72 C252 O78'
_cell_volume   14887.15315819
_cell_formula_units_Z   6
loop_
 _symmetry_equiv_pos_site_id
 _symmetry_equiv_pos_as_xyz
  1  'x, y, z'
loop_
 _atom_site_type_symbol
 _atom_site_label
 _atom_site_symmetry_multiplicity
 _atom_site_fract_x
 _atom_site_fract_y
 _atom_site_fract_z
 _atom_site_occupancy
 _atom_site_charge
  Zn  Zn1  1  0.000000  0.000000  0.077590  1.0  1.0878
  Zn  Zn2  1  0.666667  0.333333  0.410920  1.0  1.0879
  Zn  Zn3  1  0.333333  0.666667  0.744260  1.0  1.0879
  Zn  Zn4  1  0.044430  0.088870  0.161500  1.0  1.0834
  Zn  Zn5  1  0.711100  0.422200  0.494830  1.0  1.09
  Zn  Zn6  1  0.377770  0.755540  0.828170  1.0  1.0823
  Zn  Zn7  1  0.911130  0.955570  0.161500  1.0  1.086
  Zn  Zn8  1  0.577800  0.288900  0.494830  1.0  1.0918
  Zn  Zn9  1  0.244460  0.622230  0.828170  1.0  1.0849
  Zn  Zn10  1  0.044440  0.955570  0.161500  1.0  1.0939
  Zn  Zn11  1  0.711100  0.288900  0.494830  1.0  1.0841
  Zn  Zn12  1  0.377770  0.622230  0.828170  1.0  1.0844
  Zn  Zn13  1  0.000000  0.000000  0.922410  1.0  1.0879
  Zn  Zn14  1  0.666667  0.333333  0.255740  1.0  1.088
  Zn  Zn15  1  0.333333  0.666667  0.589080  1.0  1.088
  Zn  Zn16  1  0.088870  0.044430  0.838500  1.0  1.0928
  Zn  Zn17  1  0.755540  0.377770  0.171830  1.0  1.084
  Zn  Zn18  1  0.422200  0.711100  0.505170  1.0  1.092
  Zn  Zn19  1  0.955560  0.911130  0.838500  1.0  1.085
  Zn  Zn20  1  0.622230  0.244460  0.171830  1.0  1.0838
  Zn  Zn21  1  0.288900  0.577800  0.505170  1.0  1.0912
  Zn  Zn22  1  0.955560  0.044430  0.838500  1.0  1.0935
  Zn  Zn23  1  0.622230  0.377770  0.171830  1.0  1.0846
  Zn  Zn24  1  0.288900  0.711100  0.505170  1.0  1.0843
  H  H25  1  0.316200  0.466800  0.913500  1.0  0.1172
  H  H26  1  0.982870  0.800130  0.246830  1.0  0.1126
  H  H27  1  0.649530  0.133470  0.580170  1.0  0.1126
  H  H28  1  0.533200  0.849400  0.913500  1.0  0.1167
  H  H29  1  0.199870  0.182730  0.246830  1.0  0.1114
  H  H30  1  0.866530  0.516070  0.580170  1.0  0.1114
  H  H31  1  0.150600  0.683800  0.913500  1.0  0.1185
  H  H32  1  0.817270  0.017130  0.246830  1.0  0.1134
  H  H33  1  0.483930  0.350470  0.580170  1.0  0.1134
  H  H34  1  0.533200  0.683800  0.913500  1.0  0.1186
  H  H35  1  0.199870  0.017130  0.246830  1.0  0.1137
  H  H36  1  0.866530  0.350470  0.580170  1.0  0.1137
  H  H37  1  0.150600  0.466800  0.913500  1.0  0.1176
  H  H38  1  0.817270  0.800130  0.246830  1.0  0.1132
  H  H39  1  0.483930  0.133470  0.580170  1.0  0.1132
  H  H40  1  0.316200  0.849400  0.913500  1.0  0.1168
  H  H41  1  0.982870  0.182730  0.246830  1.0  0.1114
  H  H42  1  0.649530  0.516070  0.580170  1.0  0.1114
  H  H43  1  0.131100  0.262200  0.094500  1.0  0.1163
  H  H44  1  0.073800  0.147600  0.987500  1.0  0.0932
  H  H45  1  0.797770  0.595530  0.427830  1.0  0.1163
  H  H46  1  0.740470  0.480930  0.320830  1.0  0.0934
  H  H47  1  0.464430  0.928870  0.761170  1.0  0.1163
  H  H48  1  0.407130  0.814270  0.654170  1.0  0.0932
  H  H49  1  0.737800  0.868900  0.094500  1.0  0.1165
  H  H50  1  0.852400  0.926200  0.987500  1.0  0.0925
  H  H51  1  0.404470  0.202230  0.427830  1.0  0.1165
  H  H52  1  0.519070  0.259530  0.320830  1.0  0.0926
  H  H53  1  0.071130  0.535570  0.761170  1.0  0.1165
  H  H54  1  0.185730  0.592870  0.654170  1.0  0.0925
  H  H55  1  0.131100  0.868900  0.094500  1.0  0.1167
  H  H56  1  0.073800  0.926200  0.987500  1.0  0.093
  H  H57  1  0.797770  0.202230  0.427830  1.0  0.1167
  H  H58  1  0.740470  0.259530  0.320830  1.0  0.0932
  H  H59  1  0.464430  0.535570  0.761170  1.0  0.1167
  H  H60  1  0.407130  0.592870  0.654170  1.0  0.0931
  H  H61  1  0.466800  0.316200  0.086500  1.0  0.1169
  H  H62  1  0.133470  0.649530  0.419830  1.0  0.1117
  H  H63  1  0.800130  0.982870  0.753170  1.0  0.1117
  H  H64  1  0.849400  0.533200  0.086500  1.0  0.1168
  H  H65  1  0.516070  0.866530  0.419830  1.0  0.1124
  H  H66  1  0.182730  0.199870  0.753170  1.0  0.1124
  H  H67  1  0.683800  0.150600  0.086500  1.0  0.1163
  H  H68  1  0.350470  0.483930  0.419830  1.0  0.1114
  H  H69  1  0.017130  0.817270  0.753170  1.0  0.1114
  H  H70  1  0.683800  0.533200  0.086500  1.0  0.1175
  H  H71  1  0.350470  0.866530  0.419830  1.0  0.1131
  H  H72  1  0.017130  0.199870  0.753170  1.0  0.1131
  H  H73  1  0.466800  0.150600  0.086500  1.0  0.1166
  H  H74  1  0.133470  0.483930  0.419830  1.0  0.1116
  H  H75  1  0.800130  0.817270  0.753170  1.0  0.1116
  H  H76  1  0.849400  0.316200  0.086500  1.0  0.1177
  H  H77  1  0.516070  0.649530  0.419830  1.0  0.1126
  H  H78  1  0.182730  0.982870  0.753170  1.0  0.1127
  H  H79  1  0.262200  0.131100  0.905500  1.0  0.1162
  H  H80  1  0.147600  0.073800  0.012500  1.0  0.0935
  H  H81  1  0.928870  0.464430  0.238830  1.0  0.1162
  H  H82  1  0.814270  0.407130  0.345830  1.0  0.0935
  H  H83  1  0.595530  0.797770  0.572170  1.0  0.1162
  H  H84  1  0.480930  0.740470  0.679170  1.0  0.0935
  H  H85  1  0.868900  0.737800  0.905500  1.0  0.1151
  H  H86  1  0.926200  0.852400  0.012500  1.0  0.0925
  H  H87  1  0.535570  0.071130  0.238830  1.0  0.1151
  H  H88  1  0.592870  0.185730  0.345830  1.0  0.0925
  H  H89  1  0.202230  0.404470  0.572170  1.0  0.1151
  H  H90  1  0.259530  0.519070  0.679170  1.0  0.0927
  H  H91  1  0.868900  0.131100  0.905500  1.0  0.115
  H  H92  1  0.926200  0.073800  0.012500  1.0  0.0932
  H  H93  1  0.535570  0.464430  0.238830  1.0  0.115
  H  H94  1  0.592870  0.407130  0.345830  1.0  0.0932
  H  H95  1  0.202230  0.797770  0.572170  1.0  0.115
  H  H96  1  0.259530  0.740470  0.679170  1.0  0.0933
  C  C97  1  0.246600  0.392100  0.948300  1.0  -0.0044
  C  C98  1  0.272900  0.447100  0.921800  1.0  -0.0474
  C  C99  1  0.913270  0.725430  0.281630  1.0  -0.0111
  C  C100  1  0.939570  0.780430  0.255130  1.0  -0.0474
  C  C101  1  0.579930  0.058770  0.614970  1.0  -0.011
  C  C102  1  0.606230  0.113770  0.588470  1.0  -0.0474
  C  C103  1  0.607900  0.854500  0.948300  1.0  -0.003
  C  C104  1  0.552900  0.825800  0.921800  1.0  -0.046
  C  C105  1  0.274570  0.187830  0.281630  1.0  -0.0095
  C  C106  1  0.219570  0.159130  0.255130  1.0  -0.046
  C  C107  1  0.941230  0.521170  0.614970  1.0  -0.0096
  C  C108  1  0.886230  0.492470  0.588470  1.0  -0.046
  C  C109  1  0.145500  0.753400  0.948300  1.0  -0.0034
  C  C110  1  0.174200  0.727100  0.921800  1.0  -0.0429
  C  C111  1  0.812170  0.086730  0.281630  1.0  -0.009
  C  C112  1  0.840870  0.060430  0.255130  1.0  -0.0429
  C  C113  1  0.478830  0.420070  0.614970  1.0  -0.009
  C  C114  1  0.507530  0.393770  0.588470  1.0  -0.043
  C  C115  1  0.607900  0.753400  0.948300  1.0  -0.0048
  C  C116  1  0.552900  0.727100  0.921800  1.0  -0.0407
  C  C117  1  0.274570  0.086730  0.281630  1.0  -0.0112
  C  C118  1  0.219570  0.060430  0.255130  1.0  -0.0407
  C  C119  1  0.941230  0.420070  0.614970  1.0  -0.0111
  C  C120  1  0.886230  0.393770  0.588470  1.0  -0.0407
  C  C121  1  0.145500  0.392100  0.948300  1.0  -0.0019
  C  C122  1  0.174200  0.447100  0.921800  1.0  -0.0451
  C  C123  1  0.812170  0.725430  0.281630  1.0  -0.0077
  C  C124  1  0.840870  0.780430  0.255130  1.0  -0.0451
  C  C125  1  0.478830  0.058770  0.614970  1.0  -0.0077
  C  C126  1  0.507530  0.113770  0.588470  1.0  -0.0451
  C  C127  1  0.246600  0.854500  0.948300  1.0  -0.0031
  C  C128  1  0.272900  0.825800  0.921800  1.0  -0.0422
  C  C129  1  0.913270  0.187830  0.281630  1.0  -0.0097
  C  C130  1  0.939570  0.159130  0.255130  1.0  -0.0422
  C  C131  1  0.579930  0.521170  0.614970  1.0  -0.0098
  C  C132  1  0.606230  0.492470  0.588470  1.0  -0.0423
  C  C133  1  0.069400  0.138800  0.071700  1.0  0.7204
  C  C134  1  0.097950  0.195900  0.045400  1.0  -0.0894
  C  C135  1  0.128750  0.257500  0.064000  1.0  -0.0919
  C  C136  1  0.156350  0.312700  0.036900  1.0  -0.0247
  C  C137  1  0.152500  0.305000  0.989900  1.0  -0.0234
  C  C138  1  0.121450  0.242900  0.971000  1.0  -0.028
  C  C139  1  0.094500  0.189000  0.999500  1.0  -0.0687
  C  C140  1  0.181450  0.362900  0.961200  1.0  -0.0113
  C  C141  1  0.236150  0.472300  0.907900  1.0  -0.1171
  C  C142  1  0.266400  0.532800  0.878500  1.0  0.7161
  C  C143  1  0.736070  0.472130  0.405030  1.0  0.7204
  C  C144  1  0.764620  0.529230  0.378730  1.0  -0.0894
  C  C145  1  0.795420  0.590830  0.397330  1.0  -0.0919
  C  C146  1  0.823020  0.646030  0.370230  1.0  -0.0247
  C  C147  1  0.819170  0.638330  0.323230  1.0  -0.0234
  C  C148  1  0.788120  0.576230  0.304330  1.0  -0.028
  C  C149  1  0.761170  0.522330  0.332830  1.0  -0.0687
  C  C150  1  0.848120  0.696230  0.294530  1.0  -0.0113
  C  C151  1  0.902820  0.805630  0.241230  1.0  -0.1171
  C  C152  1  0.933070  0.866130  0.211830  1.0  0.7163
  C  C153  1  0.402730  0.805470  0.738370  1.0  0.7204
  C  C154  1  0.431280  0.862570  0.712070  1.0  -0.0893
  C  C155  1  0.462080  0.924170  0.730670  1.0  -0.0919
  C  C156  1  0.489680  0.979370  0.703570  1.0  -0.021
  C  C157  1  0.485830  0.971670  0.656570  1.0  -0.0234
  C  C158  1  0.454780  0.909570  0.637670  1.0  -0.028
  C  C159  1  0.427830  0.855670  0.666170  1.0  -0.0687
  C  C160  1  0.514780  0.029570  0.627870  1.0  -0.0113
  C  C161  1  0.569480  0.138970  0.574570  1.0  -0.1171
  C  C162  1  0.599730  0.199470  0.545170  1.0  0.7162
  C  C163  1  0.861200  0.930600  0.071700  1.0  0.7212
  C  C164  1  0.804100  0.902050  0.045400  1.0  -0.0897
  C  C165  1  0.742500  0.871250  0.064000  1.0  -0.0886
  C  C166  1  0.687300  0.843650  0.036900  1.0  -0.0233
  C  C167  1  0.695000  0.847500  0.989900  1.0  -0.0223
  C  C168  1  0.757100  0.878550  0.971000  1.0  -0.0304
  C  C169  1  0.811000  0.905500  0.999500  1.0  -0.0683
  C  C170  1  0.637100  0.818550  0.961200  1.0  -0.0108
  C  C171  1  0.527700  0.763850  0.907900  1.0  -0.1174
  C  C172  1  0.467200  0.733600  0.878500  1.0  0.7156
  C  C173  1  0.527870  0.263930  0.405030  1.0  0.7212
  C  C174  1  0.470770  0.235380  0.378730  1.0  -0.0897
  C  C175  1  0.409170  0.204580  0.397330  1.0  -0.0886
  C  C176  1  0.353970  0.176980  0.370230  1.0  -0.0233
  C  C177  1  0.361670  0.180830  0.323230  1.0  -0.0223
  C  C178  1  0.423770  0.211880  0.304330  1.0  -0.0304
  C  C179  1  0.477670  0.238830  0.332830  1.0  -0.0683
  C  C180  1  0.303770  0.151880  0.294530  1.0  -0.0108
  C  C181  1  0.194370  0.097180  0.241230  1.0  -0.1174
  C  C182  1  0.133870  0.066930  0.211830  1.0  0.7157
  C  C183  1  0.194530  0.597270  0.738370  1.0  0.7212
  C  C184  1  0.137430  0.568720  0.712070  1.0  -0.0897
  C  C185  1  0.075830  0.537920  0.730670  1.0  -0.0886
  C  C186  1  0.020630  0.510320  0.703570  1.0  -0.0193
  C  C187  1  0.028330  0.514170  0.656570  1.0  -0.0223
  C  C188  1  0.090430  0.545220  0.637670  1.0  -0.0304
  C  C189  1  0.144330  0.572170  0.666170  1.0  -0.0683
  C  C190  1  0.970430  0.485220  0.627870  1.0  -0.0108
  C  C191  1  0.861030  0.430520  0.574570  1.0  -0.1174
  C  C192  1  0.800530  0.400270  0.545170  1.0  0.7156
  C  C193  1  0.069400  0.930600  0.071700  1.0  0.7218
  C  C194  1  0.097950  0.902050  0.045400  1.0  -0.0903
  C  C195  1  0.128750  0.871250  0.064000  1.0  -0.0895
  C  C196  1  0.156350  0.843650  0.036900  1.0  -0.0313
  C  C197  1  0.152500  0.847500  0.989900  1.0  -0.0222
  C  C198  1  0.121450  0.878550  0.971000  1.0  -0.0314
  C  C199  1  0.094500  0.905500  0.999500  1.0  -0.0703
  C  C200  1  0.181450  0.818550  0.961200  1.0  -0.011
  C  C201  1  0.236150  0.763850  0.907900  1.0  -0.1174
  C  C202  1  0.266400  0.733600  0.878500  1.0  0.7143
  C  C203  1  0.736070  0.263930  0.405030  1.0  0.7218
  C  C204  1  0.764620  0.235380  0.378730  1.0  -0.0903
  C  C205  1  0.795420  0.204580  0.397330  1.0  -0.0895
  C  C206  1  0.823020  0.176980  0.370230  1.0  -0.0313
  C  C207  1  0.819170  0.180830  0.323230  1.0  -0.0222
  C  C208  1  0.788120  0.211880  0.304330  1.0  -0.0314
  C  C209  1  0.761170  0.238830  0.332830  1.0  -0.0703
  C  C210  1  0.848120  0.151880  0.294530  1.0  -0.011
  C  C211  1  0.902820  0.097180  0.241230  1.0  -0.1174
  C  C212  1  0.933070  0.066930  0.211830  1.0  0.7143
  C  C213  1  0.402730  0.597270  0.738370  1.0  0.7218
  C  C214  1  0.431280  0.568720  0.712070  1.0  -0.0903
  C  C215  1  0.462080  0.537920  0.730670  1.0  -0.0895
  C  C216  1  0.489680  0.510320  0.703570  1.0  -0.0313
  C  C217  1  0.485830  0.514170  0.656570  1.0  -0.0222
  C  C218  1  0.454780  0.545220  0.637670  1.0  -0.0313
  C  C219  1  0.427830  0.572170  0.666170  1.0  -0.0703
  C  C220  1  0.514780  0.485220  0.627870  1.0  -0.011
  C  C221  1  0.569480  0.430520  0.574570  1.0  -0.1174
  C  C222  1  0.599730  0.400270  0.545170  1.0  0.7144
  C  C223  1  0.392100  0.246600  0.051700  1.0  -0.0024
  C  C224  1  0.447100  0.272900  0.078200  1.0  -0.0432
  C  C225  1  0.058770  0.579930  0.385030  1.0  -0.0079
  C  C226  1  0.113770  0.606230  0.411530  1.0  -0.0432
  C  C227  1  0.725430  0.913270  0.718370  1.0  -0.008
  C  C228  1  0.780430  0.939570  0.744870  1.0  -0.0432
  C  C229  1  0.854500  0.607900  0.051700  1.0  -0.0066
  C  C230  1  0.825800  0.552900  0.078200  1.0  -0.0476
  C  C231  1  0.521170  0.941230  0.385030  1.0  -0.013
  C  C232  1  0.492470  0.886230  0.411530  1.0  -0.0476
  C  C233  1  0.187830  0.274570  0.718370  1.0  -0.0129
  C  C234  1  0.159130  0.219570  0.744870  1.0  -0.0476
  C  C235  1  0.753400  0.145500  0.051700  1.0  -0.0037
  C  C236  1  0.727100  0.174200  0.078200  1.0  -0.0457
  C  C237  1  0.420070  0.478830  0.385030  1.0  -0.01
  C  C238  1  0.393770  0.507530  0.411530  1.0  -0.0457
  C  C239  1  0.086730  0.812170  0.718370  1.0  -0.01
  C  C240  1  0.060430  0.840870  0.744870  1.0  -0.0457
  C  C241  1  0.753400  0.607900  0.051700  1.0  -0.0021
  C  C242  1  0.727100  0.552900  0.078200  1.0  -0.0456
  C  C243  1  0.420070  0.941230  0.385030  1.0  -0.0077
  C  C244  1  0.393770  0.886230  0.411530  1.0  -0.0456
  C  C245  1  0.086730  0.274570  0.718370  1.0  -0.0078
  C  C246  1  0.060430  0.219570  0.744870  1.0  -0.0456
  C  C247  1  0.392100  0.145500  0.051700  1.0  -0.005
  C  C248  1  0.447100  0.174200  0.078200  1.0  -0.0429
  C  C249  1  0.058770  0.478830  0.385030  1.0  -0.0111
  C  C250  1  0.113770  0.507530  0.411530  1.0  -0.0429
  C  C251  1  0.725430  0.812170  0.718370  1.0  -0.0111
  C  C252  1  0.780430  0.840870  0.744870  1.0  -0.0429
  C  C253  1  0.854500  0.246600  0.051700  1.0  -0.0055
  C  C254  1  0.825800  0.272900  0.078200  1.0  -0.0414
  C  C255  1  0.521170  0.579930  0.385030  1.0  -0.0119
  C  C256  1  0.492470  0.606230  0.411530  1.0  -0.0415
  C  C257  1  0.187830  0.913270  0.718370  1.0  -0.0119
  C  C258  1  0.159130  0.939570  0.744870  1.0  -0.0414
  C  C259  1  0.138800  0.069400  0.928300  1.0  0.7221
  C  C260  1  0.195900  0.097950  0.954600  1.0  -0.0908
  C  C261  1  0.257500  0.128750  0.936000  1.0  -0.0897
  C  C262  1  0.312700  0.156350  0.963100  1.0  -0.0269
  C  C263  1  0.305000  0.152500  0.010100  1.0  -0.0221
  C  C264  1  0.242900  0.121450  0.029000  1.0  -0.0293
  C  C265  1  0.189000  0.094500  0.000500  1.0  -0.0721
  C  C266  1  0.362900  0.181450  0.038800  1.0  -0.0106
  C  C267  1  0.472300  0.236150  0.092100  1.0  -0.1165
  C  C268  1  0.532800  0.266400  0.121500  1.0  0.7142
  C  C269  1  0.805470  0.402730  0.261630  1.0  0.7221
  C  C270  1  0.862570  0.431280  0.287930  1.0  -0.0908
  C  C271  1  0.924170  0.462080  0.269330  1.0  -0.0897
  C  C272  1  0.979370  0.489680  0.296430  1.0  -0.0236
  C  C273  1  0.971670  0.485830  0.343430  1.0  -0.0221
  C  C274  1  0.909570  0.454780  0.362330  1.0  -0.0293
  C  C275  1  0.855670  0.427830  0.333830  1.0  -0.0721
  C  C276  1  0.029570  0.514780  0.372130  1.0  -0.0106
  C  C277  1  0.138970  0.569480  0.425430  1.0  -0.1165
  C  C278  1  0.199470  0.599730  0.454830  1.0  0.7143
  C  C279  1  0.472130  0.736070  0.594970  1.0  0.7221
  C  C280  1  0.529230  0.764620  0.621270  1.0  -0.0908
  C  C281  1  0.590830  0.795420  0.602670  1.0  -0.0897
  C  C282  1  0.646030  0.823020  0.629770  1.0  -0.0269
  C  C283  1  0.638330  0.819170  0.676770  1.0  -0.0221
  C  C284  1  0.576230  0.788120  0.695670  1.0  -0.0293
  C  C285  1  0.522330  0.761170  0.667170  1.0  -0.0721
  C  C286  1  0.696230  0.848120  0.705470  1.0  -0.0106
  C  C287  1  0.805630  0.902820  0.758770  1.0  -0.1165
  C  C288  1  0.866130  0.933070  0.788170  1.0  0.7142
  C  C289  1  0.930600  0.861200  0.928300  1.0  0.7211
  C  C290  1  0.902050  0.804100  0.954600  1.0  -0.0901
  C  C291  1  0.871250  0.742500  0.936000  1.0  -0.0912
  C  C292  1  0.843650  0.687300  0.963100  1.0  -0.0244
  C  C293  1  0.847500  0.695000  0.010100  1.0  -0.0237
  C  C294  1  0.878550  0.757100  0.029000  1.0  -0.0275
  C  C295  1  0.905500  0.811000  0.000500  1.0  -0.0691
  C  C296  1  0.818550  0.637100  0.038800  1.0  -0.0108
  C  C297  1  0.763850  0.527700  0.092100  1.0  -0.1166
  C  C298  1  0.733600  0.467200  0.121500  1.0  0.7154
  C  C299  1  0.597270  0.194530  0.261630  1.0  0.7211
  C  C300  1  0.568720  0.137430  0.287930  1.0  -0.0901
  C  C301  1  0.537920  0.075830  0.269330  1.0  -0.0912
  C  C302  1  0.510320  0.020630  0.296430  1.0  -0.0205
  C  C303  1  0.514170  0.028330  0.343430  1.0  -0.0237
  C  C304  1  0.545220  0.090430  0.362330  1.0  -0.0275
  C  C305  1  0.572170  0.144330  0.333830  1.0  -0.0691
  C  C306  1  0.485220  0.970430  0.372130  1.0  -0.0108
  C  C307  1  0.430520  0.861030  0.425430  1.0  -0.1166
  C  C308  1  0.400270  0.800530  0.454830  1.0  0.7155
  C  C309  1  0.263930  0.527870  0.594970  1.0  0.7211
  C  C310  1  0.235380  0.470770  0.621270  1.0  -0.0901
  C  C311  1  0.204580  0.409170  0.602670  1.0  -0.0912
  C  C312  1  0.176980  0.353970  0.629770  1.0  -0.0244
  C  C313  1  0.180830  0.361670  0.676770  1.0  -0.0237
  C  C314  1  0.211880  0.423770  0.695670  1.0  -0.0275
  C  C315  1  0.238830  0.477670  0.667170  1.0  -0.0691
  C  C316  1  0.151880  0.303770  0.705470  1.0  -0.0108
  C  C317  1  0.097180  0.194370  0.758770  1.0  -0.1166
  C  C318  1  0.066930  0.133870  0.788170  1.0  0.7156
  C  C319  1  0.930600  0.069400  0.928300  1.0  0.7223
  C  C320  1  0.902050  0.097950  0.954600  1.0  -0.0898
  C  C321  1  0.871250  0.128750  0.936000  1.0  -0.0888
  C  C322  1  0.843650  0.156350  0.963100  1.0  -0.0281
  C  C323  1  0.847500  0.152500  0.010100  1.0  -0.0221
  C  C324  1  0.878550  0.121450  0.029000  1.0  -0.0297
  C  C325  1  0.905500  0.094500  0.000500  1.0  -0.0696
  C  C326  1  0.818550  0.181450  0.038800  1.0  -0.0104
  C  C327  1  0.763850  0.236150  0.092100  1.0  -0.1163
  C  C328  1  0.733600  0.266400  0.121500  1.0  0.7151
  C  C329  1  0.597270  0.402730  0.261630  1.0  0.7223
  C  C330  1  0.568720  0.431280  0.287930  1.0  -0.0898
  C  C331  1  0.537920  0.462080  0.269330  1.0  -0.0888
  C  C332  1  0.510320  0.489680  0.296430  1.0  -0.0281
  C  C333  1  0.514170  0.485830  0.343430  1.0  -0.0221
  C  C334  1  0.545220  0.454780  0.362330  1.0  -0.0297
  C  C335  1  0.572170  0.427830  0.333830  1.0  -0.0696
  C  C336  1  0.485220  0.514780  0.372130  1.0  -0.0104
  C  C337  1  0.430520  0.569480  0.425430  1.0  -0.1163
  C  C338  1  0.400270  0.599730  0.454830  1.0  0.7152
  C  C339  1  0.263930  0.736070  0.594970  1.0  0.7223
  C  C340  1  0.235380  0.764620  0.621270  1.0  -0.0898
  C  C341  1  0.204580  0.795420  0.602670  1.0  -0.0888
  C  C342  1  0.176980  0.823020  0.629770  1.0  -0.0281
  C  C343  1  0.180830  0.819170  0.676770  1.0  -0.0221
  C  C344  1  0.211880  0.788120  0.695670  1.0  -0.0297
  C  C345  1  0.238830  0.761170  0.667170  1.0  -0.0696
  C  C346  1  0.151880  0.848120  0.705470  1.0  -0.0104
  C  C347  1  0.097180  0.902820  0.758770  1.0  -0.1163
  C  C348  1  0.066930  0.933070  0.788170  1.0  0.7151
  O  O349  1  0.322000  0.550410  0.866940  1.0  -0.57
  O  O350  1  0.988670  0.883740  0.200270  1.0  -0.57
  O  O351  1  0.655330  0.217080  0.533610  1.0  -0.5746
  O  O352  1  0.449590  0.771590  0.866940  1.0  -0.5704
  O  O353  1  0.116260  0.104920  0.200270  1.0  -0.5754
  O  O354  1  0.782920  0.438260  0.533610  1.0  -0.5703
  O  O355  1  0.228410  0.678000  0.866940  1.0  -0.5724
  O  O356  1  0.895080  0.011330  0.200270  1.0  -0.5724
  O  O357  1  0.561740  0.344670  0.533610  1.0  -0.5722
  O  O358  1  0.449590  0.678000  0.866940  1.0  -0.5715
  O  O359  1  0.116260  0.011330  0.200270  1.0  -0.5715
  O  O360  1  0.782920  0.344670  0.533610  1.0  -0.5758
  O  O361  1  0.228410  0.550410  0.866940  1.0  -0.5701
  O  O362  1  0.895080  0.883740  0.200270  1.0  -0.5743
  O  O363  1  0.561740  0.217080  0.533610  1.0  -0.57
  O  O364  1  0.322000  0.771590  0.866940  1.0  -0.5709
  O  O365  1  0.988670  0.104920  0.200270  1.0  -0.5709
  O  O366  1  0.655330  0.438260  0.533610  1.0  -0.5707
  O  O367  1  0.000000  0.000000  0.141640  1.0  -1.2261
  O  O368  1  0.666667  0.333333  0.474970  1.0  -1.2349
  O  O369  1  0.333333  0.666667  0.808310  1.0  -1.2317
  O  O370  1  0.074400  0.148800  0.113200  1.0  -0.6227
  O  O371  1  0.043100  0.086200  0.054250  1.0  -0.5848
  O  O372  1  0.741070  0.482130  0.446530  1.0  -0.6227
  O  O373  1  0.709770  0.419530  0.387580  1.0  -0.5843
  O  O374  1  0.407730  0.815470  0.779870  1.0  -0.6227
  O  O375  1  0.376430  0.752870  0.720920  1.0  -0.5848
  O  O376  1  0.851200  0.925600  0.113200  1.0  -0.6251
  O  O377  1  0.913800  0.956900  0.054250  1.0  -0.5857
  O  O378  1  0.517870  0.258930  0.446530  1.0  -0.6251
  O  O379  1  0.580470  0.290230  0.387580  1.0  -0.5852
  O  O380  1  0.184530  0.592270  0.779870  1.0  -0.6251
  O  O381  1  0.247130  0.623570  0.720920  1.0  -0.5857
  O  O382  1  0.074400  0.925600  0.113200  1.0  -0.625
  O  O383  1  0.043100  0.956900  0.054250  1.0  -0.5856
  O  O384  1  0.741070  0.258930  0.446530  1.0  -0.625
  O  O385  1  0.709770  0.290230  0.387580  1.0  -0.5856
  O  O386  1  0.407730  0.592270  0.779870  1.0  -0.625
  O  O387  1  0.376430  0.623570  0.720920  1.0  -0.5851
  O  O388  1  0.550410  0.322000  0.133060  1.0  -0.572
  O  O389  1  0.217080  0.655330  0.466390  1.0  -0.5764
  O  O390  1  0.883740  0.988670  0.799730  1.0  -0.572
  O  O391  1  0.771590  0.449590  0.133060  1.0  -0.5702
  O  O392  1  0.438260  0.782920  0.466390  1.0  -0.5702
  O  O393  1  0.104920  0.116260  0.799730  1.0  -0.5749
  O  O394  1  0.678000  0.228410  0.133060  1.0  -0.5713
  O  O395  1  0.344670  0.561740  0.466390  1.0  -0.5712
  O  O396  1  0.011330  0.895080  0.799730  1.0  -0.5763
  O  O397  1  0.678000  0.449590  0.133060  1.0  -0.5707
  O  O398  1  0.344670  0.782920  0.466390  1.0  -0.5751
  O  O399  1  0.011330  0.116260  0.799730  1.0  -0.5707
  O  O400  1  0.550410  0.228410  0.133060  1.0  -0.5711
  O  O401  1  0.217080  0.561740  0.466390  1.0  -0.571
  O  O402  1  0.883740  0.895080  0.799730  1.0  -0.5762
  O  O403  1  0.771590  0.322000  0.133060  1.0  -0.5711
  O  O404  1  0.438260  0.655330  0.466390  1.0  -0.5709
  O  O405  1  0.104920  0.988670  0.799730  1.0  -0.571
  O  O406  1  0.000000  0.000000  0.858360  1.0  -1.2285
  O  O407  1  0.666667  0.333333  0.191690  1.0  -1.2316
  O  O408  1  0.333333  0.666667  0.525030  1.0  -1.2348
  O  O409  1  0.148800  0.074400  0.886800  1.0  -0.6243
  O  O410  1  0.086200  0.043100  0.945750  1.0  -0.5857
  O  O411  1  0.815470  0.407730  0.220130  1.0  -0.6243
  O  O412  1  0.752870  0.376430  0.279080  1.0  -0.5857
  O  O413  1  0.482130  0.741070  0.553470  1.0  -0.6243
  O  O414  1  0.419530  0.709770  0.612420  1.0  -0.5851
  O  O415  1  0.925600  0.851200  0.886800  1.0  -0.6239
  O  O416  1  0.956900  0.913800  0.945750  1.0  -0.5851
  O  O417  1  0.592270  0.184530  0.220130  1.0  -0.6239
  O  O418  1  0.623570  0.247130  0.279080  1.0  -0.5851
  O  O419  1  0.258930  0.517870  0.553470  1.0  -0.6239
  O  O420  1  0.290230  0.580470  0.612420  1.0  -0.5846
  O  O421  1  0.925600  0.074400  0.886800  1.0  -0.625
  O  O422  1  0.956900  0.043100  0.945750  1.0  -0.5856
  O  O423  1  0.592270  0.407730  0.220130  1.0  -0.625
  O  O424  1  0.623570  0.376430  0.279080  1.0  -0.585
  O  O425  1  0.258930  0.741070  0.553470  1.0  -0.625
  O  O426  1  0.290230  0.709770  0.612420  1.0  -0.5856
