# generated using pymatgen
data_YbH9(C3O2)3
_symmetry_space_group_name_H-M   'P 1'
_cell_length_a   8.57730000
_cell_length_b   12.13970000
_cell_length_c   16.72810000
_cell_angle_alpha   90.00000000
_cell_angle_beta   90.00000000
_cell_angle_gamma   93.03600000
_symmetry_Int_Tables_number   1
_chemical_formula_structural   YbH9(C3O2)3
_chemical_formula_sum   'Yb4 H36 C36 O24'
_cell_volume   1739.38287627
_cell_formula_units_Z   4
loop_
 _symmetry_equiv_pos_site_id
 _symmetry_equiv_pos_as_xyz
  1  'x, y, z'
loop_
 _atom_site_type_symbol
 _atom_site_label
 _atom_site_symmetry_multiplicity
 _atom_site_fract_x
 _atom_site_fract_y
 _atom_site_fract_z
 _atom_site_occupancy
 _atom_site_charge
  Yb  Yb1  1  0.481600  0.068830  0.901970  1.0  1.4871
  Yb  Yb2  1  0.018400  0.431170  0.401970  1.0  1.4867
  Yb  Yb3  1  0.518400  0.931170  0.098030  1.0  1.487
  Yb  Yb4  1  0.981600  0.568830  0.598030  1.0  1.4873
  H  H5  1  0.849300  0.811100  0.793200  1.0  0.0952
  H  H6  1  0.735800  0.711900  0.818700  1.0  0.0952
  H  H7  1  0.771000  0.755000  0.953000  1.0  0.0982
  H  H8  1  0.938100  0.904800  0.994300  1.0  0.0851
  H  H9  1  0.979700  0.934600  0.905300  1.0  0.0939
  H  H10  1  0.076000  0.740000  0.986000  1.0  0.103
  H  H11  1  0.199100  0.693000  0.866900  1.0  0.093
  H  H12  1  0.144000  0.799700  0.824800  1.0  0.0982
  H  H13  1  0.942000  0.619000  0.873000  1.0  0.1008
  H  H14  1  0.650700  0.688900  0.293200  1.0  0.0946
  H  H15  1  0.764200  0.788100  0.318700  1.0  0.0945
  H  H16  1  0.729000  0.745000  0.453000  1.0  0.097
  H  H17  1  0.561900  0.595200  0.494300  1.0  0.0851
  H  H18  1  0.520300  0.565400  0.405300  1.0  0.0944
  H  H19  1  0.424000  0.760000  0.486000  1.0  0.1033
  H  H20  1  0.300900  0.807000  0.366900  1.0  0.0942
  H  H21  1  0.356000  0.700300  0.324800  1.0  0.0987
  H  H22  1  0.558000  0.881000  0.373000  1.0  0.1008
  H  H23  1  0.150700  0.188900  0.206800  1.0  0.0956
  H  H24  1  0.264200  0.288100  0.181300  1.0  0.0935
  H  H25  1  0.229000  0.245000  0.047000  1.0  0.0977
  H  H26  1  0.061900  0.095200  0.005700  1.0  0.0859
  H  H27  1  0.020300  0.065400  0.094700  1.0  0.0942
  H  H28  1  0.924000  0.260000  0.014000  1.0  0.1034
  H  H29  1  0.800900  0.307000  0.133100  1.0  0.0942
  H  H30  1  0.856000  0.200300  0.175200  1.0  0.0975
  H  H31  1  0.058000  0.381000  0.127000  1.0  0.101
  H  H32  1  0.349300  0.311100  0.706800  1.0  0.0955
  H  H33  1  0.235800  0.211900  0.681300  1.0  0.0946
  H  H34  1  0.271000  0.255000  0.547000  1.0  0.097
  H  H35  1  0.438100  0.404800  0.505700  1.0  0.0858
  H  H36  1  0.479700  0.434600  0.594700  1.0  0.0927
  H  H37  1  0.576000  0.240000  0.514000  1.0  0.1026
  H  H38  1  0.699100  0.193000  0.633100  1.0  0.0934
  H  H39  1  0.644000  0.299700  0.675200  1.0  0.0938
  H  H40  1  0.442000  0.119000  0.627000  1.0  0.0994
  C  C41  1  0.829800  0.755000  0.833700  1.0  -0.1278
  C  C42  1  0.803200  0.810600  0.913400  1.0  -0.144
  C  C43  1  0.954900  0.874000  0.941700  1.0  -0.1266
  C  C44  1  0.095000  0.797200  0.945100  1.0  -0.1439
  C  C45  1  0.114900  0.743200  0.863800  1.0  -0.1202
  C  C46  1  0.966800  0.679600  0.835800  1.0  -0.1269
  C  C47  1  0.679500  0.894900  0.907700  1.0  0.6922
  C  C48  1  0.240300  0.868600  0.966700  1.0  0.7088
  C  C49  1  0.982400  0.632300  0.752100  1.0  0.6481
  C  C50  1  0.670200  0.745000  0.333700  1.0  -0.1283
  C  C51  1  0.696800  0.689400  0.413400  1.0  -0.143
  C  C52  1  0.545100  0.626000  0.441700  1.0  -0.1254
  C  C53  1  0.405000  0.702800  0.445100  1.0  -0.1441
  C  C54  1  0.385100  0.756800  0.363800  1.0  -0.1194
  C  C55  1  0.533200  0.820400  0.335800  1.0  -0.1275
  C  C56  1  0.820500  0.605100  0.407700  1.0  0.6943
  C  C57  1  0.259700  0.631400  0.466700  1.0  0.7077
  C  C58  1  0.517600  0.867700  0.252100  1.0  0.6453
  C  C59  1  0.170200  0.245000  0.166300  1.0  -0.1279
  C  C60  1  0.196800  0.189400  0.086600  1.0  -0.1436
  C  C61  1  0.045100  0.126000  0.058300  1.0  -0.1258
  C  C62  1  0.905000  0.202800  0.054900  1.0  -0.1443
  C  C63  1  0.885100  0.256800  0.136200  1.0  -0.1195
  C  C64  1  0.033200  0.320400  0.164200  1.0  -0.1278
  C  C65  1  0.320500  0.105100  0.092300  1.0  0.6945
  C  C66  1  0.759700  0.131400  0.033300  1.0  0.7081
  C  C67  1  0.017600  0.367700  0.247900  1.0  0.6409
  C  C68  1  0.329800  0.255000  0.666300  1.0  -0.1275
  C  C69  1  0.303200  0.310600  0.586600  1.0  -0.1449
  C  C70  1  0.454900  0.374000  0.558300  1.0  -0.1273
  C  C71  1  0.595000  0.297200  0.554900  1.0  -0.1444
  C  C72  1  0.614900  0.243200  0.636200  1.0  -0.1198
  C  C73  1  0.466800  0.179600  0.664200  1.0  -0.127
  C  C74  1  0.179500  0.394900  0.592300  1.0  0.6928
  C  C75  1  0.740300  0.368600  0.533300  1.0  0.7088
  C  C76  1  0.482400  0.132300  0.747900  1.0  0.643
  O  O77  1  0.661800  0.949000  0.846300  1.0  -0.5733
  O  O78  1  0.594600  0.913000  0.969000  1.0  -0.7406
  O  O79  1  0.286300  0.939700  0.916000  1.0  -0.6038
  O  O80  1  0.303000  0.853900  0.034300  1.0  -0.5802
  O  O81  1  0.896800  0.550200  0.732100  1.0  -0.5373
  O  O82  1  0.073200  0.680500  0.702100  1.0  -0.5675
  O  O83  1  0.838200  0.551000  0.346300  1.0  -0.5723
  O  O84  1  0.905400  0.587000  0.469000  1.0  -0.7407
  O  O85  1  0.213700  0.560300  0.416000  1.0  -0.6047
  O  O86  1  0.197000  0.646100  0.534300  1.0  -0.5811
  O  O87  1  0.603200  0.949800  0.232100  1.0  -0.54
  O  O88  1  0.426800  0.819500  0.202100  1.0  -0.5654
  O  O89  1  0.338200  0.051000  0.153700  1.0  -0.5746
  O  O90  1  0.405400  0.087000  0.031000  1.0  -0.7408
  O  O91  1  0.713700  0.060300  0.084000  1.0  -0.6047
  O  O92  1  0.697000  0.146100  0.965700  1.0  -0.5798
  O  O93  1  0.103200  0.449800  0.267900  1.0  -0.5392
  O  O94  1  0.926800  0.319500  0.297900  1.0  -0.5664
  O  O95  1  0.161800  0.449000  0.653700  1.0  -0.5767
  O  O96  1  0.094600  0.413000  0.531000  1.0  -0.7423
  O  O97  1  0.786300  0.439700  0.584000  1.0  -0.6041
  O  O98  1  0.803000  0.353900  0.465700  1.0  -0.58
  O  O99  1  0.396800  0.050200  0.767900  1.0  -0.5365
  O  O100  1  0.573200  0.180500  0.797900  1.0  -0.5668
