# generated using pymatgen
data_TbH14C24(NO3)2
_symmetry_space_group_name_H-M   'P 1'
_cell_length_a   12.60800000
_cell_length_b   14.21450000
_cell_length_c   14.89800000
_cell_angle_alpha   69.32100000
_cell_angle_beta   67.50300000
_cell_angle_gamma   78.32900000
_symmetry_Int_Tables_number   1
_chemical_formula_structural   TbH14C24(NO3)2
_chemical_formula_sum   'Tb4 H56 C96 N8 O24'
_cell_volume   2300.87560147
_cell_formula_units_Z   4
loop_
 _symmetry_equiv_pos_site_id
 _symmetry_equiv_pos_as_xyz
  1  'x, y, z'
loop_
 _atom_site_type_symbol
 _atom_site_label
 _atom_site_symmetry_multiplicity
 _atom_site_fract_x
 _atom_site_fract_y
 _atom_site_fract_z
 _atom_site_occupancy
 _atom_site_charge
  Tb  Tb1  1  0.435540  0.481390  0.404050  1.0  2.2733
  Tb  Tb2  1  0.948810  0.946110  0.906630  1.0  2.2692
  Tb  Tb3  1  0.564460  0.518610  0.595950  1.0  2.2744
  Tb  Tb4  1  0.051190  0.053890  0.093370  1.0  2.2754
  H  H5  1  0.690500  0.789600  0.197500  1.0  0.0815
  H  H6  1  0.195600  0.708300  0.216500  1.0  0.1025
  H  H7  1  0.456800  0.790800  0.471200  1.0  0.1109
  H  H8  1  0.676100  0.008700  0.314500  1.0  0.1021
  H  H9  1  0.202000  0.710700  0.714700  1.0  0.0958
  H  H10  1  0.168600  0.720300  0.952300  1.0  0.1041
  H  H11  1  0.377500  0.503300  0.075600  1.0  0.1046
  H  H12  1  0.297100  0.578200  0.947000  1.0  0.0965
  H  H13  1  0.027800  0.935300  0.560900  1.0  0.0969
  H  H14  1  0.511900  0.946600  0.448000  1.0  0.0884
  H  H15  1  0.592700  0.335900  0.252500  1.0  0.0737
  H  H16  1  0.763300  0.116500  0.787800  1.0  0.0719
  H  H17  1  0.104800  0.872100  0.422800  1.0  0.1071
  H  H18  1  0.826100  0.558900  0.123900  1.0  0.1125
  H  H19  1  0.033200  0.331800  0.714500  1.0  0.1111
  H  H20  1  0.124600  0.076800  0.563600  1.0  0.0911
  H  H21  1  0.595300  0.205400  0.193700  1.0  0.0989
  H  H22  1  0.181000  0.436400  0.612500  1.0  0.0766
  H  H23  1  0.941500  0.693200  0.034600  1.0  0.0721
  H  H24  1  0.029900  0.188500  0.679300  1.0  0.1122
  H  H25  1  0.223600  0.725200  0.434600  1.0  0.0916
  H  H26  1  0.643800  0.577400  0.123200  1.0  0.1061
  H  H27  1  0.581700  0.144100  0.778500  1.0  0.0817
  H  H28  1  0.263300  0.047200  0.427400  1.0  0.1002
  H  H29  1  0.485800  0.687700  0.058200  1.0  0.0875
  H  H30  1  0.423100  0.837200  0.970700  1.0  0.0926
  H  H31  1  0.450300  0.096500  0.280500  1.0  0.1087
  H  H32  1  0.454800  0.022700  0.864500  1.0  0.1233
  H  H33  1  0.309500  0.210400  0.802500  1.0  0.0827
  H  H34  1  0.804400  0.291700  0.783500  1.0  0.1028
  H  H35  1  0.543200  0.209200  0.528800  1.0  0.1105
  H  H36  1  0.323900  0.991300  0.685500  1.0  0.1014
  H  H37  1  0.798000  0.289300  0.285300  1.0  0.0962
  H  H38  1  0.831400  0.279700  0.047700  1.0  0.1043
  H  H39  1  0.622500  0.496700  0.924400  1.0  0.1042
  H  H40  1  0.702900  0.421800  0.053000  1.0  0.0961
  H  H41  1  0.972200  0.064700  0.439100  1.0  0.0982
  H  H42  1  0.488100  0.053400  0.552000  1.0  0.0881
  H  H43  1  0.407300  0.664100  0.747500  1.0  0.0738
  H  H44  1  0.236700  0.883500  0.212200  1.0  0.0718
  H  H45  1  0.895200  0.127900  0.577200  1.0  0.1083
  H  H46  1  0.173900  0.441100  0.876100  1.0  0.1132
  H  H47  1  0.966800  0.668200  0.285500  1.0  0.1112
  H  H48  1  0.875400  0.923200  0.436400  1.0  0.0909
  H  H49  1  0.404700  0.794600  0.806300  1.0  0.1006
  H  H50  1  0.819000  0.563600  0.387500  1.0  0.0771
  H  H51  1  0.058500  0.306800  0.965400  1.0  0.0718
  H  H52  1  0.970100  0.811500  0.320700  1.0  0.1119
  H  H53  1  0.776400  0.274800  0.565400  1.0  0.0912
  H  H54  1  0.356200  0.422600  0.876800  1.0  0.1073
  H  H55  1  0.418300  0.855900  0.221500  1.0  0.0816
  H  H56  1  0.736700  0.952800  0.572600  1.0  0.0998
  H  H57  1  0.514200  0.312300  0.941800  1.0  0.0879
  H  H58  1  0.576900  0.162800  0.029300  1.0  0.0929
  H  H59  1  0.549700  0.903500  0.719500  1.0  0.1077
  H  H60  1  0.545200  0.977300  0.135500  1.0  0.1237
  C  C61  1  0.534200  0.671600  0.355300  1.0  0.7031
  C  C62  1  0.699800  0.906200  0.241900  1.0  -0.0846
  C  C63  1  0.799600  0.953000  0.151000  1.0  0.7168
  C  C64  1  0.172600  0.730300  0.082700  1.0  -0.1472
  C  C65  1  0.570800  0.773100  0.338400  1.0  -0.089
  C  C66  1  0.659000  0.818200  0.250400  1.0  -0.0659
  C  C67  1  0.293900  0.598300  0.159400  1.0  -0.124
  C  C68  1  0.217400  0.682800  0.161900  1.0  -0.0396
  C  C69  1  0.304100  0.607100  0.580000  1.0  0.6701
  C  C70  1  0.106500  0.828300  0.652400  1.0  -0.1642
  C  C71  1  0.098000  0.826800  0.081900  1.0  0.7031
  C  C72  1  0.516600  0.820200  0.413100  1.0  -0.0847
  C  C73  1  0.052600  0.868900  0.741200  1.0  0.6551
  C  C74  1  0.647300  0.951500  0.318500  1.0  -0.0659
  C  C75  1  0.345700  0.552400  0.242200  1.0  0.7008
  C  C76  1  0.181200  0.742200  0.656800  1.0  -0.0241
  C  C77  1  0.265400  0.275500  0.497100  1.0  0.1459
  C  C78  1  0.200900  0.690200  0.003500  1.0  -0.0283
  C  C79  1  0.325100  0.559500  0.078200  1.0  -0.0613
  C  C80  1  0.277500  0.604900  0.000500  1.0  -0.1159
  C  C81  1  0.358500  0.253200  0.413100  1.0  0.1686
  C  C82  1  0.225700  0.702100  0.575900  1.0  -0.2044
  C  C83  1  0.681500  0.897600  0.922900  1.0  0.1007
  C  C84  1  0.647500  0.723300  0.030300  1.0  0.0288
  C  C85  1  0.721700  0.802400  0.978500  1.0  0.1527
  C  C86  1  0.077600  0.877200  0.564300  1.0  -0.0335
  C  C87  1  0.552100  0.911800  0.400800  1.0  -0.0857
  C  C88  1  0.177400  0.208100  0.554900  1.0  -0.0345
  C  C89  1  0.531700  0.294800  0.285800  1.0  0.175
  C  C90  1  0.568800  0.913200  0.918600  1.0  -0.0412
  C  C91  1  0.714600  0.064300  0.822000  1.0  0.1803
  C  C92  1  0.122900  0.839100  0.481800  1.0  -0.1119
  C  C93  1  0.797600  0.619900  0.087700  1.0  -0.1678
  C  C94  1  0.358700  0.167400  0.385900  1.0  -0.0114
  C  C95  1  0.090800  0.315400  0.659500  1.0  -0.1602
  C  C96  1  0.182000  0.121400  0.525400  1.0  -0.1273
  C  C97  1  0.535100  0.215000  0.250900  1.0  -0.1202
  C  C98  1  0.181000  0.378600  0.596800  1.0  0.1764
  C  C99  1  0.867000  0.701800  0.033200  1.0  0.1516
  C  C100  1  0.088900  0.231100  0.638800  1.0  -0.0195
  C  C101  1  0.194900  0.751700  0.488900  1.0  -0.0166
  C  C102  1  0.690600  0.630900  0.086600  1.0  -0.03
  C  C103  1  0.604300  0.081300  0.816800  1.0  -0.0982
  C  C104  1  0.265000  0.102900  0.445600  1.0  -0.1205
  C  C105  1  0.534400  0.739900  0.024800  1.0  -0.1284
  C  C106  1  0.497400  0.828800  0.972600  1.0  -0.1096
  C  C107  1  0.448600  0.150900  0.302000  1.0  -0.0329
  C  C108  1  0.529700  0.009600  0.865500  1.0  -0.1104
  C  C109  1  0.465800  0.328400  0.644700  1.0  0.7029
  C  C110  1  0.300200  0.093800  0.758100  1.0  -0.0847
  C  C111  1  0.200400  0.047000  0.849000  1.0  0.7167
  C  C112  1  0.827400  0.269700  0.917300  1.0  -0.147
  C  C113  1  0.429200  0.226900  0.661600  1.0  -0.0893
  C  C114  1  0.341000  0.181800  0.749600  1.0  -0.0685
  C  C115  1  0.706100  0.401700  0.840600  1.0  -0.1222
  C  C116  1  0.782600  0.317200  0.838100  1.0  -0.0404
  C  C117  1  0.695900  0.392900  0.420000  1.0  0.6695
  C  C118  1  0.893500  0.171700  0.347600  1.0  -0.1623
  C  C119  1  0.902000  0.173200  0.918100  1.0  0.7024
  C  C120  1  0.483400  0.179800  0.586900  1.0  -0.0863
  C  C121  1  0.947400  0.131100  0.258800  1.0  0.6557
  C  C122  1  0.352700  0.048500  0.681500  1.0  -0.0636
  C  C123  1  0.654300  0.447600  0.757800  1.0  0.7014
  C  C124  1  0.818800  0.257800  0.343200  1.0  -0.0236
  C  C125  1  0.734600  0.724500  0.502900  1.0  0.1476
  C  C126  1  0.799100  0.309800  0.996500  1.0  -0.0287
  C  C127  1  0.674900  0.440500  0.921800  1.0  -0.0595
  C  C128  1  0.722500  0.395100  0.999500  1.0  -0.1156
  C  C129  1  0.641500  0.746800  0.586900  1.0  0.1694
  C  C130  1  0.774300  0.297900  0.424100  1.0  -0.2038
  C  C131  1  0.318500  0.102400  0.077100  1.0  0.102
  C  C132  1  0.352500  0.276700  0.969700  1.0  0.029
  C  C133  1  0.278300  0.197600  0.021500  1.0  0.1532
  C  C134  1  0.922400  0.122800  0.435700  1.0  -0.0342
  C  C135  1  0.447900  0.088200  0.599200  1.0  -0.0844
  C  C136  1  0.822600  0.791900  0.445100  1.0  -0.0332
  C  C137  1  0.468300  0.705200  0.714200  1.0  0.1757
  C  C138  1  0.431200  0.086800  0.081400  1.0  -0.0391
  C  C139  1  0.285400  0.935700  0.178000  1.0  0.1813
  C  C140  1  0.877100  0.160900  0.518200  1.0  -0.1104
  C  C141  1  0.202400  0.380100  0.912300  1.0  -0.1678
  C  C142  1  0.641300  0.832600  0.614100  1.0  -0.0102
  C  C143  1  0.909200  0.684600  0.340500  1.0  -0.1602
  C  C144  1  0.818000  0.878600  0.474600  1.0  -0.1294
  C  C145  1  0.464900  0.785000  0.749100  1.0  -0.1196
  C  C146  1  0.819000  0.621400  0.403200  1.0  0.1761
  C  C147  1  0.133000  0.298200  0.966800  1.0  0.1513
  C  C148  1  0.911100  0.768900  0.361200  1.0  -0.0199
  C  C149  1  0.805100  0.248300  0.511100  1.0  -0.0179
  C  C150  1  0.309400  0.369100  0.913400  1.0  -0.0325
  C  C151  1  0.395700  0.918700  0.183200  1.0  -0.0974
  C  C152  1  0.735000  0.897100  0.554400  1.0  -0.1198
  C  C153  1  0.465600  0.260100  0.975200  1.0  -0.1289
  C  C154  1  0.502600  0.171200  0.027400  1.0  -0.1107
  C  C155  1  0.551400  0.849100  0.698000  1.0  -0.0315
  C  C156  1  0.470300  0.990400  0.134500  1.0  -0.1116
  N  N157  1  0.264800  0.361300  0.518100  1.0  -0.4287
  N  N158  1  0.752900  0.975600  0.874500  1.0  -0.4171
  N  N159  1  0.831100  0.791500  0.979400  1.0  -0.4082
  N  N160  1  0.445900  0.315200  0.364100  1.0  -0.4162
  N  N161  1  0.735200  0.638700  0.481900  1.0  -0.4292
  N  N162  1  0.247100  0.024400  0.125500  1.0  -0.4168
  N  N163  1  0.168900  0.208500  0.020600  1.0  -0.4105
  N  N164  1  0.554100  0.684800  0.635900  1.0  -0.4143
  O  O165  1  0.444700  0.508700  0.223000  1.0  -0.6381
  O  O166  1  0.070900  0.820400  0.823800  1.0  -0.6745
  O  O167  1  0.530600  0.604400  0.440600  1.0  -0.7839
  O  O168  1  0.804000  0.952800  0.064900  1.0  -0.7301
  O  O169  1  0.870000  0.988000  0.168300  1.0  -0.7051
  O  O170  1  0.363900  0.581800  0.637300  1.0  -0.6873
  O  O171  1  0.308200  0.562300  0.519200  1.0  -0.6906
  O  O172  1  0.991500  0.951000  0.731800  1.0  -0.6082
  O  O173  1  0.036800  0.855400  0.025200  1.0  -0.739
  O  O174  1  0.507000  0.654500  0.291000  1.0  -0.6212
  O  O175  1  0.287500  0.559700  0.329600  1.0  -0.6441
  O  O176  1  0.100800  0.875900  0.135700  1.0  -0.6356
  O  O177  1  0.555300  0.491300  0.777000  1.0  -0.6372
  O  O178  1  0.929100  0.179600  0.176200  1.0  -0.6715
  O  O179  1  0.469400  0.395600  0.559400  1.0  -0.7835
  O  O180  1  0.196000  0.047200  0.935100  1.0  -0.7311
  O  O181  1  0.130000  0.012000  0.831700  1.0  -0.7055
  O  O182  1  0.636100  0.418200  0.362700  1.0  -0.6857
  O  O183  1  0.691800  0.437700  0.480800  1.0  -0.6905
  O  O184  1  0.008500  0.049000  0.268200  1.0  -0.6094
  O  O185  1  0.963200  0.144600  0.974800  1.0  -0.7396
  O  O186  1  0.493000  0.345500  0.709000  1.0  -0.6202
  O  O187  1  0.712500  0.440300  0.670400  1.0  -0.6432
  O  O188  1  0.899200  0.124100  0.864300  1.0  -0.6352
