# generated using pymatgen
data_GdH14C24(NO3)2
_symmetry_space_group_name_H-M   'P 1'
_cell_length_a   12.61760000
_cell_length_b   14.19800000
_cell_length_c   14.89600000
_cell_angle_alpha   69.22100000
_cell_angle_beta   67.59800000
_cell_angle_gamma   78.39500000
_symmetry_Int_Tables_number   1
_chemical_formula_structural   GdH14C24(NO3)2
_chemical_formula_sum   'Gd4 H56 C96 N8 O24'
_cell_volume   2299.95198423
_cell_formula_units_Z   4
loop_
 _symmetry_equiv_pos_site_id
 _symmetry_equiv_pos_as_xyz
  1  'x, y, z'
loop_
 _atom_site_type_symbol
 _atom_site_label
 _atom_site_symmetry_multiplicity
 _atom_site_fract_x
 _atom_site_fract_y
 _atom_site_fract_z
 _atom_site_occupancy
 _atom_site_charge
  Gd  Gd1  1  0.064490  0.518620  0.595960  1.0  2.1849
  Gd  Gd2  1  0.448840  0.946100  0.906640  1.0  2.1959
  Gd  Gd3  1  0.935510  0.481380  0.404040  1.0  2.1853
  Gd  Gd4  1  0.551160  0.053900  0.093360  1.0  2.1976
  H  H5  1  0.808800  0.210400  0.802200  1.0  0.0768
  H  H6  1  0.304800  0.292400  0.783000  1.0  0.1067
  H  H7  1  0.043800  0.209200  0.529300  1.0  0.1106
  H  H8  1  0.823300  0.991500  0.685400  1.0  0.0992
  H  H9  1  0.700400  0.710600  0.714600  1.0  0.0986
  H  H10  1  0.988000  0.053800  0.551900  1.0  0.0904
  H  H11  1  0.330600  0.280300  0.047500  1.0  0.1062
  H  H12  1  0.121800  0.496400  0.924600  1.0  0.1053
  H  H13  1  0.527600  0.934900  0.561000  1.0  0.0981
  H  H14  1  0.722500  0.725400  0.434800  1.0  0.0924
  H  H15  1  0.318000  0.564700  0.386600  1.0  0.0783
  H  H16  1  0.203300  0.421800  0.052400  1.0  0.0952
  H  H17  1  0.906500  0.664200  0.747100  1.0  0.0773
  H  H18  1  0.441700  0.691600  0.034900  1.0  0.0773
  H  H19  1  0.373700  0.924300  0.435800  1.0  0.0913
  H  H20  1  0.325500  0.559900  0.123700  1.0  0.0925
  H  H21  1  0.469300  0.812700  0.320700  1.0  0.1118
  H  H22  1  0.467900  0.667100  0.286900  1.0  0.1104
  H  H23  1  0.236300  0.952800  0.572900  1.0  0.1005
  H  H24  1  0.262700  0.116500  0.788500  1.0  0.0775
  H  H25  1  0.605200  0.871800  0.422700  1.0  0.1122
  H  H26  1  0.144500  0.576100  0.124000  1.0  0.1088
  H  H27  1  0.986900  0.687900  0.057600  1.0  0.0802
  H  H28  1  0.906800  0.793400  0.807400  1.0  0.0989
  H  H29  1  0.048800  0.903500  0.719100  1.0  0.1016
  H  H30  1  0.955400  0.021900  0.864900  1.0  0.1241
  H  H31  1  0.082800  0.144200  0.777900  1.0  0.0886
  H  H32  1  0.922800  0.837500  0.970800  1.0  0.0992
  H  H33  1  0.191200  0.789600  0.197800  1.0  0.0758
  H  H34  1  0.695200  0.707600  0.217000  1.0  0.1065
  H  H35  1  0.956200  0.790800  0.470700  1.0  0.1111
  H  H36  1  0.176700  0.008500  0.314600  1.0  0.0999
  H  H37  1  0.299600  0.289400  0.285400  1.0  0.0987
  H  H38  1  0.012000  0.946200  0.448100  1.0  0.0907
  H  H39  1  0.669400  0.719700  0.952500  1.0  0.1058
  H  H40  1  0.878200  0.503600  0.075400  1.0  0.1041
  H  H41  1  0.472400  0.065100  0.439000  1.0  0.0994
  H  H42  1  0.277500  0.274600  0.565200  1.0  0.0917
  H  H43  1  0.682000  0.435300  0.613400  1.0  0.0781
  H  H44  1  0.796700  0.578200  0.947600  1.0  0.0954
  H  H45  1  0.093500  0.335800  0.252900  1.0  0.0773
  H  H46  1  0.558300  0.308400  0.965100  1.0  0.0772
  H  H47  1  0.626300  0.075700  0.564200  1.0  0.0911
  H  H48  1  0.674500  0.440100  0.876300  1.0  0.0926
  H  H49  1  0.530700  0.187300  0.679300  1.0  0.1124
  H  H50  1  0.532100  0.332900  0.713100  1.0  0.11
  H  H51  1  0.763700  0.047200  0.427100  1.0  0.1009
  H  H52  1  0.737300  0.883500  0.211500  1.0  0.0772
  H  H53  1  0.394800  0.128200  0.577300  1.0  0.1124
  H  H54  1  0.855500  0.423900  0.876000  1.0  0.1099
  H  H55  1  0.013100  0.312100  0.942400  1.0  0.0803
  H  H56  1  0.093200  0.206600  0.192600  1.0  0.1007
  H  H57  1  0.951200  0.096500  0.280900  1.0  0.1024
  H  H58  1  0.044600  0.978100  0.135100  1.0  0.1243
  H  H59  1  0.917200  0.855800  0.222100  1.0  0.0887
  H  H60  1  0.077200  0.162500  0.029200  1.0  0.0996
  C  C61  1  0.840600  0.181600  0.749600  1.0  -0.0713
  C  C62  1  0.700800  0.047100  0.848800  1.0  0.7102
  C  C63  1  0.800000  0.093300  0.758600  1.0  -0.0877
  C  C64  1  0.965700  0.327800  0.644900  1.0  0.7039
  C  C65  1  0.929200  0.226900  0.661500  1.0  -0.089
  C  C66  1  0.402300  0.173800  0.918000  1.0  0.691
  C  C67  1  0.606400  0.828100  0.652300  1.0  -0.1586
  C  C68  1  0.282500  0.317600  0.837800  1.0  -0.0415
  C  C69  1  0.326300  0.270100  0.917000  1.0  -0.141
  C  C70  1  0.983600  0.179900  0.587000  1.0  -0.0592
  C  C71  1  0.142400  0.746600  0.586700  1.0  0.1781
  C  C72  1  0.234500  0.724000  0.503100  1.0  0.1696
  C  C73  1  0.852200  0.048500  0.681700  1.0  -0.0526
  C  C74  1  0.155000  0.447800  0.757200  1.0  0.7014
  C  C75  1  0.680000  0.742600  0.656500  1.0  -0.0187
  C  C76  1  0.948000  0.088400  0.599000  1.0  -0.0714
  C  C77  1  0.206000  0.401900  0.840400  1.0  -0.1321
  C  C78  1  0.803600  0.607300  0.579800  1.0  0.6708
  C  C79  1  0.552200  0.869000  0.741100  1.0  0.6564
  C  C80  1  0.298300  0.310300  0.996300  1.0  -0.0381
  C  C81  1  0.181600  0.897500  0.923000  1.0  0.1239
  C  C82  1  0.724800  0.702700  0.575100  1.0  -0.1916
  C  C83  1  0.174600  0.440500  0.921800  1.0  -0.0659
  C  C84  1  0.222300  0.802400  0.978500  1.0  0.1484
  C  C85  1  0.321800  0.792200  0.445200  1.0  -0.0296
  C  C86  1  0.577500  0.876800  0.564500  1.0  -0.0335
  C  C87  1  0.694100  0.752000  0.489100  1.0  -0.0251
  C  C88  1  0.318900  0.621900  0.402900  1.0  0.1782
  C  C89  1  0.222500  0.395000  0.999100  1.0  -0.1032
  C  C90  1  0.967900  0.704900  0.714400  1.0  0.1711
  C  C91  1  0.141800  0.832400  0.614100  1.0  0.0147
  C  C92  1  0.068800  0.912500  0.919400  1.0  -0.0296
  C  C93  1  0.147200  0.723000  0.030700  1.0  0.0279
  C  C94  1  0.367100  0.700900  0.033500  1.0  0.1543
  C  C95  1  0.316900  0.879100  0.474500  1.0  -0.125
  C  C96  1  0.297000  0.620900  0.087200  1.0  -0.107
  C  C97  1  0.410800  0.769600  0.361400  1.0  -0.0245
  C  C98  1  0.409600  0.684200  0.341000  1.0  -0.1559
  C  C99  1  0.234500  0.897200  0.554600  1.0  -0.1134
  C  C100  1  0.214100  0.064200  0.822400  1.0  0.1811
  C  C101  1  0.623000  0.838600  0.481900  1.0  -0.1565
  C  C102  1  0.190700  0.630100  0.087200  1.0  -0.0687
  C  C103  1  0.035300  0.740400  0.024300  1.0  -0.0882
  C  C104  1  0.965800  0.784400  0.749500  1.0  -0.1348
  C  C105  1  0.051100  0.848600  0.698100  1.0  -0.0355
  C  C106  1  0.030300  0.008900  0.866000  1.0  -0.083
  C  C107  1  0.105100  0.081400  0.816600  1.0  -0.1076
  C  C108  1  0.997000  0.829200  0.972600  1.0  -0.0958
  C  C109  1  0.159400  0.818400  0.250400  1.0  -0.0701
  C  C110  1  0.299200  0.952900  0.151200  1.0  0.7103
  C  C111  1  0.200000  0.906700  0.241400  1.0  -0.0868
  C  C112  1  0.034300  0.672200  0.355100  1.0  0.7038
  C  C113  1  0.070800  0.773100  0.338500  1.0  -0.0894
  C  C114  1  0.597700  0.826200  0.082000  1.0  0.6899
  C  C115  1  0.393600  0.171900  0.347700  1.0  -0.1574
  C  C116  1  0.717500  0.682400  0.162200  1.0  -0.04
  C  C117  1  0.673700  0.729900  0.083000  1.0  -0.1408
  C  C118  1  0.016400  0.820100  0.413000  1.0  -0.057
  C  C119  1  0.857600  0.253400  0.413300  1.0  0.1774
  C  C120  1  0.765500  0.276000  0.496900  1.0  0.1679
  C  C121  1  0.147800  0.951500  0.318300  1.0  -0.054
  C  C122  1  0.845000  0.552200  0.242800  1.0  0.7014
  C  C123  1  0.320000  0.257400  0.343500  1.0  -0.0188
  C  C124  1  0.052000  0.911600  0.401000  1.0  -0.072
  C  C125  1  0.794000  0.598100  0.159600  1.0  -0.1343
  C  C126  1  0.196400  0.392700  0.420200  1.0  0.6702
  C  C127  1  0.447800  0.131000  0.258900  1.0  0.657
  C  C128  1  0.701700  0.689700  0.003700  1.0  -0.038
  C  C129  1  0.818400  0.102500  0.077000  1.0  0.1252
  C  C130  1  0.275200  0.297300  0.424900  1.0  -0.1899
  C  C131  1  0.825400  0.559500  0.078200  1.0  -0.0667
  C  C132  1  0.777700  0.197600  0.021500  1.0  0.1493
  C  C133  1  0.678200  0.207800  0.554800  1.0  -0.0294
  C  C134  1  0.422500  0.123200  0.435500  1.0  -0.0334
  C  C135  1  0.305900  0.248000  0.510900  1.0  -0.0247
  C  C136  1  0.681100  0.378100  0.597100  1.0  0.1786
  C  C137  1  0.777500  0.605000  0.000900  1.0  -0.1027
  C  C138  1  0.032100  0.295100  0.285600  1.0  0.1704
  C  C139  1  0.858200  0.167600  0.385900  1.0  0.0143
  C  C140  1  0.931200  0.087500  0.080600  1.0  -0.0285
  C  C141  1  0.852800  0.277000  0.969300  1.0  0.0287
  C  C142  1  0.632900  0.299100  0.966500  1.0  0.1532
  C  C143  1  0.683100  0.120900  0.525500  1.0  -0.1239
  C  C144  1  0.703000  0.379100  0.912800  1.0  -0.106
  C  C145  1  0.589200  0.230400  0.638600  1.0  -0.0246
  C  C146  1  0.590400  0.315800  0.659000  1.0  -0.157
  C  C147  1  0.765500  0.102800  0.445400  1.0  -0.114
  C  C148  1  0.785900  0.935800  0.177600  1.0  0.1823
  C  C149  1  0.377000  0.161400  0.518100  1.0  -0.1556
  C  C150  1  0.809300  0.369900  0.912800  1.0  -0.0715
  C  C151  1  0.964700  0.259600  0.975700  1.0  -0.0882
  C  C152  1  0.034200  0.215600  0.250500  1.0  -0.1356
  C  C153  1  0.948900  0.151400  0.301900  1.0  -0.0366
  C  C154  1  0.969700  0.991100  0.134000  1.0  -0.0855
  C  C155  1  0.894900  0.918600  0.183400  1.0  -0.1064
  C  C156  1  0.003000  0.170800  0.027400  1.0  -0.0988
  N  N157  1  0.235400  0.638800  0.482000  1.0  -0.4131
  N  N158  1  0.054500  0.685000  0.635800  1.0  -0.4252
  N  N159  1  0.252600  0.975000  0.874800  1.0  -0.4211
  N  N160  1  0.331300  0.791200  0.979700  1.0  -0.4083
  N  N161  1  0.764600  0.361200  0.518000  1.0  -0.4129
  N  N162  1  0.945500  0.315000  0.364200  1.0  -0.426
  N  N163  1  0.747400  0.025000  0.125200  1.0  -0.4203
  N  N164  1  0.668700  0.208800  0.020300  1.0  -0.41
  O  O165  1  0.055400  0.491300  0.777000  1.0  -0.6045
  O  O166  1  0.695600  0.046900  0.935400  1.0  -0.7166
  O  O167  1  0.630500  0.011600  0.832000  1.0  -0.6874
  O  O168  1  0.969800  0.395500  0.559400  1.0  -0.8331
  O  O169  1  0.570400  0.820200  0.823800  1.0  -0.689
  O  O170  1  0.808600  0.562500  0.519200  1.0  -0.6628
  O  O171  1  0.863500  0.581700  0.637600  1.0  -0.6999
  O  O172  1  0.491700  0.951100  0.731800  1.0  -0.6668
  O  O173  1  0.463100  0.144400  0.974700  1.0  -0.7463
  O  O174  1  0.993700  0.345500  0.709000  1.0  -0.6354
  O  O175  1  0.212500  0.440100  0.670300  1.0  -0.5994
  O  O176  1  0.399600  0.124000  0.864500  1.0  -0.6291
  O  O177  1  0.944600  0.508700  0.223000  1.0  -0.6045
  O  O178  1  0.304400  0.953100  0.064600  1.0  -0.7156
  O  O179  1  0.369500  0.988400  0.168000  1.0  -0.6874
  O  O180  1  0.030200  0.604500  0.440600  1.0  -0.8339
  O  O181  1  0.429600  0.179800  0.176200  1.0  -0.6872
  O  O182  1  0.191400  0.437500  0.480800  1.0  -0.6618
  O  O183  1  0.136500  0.418300  0.362400  1.0  -0.7013
  O  O184  1  0.508300  0.048900  0.268200  1.0  -0.6675
  O  O185  1  0.536900  0.855600  0.025300  1.0  -0.7455
  O  O186  1  0.006300  0.654500  0.291000  1.0  -0.6348
  O  O187  1  0.787500  0.559900  0.329700  1.0  -0.5998
  O  O188  1  0.600400  0.876000  0.135500  1.0  -0.6289
