# generated using pymatgen
data_Cu3H4WC8S4N5
_symmetry_space_group_name_H-M   'P 1'
_cell_length_a   9.28230000
_cell_length_b   14.57500000
_cell_length_c   19.37100000
_cell_angle_alpha   90.00000000
_cell_angle_beta   98.05000000
_cell_angle_gamma   90.00000000
_symmetry_Int_Tables_number   1
_chemical_formula_structural   Cu3H4WC8S4N5
_chemical_formula_sum   'Cu12 H16 W4 C32 S16 N20'
_cell_volume   2594.86965779
_cell_formula_units_Z   4
loop_
 _symmetry_equiv_pos_site_id
 _symmetry_equiv_pos_as_xyz
  1  'x, y, z'
loop_
 _atom_site_type_symbol
 _atom_site_label
 _atom_site_symmetry_multiplicity
 _atom_site_fract_x
 _atom_site_fract_y
 _atom_site_fract_z
 _atom_site_occupancy
 _atom_site_charge
  Cu  Cu1  1  0.116940  0.142240  0.311440  1.0  0.3628
  Cu  Cu2  1  0.201780  0.364070  0.213910  1.0  0.4344
  Cu  Cu3  1  0.245570  0.266920  0.483060  1.0  0.503
  Cu  Cu4  1  0.883060  0.642240  0.188560  1.0  0.3622
  Cu  Cu5  1  0.798220  0.864070  0.286090  1.0  0.441
  Cu  Cu6  1  0.754430  0.766920  0.016940  1.0  0.5031
  Cu  Cu7  1  0.883060  0.857760  0.688560  1.0  0.3621
  Cu  Cu8  1  0.798220  0.635930  0.786090  1.0  0.4367
  Cu  Cu9  1  0.754430  0.733080  0.516940  1.0  0.5035
  Cu  Cu10  1  0.116940  0.357760  0.811440  1.0  0.3634
  Cu  Cu11  1  0.201780  0.135930  0.713910  1.0  0.439
  Cu  Cu12  1  0.245570  0.233080  0.983060  1.0  0.5027
  H  H13  1  0.084500  0.010600  0.187600  1.0  0.0984
  H  H14  1  0.184800  0.970700  0.090200  1.0  0.1387
  H  H15  1  0.535800  0.118000  0.166500  1.0  0.1398
  H  H16  1  0.420000  0.156800  0.258800  1.0  0.0981
  H  H17  1  0.915500  0.510600  0.312400  1.0  0.0981
  H  H18  1  0.815200  0.470700  0.409800  1.0  0.1388
  H  H19  1  0.464200  0.618000  0.333500  1.0  0.1395
  H  H20  1  0.580000  0.656800  0.241200  1.0  0.0978
  H  H21  1  0.915500  0.989400  0.812400  1.0  0.0985
  H  H22  1  0.815200  0.029300  0.909800  1.0  0.1387
  H  H23  1  0.464200  0.882000  0.833500  1.0  0.1393
  H  H24  1  0.580000  0.843200  0.741200  1.0  0.0973
  H  H25  1  0.084500  0.489400  0.687600  1.0  0.0981
  H  H26  1  0.184800  0.529300  0.590200  1.0  0.1392
  H  H27  1  0.535800  0.382000  0.666500  1.0  0.1394
  H  H28  1  0.420000  0.343200  0.758800  1.0  0.0978
  W  W29  1  0.227140  0.310950  0.349900  1.0  0.5909
  W  W30  1  0.772860  0.810950  0.150100  1.0  0.5907
  W  W31  1  0.772860  0.689050  0.650100  1.0  0.5905
  W  W32  1  0.227140  0.189050  0.849900  1.0  0.5906
  C  C33  1  0.978600  0.045300  0.318100  1.0  0.0324
  C  C34  1  0.256100  0.273200  0.075800  1.0  0.0319
  C  C35  1  0.176000  0.033400  0.182600  1.0  0.1846
  C  C36  1  0.235200  0.008300  0.124100  1.0  -0.1488
  C  C37  1  0.372300  0.041000  0.117700  1.0  -0.0117
  C  C38  1  0.442600  0.096200  0.169200  1.0  -0.1801
  C  C39  1  0.372600  0.118300  0.224600  1.0  0.1704
  C  C40  1  0.442200  0.019500  0.054500  1.0  0.3704
  C  C41  1  0.021400  0.545300  0.181900  1.0  0.0336
  C  C42  1  0.743900  0.773200  0.424200  1.0  0.0315
  C  C43  1  0.824000  0.533400  0.317400  1.0  0.1857
  C  C44  1  0.764800  0.508300  0.375900  1.0  -0.1487
  C  C45  1  0.627700  0.541000  0.382300  1.0  -0.0125
  C  C46  1  0.557400  0.596200  0.330800  1.0  -0.1784
  C  C47  1  0.627400  0.618300  0.275400  1.0  0.17
  C  C48  1  0.557800  0.519500  0.445500  1.0  0.3698
  C  C49  1  0.021400  0.954700  0.681900  1.0  0.0348
  C  C50  1  0.743900  0.726800  0.924200  1.0  0.0327
  C  C51  1  0.824000  0.966600  0.817400  1.0  0.1858
  C  C52  1  0.764800  0.991700  0.875900  1.0  -0.1509
  C  C53  1  0.627700  0.959000  0.882300  1.0  -0.0125
  C  C54  1  0.557400  0.903800  0.830800  1.0  -0.1786
  C  C55  1  0.627400  0.881700  0.775400  1.0  0.1706
  C  C56  1  0.557800  0.980500  0.945500  1.0  0.369
  C  C57  1  0.978600  0.454700  0.818100  1.0  0.035
  C  C58  1  0.256100  0.226800  0.575800  1.0  0.0324
  C  C59  1  0.176000  0.466600  0.682600  1.0  0.1835
  C  C60  1  0.235200  0.491700  0.624100  1.0  -0.1495
  C  C61  1  0.372300  0.459000  0.617700  1.0  -0.0113
  C  C62  1  0.442600  0.403800  0.669200  1.0  -0.1796
  C  C63  1  0.372600  0.381700  0.724600  1.0  0.1706
  C  C64  1  0.442200  0.480500  0.554500  1.0  0.3696
  S  S65  1  0.033730  0.283980  0.271030  1.0  -0.3699
  S  S66  1  0.305700  0.175580  0.398020  1.0  -0.3288
  S  S67  1  0.398690  0.374760  0.300010  1.0  -0.2833
  S  S68  1  0.164650  0.398800  0.434160  1.0  -0.2661
  S  S69  1  0.966270  0.783980  0.228970  1.0  -0.3695
  S  S70  1  0.694300  0.675580  0.101980  1.0  -0.3307
  S  S71  1  0.601310  0.874760  0.199990  1.0  -0.2839
  S  S72  1  0.835350  0.898800  0.065840  1.0  -0.2658
  S  S73  1  0.966270  0.716020  0.728970  1.0  -0.3695
  S  S74  1  0.694300  0.824420  0.601980  1.0  -0.3297
  S  S75  1  0.601310  0.625240  0.699990  1.0  -0.2836
  S  S76  1  0.835350  0.601200  0.565840  1.0  -0.267
  S  S77  1  0.033730  0.216020  0.771030  1.0  -0.3699
  S  S78  1  0.305700  0.324420  0.898020  1.0  -0.3285
  S  S79  1  0.398690  0.125240  0.800010  1.0  -0.2831
  S  S80  1  0.164650  0.101200  0.934160  1.0  -0.2668
  N  N81  1  0.241200  0.088100  0.232600  1.0  -0.3365
  N  N82  1  0.250000  0.303900  0.129800  1.0  -0.3857
  N  N83  1  0.903400  0.983200  0.312900  1.0  -0.467
  N  N84  1  0.397800  0.942200  0.019500  1.0  -0.1944
  N  N85  1  0.541300  0.077600  0.037200  1.0  -0.1862
  N  N86  1  0.758800  0.588100  0.267400  1.0  -0.3392
  N  N87  1  0.750000  0.803900  0.370200  1.0  -0.3859
  N  N88  1  0.096600  0.483200  0.187100  1.0  -0.4661
  N  N89  1  0.602200  0.442200  0.480500  1.0  -0.1946
  N  N90  1  0.458700  0.577600  0.462800  1.0  -0.1854
  N  N91  1  0.758800  0.911900  0.767400  1.0  -0.3394
  N  N92  1  0.750000  0.696100  0.870200  1.0  -0.3858
  N  N93  1  0.096600  0.016800  0.687100  1.0  -0.4663
  N  N94  1  0.602200  0.057800  0.980500  1.0  -0.1951
  N  N95  1  0.458700  0.922400  0.962800  1.0  -0.1845
  N  N96  1  0.241200  0.411900  0.732600  1.0  -0.335
  N  N97  1  0.250000  0.196100  0.629800  1.0  -0.3852
  N  N98  1  0.903400  0.516800  0.812900  1.0  -0.4671
  N  N99  1  0.397800  0.557800  0.519500  1.0  -0.1942
  N  N100  1  0.541300  0.422400  0.537200  1.0  -0.1863
