# generated using pymatgen
data_Cu4MoH16C26(S2N7)2
_symmetry_space_group_name_H-M   'P 1'
_cell_length_a   13.65700000
_cell_length_b   13.65700000
_cell_length_c   53.30500000
_cell_angle_alpha   90.00000000
_cell_angle_beta   90.00000000
_cell_angle_gamma   90.00000000
_symmetry_Int_Tables_number   1
_chemical_formula_structural   Cu4MoH16C26(S2N7)2
_chemical_formula_sum   'Cu32 Mo8 H128 C208 S32 N112'
_cell_volume   9942.11005995
_cell_formula_units_Z   8
loop_
 _symmetry_equiv_pos_site_id
 _symmetry_equiv_pos_as_xyz
  1  'x, y, z'
loop_
 _atom_site_type_symbol
 _atom_site_label
 _atom_site_symmetry_multiplicity
 _atom_site_fract_x
 _atom_site_fract_y
 _atom_site_fract_z
 _atom_site_occupancy
 _atom_site_charge
  Cu  Cu1  1  0.940310  0.936090  0.118000  1.0  0.3834
  Cu  Cu2  1  0.440310  0.436090  0.618000  1.0  0.3834
  Cu  Cu3  1  0.559690  0.063910  0.618000  1.0  0.3842
  Cu  Cu4  1  0.059690  0.563910  0.118000  1.0  0.3842
  Cu  Cu5  1  0.313910  0.690310  0.368000  1.0  0.3819
  Cu  Cu6  1  0.813910  0.190310  0.868000  1.0  0.3819
  Cu  Cu7  1  0.186090  0.309690  0.868000  1.0  0.3823
  Cu  Cu8  1  0.686090  0.809690  0.368000  1.0  0.3823
  Cu  Cu9  1  0.559690  0.936090  0.882000  1.0  0.381
  Cu  Cu10  1  0.059690  0.436090  0.382000  1.0  0.381
  Cu  Cu11  1  0.940310  0.063910  0.382000  1.0  0.3819
  Cu  Cu12  1  0.440310  0.563910  0.882000  1.0  0.3819
  Cu  Cu13  1  0.186090  0.690310  0.632000  1.0  0.3803
  Cu  Cu14  1  0.686090  0.190310  0.132000  1.0  0.3803
  Cu  Cu15  1  0.313910  0.309690  0.132000  1.0  0.3795
  Cu  Cu16  1  0.813910  0.809690  0.632000  1.0  0.3795
  Cu  Cu17  1  0.059690  0.063910  0.882000  1.0  0.3836
  Cu  Cu18  1  0.559690  0.563910  0.382000  1.0  0.3836
  Cu  Cu19  1  0.440310  0.936090  0.382000  1.0  0.383
  Cu  Cu20  1  0.940310  0.436090  0.882000  1.0  0.383
  Cu  Cu21  1  0.686090  0.309690  0.632000  1.0  0.3818
  Cu  Cu22  1  0.186090  0.809690  0.132000  1.0  0.3818
  Cu  Cu23  1  0.813910  0.690310  0.132000  1.0  0.3814
  Cu  Cu24  1  0.313910  0.190310  0.632000  1.0  0.3814
  Cu  Cu25  1  0.440310  0.063910  0.118000  1.0  0.3826
  Cu  Cu26  1  0.940310  0.563910  0.618000  1.0  0.3826
  Cu  Cu27  1  0.059690  0.936090  0.618000  1.0  0.3815
  Cu  Cu28  1  0.559690  0.436090  0.118000  1.0  0.3815
  Cu  Cu29  1  0.813910  0.309690  0.368000  1.0  0.3801
  Cu  Cu30  1  0.313910  0.809690  0.868000  1.0  0.3801
  Cu  Cu31  1  0.686090  0.690310  0.868000  1.0  0.3808
  Cu  Cu32  1  0.186090  0.190310  0.368000  1.0  0.3808
  Mo  Mo33  1  0.000000  0.750000  0.125000  1.0  0.622
  Mo  Mo34  1  0.500000  0.250000  0.625000  1.0  0.622
  Mo  Mo35  1  0.500000  0.750000  0.375000  1.0  0.622
  Mo  Mo36  1  0.000000  0.250000  0.875000  1.0  0.622
  Mo  Mo37  1  0.500000  0.750000  0.875000  1.0  0.622
  Mo  Mo38  1  0.000000  0.250000  0.375000  1.0  0.622
  Mo  Mo39  1  0.000000  0.750000  0.625000  1.0  0.622
  Mo  Mo40  1  0.500000  0.250000  0.125000  1.0  0.622
  H  H41  1  0.149800  0.009400  0.103100  1.0  0.0697
  H  H42  1  0.246500  0.032900  0.068500  1.0  0.1224
  H  H43  1  0.012400  0.987500  0.026100  1.0  0.1067
  H  H44  1  0.925200  0.953400  0.062000  1.0  0.08
  H  H45  1  0.649800  0.509400  0.603100  1.0  0.0697
  H  H46  1  0.746500  0.532900  0.568500  1.0  0.1224
  H  H47  1  0.512400  0.487500  0.526100  1.0  0.1067
  H  H48  1  0.425200  0.453400  0.562000  1.0  0.08
  H  H49  1  0.350200  0.990600  0.603100  1.0  0.0697
  H  H50  1  0.253500  0.967100  0.568500  1.0  0.1235
  H  H51  1  0.487600  0.012500  0.526100  1.0  0.1066
  H  H52  1  0.574800  0.046600  0.562000  1.0  0.0796
  H  H53  1  0.850200  0.490600  0.103100  1.0  0.0697
  H  H54  1  0.753500  0.467100  0.068500  1.0  0.1235
  H  H55  1  0.987600  0.512500  0.026100  1.0  0.1066
  H  H56  1  0.074800  0.546600  0.062000  1.0  0.0796
  H  H57  1  0.240600  0.899800  0.353100  1.0  0.0696
  H  H58  1  0.217100  0.996500  0.318500  1.0  0.1212
  H  H59  1  0.262500  0.762400  0.276100  1.0  0.1067
  H  H60  1  0.296600  0.675200  0.312000  1.0  0.0793
  H  H61  1  0.740600  0.399800  0.853100  1.0  0.0696
  H  H62  1  0.717100  0.496500  0.818500  1.0  0.1212
  H  H63  1  0.762500  0.262400  0.776100  1.0  0.1067
  H  H64  1  0.796600  0.175200  0.812000  1.0  0.0793
  H  H65  1  0.259400  0.100200  0.853100  1.0  0.0692
  H  H66  1  0.282900  0.003500  0.818500  1.0  0.1219
  H  H67  1  0.237500  0.237600  0.776100  1.0  0.1068
  H  H68  1  0.203400  0.324800  0.812000  1.0  0.0786
  H  H69  1  0.759400  0.600200  0.353100  1.0  0.0692
  H  H70  1  0.782900  0.503500  0.318500  1.0  0.1219
  H  H71  1  0.737500  0.737600  0.276100  1.0  0.1068
  H  H72  1  0.703400  0.824800  0.312000  1.0  0.0786
  H  H73  1  0.350200  0.009400  0.896900  1.0  0.0697
  H  H74  1  0.253500  0.032900  0.931500  1.0  0.1237
  H  H75  1  0.487600  0.987500  0.973900  1.0  0.1067
  H  H76  1  0.574800  0.953400  0.938000  1.0  0.0793
  H  H77  1  0.850200  0.509400  0.396900  1.0  0.0697
  H  H78  1  0.753500  0.532900  0.431500  1.0  0.1237
  H  H79  1  0.987600  0.487500  0.473900  1.0  0.1067
  H  H80  1  0.074800  0.453400  0.438000  1.0  0.0793
  H  H81  1  0.149800  0.990600  0.396900  1.0  0.0697
  H  H82  1  0.246500  0.967100  0.431500  1.0  0.1225
  H  H83  1  0.012400  0.012500  0.473900  1.0  0.1067
  H  H84  1  0.925200  0.046600  0.438000  1.0  0.0798
  H  H85  1  0.649800  0.490600  0.896900  1.0  0.0697
  H  H86  1  0.746500  0.467100  0.931500  1.0  0.1225
  H  H87  1  0.512400  0.512500  0.973900  1.0  0.1067
  H  H88  1  0.425200  0.546600  0.938000  1.0  0.0798
  H  H89  1  0.259400  0.899800  0.646900  1.0  0.0692
  H  H90  1  0.282900  0.996500  0.681500  1.0  0.1218
  H  H91  1  0.237500  0.762400  0.723900  1.0  0.1073
  H  H92  1  0.203400  0.675200  0.688000  1.0  0.0786
  H  H93  1  0.759400  0.399800  0.146900  1.0  0.0692
  H  H94  1  0.782900  0.496500  0.181500  1.0  0.1218
  H  H95  1  0.737500  0.262400  0.223900  1.0  0.1073
  H  H96  1  0.703400  0.175200  0.188000  1.0  0.0786
  H  H97  1  0.240600  0.100200  0.146900  1.0  0.0696
  H  H98  1  0.217100  0.003500  0.181500  1.0  0.1218
  H  H99  1  0.262500  0.237600  0.223900  1.0  0.1067
  H  H100  1  0.296600  0.324800  0.188000  1.0  0.0789
  H  H101  1  0.740600  0.600200  0.646900  1.0  0.0696
  H  H102  1  0.717100  0.503500  0.681500  1.0  0.1218
  H  H103  1  0.762500  0.737600  0.723900  1.0  0.1067
  H  H104  1  0.796600  0.824800  0.688000  1.0  0.0789
  H  H105  1  0.850200  0.990600  0.896900  1.0  0.07
  H  H106  1  0.753500  0.967100  0.931500  1.0  0.1235
  H  H107  1  0.987600  0.012500  0.973900  1.0  0.1065
  H  H108  1  0.074800  0.046600  0.938000  1.0  0.0793
  H  H109  1  0.350200  0.490600  0.396900  1.0  0.07
  H  H110  1  0.253500  0.467100  0.431500  1.0  0.1235
  H  H111  1  0.487600  0.512500  0.473900  1.0  0.1065
  H  H112  1  0.574800  0.546600  0.438000  1.0  0.0793
  H  H113  1  0.649800  0.009400  0.396900  1.0  0.0698
  H  H114  1  0.746500  0.032900  0.431500  1.0  0.1227
  H  H115  1  0.512400  0.987500  0.473900  1.0  0.1067
  H  H116  1  0.425200  0.953400  0.438000  1.0  0.0798
  H  H117  1  0.149800  0.509400  0.896900  1.0  0.0698
  H  H118  1  0.246500  0.532900  0.931500  1.0  0.1227
  H  H119  1  0.012400  0.487500  0.973900  1.0  0.1067
  H  H120  1  0.925200  0.453400  0.938000  1.0  0.0798
  H  H121  1  0.759400  0.100200  0.646900  1.0  0.0696
  H  H122  1  0.782900  0.003500  0.681500  1.0  0.1219
  H  H123  1  0.737500  0.237600  0.723900  1.0  0.1068
  H  H124  1  0.703400  0.324800  0.688000  1.0  0.0784
  H  H125  1  0.259400  0.600200  0.146900  1.0  0.0696
  H  H126  1  0.282900  0.503500  0.181500  1.0  0.1219
  H  H127  1  0.237500  0.737600  0.223900  1.0  0.1068
  H  H128  1  0.203400  0.824800  0.188000  1.0  0.0784
  H  H129  1  0.740600  0.899800  0.146900  1.0  0.0697
  H  H130  1  0.717100  0.996500  0.181500  1.0  0.1216
  H  H131  1  0.762500  0.762400  0.223900  1.0  0.1071
  H  H132  1  0.796600  0.675200  0.188000  1.0  0.0791
  H  H133  1  0.240600  0.399800  0.646900  1.0  0.0697
  H  H134  1  0.217100  0.496500  0.681500  1.0  0.1216
  H  H135  1  0.262500  0.262400  0.723900  1.0  0.1071
  H  H136  1  0.296600  0.175200  0.688000  1.0  0.0791
  H  H137  1  0.649800  0.990600  0.103100  1.0  0.0702
  H  H138  1  0.746500  0.967100  0.068500  1.0  0.1225
  H  H139  1  0.512400  0.012500  0.026100  1.0  0.1068
  H  H140  1  0.425200  0.046600  0.062000  1.0  0.08
  H  H141  1  0.149800  0.490600  0.603100  1.0  0.0702
  H  H142  1  0.246500  0.467100  0.568500  1.0  0.1225
  H  H143  1  0.012400  0.512500  0.526100  1.0  0.1068
  H  H144  1  0.925200  0.546600  0.562000  1.0  0.08
  H  H145  1  0.850200  0.009400  0.603100  1.0  0.0701
  H  H146  1  0.753500  0.032900  0.568500  1.0  0.1234
  H  H147  1  0.987600  0.987500  0.526100  1.0  0.1064
  H  H148  1  0.074800  0.953400  0.562000  1.0  0.0795
  H  H149  1  0.350200  0.509400  0.103100  1.0  0.0701
  H  H150  1  0.253500  0.532900  0.068500  1.0  0.1234
  H  H151  1  0.487600  0.487500  0.026100  1.0  0.1064
  H  H152  1  0.574800  0.453400  0.062000  1.0  0.0795
  H  H153  1  0.740600  0.100200  0.353100  1.0  0.0702
  H  H154  1  0.717100  0.003500  0.318500  1.0  0.1217
  H  H155  1  0.762500  0.237600  0.276100  1.0  0.1066
  H  H156  1  0.796600  0.324800  0.312000  1.0  0.0791
  H  H157  1  0.240600  0.600200  0.853100  1.0  0.0702
  H  H158  1  0.217100  0.503500  0.818500  1.0  0.1217
  H  H159  1  0.262500  0.737600  0.776100  1.0  0.1066
  H  H160  1  0.296600  0.824800  0.812000  1.0  0.0791
  H  H161  1  0.759400  0.899800  0.853100  1.0  0.0696
  H  H162  1  0.782900  0.996500  0.818500  1.0  0.1215
  H  H163  1  0.737500  0.762400  0.776100  1.0  0.1069
  H  H164  1  0.703400  0.675200  0.812000  1.0  0.0788
  H  H165  1  0.259400  0.399800  0.353100  1.0  0.0696
  H  H166  1  0.282900  0.496500  0.318500  1.0  0.1215
  H  H167  1  0.237500  0.262400  0.276100  1.0  0.1069
  H  H168  1  0.203400  0.175200  0.312000  1.0  0.0788
  C  C169  1  0.121700  0.003100  0.087290  1.0  0.1744
  C  C170  1  0.180300  0.018800  0.066630  1.0  -0.1784
  C  C171  1  0.139600  0.011400  0.043100  1.0  -0.0742
  C  C172  1  0.043400  0.989000  0.041600  1.0  -0.1097
  C  C173  1  0.990100  0.973400  0.063430  1.0  0.1709
  C  C174  1  0.199000  0.023600  0.020110  1.0  0.348
  C  C175  1  0.791200  0.100300  0.126510  1.0  0.0532
  C  C176  1  0.621700  0.503100  0.587290  1.0  0.1744
  C  C177  1  0.680300  0.518800  0.566630  1.0  -0.1784
  C  C178  1  0.639600  0.511400  0.543100  1.0  -0.0742
  C  C179  1  0.543400  0.489000  0.541600  1.0  -0.1097
  C  C180  1  0.490100  0.473400  0.563430  1.0  0.1709
  C  C181  1  0.699000  0.523600  0.520110  1.0  0.348
  C  C182  1  0.291200  0.600300  0.626510  1.0  0.0532
  C  C183  1  0.378300  0.996900  0.587290  1.0  0.1753
  C  C184  1  0.319700  0.981200  0.566630  1.0  -0.1793
  C  C185  1  0.360400  0.988600  0.543100  1.0  -0.0743
  C  C186  1  0.456600  0.011000  0.541600  1.0  -0.1105
  C  C187  1  0.509900  0.026600  0.563430  1.0  0.1728
  C  C188  1  0.301000  0.976400  0.520110  1.0  0.3476
  C  C189  1  0.708800  0.899700  0.626510  1.0  0.0513
  C  C190  1  0.878300  0.496900  0.087290  1.0  0.1753
  C  C191  1  0.819700  0.481200  0.066630  1.0  -0.1793
  C  C192  1  0.860400  0.488600  0.043100  1.0  -0.0743
  C  C193  1  0.956600  0.511000  0.041600  1.0  -0.1105
  C  C194  1  0.009900  0.526600  0.063430  1.0  0.1728
  C  C195  1  0.801000  0.476400  0.020110  1.0  0.3476
  C  C196  1  0.208800  0.399700  0.126510  1.0  0.0513
  C  C197  1  0.246900  0.871700  0.337290  1.0  0.1746
  C  C198  1  0.231200  0.930300  0.316630  1.0  -0.1796
  C  C199  1  0.238600  0.889600  0.293100  1.0  -0.0765
  C  C200  1  0.261000  0.793400  0.291600  1.0  -0.1094
  C  C201  1  0.276600  0.740100  0.313430  1.0  0.1713
  C  C202  1  0.226400  0.949000  0.270110  1.0  0.3486
  C  C203  1  0.149700  0.541200  0.376510  1.0  0.0537
  C  C204  1  0.746900  0.371700  0.837290  1.0  0.1746
  C  C205  1  0.731200  0.430300  0.816630  1.0  -0.1796
  C  C206  1  0.738600  0.389600  0.793100  1.0  -0.0765
  C  C207  1  0.761000  0.293400  0.791600  1.0  -0.1094
  C  C208  1  0.776600  0.240100  0.813430  1.0  0.1713
  C  C209  1  0.726400  0.449000  0.770110  1.0  0.3486
  C  C210  1  0.649700  0.041200  0.876510  1.0  0.0537
  C  C211  1  0.253100  0.128300  0.837290  1.0  0.1742
  C  C212  1  0.268800  0.069700  0.816630  1.0  -0.1796
  C  C213  1  0.261400  0.110400  0.793100  1.0  -0.0778
  C  C214  1  0.239000  0.206600  0.791600  1.0  -0.1089
  C  C215  1  0.223400  0.259900  0.813430  1.0  0.1707
  C  C216  1  0.273600  0.051000  0.770110  1.0  0.3484
  C  C217  1  0.350300  0.458800  0.876510  1.0  0.0543
  C  C218  1  0.753100  0.628300  0.337290  1.0  0.1742
  C  C219  1  0.768800  0.569700  0.316630  1.0  -0.1796
  C  C220  1  0.761400  0.610400  0.293100  1.0  -0.0778
  C  C221  1  0.739000  0.706600  0.291600  1.0  -0.1089
  C  C222  1  0.723400  0.759900  0.313430  1.0  0.1707
  C  C223  1  0.773600  0.551000  0.270110  1.0  0.3484
  C  C224  1  0.850300  0.958800  0.376510  1.0  0.0543
  C  C225  1  0.378300  0.003100  0.912710  1.0  0.1747
  C  C226  1  0.319700  0.018800  0.933370  1.0  -0.18
  C  C227  1  0.360400  0.011400  0.956900  1.0  -0.0752
  C  C228  1  0.456600  0.989000  0.958400  1.0  -0.1098
  C  C229  1  0.509900  0.973400  0.936570  1.0  0.1729
  C  C230  1  0.301000  0.023600  0.979890  1.0  0.347
  C  C231  1  0.878300  0.503100  0.412710  1.0  0.1747
  C  C232  1  0.819700  0.518800  0.433370  1.0  -0.18
  C  C233  1  0.860400  0.511400  0.456900  1.0  -0.0752
  C  C234  1  0.956600  0.489000  0.458400  1.0  -0.1098
  C  C235  1  0.009900  0.473400  0.436570  1.0  0.1729
  C  C236  1  0.801000  0.523600  0.479890  1.0  0.347
  C  C237  1  0.121700  0.996900  0.412710  1.0  0.1738
  C  C238  1  0.180300  0.981200  0.433370  1.0  -0.1781
  C  C239  1  0.139600  0.988600  0.456900  1.0  -0.0752
  C  C240  1  0.043400  0.011000  0.458400  1.0  -0.1093
  C  C241  1  0.990100  0.026600  0.436570  1.0  0.1711
  C  C242  1  0.199000  0.976400  0.479890  1.0  0.3474
  C  C243  1  0.621700  0.496900  0.912710  1.0  0.1738
  C  C244  1  0.680300  0.481200  0.933370  1.0  -0.1781
  C  C245  1  0.639600  0.488600  0.956900  1.0  -0.0752
  C  C246  1  0.543400  0.511000  0.958400  1.0  -0.1093
  C  C247  1  0.490100  0.526600  0.936570  1.0  0.1711
  C  C248  1  0.699000  0.476400  0.979890  1.0  0.3474
  C  C249  1  0.253100  0.871700  0.662710  1.0  0.1734
  C  C250  1  0.268800  0.930300  0.683370  1.0  -0.1805
  C  C251  1  0.261400  0.889600  0.706900  1.0  -0.0794
  C  C252  1  0.239000  0.793400  0.708400  1.0  -0.1084
  C  C253  1  0.223400  0.740100  0.686570  1.0  0.1715
  C  C254  1  0.273600  0.949000  0.729890  1.0  0.3479
  C  C255  1  0.753100  0.371700  0.162710  1.0  0.1734
  C  C256  1  0.768800  0.430300  0.183370  1.0  -0.1805
  C  C257  1  0.761400  0.389600  0.206900  1.0  -0.0794
  C  C258  1  0.739000  0.293400  0.208400  1.0  -0.1084
  C  C259  1  0.723400  0.240100  0.186570  1.0  0.1715
  C  C260  1  0.773600  0.449000  0.229890  1.0  0.3479
  C  C261  1  0.246900  0.128300  0.162710  1.0  0.1736
  C  C262  1  0.231200  0.069700  0.183370  1.0  -0.1792
  C  C263  1  0.238600  0.110400  0.206900  1.0  -0.0772
  C  C264  1  0.261000  0.206600  0.208400  1.0  -0.1092
  C  C265  1  0.276600  0.259900  0.186570  1.0  0.1706
  C  C266  1  0.226400  0.051000  0.229890  1.0  0.3481
  C  C267  1  0.746900  0.628300  0.662710  1.0  0.1736
  C  C268  1  0.731200  0.569700  0.683370  1.0  -0.1792
  C  C269  1  0.738600  0.610400  0.706900  1.0  -0.0772
  C  C270  1  0.761000  0.706600  0.708400  1.0  -0.1092
  C  C271  1  0.776600  0.759900  0.686570  1.0  0.1706
  C  C272  1  0.726400  0.551000  0.729890  1.0  0.3481
  C  C273  1  0.878300  0.996900  0.912710  1.0  0.1746
  C  C274  1  0.819700  0.981200  0.933370  1.0  -0.1795
  C  C275  1  0.860400  0.988600  0.956900  1.0  -0.0748
  C  C276  1  0.956600  0.011000  0.958400  1.0  -0.1097
  C  C277  1  0.009900  0.026600  0.936570  1.0  0.173
  C  C278  1  0.801000  0.976400  0.979890  1.0  0.3472
  C  C279  1  0.208800  0.899700  0.873490  1.0  0.0514
  C  C280  1  0.378300  0.496900  0.412710  1.0  0.1746
  C  C281  1  0.319700  0.481200  0.433370  1.0  -0.1795
  C  C282  1  0.360400  0.488600  0.456900  1.0  -0.0748
  C  C283  1  0.456600  0.511000  0.458400  1.0  -0.1097
  C  C284  1  0.509900  0.526600  0.436570  1.0  0.173
  C  C285  1  0.301000  0.476400  0.479890  1.0  0.3472
  C  C286  1  0.708800  0.399700  0.373490  1.0  0.0514
  C  C287  1  0.621700  0.003100  0.412710  1.0  0.1741
  C  C288  1  0.680300  0.018800  0.433370  1.0  -0.1784
  C  C289  1  0.639600  0.011400  0.456900  1.0  -0.0755
  C  C290  1  0.543400  0.989000  0.458400  1.0  -0.1094
  C  C291  1  0.490100  0.973400  0.436570  1.0  0.1711
  C  C292  1  0.699000  0.023600  0.479890  1.0  0.3475
  C  C293  1  0.291200  0.100300  0.373490  1.0  0.0533
  C  C294  1  0.121700  0.503100  0.912710  1.0  0.1741
  C  C295  1  0.180300  0.518800  0.933370  1.0  -0.1784
  C  C296  1  0.139600  0.511400  0.956900  1.0  -0.0755
  C  C297  1  0.043400  0.489000  0.958400  1.0  -0.1094
  C  C298  1  0.990100  0.473400  0.936570  1.0  0.1711
  C  C299  1  0.199000  0.523600  0.979890  1.0  0.3475
  C  C300  1  0.791200  0.600300  0.873490  1.0  0.0533
  C  C301  1  0.753100  0.128300  0.662710  1.0  0.1736
  C  C302  1  0.768800  0.069700  0.683370  1.0  -0.1794
  C  C303  1  0.761400  0.110400  0.706900  1.0  -0.0782
  C  C304  1  0.739000  0.206600  0.708400  1.0  -0.1089
  C  C305  1  0.723400  0.259900  0.686570  1.0  0.1706
  C  C306  1  0.773600  0.051000  0.729890  1.0  0.3481
  C  C307  1  0.850300  0.458800  0.623490  1.0  0.0542
  C  C308  1  0.253100  0.628300  0.162710  1.0  0.1736
  C  C309  1  0.268800  0.569700  0.183370  1.0  -0.1794
  C  C310  1  0.261400  0.610400  0.206900  1.0  -0.0782
  C  C311  1  0.239000  0.706600  0.208400  1.0  -0.1089
  C  C312  1  0.223400  0.759900  0.186570  1.0  0.1706
  C  C313  1  0.273600  0.551000  0.229890  1.0  0.3481
  C  C314  1  0.350300  0.958800  0.123490  1.0  0.0542
  C  C315  1  0.746900  0.871700  0.162710  1.0  0.1733
  C  C316  1  0.731200  0.930300  0.183370  1.0  -0.1797
  C  C317  1  0.738600  0.889600  0.206900  1.0  -0.0783
  C  C318  1  0.761000  0.793400  0.208400  1.0  -0.1086
  C  C319  1  0.776600  0.740100  0.186570  1.0  0.172
  C  C320  1  0.726400  0.949000  0.229890  1.0  0.3483
  C  C321  1  0.649700  0.541200  0.123490  1.0  0.0538
  C  C322  1  0.246900  0.371700  0.662710  1.0  0.1733
  C  C323  1  0.231200  0.430300  0.683370  1.0  -0.1797
  C  C324  1  0.238600  0.389600  0.706900  1.0  -0.0783
  C  C325  1  0.261000  0.293400  0.708400  1.0  -0.1086
  C  C326  1  0.276600  0.240100  0.686570  1.0  0.172
  C  C327  1  0.226400  0.449000  0.729890  1.0  0.3483
  C  C328  1  0.149700  0.041200  0.623490  1.0  0.0538
  C  C329  1  0.621700  0.996900  0.087290  1.0  0.1747
  C  C330  1  0.680300  0.981200  0.066630  1.0  -0.1779
  C  C331  1  0.639600  0.988600  0.043100  1.0  -0.0745
  C  C332  1  0.543400  0.011000  0.041600  1.0  -0.1095
  C  C333  1  0.490100  0.026600  0.063430  1.0  0.171
  C  C334  1  0.699000  0.976400  0.020110  1.0  0.3478
  C  C335  1  0.121700  0.496900  0.587290  1.0  0.1747
  C  C336  1  0.180300  0.481200  0.566630  1.0  -0.1779
  C  C337  1  0.139600  0.488600  0.543100  1.0  -0.0745
  C  C338  1  0.043400  0.511000  0.541600  1.0  -0.1095
  C  C339  1  0.990100  0.526600  0.563430  1.0  0.171
  C  C340  1  0.199000  0.476400  0.520110  1.0  0.3478
  C  C341  1  0.878300  0.003100  0.587290  1.0  0.1748
  C  C342  1  0.819700  0.018800  0.566630  1.0  -0.1802
  C  C343  1  0.860400  0.011400  0.543100  1.0  -0.0739
  C  C344  1  0.956600  0.989000  0.541600  1.0  -0.1107
  C  C345  1  0.009900  0.973400  0.563430  1.0  0.1728
  C  C346  1  0.801000  0.023600  0.520110  1.0  0.3474
  C  C347  1  0.378300  0.503100  0.087290  1.0  0.1748
  C  C348  1  0.319700  0.518800  0.066630  1.0  -0.1802
  C  C349  1  0.360400  0.511400  0.043100  1.0  -0.0739
  C  C350  1  0.456600  0.489000  0.041600  1.0  -0.1107
  C  C351  1  0.509900  0.473400  0.063430  1.0  0.1728
  C  C352  1  0.301000  0.523600  0.020110  1.0  0.3474
  C  C353  1  0.746900  0.128300  0.337290  1.0  0.1747
  C  C354  1  0.731200  0.069700  0.316630  1.0  -0.1793
  C  C355  1  0.738600  0.110400  0.293100  1.0  -0.077
  C  C356  1  0.761000  0.206600  0.291600  1.0  -0.1093
  C  C357  1  0.776600  0.259900  0.313430  1.0  0.1707
  C  C358  1  0.726400  0.051000  0.270110  1.0  0.3485
  C  C359  1  0.246900  0.628300  0.837290  1.0  0.1747
  C  C360  1  0.231200  0.569700  0.816630  1.0  -0.1793
  C  C361  1  0.238600  0.610400  0.793100  1.0  -0.077
  C  C362  1  0.261000  0.706600  0.791600  1.0  -0.1093
  C  C363  1  0.276600  0.759900  0.813430  1.0  0.1707
  C  C364  1  0.226400  0.551000  0.770110  1.0  0.3485
  C  C365  1  0.753100  0.871700  0.837290  1.0  0.1744
  C  C366  1  0.768800  0.930300  0.816630  1.0  -0.1808
  C  C367  1  0.761400  0.889600  0.793100  1.0  -0.0773
  C  C368  1  0.739000  0.793400  0.791600  1.0  -0.1092
  C  C369  1  0.723400  0.740100  0.813430  1.0  0.1708
  C  C370  1  0.773600  0.949000  0.770110  1.0  0.3482
  C  C371  1  0.253100  0.371700  0.337290  1.0  0.1744
  C  C372  1  0.268800  0.430300  0.316630  1.0  -0.1808
  C  C373  1  0.261400  0.389600  0.293100  1.0  -0.0773
  C  C374  1  0.239000  0.293400  0.291600  1.0  -0.1092
  C  C375  1  0.223400  0.240100  0.313430  1.0  0.1708
  C  C376  1  0.273600  0.449000  0.270110  1.0  0.3482
  S  S377  1  0.871550  0.794220  0.101640  1.0  -0.3536
  S  S378  1  0.371550  0.294220  0.601640  1.0  -0.3536
  S  S379  1  0.628450  0.205780  0.601640  1.0  -0.3534
  S  S380  1  0.128450  0.705780  0.101640  1.0  -0.3534
  S  S381  1  0.455780  0.621550  0.351640  1.0  -0.3536
  S  S382  1  0.955780  0.121550  0.851640  1.0  -0.3536
  S  S383  1  0.044220  0.378450  0.851640  1.0  -0.3531
  S  S384  1  0.544220  0.878450  0.351640  1.0  -0.3531
  S  S385  1  0.628450  0.794220  0.898360  1.0  -0.3536
  S  S386  1  0.128450  0.294220  0.398360  1.0  -0.3536
  S  S387  1  0.871550  0.205780  0.398360  1.0  -0.354
  S  S388  1  0.371550  0.705780  0.898360  1.0  -0.354
  S  S389  1  0.044220  0.621550  0.648360  1.0  -0.3538
  S  S390  1  0.544220  0.121550  0.148360  1.0  -0.3538
  S  S391  1  0.455780  0.378450  0.148360  1.0  -0.3542
  S  S392  1  0.955780  0.878450  0.648360  1.0  -0.3542
  S  S393  1  0.128450  0.205780  0.898360  1.0  -0.3537
  S  S394  1  0.628450  0.705780  0.398360  1.0  -0.3537
  S  S395  1  0.371550  0.794220  0.398360  1.0  -0.354
  S  S396  1  0.871550  0.294220  0.898360  1.0  -0.354
  S  S397  1  0.544220  0.378450  0.648360  1.0  -0.354
  S  S398  1  0.044220  0.878450  0.148360  1.0  -0.354
  S  S399  1  0.955780  0.621550  0.148360  1.0  -0.3542
  S  S400  1  0.455780  0.121550  0.648360  1.0  -0.3542
  S  S401  1  0.371550  0.205780  0.101640  1.0  -0.3534
  S  S402  1  0.871550  0.705780  0.601640  1.0  -0.3534
  S  S403  1  0.128450  0.794220  0.601640  1.0  -0.3535
  S  S404  1  0.628450  0.294220  0.101640  1.0  -0.3535
  S  S405  1  0.955780  0.378450  0.351640  1.0  -0.3534
  S  S406  1  0.455780  0.878450  0.851640  1.0  -0.3534
  S  S407  1  0.544220  0.621550  0.851640  1.0  -0.3533
  S  S408  1  0.044220  0.121550  0.351640  1.0  -0.3533
  N  N409  1  0.028200  0.979500  0.085930  1.0  -0.2947
  N  N410  1  0.850300  0.041200  0.123490  1.0  -0.3933
  N  N411  1  0.151500  0.028500  0.998270  1.0  -0.2132
  N  N412  1  0.295300  0.028400  0.022500  1.0  -0.2066
  N  N413  1  0.528200  0.479500  0.585930  1.0  -0.2947
  N  N414  1  0.350300  0.541200  0.623490  1.0  -0.3933
  N  N415  1  0.651500  0.528500  0.498270  1.0  -0.2132
  N  N416  1  0.795300  0.528400  0.522500  1.0  -0.2066
  N  N417  1  0.471800  0.020500  0.585930  1.0  -0.2961
  N  N418  1  0.649700  0.958800  0.623490  1.0  -0.3916
  N  N419  1  0.348500  0.971500  0.498270  1.0  -0.2161
  N  N420  1  0.204700  0.971600  0.522500  1.0  -0.2051
  N  N421  1  0.971800  0.520500  0.085930  1.0  -0.2961
  N  N422  1  0.149700  0.458800  0.123490  1.0  -0.3916
  N  N423  1  0.848500  0.471500  0.998270  1.0  -0.2161
  N  N424  1  0.704700  0.471600  0.022500  1.0  -0.2051
  N  N425  1  0.270500  0.778200  0.335930  1.0  -0.2971
  N  N426  1  0.208800  0.600300  0.373490  1.0  -0.3982
  N  N427  1  0.221500  0.901500  0.248270  1.0  -0.2159
  N  N428  1  0.221600  0.045300  0.272500  1.0  -0.2059
  N  N429  1  0.770500  0.278200  0.835930  1.0  -0.2971
  N  N430  1  0.708800  0.100300  0.873490  1.0  -0.3982
  N  N431  1  0.721500  0.401500  0.748270  1.0  -0.2159
  N  N432  1  0.721600  0.545300  0.772500  1.0  -0.2059
  N  N433  1  0.229500  0.221800  0.835930  1.0  -0.2965
  N  N434  1  0.291200  0.399700  0.873490  1.0  -0.3952
  N  N435  1  0.278500  0.098500  0.748270  1.0  -0.2176
  N  N436  1  0.278400  0.954700  0.772500  1.0  -0.2069
  N  N437  1  0.729500  0.721800  0.335930  1.0  -0.2965
  N  N438  1  0.791200  0.899700  0.373490  1.0  -0.3952
  N  N439  1  0.778500  0.598500  0.248270  1.0  -0.2176
  N  N440  1  0.778400  0.454700  0.272500  1.0  -0.2069
  N  N441  1  0.471800  0.979500  0.914070  1.0  -0.2987
  N  N442  1  0.348500  0.028500  0.001730  1.0  -0.2168
  N  N443  1  0.204700  0.028400  0.977500  1.0  -0.2056
  N  N444  1  0.971800  0.479500  0.414070  1.0  -0.2987
  N  N445  1  0.848500  0.528500  0.501730  1.0  -0.2168
  N  N446  1  0.704700  0.528400  0.477500  1.0  -0.2056
  N  N447  1  0.028200  0.020500  0.414070  1.0  -0.2971
  N  N448  1  0.151500  0.971500  0.501730  1.0  -0.2128
  N  N449  1  0.295300  0.971600  0.477500  1.0  -0.2078
  N  N450  1  0.528200  0.520500  0.914070  1.0  -0.2971
  N  N451  1  0.651500  0.471500  0.001730  1.0  -0.2128
  N  N452  1  0.795300  0.471600  0.977500  1.0  -0.2078
  N  N453  1  0.229500  0.778200  0.664070  1.0  -0.3001
  N  N454  1  0.278500  0.901500  0.751730  1.0  -0.2155
  N  N455  1  0.278400  0.045300  0.727500  1.0  -0.2074
  N  N456  1  0.729500  0.278200  0.164070  1.0  -0.3001
  N  N457  1  0.778500  0.401500  0.251730  1.0  -0.2155
  N  N458  1  0.778400  0.545300  0.227500  1.0  -0.2074
  N  N459  1  0.270500  0.221800  0.164070  1.0  -0.2985
  N  N460  1  0.221500  0.098500  0.251730  1.0  -0.218
  N  N461  1  0.221600  0.954700  0.227500  1.0  -0.2074
  N  N462  1  0.770500  0.721800  0.664070  1.0  -0.2985
  N  N463  1  0.721500  0.598500  0.751730  1.0  -0.218
  N  N464  1  0.721600  0.454700  0.727500  1.0  -0.2074
  N  N465  1  0.971800  0.020500  0.914070  1.0  -0.2982
  N  N466  1  0.149700  0.958800  0.876510  1.0  -0.3916
  N  N467  1  0.848500  0.971500  0.001730  1.0  -0.216
  N  N468  1  0.704700  0.971600  0.977500  1.0  -0.2059
  N  N469  1  0.471800  0.520500  0.414070  1.0  -0.2982
  N  N470  1  0.649700  0.458800  0.376510  1.0  -0.3916
  N  N471  1  0.348500  0.471500  0.501730  1.0  -0.216
  N  N472  1  0.204700  0.471600  0.477500  1.0  -0.2059
  N  N473  1  0.528200  0.979500  0.414070  1.0  -0.2975
  N  N474  1  0.350300  0.041200  0.376510  1.0  -0.3928
  N  N475  1  0.651500  0.028500  0.501730  1.0  -0.2134
  N  N476  1  0.795300  0.028400  0.477500  1.0  -0.2077
  N  N477  1  0.028200  0.479500  0.914070  1.0  -0.2975
  N  N478  1  0.850300  0.541200  0.876510  1.0  -0.3928
  N  N479  1  0.151500  0.528500  0.001730  1.0  -0.2134
  N  N480  1  0.295300  0.528400  0.977500  1.0  -0.2077
  N  N481  1  0.729500  0.221800  0.664070  1.0  -0.2989
  N  N482  1  0.791200  0.399700  0.626510  1.0  -0.3954
  N  N483  1  0.778500  0.098500  0.751730  1.0  -0.2176
  N  N484  1  0.778400  0.954700  0.727500  1.0  -0.2084
  N  N485  1  0.229500  0.721800  0.164070  1.0  -0.2989
  N  N486  1  0.291200  0.899700  0.126510  1.0  -0.3954
  N  N487  1  0.278500  0.598500  0.251730  1.0  -0.2176
  N  N488  1  0.278400  0.454700  0.227500  1.0  -0.2084
  N  N489  1  0.770500  0.778200  0.164070  1.0  -0.2996
  N  N490  1  0.708800  0.600300  0.126510  1.0  -0.398
  N  N491  1  0.721500  0.901500  0.251730  1.0  -0.2159
  N  N492  1  0.721600  0.045300  0.227500  1.0  -0.2065
  N  N493  1  0.270500  0.278200  0.664070  1.0  -0.2996
  N  N494  1  0.208800  0.100300  0.626510  1.0  -0.398
  N  N495  1  0.221500  0.401500  0.751730  1.0  -0.2159
  N  N496  1  0.221600  0.545300  0.727500  1.0  -0.2065
  N  N497  1  0.528200  0.020500  0.085930  1.0  -0.2958
  N  N498  1  0.651500  0.971500  0.998270  1.0  -0.2131
  N  N499  1  0.795300  0.971600  0.022500  1.0  -0.2068
  N  N500  1  0.028200  0.520500  0.585930  1.0  -0.2958
  N  N501  1  0.151500  0.471500  0.498270  1.0  -0.2131
  N  N502  1  0.295300  0.471600  0.522500  1.0  -0.2068
  N  N503  1  0.971800  0.979500  0.585930  1.0  -0.2952
  N  N504  1  0.848500  0.028500  0.498270  1.0  -0.2164
  N  N505  1  0.704700  0.028400  0.522500  1.0  -0.2047
  N  N506  1  0.471800  0.479500  0.085930  1.0  -0.2952
  N  N507  1  0.348500  0.528500  0.998270  1.0  -0.2164
  N  N508  1  0.204700  0.528400  0.022500  1.0  -0.2047
  N  N509  1  0.770500  0.221800  0.335930  1.0  -0.2965
  N  N510  1  0.721500  0.098500  0.248270  1.0  -0.2176
  N  N511  1  0.721600  0.954700  0.272500  1.0  -0.206
  N  N512  1  0.270500  0.721800  0.835930  1.0  -0.2965
  N  N513  1  0.221500  0.598500  0.748270  1.0  -0.2176
  N  N514  1  0.221600  0.454700  0.772500  1.0  -0.206
  N  N515  1  0.729500  0.778200  0.835930  1.0  -0.2969
  N  N516  1  0.778500  0.901500  0.748270  1.0  -0.2158
  N  N517  1  0.778400  0.045300  0.772500  1.0  -0.2068
  N  N518  1  0.229500  0.278200  0.335930  1.0  -0.2969
  N  N519  1  0.278500  0.401500  0.248270  1.0  -0.2158
  N  N520  1  0.278400  0.545300  0.272500  1.0  -0.2068
