# generated using pymatgen
data_EuH14C24(NO3)2
_symmetry_space_group_name_H-M   'P 1'
_cell_length_a   12.60800000
_cell_length_b   14.21450000
_cell_length_c   14.89800000
_cell_angle_alpha   69.32100000
_cell_angle_beta   67.50300000
_cell_angle_gamma   78.32900000
_symmetry_Int_Tables_number   1
_chemical_formula_structural   EuH14C24(NO3)2
_chemical_formula_sum   'Eu4 H56 C96 N8 O24'
_cell_volume   2300.87560147
_cell_formula_units_Z   4
loop_
 _symmetry_equiv_pos_site_id
 _symmetry_equiv_pos_as_xyz
  1  'x, y, z'
loop_
 _atom_site_type_symbol
 _atom_site_label
 _atom_site_symmetry_multiplicity
 _atom_site_fract_x
 _atom_site_fract_y
 _atom_site_fract_z
 _atom_site_occupancy
 _atom_site_charge
  Eu  Eu1  1  0.435610  0.481580  0.403680  1.0  2.1388
  Eu  Eu2  1  0.948460  0.946140  0.907030  1.0  2.1561
  Eu  Eu3  1  0.564390  0.518420  0.596320  1.0  2.1385
  Eu  Eu4  1  0.051540  0.053860  0.092970  1.0  2.1604
  H  H5  1  0.691200  0.789900  0.197100  1.0  0.0829
  H  H6  1  0.193300  0.708200  0.215500  1.0  0.1053
  H  H7  1  0.456400  0.791800  0.470500  1.0  0.1071
  H  H8  1  0.674800  0.010500  0.313600  1.0  0.1037
  H  H9  1  0.202800  0.711700  0.715300  1.0  0.107
  H  H10  1  0.171700  0.720700  0.950100  1.0  0.106
  H  H11  1  0.379200  0.504400  0.073600  1.0  0.1128
  H  H12  1  0.297700  0.577300  0.947800  1.0  0.0967
  H  H13  1  0.027400  0.935400  0.562300  1.0  0.1077
  H  H14  1  0.514000  0.944900  0.450200  1.0  0.0982
  H  H15  1  0.591200  0.336900  0.251300  1.0  0.0734
  H  H16  1  0.766600  0.114300  0.788000  1.0  0.0712
  H  H17  1  0.105900  0.873100  0.424000  1.0  0.1043
  H  H18  1  0.827200  0.558600  0.124400  1.0  0.1183
  H  H19  1  0.033700  0.328300  0.716800  1.0  0.1048
  H  H20  1  0.125600  0.074500  0.566600  1.0  0.0983
  H  H21  1  0.598800  0.201800  0.196200  1.0  0.1041
  H  H22  1  0.176200  0.438700  0.611300  1.0  0.0842
  H  H23  1  0.941100  0.694800  0.034400  1.0  0.0713
  H  H24  1  0.030200  0.185900  0.677700  1.0  0.1212
  H  H25  1  0.220300  0.724200  0.436100  1.0  0.0974
  H  H26  1  0.642200  0.577800  0.121100  1.0  0.108
  H  H27  1  0.583100  0.147500  0.779700  1.0  0.1068
  H  H28  1  0.268300  0.043300  0.428800  1.0  0.1186
  H  H29  1  0.491000  0.685100  0.056500  1.0  0.0914
  H  H30  1  0.423300  0.838100  0.969600  1.0  0.109
  H  H31  1  0.446900  0.098100  0.277900  1.0  0.0942
  H  H32  1  0.459400  0.020000  0.858200  1.0  0.1196
  H  H33  1  0.308800  0.210100  0.802900  1.0  0.0838
  H  H34  1  0.806700  0.291800  0.784500  1.0  0.1055
  H  H35  1  0.543600  0.208200  0.529500  1.0  0.1067
  H  H36  1  0.325200  0.989500  0.686400  1.0  0.1032
  H  H37  1  0.797200  0.288300  0.284700  1.0  0.1075
  H  H38  1  0.828300  0.279300  0.049900  1.0  0.106
  H  H39  1  0.620800  0.495600  0.926400  1.0  0.1123
  H  H40  1  0.702300  0.422700  0.052200  1.0  0.0966
  H  H41  1  0.972600  0.064600  0.437700  1.0  0.1083
  H  H42  1  0.486000  0.055100  0.549800  1.0  0.0978
  H  H43  1  0.408800  0.663100  0.748700  1.0  0.0735
  H  H44  1  0.233400  0.885700  0.212000  1.0  0.0707
  H  H45  1  0.894100  0.126900  0.576000  1.0  0.1049
  H  H46  1  0.172800  0.441400  0.875600  1.0  0.1174
  H  H47  1  0.966300  0.671700  0.283200  1.0  0.104
  H  H48  1  0.874400  0.925500  0.433400  1.0  0.0981
  H  H49  1  0.401200  0.798200  0.803800  1.0  0.1042
  H  H50  1  0.823800  0.561300  0.388700  1.0  0.0851
  H  H51  1  0.058900  0.305200  0.965600  1.0  0.071
  H  H52  1  0.969800  0.814100  0.322300  1.0  0.121
  H  H53  1  0.779700  0.275800  0.563900  1.0  0.0972
  H  H54  1  0.357800  0.422200  0.878900  1.0  0.1084
  H  H55  1  0.416900  0.852500  0.220300  1.0  0.1062
  H  H56  1  0.731700  0.956700  0.571200  1.0  0.118
  H  H57  1  0.509000  0.314900  0.943500  1.0  0.0914
  H  H58  1  0.576700  0.161900  0.030400  1.0  0.1094
  H  H59  1  0.553100  0.901900  0.722100  1.0  0.0933
  H  H60  1  0.540600  0.980000  0.141800  1.0  0.1194
  C  C61  1  0.535400  0.672600  0.354900  1.0  0.7108
  C  C62  1  0.701400  0.906300  0.241300  1.0  -0.0823
  C  C63  1  0.799300  0.953100  0.150200  1.0  0.7239
  C  C64  1  0.172100  0.731300  0.081500  1.0  -0.1708
  C  C65  1  0.570000  0.773200  0.337500  1.0  -0.091
  C  C66  1  0.659400  0.818600  0.250000  1.0  -0.0891
  C  C67  1  0.294200  0.598600  0.158300  1.0  -0.1303
  C  C68  1  0.216300  0.683300  0.160400  1.0  -0.0358
  C  C69  1  0.302900  0.607700  0.580400  1.0  0.6924
  C  C70  1  0.105200  0.828600  0.653000  1.0  -0.1579
  C  C71  1  0.096400  0.827100  0.080500  1.0  0.7048
  C  C72  1  0.516600  0.820800  0.412600  1.0  -0.0814
  C  C73  1  0.052000  0.869700  0.742300  1.0  0.6862
  C  C74  1  0.647400  0.952300  0.318200  1.0  -0.0596
  C  C75  1  0.344000  0.553100  0.241800  1.0  0.7012
  C  C76  1  0.181100  0.742600  0.657900  1.0  -0.0073
  C  C77  1  0.264400  0.275500  0.496700  1.0  0.1528
  C  C78  1  0.202300  0.690600  0.002300  1.0  -0.0445
  C  C79  1  0.326100  0.560100  0.076700  1.0  -0.0702
  C  C80  1  0.278600  0.604700  0.000700  1.0  -0.0878
  C  C81  1  0.356900  0.252600  0.413000  1.0  0.1436
  C  C82  1  0.224600  0.702700  0.576700  1.0  -0.1895
  C  C83  1  0.680700  0.900200  0.923100  1.0  0.1494
  C  C84  1  0.647600  0.723700  0.030300  1.0  -0.0073
  C  C85  1  0.723100  0.803500  0.978500  1.0  0.117
  C  C86  1  0.077100  0.877100  0.565800  1.0  -0.0273
  C  C87  1  0.552800  0.911400  0.401700  1.0  -0.0899
  C  C88  1  0.177300  0.206900  0.555100  1.0  0.0334
  C  C89  1  0.531300  0.294600  0.285600  1.0  0.1897
  C  C90  1  0.568600  0.914000  0.919700  1.0  0.032
  C  C91  1  0.716400  0.063300  0.822800  1.0  0.1887
  C  C92  1  0.122900  0.839100  0.483400  1.0  -0.1081
  C  C93  1  0.798500  0.619400  0.088000  1.0  -0.1527
  C  C94  1  0.356000  0.167600  0.385300  1.0  0.0211
  C  C95  1  0.090500  0.313800  0.660300  1.0  -0.1099
  C  C96  1  0.182300  0.119600  0.527400  1.0  -0.1403
  C  C97  1  0.536600  0.213500  0.251100  1.0  -0.1025
  C  C98  1  0.178900  0.379500  0.597100  1.0  0.1675
  C  C99  1  0.866600  0.702900  0.033200  1.0  0.1752
  C  C100  1  0.089200  0.228700  0.638000  1.0  -0.1793
  C  C101  1  0.193300  0.751500  0.489900  1.0  -0.0277
  C  C102  1  0.689200  0.631200  0.085800  1.0  -0.1095
  C  C103  1  0.606100  0.083700  0.816000  1.0  -0.1463
  C  C104  1  0.267600  0.100600  0.445700  1.0  -0.1576
  C  C105  1  0.538100  0.738500  0.024200  1.0  -0.1059
  C  C106  1  0.497500  0.830200  0.971700  1.0  -0.1115
  C  C107  1  0.446700  0.151100  0.300800  1.0  -0.0239
  C  C108  1  0.532400  0.008600  0.863300  1.0  0.0011
  C  C109  1  0.464600  0.327400  0.645100  1.0  0.7111
  C  C110  1  0.298600  0.093700  0.758700  1.0  -0.0846
  C  C111  1  0.200700  0.046900  0.849800  1.0  0.7236
  C  C112  1  0.827900  0.268700  0.918500  1.0  -0.1711
  C  C113  1  0.430000  0.226800  0.662500  1.0  -0.0909
  C  C114  1  0.340600  0.181400  0.750000  1.0  -0.0912
  C  C115  1  0.705800  0.401400  0.841700  1.0  -0.1289
  C  C116  1  0.783700  0.316700  0.839600  1.0  -0.0372
  C  C117  1  0.697100  0.392300  0.419600  1.0  0.6922
  C  C118  1  0.894800  0.171400  0.347000  1.0  -0.1556
  C  C119  1  0.903600  0.172900  0.919500  1.0  0.7052
  C  C120  1  0.483400  0.179200  0.587400  1.0  -0.0831
  C  C121  1  0.948000  0.130300  0.257700  1.0  0.686
  C  C122  1  0.352600  0.047700  0.681800  1.0  -0.0567
  C  C123  1  0.656000  0.446900  0.758200  1.0  0.7012
  C  C124  1  0.818900  0.257400  0.342100  1.0  -0.0074
  C  C125  1  0.735600  0.724500  0.503300  1.0  0.1538
  C  C126  1  0.797700  0.309400  0.997700  1.0  -0.0444
  C  C127  1  0.673900  0.439900  0.923300  1.0  -0.07
  C  C128  1  0.721400  0.395300  0.999300  1.0  -0.089
  C  C129  1  0.643100  0.747400  0.587000  1.0  0.1429
  C  C130  1  0.775400  0.297300  0.423300  1.0  -0.1882
  C  C131  1  0.319300  0.099800  0.076900  1.0  0.1476
  C  C132  1  0.352400  0.276300  0.969700  1.0  -0.0082
  C  C133  1  0.276900  0.196500  0.021500  1.0  0.1168
  C  C134  1  0.922900  0.122900  0.434200  1.0  -0.027
  C  C135  1  0.447200  0.088600  0.598300  1.0  -0.0914
  C  C136  1  0.822700  0.793100  0.444900  1.0  0.0355
  C  C137  1  0.468700  0.705400  0.714400  1.0  0.1893
  C  C138  1  0.431400  0.086000  0.080300  1.0  0.0316
  C  C139  1  0.283600  0.936700  0.177200  1.0  0.1895
  C  C140  1  0.877100  0.160900  0.516600  1.0  -0.1079
  C  C141  1  0.201500  0.380600  0.912000  1.0  -0.152
  C  C142  1  0.644000  0.832400  0.614700  1.0  0.0228
  C  C143  1  0.909500  0.686200  0.339700  1.0  -0.111
  C  C144  1  0.817700  0.880400  0.472600  1.0  -0.1404
  C  C145  1  0.463400  0.786500  0.748900  1.0  -0.1014
  C  C146  1  0.821100  0.620500  0.402900  1.0  0.1654
  C  C147  1  0.133400  0.297100  0.966800  1.0  0.1758
  C  C148  1  0.910800  0.771300  0.362000  1.0  -0.1806
  C  C149  1  0.806700  0.248500  0.510100  1.0  -0.0273
  C  C150  1  0.310800  0.368800  0.914200  1.0  -0.1112
  C  C151  1  0.393900  0.916300  0.184000  1.0  -0.1441
  C  C152  1  0.732400  0.899400  0.554300  1.0  -0.157
  C  C153  1  0.461900  0.261500  0.975800  1.0  -0.1049
  C  C154  1  0.502500  0.169800  0.028300  1.0  -0.1124
  C  C155  1  0.553300  0.848900  0.699200  1.0  -0.0228
  C  C156  1  0.467600  0.991400  0.136700  1.0  -0.0036
  N  N157  1  0.265900  0.360800  0.517900  1.0  -0.465
  N  N158  1  0.753400  0.975900  0.875800  1.0  -0.4024
  N  N159  1  0.831400  0.791900  0.980300  1.0  -0.4066
  N  N160  1  0.446200  0.314600  0.363900  1.0  -0.4266
  N  N161  1  0.734100  0.639200  0.482100  1.0  -0.464
  N  N162  1  0.246600  0.024100  0.124200  1.0  -0.4033
  N  N163  1  0.168600  0.208100  0.019700  1.0  -0.4093
  N  N164  1  0.553800  0.685400  0.636100  1.0  -0.4249
  O  O165  1  0.443600  0.509400  0.222000  1.0  -0.6533
  O  O166  1  0.070400  0.820900  0.823900  1.0  -0.6644
  O  O167  1  0.529700  0.605600  0.440100  1.0  -0.822
  O  O168  1  0.805200  0.952800  0.064700  1.0  -0.7027
  O  O169  1  0.871300  0.988600  0.167300  1.0  -0.6974
  O  O170  1  0.362700  0.581300  0.638000  1.0  -0.6723
  O  O171  1  0.307200  0.562300  0.520500  1.0  -0.6602
  O  O172  1  0.991000  0.952900  0.731400  1.0  -0.6075
  O  O173  1  0.035200  0.854500  0.024800  1.0  -0.7253
  O  O174  1  0.508100  0.655500  0.291200  1.0  -0.6112
  O  O175  1  0.287700  0.561000  0.328700  1.0  -0.626
  O  O176  1  0.100300  0.877400  0.133500  1.0  -0.6683
  O  O177  1  0.556400  0.490600  0.778000  1.0  -0.654
  O  O178  1  0.929600  0.179100  0.176100  1.0  -0.6624
  O  O179  1  0.470300  0.394400  0.559900  1.0  -0.8218
  O  O180  1  0.194800  0.047200  0.935300  1.0  -0.7028
  O  O181  1  0.128700  0.011400  0.832700  1.0  -0.6962
  O  O182  1  0.637300  0.418700  0.362000  1.0  -0.6718
  O  O183  1  0.692800  0.437700  0.479500  1.0  -0.6593
  O  O184  1  0.009000  0.047100  0.268600  1.0  -0.6087
  O  O185  1  0.964800  0.145500  0.975200  1.0  -0.7248
  O  O186  1  0.491900  0.344500  0.708800  1.0  -0.6113
  O  O187  1  0.712300  0.439000  0.671300  1.0  -0.6261
  O  O188  1  0.899700  0.122600  0.866500  1.0  -0.6687
