# generated using pymatgen
data_Zn2H7(C3O2)6
_symmetry_space_group_name_H-M   'P 1'
_cell_length_a   7.83340000
_cell_length_b   17.27630000
_cell_length_c   9.44500000
_cell_angle_alpha   90.00000000
_cell_angle_beta   100.47500000
_cell_angle_gamma   90.00000000
_symmetry_Int_Tables_number   1
_chemical_formula_structural   Zn2H7(C3O2)6
_chemical_formula_sum   'Zn4 H14 C36 O24'
_cell_volume   1256.91006482
_cell_formula_units_Z   2
loop_
 _symmetry_equiv_pos_site_id
 _symmetry_equiv_pos_as_xyz
  1  'x, y, z'
loop_
 _atom_site_type_symbol
 _atom_site_label
 _atom_site_symmetry_multiplicity
 _atom_site_fract_x
 _atom_site_fract_y
 _atom_site_fract_z
 _atom_site_occupancy
 _atom_site_charge
  Zn  Zn1  1  0.388620  0.326160  0.262300  1.0  1.0714
  Zn  Zn2  1  0.768050  0.250550  0.489810  1.0  1.1191
  Zn  Zn3  1  0.611380  0.826160  0.737700  1.0  1.0685
  Zn  Zn4  1  0.231950  0.750550  0.510190  1.0  1.1142
  H  H5  1  0.291100  0.872700  0.179700  1.0  0.1279
  H  H6  1  0.258800  0.102700  0.086300  1.0  0.1269
  H  H7  1  0.984200  0.554500  0.565900  1.0  0.1279
  H  H8  1  0.146500  0.362200  0.799200  1.0  0.1274
  H  H9  1  0.276700  0.574800  0.963700  1.0  0.1227
  H  H10  1  0.553300  0.028200  0.459500  1.0  0.1271
  H  H11  1  0.010000  0.017900  0.829900  1.0  0.3958
  H  H12  1  0.708900  0.372700  0.820300  1.0  0.1275
  H  H13  1  0.741200  0.602700  0.913700  1.0  0.1265
  H  H14  1  0.015800  0.054500  0.434100  1.0  0.1284
  H  H15  1  0.853500  0.862200  0.200800  1.0  0.1274
  H  H16  1  0.723300  0.074800  0.036300  1.0  0.1224
  H  H17  1  0.446700  0.528200  0.540500  1.0  0.1258
  H  H18  1  0.990000  0.517900  0.170100  1.0  0.3957
  C  C19  1  0.427100  0.941010  0.336800  1.0  -0.1388
  C  C20  1  0.321700  0.924680  0.205200  1.0  0.0044
  C  C21  1  0.130200  0.664220  0.746400  1.0  0.7053
  C  C22  1  0.414800  0.077040  0.278600  1.0  -0.113
  C  C23  1  0.304400  0.061560  0.148700  1.0  -0.0301
  C  C24  1  0.051100  0.450760  0.664300  1.0  -0.1157
  C  C25  1  0.226100  0.462940  0.901700  1.0  -0.1193
  C  C26  1  0.046200  0.531270  0.651100  1.0  0.01
  C  C27  1  0.142100  0.416970  0.790100  1.0  -0.0118
  C  C28  1  0.219800  0.543270  0.887100  1.0  0.004
  C  C29  1  0.310500  0.427100  0.041900  1.0  0.7022
  C  C30  1  0.261300  0.984530  0.111000  1.0  -0.1323
  C  C31  1  0.476800  0.017290  0.371700  1.0  0.0012
  C  C32  1  0.131800  0.577780  0.762300  1.0  -0.121
  C  C33  1  0.466100  0.158940  0.319000  1.0  0.7161
  C  C34  1  0.950300  0.400540  0.548700  1.0  0.7378
  C  C35  1  0.142800  0.967570  0.972800  1.0  0.6815
  C  C36  1  0.475600  0.877850  0.446900  1.0  0.7231
  C  C37  1  0.572900  0.441010  0.663200  1.0  -0.1403
  C  C38  1  0.678300  0.424680  0.794800  1.0  0.0053
  C  C39  1  0.869800  0.164220  0.253600  1.0  0.7041
  C  C40  1  0.585200  0.577040  0.721400  1.0  -0.1132
  C  C41  1  0.695600  0.561560  0.851300  1.0  -0.0285
  C  C42  1  0.948900  0.950760  0.335700  1.0  -0.1154
  C  C43  1  0.773900  0.962940  0.098300  1.0  -0.12
  C  C44  1  0.953800  0.031270  0.348900  1.0  0.0091
  C  C45  1  0.857900  0.916970  0.209900  1.0  -0.0122
  C  C46  1  0.780200  0.043270  0.112900  1.0  0.0046
  C  C47  1  0.689500  0.927100  0.958100  1.0  0.7024
  C  C48  1  0.738700  0.484530  0.889000  1.0  -0.1316
  C  C49  1  0.523200  0.517290  0.628300  1.0  0.0011
  C  C50  1  0.868200  0.077780  0.237700  1.0  -0.1209
  C  C51  1  0.533900  0.658940  0.681000  1.0  0.7177
  C  C52  1  0.049700  0.900540  0.451300  1.0  0.7371
  C  C53  1  0.857200  0.467570  0.027200  1.0  0.6797
  C  C54  1  0.524400  0.377850  0.553100  1.0  0.7223
  O  O55  1  0.944400  0.329060  0.576800  1.0  -0.629
  O  O56  1  0.587100  0.167610  0.424300  1.0  -0.6087
  O  O57  1  0.569300  0.896200  0.566200  1.0  -0.5921
  O  O58  1  0.197900  0.704540  0.853900  1.0  -0.5562
  O  O59  1  0.417000  0.811180  0.415200  1.0  -0.6151
  O  O60  1  0.383700  0.212110  0.244500  1.0  -0.6232
  O  O61  1  0.879000  0.431290  0.431900  1.0  -0.5132
  O  O62  1  0.075900  0.030150  0.907100  1.0  -0.5186
  O  O63  1  0.108700  0.902080  0.928700  1.0  -0.491
  O  O64  1  0.317900  0.354550  0.052200  1.0  -0.5724
  O  O65  1  0.364800  0.470370  0.145600  1.0  -0.5209
  O  O66  1  0.062900  0.693520  0.624900  1.0  -0.604
  O  O67  1  0.055600  0.829060  0.423200  1.0  -0.6295
  O  O68  1  0.412900  0.667610  0.575700  1.0  -0.6084
  O  O69  1  0.430700  0.396200  0.433800  1.0  -0.5926
  O  O70  1  0.802100  0.204540  0.146100  1.0  -0.5564
  O  O71  1  0.583000  0.311180  0.584800  1.0  -0.614
  O  O72  1  0.616300  0.712110  0.755500  1.0  -0.6224
  O  O73  1  0.121000  0.931290  0.568100  1.0  -0.5146
  O  O74  1  0.924100  0.530150  0.092900  1.0  -0.5182
  O  O75  1  0.891300  0.402080  0.071300  1.0  -0.4913
  O  O76  1  0.682100  0.854550  0.947800  1.0  -0.5722
  O  O77  1  0.635200  0.970370  0.854400  1.0  -0.5204
  O  O78  1  0.937100  0.193520  0.375100  1.0  -0.6025
