# generated using pymatgen
data_CdH36(C4N)12
_symmetry_space_group_name_H-M   'P 1'
_cell_length_a   15.93330000
_cell_length_b   15.93330000
_cell_length_c   21.13120000
_cell_angle_alpha   90.00000000
_cell_angle_beta   90.00000000
_cell_angle_gamma   90.00000000
_symmetry_Int_Tables_number   1
_chemical_formula_structural   CdH36(C4N)12
_chemical_formula_sum   'Cd4 H144 C192 N48'
_cell_volume   5364.57877710
_cell_formula_units_Z   4
loop_
 _symmetry_equiv_pos_site_id
 _symmetry_equiv_pos_as_xyz
  1  'x, y, z'
loop_
 _atom_site_type_symbol
 _atom_site_label
 _atom_site_symmetry_multiplicity
 _atom_site_fract_x
 _atom_site_fract_y
 _atom_site_fract_z
 _atom_site_occupancy
 _atom_site_charge
  Cd  Cd1  1  0.939770  0.939770  0.000000  1.0  0.8196
  Cd  Cd2  1  0.060230  0.060230  0.500000  1.0  0.819
  Cd  Cd3  1  0.560230  0.439770  0.750000  1.0  0.8191
  Cd  Cd4  1  0.439770  0.560230  0.250000  1.0  0.8195
  H  H5  1  0.340300  0.437900  0.157400  1.0  0.0662
  H  H6  1  0.257500  0.496600  0.325900  1.0  0.056
  H  H7  1  0.149200  0.405800  0.315200  1.0  0.1041
  H  H8  1  0.235800  0.345300  0.143800  1.0  0.1029
  H  H9  1  0.028700  0.344900  0.285700  1.0  0.0988
  H  H10  1  0.929200  0.244900  0.275600  1.0  0.0871
  H  H11  1  0.947600  0.129900  0.208200  1.0  0.1084
  H  H12  1  0.172000  0.223000  0.159400  1.0  0.0902
  H  H13  1  0.198100  0.010200  0.957500  1.0  0.1
  H  H14  1  0.301000  0.924300  0.914100  1.0  0.086
  H  H15  1  0.345500  0.805700  0.966400  1.0  0.075
  H  H16  1  0.192100  0.859000  0.110600  1.0  0.1084
  H  H17  1  0.210000  0.739700  0.145100  1.0  0.1231
  H  H18  1  0.269200  0.637100  0.208300  1.0  0.0554
  H  H19  1  0.459900  0.615800  0.095500  1.0  0.0718
  H  H20  1  0.405200  0.717300  0.029500  1.0  0.0933
  H  H21  1  0.255700  0.037200  0.137900  1.0  0.3061
  H  H22  1  0.250300  0.111500  0.098200  1.0  0.3116
  H  H23  1  0.659700  0.562100  0.657400  1.0  0.0662
  H  H24  1  0.742500  0.503400  0.825900  1.0  0.056
  H  H25  1  0.850800  0.594200  0.815200  1.0  0.1042
  H  H26  1  0.764200  0.654700  0.643800  1.0  0.103
  H  H27  1  0.971300  0.655100  0.785700  1.0  0.0989
  H  H28  1  0.070800  0.755100  0.775600  1.0  0.0876
  H  H29  1  0.052400  0.870100  0.708200  1.0  0.1077
  H  H30  1  0.828000  0.777000  0.659400  1.0  0.0906
  H  H31  1  0.801900  0.989800  0.457500  1.0  0.099
  H  H32  1  0.699000  0.075700  0.414100  1.0  0.0859
  H  H33  1  0.654500  0.194300  0.466400  1.0  0.0745
  H  H34  1  0.807900  0.141000  0.610600  1.0  0.1086
  H  H35  1  0.790000  0.260300  0.645100  1.0  0.1231
  H  H36  1  0.730800  0.362900  0.708300  1.0  0.056
  H  H37  1  0.540100  0.384200  0.595500  1.0  0.0711
  H  H38  1  0.594800  0.282700  0.529500  1.0  0.0915
  H  H39  1  0.744300  0.962800  0.637900  1.0  0.307
  H  H40  1  0.749700  0.888500  0.598200  1.0  0.3111
  H  H41  1  0.062100  0.840300  0.907400  1.0  0.0663
  H  H42  1  0.003400  0.757500  0.075900  1.0  0.0563
  H  H43  1  0.094200  0.649200  0.065200  1.0  0.1036
  H  H44  1  0.154700  0.735800  0.893800  1.0  0.1022
  H  H45  1  0.155100  0.528700  0.035700  1.0  0.099
  H  H46  1  0.255100  0.429200  0.025600  1.0  0.0875
  H  H47  1  0.370100  0.447600  0.958200  1.0  0.108
  H  H48  1  0.277000  0.672000  0.909400  1.0  0.091
  H  H49  1  0.489800  0.698100  0.707500  1.0  0.0984
  H  H50  1  0.575700  0.801000  0.664100  1.0  0.0863
  H  H51  1  0.694300  0.845500  0.716400  1.0  0.0758
  H  H52  1  0.641000  0.692100  0.860600  1.0  0.1087
  H  H53  1  0.760300  0.710000  0.895100  1.0  0.1229
  H  H54  1  0.862900  0.769200  0.958300  1.0  0.0551
  H  H55  1  0.884200  0.959900  0.845500  1.0  0.0709
  H  H56  1  0.782700  0.905200  0.779500  1.0  0.0939
  H  H57  1  0.462800  0.755700  0.887900  1.0  0.3076
  H  H58  1  0.388500  0.750300  0.848200  1.0  0.3108
  H  H59  1  0.937900  0.159700  0.407400  1.0  0.0668
  H  H60  1  0.996600  0.242500  0.575900  1.0  0.0567
  H  H61  1  0.905800  0.350800  0.565200  1.0  0.103
  H  H62  1  0.845300  0.264200  0.393800  1.0  0.1025
  H  H63  1  0.844900  0.471300  0.535700  1.0  0.0996
  H  H64  1  0.744900  0.570800  0.525600  1.0  0.0869
  H  H65  1  0.629900  0.552400  0.458200  1.0  0.1081
  H  H66  1  0.723000  0.328000  0.409400  1.0  0.0907
  H  H67  1  0.510200  0.301900  0.207500  1.0  0.0984
  H  H68  1  0.424300  0.199000  0.164100  1.0  0.0867
  H  H69  1  0.305700  0.154500  0.216400  1.0  0.0756
  H  H70  1  0.359000  0.307900  0.360600  1.0  0.1079
  H  H71  1  0.239700  0.290000  0.395100  1.0  0.1229
  H  H72  1  0.137100  0.230800  0.458300  1.0  0.0547
  H  H73  1  0.115800  0.040100  0.345500  1.0  0.0704
  H  H74  1  0.217300  0.094800  0.279500  1.0  0.0936
  H  H75  1  0.537200  0.244300  0.387900  1.0  0.3081
  H  H76  1  0.611500  0.249700  0.348200  1.0  0.3119
  H  H77  1  0.159700  0.937900  0.592600  1.0  0.0661
  H  H78  1  0.242500  0.996600  0.424100  1.0  0.0549
  H  H79  1  0.350800  0.905800  0.434800  1.0  0.1041
  H  H80  1  0.264200  0.845300  0.606200  1.0  0.1023
  H  H81  1  0.471300  0.844900  0.464300  1.0  0.0995
  H  H82  1  0.570800  0.744900  0.474400  1.0  0.0872
  H  H83  1  0.552400  0.629900  0.541800  1.0  0.1081
  H  H84  1  0.328000  0.723000  0.590600  1.0  0.0909
  H  H85  1  0.301900  0.510200  0.792500  1.0  0.0991
  H  H86  1  0.199000  0.424300  0.835900  1.0  0.0858
  H  H87  1  0.154500  0.305700  0.783600  1.0  0.0746
  H  H88  1  0.307900  0.359000  0.639400  1.0  0.1088
  H  H89  1  0.290000  0.239700  0.604900  1.0  0.1226
  H  H90  1  0.230800  0.137100  0.541700  1.0  0.0561
  H  H91  1  0.040100  0.115800  0.654500  1.0  0.0706
  H  H92  1  0.094800  0.217300  0.720500  1.0  0.0919
  H  H93  1  0.244300  0.537200  0.612100  1.0  0.3073
  H  H94  1  0.249700  0.611500  0.651800  1.0  0.3114
  H  H95  1  0.840300  0.062100  0.092600  1.0  0.0663
  H  H96  1  0.757500  0.003400  0.924100  1.0  0.0549
  H  H97  1  0.649200  0.094200  0.934800  1.0  0.1032
  H  H98  1  0.735800  0.154700  0.106200  1.0  0.1024
  H  H99  1  0.528700  0.155100  0.964300  1.0  0.0992
  H  H100  1  0.429200  0.255100  0.974400  1.0  0.0868
  H  H101  1  0.447600  0.370100  0.041800  1.0  0.1084
  H  H102  1  0.672000  0.277000  0.090600  1.0  0.0909
  H  H103  1  0.698100  0.489800  0.292500  1.0  0.0995
  H  H104  1  0.801000  0.575700  0.335900  1.0  0.0855
  H  H105  1  0.845500  0.694300  0.283600  1.0  0.0751
  H  H106  1  0.692100  0.641000  0.139400  1.0  0.1089
  H  H107  1  0.710000  0.760300  0.104900  1.0  0.122
  H  H108  1  0.769200  0.862900  0.041700  1.0  0.0547
  H  H109  1  0.959900  0.884200  0.154500  1.0  0.0716
  H  H110  1  0.905200  0.782700  0.220500  1.0  0.0927
  H  H111  1  0.755700  0.462800  0.112100  1.0  0.3055
  H  H112  1  0.750300  0.388500  0.151800  1.0  0.3113
  H  H113  1  0.437900  0.340300  0.842600  1.0  0.0662
  H  H114  1  0.496600  0.257500  0.674100  1.0  0.0552
  H  H115  1  0.405800  0.149200  0.684800  1.0  0.1031
  H  H116  1  0.345300  0.235800  0.856200  1.0  0.1018
  H  H117  1  0.344900  0.028700  0.714300  1.0  0.1
  H  H118  1  0.244900  0.929200  0.724400  1.0  0.0869
  H  H119  1  0.129900  0.947600  0.791800  1.0  0.1081
  H  H120  1  0.223000  0.172000  0.840600  1.0  0.0909
  H  H121  1  0.010200  0.198100  0.042500  1.0  0.098
  H  H122  1  0.924300  0.301000  0.085900  1.0  0.0861
  H  H123  1  0.805700  0.345500  0.033600  1.0  0.0761
  H  H124  1  0.859000  0.192100  0.889400  1.0  0.1092
  H  H125  1  0.739700  0.210000  0.854900  1.0  0.1221
  H  H126  1  0.637100  0.269200  0.791700  1.0  0.0548
  H  H127  1  0.615800  0.459900  0.904500  1.0  0.0706
  H  H128  1  0.717300  0.405200  0.970500  1.0  0.0935
  H  H129  1  0.037200  0.255700  0.862100  1.0  0.3075
  H  H130  1  0.111500  0.250300  0.901800  1.0  0.3111
  H  H131  1  0.562100  0.659700  0.342600  1.0  0.0667
  H  H132  1  0.503400  0.742500  0.174100  1.0  0.0547
  H  H133  1  0.594200  0.850800  0.184800  1.0  0.103
  H  H134  1  0.654700  0.764200  0.356200  1.0  0.1023
  H  H135  1  0.655100  0.971300  0.214300  1.0  0.0994
  H  H136  1  0.755100  0.070800  0.224400  1.0  0.0871
  H  H137  1  0.870100  0.052400  0.291800  1.0  0.1078
  H  H138  1  0.777000  0.828000  0.340600  1.0  0.0914
  H  H139  1  0.989800  0.801900  0.542500  1.0  0.0987
  H  H140  1  0.075700  0.699000  0.585900  1.0  0.0865
  H  H141  1  0.194300  0.654500  0.533600  1.0  0.0756
  H  H142  1  0.141000  0.807900  0.389400  1.0  0.1082
  H  H143  1  0.260300  0.790000  0.354900  1.0  0.1223
  H  H144  1  0.362900  0.730800  0.291700  1.0  0.0544
  H  H145  1  0.384200  0.540100  0.404500  1.0  0.0713
  H  H146  1  0.282700  0.594800  0.470500  1.0  0.0939
  H  H147  1  0.962800  0.744300  0.362100  1.0  0.3074
  H  H148  1  0.888500  0.749700  0.401800  1.0  0.3116
  C  C149  1  0.301900  0.430600  0.190000  1.0  0.1521
  C  C150  1  0.253400  0.465300  0.288800  1.0  0.1489
  C  C151  1  0.188100  0.410400  0.282600  1.0  -0.1892
  C  C152  1  0.178200  0.360700  0.228300  1.0  0.0814
  C  C153  1  0.238900  0.374900  0.181600  1.0  -0.2031
  C  C154  1  0.112200  0.296400  0.222300  1.0  0.0221
  C  C155  1  0.037300  0.300400  0.258000  1.0  -0.1475
  C  C156  1  0.978400  0.240300  0.252100  1.0  -0.1042
  C  C157  1  0.988800  0.171000  0.211700  1.0  -0.1536
  C  C158  1  0.063300  0.166300  0.177200  1.0  -0.0702
  C  C159  1  0.122800  0.227600  0.182800  1.0  -0.1126
  C  C160  1  0.071200  0.094100  0.133700  1.0  0.2468
  C  C161  1  0.123100  0.996700  0.070200  1.0  0.2201
  C  C162  1  0.184700  0.942500  0.039500  1.0  -0.0124
  C  C163  1  0.217100  0.963100  0.979300  1.0  -0.1423
  C  C164  1  0.278200  0.911200  0.953400  1.0  -0.0973
  C  C165  1  0.305700  0.840300  0.985200  1.0  -0.1196
  C  C166  1  0.274600  0.820000  0.044900  1.0  -0.0036
  C  C167  1  0.213800  0.871900  0.070900  1.0  -0.1344
  C  C168  1  0.305900  0.746400  0.081000  1.0  0.0728
  C  C169  1  0.262300  0.717500  0.134800  1.0  -0.2478
  C  C170  1  0.298600  0.654800  0.172700  1.0  0.1559
  C  C171  1  0.410100  0.642200  0.106700  1.0  0.118
  C  C172  1  0.377200  0.704500  0.066800  1.0  -0.1303
  C  C173  1  0.698100  0.569400  0.690000  1.0  0.1514
  C  C174  1  0.746600  0.534700  0.788800  1.0  0.1496
  C  C175  1  0.811900  0.589600  0.782600  1.0  -0.1901
  C  C176  1  0.821800  0.639300  0.728300  1.0  0.0807
  C  C177  1  0.761100  0.625100  0.681600  1.0  -0.2034
  C  C178  1  0.887800  0.703600  0.722300  1.0  0.0231
  C  C179  1  0.962700  0.699600  0.758000  1.0  -0.1462
  C  C180  1  0.021600  0.759700  0.752100  1.0  -0.1036
  C  C181  1  0.011200  0.829000  0.711700  1.0  -0.1558
  C  C182  1  0.936700  0.833700  0.677200  1.0  -0.0711
  C  C183  1  0.877200  0.772400  0.682800  1.0  -0.112
  C  C184  1  0.928800  0.905900  0.633700  1.0  0.2466
  C  C185  1  0.876900  0.003300  0.570200  1.0  0.2201
  C  C186  1  0.815300  0.057500  0.539500  1.0  -0.0142
  C  C187  1  0.782900  0.036900  0.479300  1.0  -0.1434
  C  C188  1  0.721800  0.088800  0.453400  1.0  -0.0989
  C  C189  1  0.694300  0.159700  0.485200  1.0  -0.1188
  C  C190  1  0.725400  0.180000  0.544900  1.0  -0.0032
  C  C191  1  0.786200  0.128100  0.570900  1.0  -0.1349
  C  C192  1  0.694100  0.253600  0.581000  1.0  0.0728
  C  C193  1  0.737700  0.282500  0.634800  1.0  -0.2483
  C  C194  1  0.701400  0.345200  0.672700  1.0  0.1558
  C  C195  1  0.589900  0.357800  0.606700  1.0  0.1188
  C  C196  1  0.622800  0.295500  0.566800  1.0  -0.1296
  C  C197  1  0.069400  0.801900  0.940000  1.0  0.1504
  C  C198  1  0.034700  0.753400  0.038800  1.0  0.147
  C  C199  1  0.089600  0.688100  0.032600  1.0  -0.1892
  C  C200  1  0.139300  0.678200  0.978300  1.0  0.081
  C  C201  1  0.125100  0.738900  0.931600  1.0  -0.2045
  C  C202  1  0.203600  0.612200  0.972300  1.0  0.0229
  C  C203  1  0.199600  0.537300  0.008000  1.0  -0.1472
  C  C204  1  0.259700  0.478400  0.002100  1.0  -0.1025
  C  C205  1  0.329000  0.488800  0.961700  1.0  -0.1583
  C  C206  1  0.333700  0.563300  0.927200  1.0  -0.0694
  C  C207  1  0.272400  0.622800  0.932800  1.0  -0.111
  C  C208  1  0.405900  0.571200  0.883700  1.0  0.246
  C  C209  1  0.503300  0.623100  0.820200  1.0  0.221
  C  C210  1  0.557500  0.684700  0.789500  1.0  -0.0127
  C  C211  1  0.536900  0.717100  0.729300  1.0  -0.1424
  C  C212  1  0.588800  0.778200  0.703400  1.0  -0.0981
  C  C213  1  0.659700  0.805700  0.735200  1.0  -0.1209
  C  C214  1  0.680000  0.774600  0.794900  1.0  -0.0046
  C  C215  1  0.628100  0.713800  0.820900  1.0  -0.1351
  C  C216  1  0.753600  0.805900  0.831000  1.0  0.0719
  C  C217  1  0.782500  0.762300  0.884800  1.0  -0.2493
  C  C218  1  0.845200  0.798600  0.922700  1.0  0.1542
  C  C219  1  0.857800  0.910100  0.856700  1.0  0.116
  C  C220  1  0.795500  0.877200  0.816800  1.0  -0.132
  C  C221  1  0.930600  0.198100  0.440000  1.0  0.1508
  C  C222  1  0.965300  0.246600  0.538800  1.0  0.1473
  C  C223  1  0.910400  0.311900  0.532600  1.0  -0.1893
  C  C224  1  0.860700  0.321800  0.478300  1.0  0.0805
  C  C225  1  0.874900  0.261100  0.431600  1.0  -0.2049
  C  C226  1  0.796400  0.387800  0.472300  1.0  0.0225
  C  C227  1  0.800400  0.462700  0.508000  1.0  -0.1469
  C  C228  1  0.740300  0.521600  0.502100  1.0  -0.102
  C  C229  1  0.671000  0.511200  0.461700  1.0  -0.1576
  C  C230  1  0.666300  0.436700  0.427200  1.0  -0.069
  C  C231  1  0.727600  0.377200  0.432800  1.0  -0.1104
  C  C232  1  0.594100  0.428800  0.383700  1.0  0.2452
  C  C233  1  0.496700  0.376900  0.320200  1.0  0.2204
  C  C234  1  0.442500  0.315300  0.289500  1.0  -0.0122
  C  C235  1  0.463100  0.282900  0.229300  1.0  -0.1442
  C  C236  1  0.411200  0.221800  0.203400  1.0  -0.0987
  C  C237  1  0.340300  0.194300  0.235200  1.0  -0.1204
  C  C238  1  0.320000  0.225400  0.294900  1.0  -0.0038
  C  C239  1  0.371900  0.286200  0.320900  1.0  -0.1361
  C  C240  1  0.246400  0.194100  0.331000  1.0  0.0714
  C  C241  1  0.217500  0.237700  0.384800  1.0  -0.2477
  C  C242  1  0.154800  0.201400  0.422700  1.0  0.1531
  C  C243  1  0.142200  0.089900  0.356700  1.0  0.1156
  C  C244  1  0.204500  0.122800  0.316800  1.0  -0.1344
  C  C245  1  0.198100  0.930600  0.560000  1.0  0.1516
  C  C246  1  0.246600  0.965300  0.461200  1.0  0.1486
  C  C247  1  0.311900  0.910400  0.467400  1.0  -0.189
  C  C248  1  0.321800  0.860700  0.521700  1.0  0.0799
  C  C249  1  0.261100  0.874900  0.568400  1.0  -0.2025
  C  C250  1  0.387800  0.796400  0.527700  1.0  0.0222
  C  C251  1  0.462700  0.800400  0.492000  1.0  -0.1465
  C  C252  1  0.521600  0.740300  0.497900  1.0  -0.1043
  C  C253  1  0.511200  0.671000  0.538300  1.0  -0.1553
  C  C254  1  0.436700  0.666300  0.572800  1.0  -0.0707
  C  C255  1  0.377200  0.727600  0.567200  1.0  -0.1123
  C  C256  1  0.428800  0.594100  0.616300  1.0  0.2471
  C  C257  1  0.376900  0.496700  0.679800  1.0  0.2207
  C  C258  1  0.315300  0.442500  0.710500  1.0  -0.0137
  C  C259  1  0.282900  0.463100  0.770700  1.0  -0.1431
  C  C260  1  0.221800  0.411200  0.796600  1.0  -0.0975
  C  C261  1  0.194300  0.340300  0.764800  1.0  -0.1189
  C  C262  1  0.225400  0.320000  0.705100  1.0  -0.0029
  C  C263  1  0.286200  0.371900  0.679100  1.0  -0.1358
  C  C264  1  0.194100  0.246400  0.669000  1.0  0.0731
  C  C265  1  0.237700  0.217500  0.615200  1.0  -0.2484
  C  C266  1  0.201400  0.154800  0.577300  1.0  0.1562
  C  C267  1  0.089900  0.142200  0.643300  1.0  0.1188
  C  C268  1  0.122800  0.204500  0.683200  1.0  -0.1285
  C  C269  1  0.801900  0.069400  0.060000  1.0  0.1521
  C  C270  1  0.753400  0.034700  0.961200  1.0  0.1483
  C  C271  1  0.688100  0.089600  0.967400  1.0  -0.1895
  C  C272  1  0.678200  0.139300  0.021700  1.0  0.0816
  C  C273  1  0.738900  0.125100  0.068400  1.0  -0.2032
  C  C274  1  0.612200  0.203600  0.027700  1.0  0.0238
  C  C275  1  0.537300  0.199600  0.992000  1.0  -0.1465
  C  C276  1  0.478400  0.259700  0.997900  1.0  -0.1042
  C  C277  1  0.488800  0.329000  0.038300  1.0  -0.1543
  C  C278  1  0.563300  0.333700  0.072800  1.0  -0.0707
  C  C279  1  0.622800  0.272400  0.067200  1.0  -0.1125
  C  C280  1  0.571200  0.405900  0.116300  1.0  0.2477
  C  C281  1  0.623100  0.503300  0.179800  1.0  0.2202
  C  C282  1  0.684700  0.557500  0.210500  1.0  -0.0133
  C  C283  1  0.717100  0.536900  0.270700  1.0  -0.1421
  C  C284  1  0.778200  0.588800  0.296600  1.0  -0.0976
  C  C285  1  0.805700  0.659700  0.264800  1.0  -0.1197
  C  C286  1  0.774600  0.680000  0.205100  1.0  -0.0033
  C  C287  1  0.713800  0.628100  0.179100  1.0  -0.1351
  C  C288  1  0.805900  0.753600  0.169000  1.0  0.0732
  C  C289  1  0.762300  0.782500  0.115200  1.0  -0.2472
  C  C290  1  0.798600  0.845200  0.077300  1.0  0.1562
  C  C291  1  0.910100  0.857800  0.143300  1.0  0.1178
  C  C292  1  0.877200  0.795500  0.183200  1.0  -0.1293
  C  C293  1  0.430600  0.301900  0.810000  1.0  0.1513
  C  C294  1  0.465300  0.253400  0.711200  1.0  0.1459
  C  C295  1  0.410400  0.188100  0.717400  1.0  -0.1901
  C  C296  1  0.360700  0.178200  0.771700  1.0  0.0808
  C  C297  1  0.374900  0.238900  0.818400  1.0  -0.2042
  C  C298  1  0.296400  0.112200  0.777700  1.0  0.0236
  C  C299  1  0.300400  0.037300  0.742000  1.0  -0.1454
  C  C300  1  0.240300  0.978400  0.747900  1.0  -0.1032
  C  C301  1  0.171000  0.988800  0.788300  1.0  -0.1578
  C  C302  1  0.166300  0.063300  0.822800  1.0  -0.0698
  C  C303  1  0.227600  0.122800  0.817200  1.0  -0.1105
  C  C304  1  0.094100  0.071200  0.866300  1.0  0.2455
  C  C305  1  0.996700  0.123100  0.929800  1.0  0.2206
  C  C306  1  0.942500  0.184700  0.960500  1.0  -0.0122
  C  C307  1  0.963100  0.217100  0.020700  1.0  -0.1446
  C  C308  1  0.911200  0.278200  0.046600  1.0  -0.0976
  C  C309  1  0.840300  0.305700  0.014800  1.0  -0.1202
  C  C310  1  0.820000  0.274600  0.955100  1.0  -0.0032
  C  C311  1  0.871900  0.213800  0.929100  1.0  -0.1368
  C  C312  1  0.746400  0.305900  0.919000  1.0  0.0723
  C  C313  1  0.717500  0.262300  0.865200  1.0  -0.2483
  C  C314  1  0.654800  0.298600  0.827300  1.0  0.1536
  C  C315  1  0.642200  0.410100  0.893300  1.0  0.1157
  C  C316  1  0.704500  0.377200  0.933200  1.0  -0.1322
  C  C317  1  0.569400  0.698100  0.310000  1.0  0.1511
  C  C318  1  0.534700  0.746600  0.211200  1.0  0.1462
  C  C319  1  0.589600  0.811900  0.217400  1.0  -0.1885
  C  C320  1  0.639300  0.821800  0.271700  1.0  0.0812
  C  C321  1  0.625100  0.761100  0.318400  1.0  -0.2041
  C  C322  1  0.703600  0.887800  0.277700  1.0  0.0234
  C  C323  1  0.699600  0.962700  0.242000  1.0  -0.1482
  C  C324  1  0.759700  0.021600  0.247900  1.0  -0.1019
  C  C325  1  0.829000  0.011200  0.288300  1.0  -0.1578
  C  C326  1  0.833700  0.936700  0.322800  1.0  -0.0693
  C  C327  1  0.772400  0.877200  0.317200  1.0  -0.1111
  C  C328  1  0.905900  0.928800  0.366300  1.0  0.2468
  C  C329  1  0.003300  0.876900  0.429800  1.0  0.2211
  C  C330  1  0.057500  0.815300  0.460500  1.0  -0.0136
  C  C331  1  0.036900  0.782900  0.520700  1.0  -0.1418
  C  C332  1  0.088800  0.721800  0.546600  1.0  -0.098
  C  C333  1  0.159700  0.694300  0.514800  1.0  -0.1205
  C  C334  1  0.180000  0.725400  0.455100  1.0  -0.0044
  C  C335  1  0.128100  0.786200  0.429100  1.0  -0.1355
  C  C336  1  0.253600  0.694100  0.419000  1.0  0.0715
  C  C337  1  0.282500  0.737700  0.365200  1.0  -0.2488
  C  C338  1  0.345200  0.701400  0.327300  1.0  0.1543
  C  C339  1  0.357800  0.589900  0.393300  1.0  0.116
  C  C340  1  0.295500  0.622800  0.433200  1.0  -0.1329
  N  N341  1  0.039600  0.992400  0.068400  1.0  -0.2623
  N  N342  1  0.007900  0.054700  0.108900  1.0  -0.3134
  N  N343  1  0.144800  0.059400  0.111000  1.0  0.0776
  N  N344  1  0.225900  0.083100  0.129500  1.0  -0.5626
  N  N345  1  0.312000  0.476300  0.243700  1.0  -0.3752
  N  N346  1  0.371600  0.619600  0.160900  1.0  -0.3558
  N  N347  1  0.960400  0.007600  0.568400  1.0  -0.2629
  N  N348  1  0.992100  0.945300  0.608900  1.0  -0.3132
  N  N349  1  0.855200  0.940600  0.611000  1.0  0.0775
  N  N350  1  0.774100  0.916900  0.629500  1.0  -0.5627
  N  N351  1  0.688000  0.523700  0.743700  1.0  -0.3736
  N  N352  1  0.628400  0.380400  0.660900  1.0  -0.3574
  N  N353  1  0.507600  0.539600  0.818400  1.0  -0.2626
  N  N354  1  0.445300  0.507900  0.858900  1.0  -0.3117
  N  N355  1  0.440600  0.644800  0.861000  1.0  0.0782
  N  N356  1  0.416900  0.725900  0.879500  1.0  -0.5636
  N  N357  1  0.023700  0.812000  0.993700  1.0  -0.3739
  N  N358  1  0.880400  0.871600  0.910900  1.0  -0.3576
  N  N359  1  0.492400  0.460400  0.318400  1.0  -0.2638
  N  N360  1  0.554700  0.492100  0.358900  1.0  -0.313
  N  N361  1  0.559400  0.355200  0.361000  1.0  0.0783
  N  N362  1  0.583100  0.274100  0.379500  1.0  -0.5646
  N  N363  1  0.976300  0.188000  0.493700  1.0  -0.3739
  N  N364  1  0.119600  0.128400  0.410900  1.0  -0.3578
  N  N365  1  0.460400  0.492400  0.681600  1.0  -0.262
  N  N366  1  0.492100  0.554700  0.641100  1.0  -0.3142
  N  N367  1  0.355200  0.559400  0.639000  1.0  0.0772
  N  N368  1  0.274100  0.583100  0.620500  1.0  -0.5634
  N  N369  1  0.188000  0.976300  0.506300  1.0  -0.374
  N  N370  1  0.128400  0.119600  0.589100  1.0  -0.3575
  N  N371  1  0.539600  0.507600  0.181600  1.0  -0.2629
  N  N372  1  0.507900  0.445300  0.141100  1.0  -0.3135
  N  N373  1  0.644800  0.440600  0.139000  1.0  0.0773
  N  N374  1  0.725900  0.416900  0.120500  1.0  -0.5626
  N  N375  1  0.812000  0.023700  0.006300  1.0  -0.3744
  N  N376  1  0.871600  0.880400  0.089100  1.0  -0.3566
  N  N377  1  0.992400  0.039600  0.931600  1.0  -0.2626
  N  N378  1  0.054700  0.007900  0.891100  1.0  -0.3129
  N  N379  1  0.059400  0.144800  0.889000  1.0  0.0776
  N  N380  1  0.083100  0.225900  0.870500  1.0  -0.5636
  N  N381  1  0.476300  0.312000  0.756300  1.0  -0.3733
  N  N382  1  0.619600  0.371600  0.839100  1.0  -0.3577
  N  N383  1  0.007600  0.960400  0.431600  1.0  -0.2636
  N  N384  1  0.945300  0.992100  0.391100  1.0  -0.3136
  N  N385  1  0.940600  0.855200  0.389000  1.0  0.0784
  N  N386  1  0.916900  0.774100  0.370500  1.0  -0.5644
  N  N387  1  0.523700  0.688000  0.256300  1.0  -0.3739
  N  N388  1  0.380400  0.628400  0.339100  1.0  -0.3576
