# generated using pymatgen
data_ZnH5C8N3O2
_symmetry_space_group_name_H-M   'P 1'
_cell_length_a   30.97800000
_cell_length_b   12.62000000
_cell_length_c   13.33900000
_cell_angle_alpha   90.00000000
_cell_angle_beta   90.00000000
_cell_angle_gamma   90.00000000
_symmetry_Int_Tables_number   1
_chemical_formula_structural   ZnH5C8N3O2
_chemical_formula_sum   'Zn16 H80 C128 N48 O32'
_cell_volume   5214.78014004
_cell_formula_units_Z   16
loop_
 _symmetry_equiv_pos_site_id
 _symmetry_equiv_pos_as_xyz
  1  'x, y, z'
loop_
 _atom_site_type_symbol
 _atom_site_label
 _atom_site_symmetry_multiplicity
 _atom_site_fract_x
 _atom_site_fract_y
 _atom_site_fract_z
 _atom_site_occupancy
 _atom_site_charge
  Zn  Zn1  1  0.202990  0.400420  0.100420  1.0  0.8424
  Zn  Zn2  1  0.295660  0.345780  0.926890  1.0  0.8814
  Zn  Zn3  1  0.195330  0.303760  0.543390  1.0  0.8682
  Zn  Zn4  1  0.301570  0.436540  0.487120  1.0  0.8539
  Zn  Zn5  1  0.797010  0.599580  0.600420  1.0  0.8436
  Zn  Zn6  1  0.704340  0.654220  0.426890  1.0  0.8818
  Zn  Zn7  1  0.804670  0.696240  0.043390  1.0  0.8679
  Zn  Zn8  1  0.698430  0.563460  0.987120  1.0  0.8543
  Zn  Zn9  1  0.702990  0.099580  0.100420  1.0  0.8427
  Zn  Zn10  1  0.795660  0.154220  0.926890  1.0  0.8819
  Zn  Zn11  1  0.695330  0.196240  0.543390  1.0  0.868
  Zn  Zn12  1  0.801570  0.063460  0.487120  1.0  0.855
  Zn  Zn13  1  0.297010  0.900420  0.600420  1.0  0.8434
  Zn  Zn14  1  0.204340  0.845780  0.426890  1.0  0.8816
  Zn  Zn15  1  0.304670  0.803760  0.043390  1.0  0.868
  Zn  Zn16  1  0.198430  0.936540  0.987120  1.0  0.8527
  H  H17  1  0.166100  0.337700  0.315100  1.0  0.0858
  H  H18  1  0.280200  0.437800  0.251500  1.0  0.1019
  H  H19  1  0.168500  0.162800  0.075700  1.0  0.1032
  H  H20  1  0.269900  0.107500  0.908900  1.0  0.0825
  H  H21  1  0.049800  0.348400  0.209100  1.0  0.0996
  H  H22  1  0.083100  0.553800  0.001500  1.0  0.1116
  H  H23  1  0.978700  0.402700  0.203100  1.0  0.1366
  H  H24  1  0.028100  0.677600  0.924500  1.0  0.116
  H  H25  1  0.167700  0.073900  0.459300  1.0  0.0883
  H  H26  1  0.266100  0.140400  0.629100  1.0  0.0914
  H  H27  1  0.170800  0.906200  0.212600  1.0  0.0895
  H  H28  1  0.922700  0.529100  0.135900  1.0  0.1331
  H  H29  1  0.957900  0.738500  0.919000  1.0  0.1336
  H  H30  1  0.285600  0.814900  0.277600  1.0  0.0974
  H  H31  1  0.066200  0.062400  0.096300  1.0  0.1232
  H  H32  1  0.063000  0.882700  0.845400  1.0  0.1097
  H  H33  1  0.991500  0.931300  0.812600  1.0  0.1443
  H  H34  1  0.000500  0.162300  0.143600  1.0  0.0913
  H  H35  1  0.925800  0.027100  0.872800  1.0  0.1086
  H  H36  1  0.929100  0.215700  0.117300  1.0  0.1319
  H  H37  1  0.833900  0.662300  0.815100  1.0  0.0862
  H  H38  1  0.719800  0.562200  0.751500  1.0  0.1021
  H  H39  1  0.831500  0.837200  0.575700  1.0  0.1029
  H  H40  1  0.730100  0.892500  0.408900  1.0  0.0824
  H  H41  1  0.950200  0.651600  0.709100  1.0  0.0991
  H  H42  1  0.916900  0.446200  0.501500  1.0  0.111
  H  H43  1  0.021300  0.597300  0.703100  1.0  0.136
  H  H44  1  0.971900  0.322400  0.424500  1.0  0.1162
  H  H45  1  0.832300  0.926100  0.959300  1.0  0.0885
  H  H46  1  0.733900  0.859600  0.129100  1.0  0.0917
  H  H47  1  0.829200  0.093800  0.712600  1.0  0.0892
  H  H48  1  0.077300  0.470900  0.635900  1.0  0.1333
  H  H49  1  0.042100  0.261500  0.419000  1.0  0.1333
  H  H50  1  0.714400  0.185100  0.777600  1.0  0.0976
  H  H51  1  0.933800  0.937600  0.596300  1.0  0.1227
  H  H52  1  0.937000  0.117300  0.345400  1.0  0.1098
  H  H53  1  0.008500  0.068700  0.312600  1.0  0.1447
  H  H54  1  0.999500  0.837700  0.643600  1.0  0.0917
  H  H55  1  0.074200  0.972900  0.372800  1.0  0.109
  H  H56  1  0.070900  0.784300  0.617300  1.0  0.132
  H  H57  1  0.666100  0.162300  0.315100  1.0  0.086
  H  H58  1  0.780200  0.062200  0.251500  1.0  0.102
  H  H59  1  0.668500  0.337200  0.075700  1.0  0.1031
  H  H60  1  0.769900  0.392500  0.908900  1.0  0.0814
  H  H61  1  0.549800  0.151600  0.209100  1.0  0.0992
  H  H62  1  0.583100  0.946200  0.001500  1.0  0.1116
  H  H63  1  0.478700  0.097300  0.203100  1.0  0.136
  H  H64  1  0.528100  0.822400  0.924500  1.0  0.1162
  H  H65  1  0.667700  0.426100  0.459300  1.0  0.088
  H  H66  1  0.766100  0.359600  0.629100  1.0  0.0916
  H  H67  1  0.670800  0.593800  0.212600  1.0  0.0895
  H  H68  1  0.422700  0.970900  0.135900  1.0  0.1332
  H  H69  1  0.457900  0.761500  0.919000  1.0  0.1335
  H  H70  1  0.785600  0.685100  0.277600  1.0  0.0973
  H  H71  1  0.566200  0.437600  0.096300  1.0  0.1232
  H  H72  1  0.563000  0.617300  0.845400  1.0  0.1097
  H  H73  1  0.491500  0.568700  0.812600  1.0  0.1442
  H  H74  1  0.500500  0.337700  0.143600  1.0  0.0918
  H  H75  1  0.425800  0.472900  0.872800  1.0  0.1088
  H  H76  1  0.429100  0.284300  0.117300  1.0  0.1319
  H  H77  1  0.333900  0.837700  0.815100  1.0  0.086
  H  H78  1  0.219800  0.937800  0.751500  1.0  0.102
  H  H79  1  0.331500  0.662800  0.575700  1.0  0.103
  H  H80  1  0.230100  0.607500  0.408900  1.0  0.0813
  H  H81  1  0.450200  0.848400  0.709100  1.0  0.0995
  H  H82  1  0.416900  0.053800  0.501500  1.0  0.1113
  H  H83  1  0.521300  0.902700  0.703100  1.0  0.1366
  H  H84  1  0.471900  0.177600  0.424500  1.0  0.1163
  H  H85  1  0.332300  0.573900  0.959300  1.0  0.0887
  H  H86  1  0.233900  0.640400  0.129100  1.0  0.0918
  H  H87  1  0.329200  0.406200  0.712600  1.0  0.0892
  H  H88  1  0.577300  0.029100  0.635900  1.0  0.1332
  H  H89  1  0.542100  0.238500  0.419000  1.0  0.1333
  H  H90  1  0.214400  0.314900  0.777600  1.0  0.0976
  H  H91  1  0.433800  0.562400  0.596300  1.0  0.1228
  H  H92  1  0.437000  0.382700  0.345400  1.0  0.1093
  H  H93  1  0.508500  0.431300  0.312600  1.0  0.1448
  H  H94  1  0.499500  0.662300  0.643600  1.0  0.0916
  H  H95  1  0.574200  0.527100  0.372800  1.0  0.1089
  H  H96  1  0.570900  0.715700  0.617300  1.0  0.1317
  C  C97  1  0.118800  0.404600  0.110100  1.0  0.663
  C  C98  1  0.195900  0.354900  0.321000  1.0  0.2635
  C  C99  1  0.256200  0.409500  0.286600  1.0  0.1869
  C  C100  1  0.194400  0.172600  0.038500  1.0  0.212
  C  C101  1  0.073100  0.444800  0.102100  1.0  -0.1248
  C  C102  1  0.249300  0.142900  0.949700  1.0  0.1894
  C  C103  1  0.041800  0.402400  0.163100  1.0  -0.0249
  C  C104  1  0.061000  0.523000  0.041400  1.0  -0.0212
  C  C105  1  0.999600  0.434500  0.160500  1.0  -0.1381
  C  C106  1  0.018800  0.566100  0.029400  1.0  -0.0147
  C  C107  1  0.987500  0.516700  0.092400  1.0  0.0217
  C  C108  1  0.007000  0.646100  0.966500  1.0  -0.0515
  C  C109  1  0.194500  0.069200  0.493900  1.0  0.2591
  C  C110  1  0.246500  0.104400  0.586100  1.0  0.1911
  C  C111  1  0.118600  0.958600  0.986000  1.0  0.6297
  C  C112  1  0.200700  0.890700  0.206900  1.0  0.2353
  C  C113  1  0.943900  0.556200  0.091200  1.0  -0.1077
  C  C114  1  0.965600  0.681900  0.962400  1.0  -0.0654
  C  C115  1  0.071600  0.978500  0.969400  1.0  -0.1169
  C  C116  1  0.261300  0.840400  0.241300  1.0  0.2005
  C  C117  1  0.934100  0.632800  0.024600  1.0  -0.1229
  C  C118  1  0.051300  0.039700  0.037800  1.0  -0.1178
  C  C119  1  0.048600  0.931600  0.888100  1.0  -0.0295
  C  C120  1  0.888500  0.679400  0.016600  1.0  0.6233
  C  C121  1  0.006800  0.070700  0.022200  1.0  -0.0379
  C  C122  1  0.006300  0.955700  0.870500  1.0  -0.1111
  C  C123  1  0.985500  0.020800  0.945500  1.0  -0.0647
  C  C124  1  0.985500  0.136400  0.086600  1.0  -0.0595
  C  C125  1  0.941200  0.054600  0.928700  1.0  -0.0584
  C  C126  1  0.942900  0.167400  0.073100  1.0  -0.0946
  C  C127  1  0.921400  0.123300  0.989900  1.0  -0.1481
  C  C128  1  0.872900  0.153000  0.974000  1.0  0.6236
  C  C129  1  0.881200  0.595400  0.610100  1.0  0.6628
  C  C130  1  0.804100  0.645100  0.821000  1.0  0.2642
  C  C131  1  0.743800  0.590500  0.786600  1.0  0.1864
  C  C132  1  0.805600  0.827400  0.538500  1.0  0.2124
  C  C133  1  0.926900  0.555200  0.602100  1.0  -0.1261
  C  C134  1  0.750700  0.857100  0.449700  1.0  0.1894
  C  C135  1  0.958200  0.597600  0.663100  1.0  -0.0237
  C  C136  1  0.939000  0.477000  0.541400  1.0  -0.0218
  C  C137  1  0.000400  0.565500  0.660500  1.0  -0.1369
  C  C138  1  0.981200  0.433900  0.529400  1.0  -0.0133
  C  C139  1  0.012500  0.483300  0.592400  1.0  0.0217
  C  C140  1  0.993000  0.353900  0.466500  1.0  -0.0521
  C  C141  1  0.805500  0.930800  0.993900  1.0  0.2584
  C  C142  1  0.753500  0.895600  0.086100  1.0  0.1916
  C  C143  1  0.881400  0.041400  0.486000  1.0  0.6301
  C  C144  1  0.799300  0.109300  0.706900  1.0  0.2356
  C  C145  1  0.056100  0.443800  0.591200  1.0  -0.1068
  C  C146  1  0.034400  0.318100  0.462400  1.0  -0.0653
  C  C147  1  0.928400  0.021500  0.469400  1.0  -0.1167
  C  C148  1  0.738700  0.159600  0.741300  1.0  0.1999
  C  C149  1  0.065900  0.367200  0.524600  1.0  -0.1221
  C  C150  1  0.948700  0.960300  0.537800  1.0  -0.1186
  C  C151  1  0.951400  0.068400  0.388100  1.0  -0.0304
  C  C152  1  0.111500  0.320600  0.516600  1.0  0.6229
  C  C153  1  0.993200  0.929300  0.522200  1.0  -0.0367
  C  C154  1  0.993700  0.044300  0.370500  1.0  -0.1105
  C  C155  1  0.014500  0.979200  0.445500  1.0  -0.0647
  C  C156  1  0.014500  0.863600  0.586600  1.0  -0.0609
  C  C157  1  0.058800  0.945400  0.428700  1.0  -0.0576
  C  C158  1  0.057100  0.832600  0.573100  1.0  -0.0929
  C  C159  1  0.078600  0.876700  0.489900  1.0  -0.1474
  C  C160  1  0.127100  0.847000  0.474000  1.0  0.6235
  C  C161  1  0.618800  0.095400  0.110100  1.0  0.6633
  C  C162  1  0.695900  0.145100  0.321000  1.0  0.2634
  C  C163  1  0.756200  0.090500  0.286600  1.0  0.1868
  C  C164  1  0.694400  0.327400  0.038500  1.0  0.2121
  C  C165  1  0.573100  0.055200  0.102100  1.0  -0.1251
  C  C166  1  0.749300  0.357100  0.949700  1.0  0.1891
  C  C167  1  0.541800  0.097600  0.163100  1.0  -0.0234
  C  C168  1  0.561000  0.977000  0.041400  1.0  -0.0212
  C  C169  1  0.499600  0.065500  0.160500  1.0  -0.1383
  C  C170  1  0.518800  0.933900  0.029400  1.0  -0.014
  C  C171  1  0.487500  0.983300  0.092400  1.0  0.0214
  C  C172  1  0.507000  0.853900  0.966500  1.0  -0.0521
  C  C173  1  0.694500  0.430800  0.493900  1.0  0.2587
  C  C174  1  0.746500  0.395600  0.586100  1.0  0.1932
  C  C175  1  0.618600  0.541400  0.986000  1.0  0.6298
  C  C176  1  0.700700  0.609300  0.206900  1.0  0.2354
  C  C177  1  0.443900  0.943800  0.091200  1.0  -0.1076
  C  C178  1  0.465600  0.818100  0.962400  1.0  -0.0654
  C  C179  1  0.571600  0.521500  0.969400  1.0  -0.117
  C  C180  1  0.761300  0.659600  0.241300  1.0  0.2006
  C  C181  1  0.434100  0.867200  0.024600  1.0  -0.1224
  C  C182  1  0.551300  0.460300  0.037800  1.0  -0.118
  C  C183  1  0.548600  0.568400  0.888100  1.0  -0.0299
  C  C184  1  0.388500  0.820600  0.016600  1.0  0.6231
  C  C185  1  0.506800  0.429300  0.022200  1.0  -0.0374
  C  C186  1  0.506300  0.544300  0.870500  1.0  -0.1114
  C  C187  1  0.485500  0.479200  0.945500  1.0  -0.0646
  C  C188  1  0.485500  0.363600  0.086600  1.0  -0.0598
  C  C189  1  0.441200  0.445400  0.928700  1.0  -0.0587
  C  C190  1  0.442900  0.332600  0.073100  1.0  -0.0938
  C  C191  1  0.421400  0.376700  0.989900  1.0  -0.1495
  C  C192  1  0.372900  0.347000  0.974000  1.0  0.6237
  C  C193  1  0.381200  0.904600  0.610100  1.0  0.6626
  C  C194  1  0.304100  0.854900  0.821000  1.0  0.2635
  C  C195  1  0.243800  0.909500  0.786600  1.0  0.1862
  C  C196  1  0.305600  0.672600  0.538500  1.0  0.2122
  C  C197  1  0.426900  0.944800  0.602100  1.0  -0.1252
  C  C198  1  0.250700  0.642900  0.449700  1.0  0.1895
  C  C199  1  0.458200  0.902400  0.663100  1.0  -0.025
  C  C200  1  0.439000  0.023000  0.541400  1.0  -0.0218
  C  C201  1  0.500400  0.934500  0.660500  1.0  -0.1368
  C  C202  1  0.481200  0.066100  0.529400  1.0  -0.0142
  C  C203  1  0.512500  0.016700  0.592400  1.0  0.0221
  C  C204  1  0.493000  0.146100  0.466500  1.0  -0.0515
  C  C205  1  0.305500  0.569200  0.993900  1.0  0.2589
  C  C206  1  0.253500  0.604400  0.086100  1.0  0.1935
  C  C207  1  0.381400  0.458600  0.486000  1.0  0.6303
  C  C208  1  0.299300  0.390700  0.706900  1.0  0.2361
  C  C209  1  0.556100  0.056200  0.591200  1.0  -0.1071
  C  C210  1  0.534400  0.181900  0.462400  1.0  -0.0653
  C  C211  1  0.428400  0.478500  0.469400  1.0  -0.1167
  C  C212  1  0.238700  0.340400  0.741300  1.0  0.1996
  C  C213  1  0.565900  0.132800  0.524600  1.0  -0.1227
  C  C214  1  0.448700  0.539700  0.537800  1.0  -0.1188
  C  C215  1  0.451400  0.431600  0.388100  1.0  -0.0298
  C  C216  1  0.611500  0.179400  0.516600  1.0  0.6233
  C  C217  1  0.493200  0.570700  0.522200  1.0  -0.037
  C  C218  1  0.493700  0.455700  0.370500  1.0  -0.11
  C  C219  1  0.514500  0.520800  0.445500  1.0  -0.0647
  C  C220  1  0.514500  0.636400  0.586600  1.0  -0.0604
  C  C221  1  0.558800  0.554600  0.428700  1.0  -0.0575
  C  C222  1  0.557100  0.667400  0.573100  1.0  -0.0934
  C  C223  1  0.578600  0.623300  0.489900  1.0  -0.1472
  C  C224  1  0.627100  0.653000  0.474000  1.0  0.6238
  N  N225  1  0.218500  0.383600  0.244600  1.0  -0.3839
  N  N226  1  0.216200  0.266000  0.032300  1.0  -0.3762
  N  N227  1  0.249800  0.505900  0.061400  1.0  -0.2916
  N  N228  1  0.252600  0.238400  0.975100  1.0  -0.2307
  N  N229  1  0.216200  0.350700  0.407800  1.0  -0.3272
  N  N230  1  0.255200  0.390400  0.383600  1.0  -0.2073
  N  N231  1  0.214000  0.096100  0.985500  1.0  -0.402
  N  N232  1  0.211800  0.150200  0.544100  1.0  -0.4305
  N  N233  1  0.238800  0.354200  0.643000  1.0  -0.3304
  N  N234  1  0.221000  0.892800  0.122300  1.0  -0.2708
  N  N235  1  0.216700  0.986500  0.496800  1.0  -0.2635
  N  N236  1  0.224400  0.865800  0.283300  1.0  -0.3716
  N  N237  1  0.781500  0.616400  0.744600  1.0  -0.3839
  N  N238  1  0.783800  0.734000  0.532300  1.0  -0.3781
  N  N239  1  0.750200  0.494100  0.561400  1.0  -0.2913
  N  N240  1  0.747400  0.761600  0.475100  1.0  -0.2309
  N  N241  1  0.783800  0.649300  0.907800  1.0  -0.3271
  N  N242  1  0.744800  0.609600  0.883600  1.0  -0.2097
  N  N243  1  0.786000  0.903900  0.485500  1.0  -0.4003
  N  N244  1  0.788200  0.849800  0.044100  1.0  -0.4306
  N  N245  1  0.761200  0.645800  0.143000  1.0  -0.3319
  N  N246  1  0.779000  0.107200  0.622300  1.0  -0.2709
  N  N247  1  0.783300  0.013500  0.996800  1.0  -0.2636
  N  N248  1  0.775600  0.134200  0.783300  1.0  -0.3721
  N  N249  1  0.718500  0.116400  0.244600  1.0  -0.3839
  N  N250  1  0.716200  0.234000  0.032300  1.0  -0.3776
  N  N251  1  0.749800  0.994100  0.061400  1.0  -0.2919
  N  N252  1  0.752600  0.261600  0.975100  1.0  -0.2305
  N  N253  1  0.716200  0.149300  0.407800  1.0  -0.3277
  N  N254  1  0.755200  0.109600  0.383600  1.0  -0.2079
  N  N255  1  0.714000  0.403900  0.985500  1.0  -0.4016
  N  N256  1  0.711800  0.349800  0.544100  1.0  -0.4312
  N  N257  1  0.738800  0.145800  0.643000  1.0  -0.3308
  N  N258  1  0.721000  0.607200  0.122300  1.0  -0.2713
  N  N259  1  0.716700  0.513500  0.496800  1.0  -0.2635
  N  N260  1  0.724400  0.634200  0.283300  1.0  -0.3716
  N  N261  1  0.281500  0.883600  0.744600  1.0  -0.3838
  N  N262  1  0.283800  0.766000  0.532300  1.0  -0.3768
  N  N263  1  0.250200  0.005900  0.561400  1.0  -0.2905
  N  N264  1  0.247400  0.738400  0.475100  1.0  -0.23
  N  N265  1  0.283800  0.850700  0.907800  1.0  -0.3268
  N  N266  1  0.244800  0.890400  0.883600  1.0  -0.2095
  N  N267  1  0.286000  0.596100  0.485500  1.0  -0.401
  N  N268  1  0.288200  0.650200  0.044100  1.0  -0.43
  N  N269  1  0.261200  0.854200  0.143000  1.0  -0.332
  N  N270  1  0.279000  0.392800  0.622300  1.0  -0.2706
  N  N271  1  0.283300  0.486500  0.996800  1.0  -0.2638
  N  N272  1  0.275600  0.365800  0.783300  1.0  -0.3722
  O  O273  1  0.146500  0.466600  0.066300  1.0  -0.5693
  O  O274  1  0.126800  0.325000  0.152300  1.0  -0.5117
  O  O275  1  0.139000  0.363500  0.579100  1.0  -0.5835
  O  O276  1  0.140800  0.918000  0.908800  1.0  -0.5451
  O  O277  1  0.136100  0.980000  0.064400  1.0  -0.5829
  O  O278  1  0.141900  0.872000  0.396500  1.0  -0.5268
  O  O279  1  0.878900  0.748700  0.957400  1.0  -0.5642
  O  O280  1  0.852500  0.196600  0.053000  1.0  -0.6445
  O  O281  1  0.853500  0.533400  0.566300  1.0  -0.5691
  O  O282  1  0.873200  0.675000  0.652300  1.0  -0.5129
  O  O283  1  0.861000  0.636500  0.079100  1.0  -0.5837
  O  O284  1  0.859200  0.082000  0.408800  1.0  -0.546
  O  O285  1  0.863900  0.020000  0.564400  1.0  -0.5822
  O  O286  1  0.858100  0.128000  0.896500  1.0  -0.5277
  O  O287  1  0.121100  0.251300  0.457400  1.0  -0.566
  O  O288  1  0.147500  0.803400  0.553000  1.0  -0.6453
  O  O289  1  0.646500  0.033400  0.066300  1.0  -0.5677
  O  O290  1  0.626800  0.175000  0.152300  1.0  -0.5138
  O  O291  1  0.639000  0.136500  0.579100  1.0  -0.5832
  O  O292  1  0.640800  0.582000  0.908800  1.0  -0.5459
  O  O293  1  0.636100  0.520000  0.064400  1.0  -0.583
  O  O294  1  0.641900  0.628000  0.396500  1.0  -0.5281
  O  O295  1  0.378900  0.751300  0.957400  1.0  -0.5641
  O  O296  1  0.352500  0.303400  0.053000  1.0  -0.6453
  O  O297  1  0.353500  0.966600  0.566300  1.0  -0.5699
  O  O298  1  0.373200  0.825000  0.652300  1.0  -0.5107
  O  O299  1  0.361000  0.863500  0.079100  1.0  -0.5839
  O  O300  1  0.359200  0.418000  0.408800  1.0  -0.5458
  O  O301  1  0.363900  0.480000  0.564400  1.0  -0.5821
  O  O302  1  0.358100  0.372000  0.896500  1.0  -0.5266
  O  O303  1  0.621100  0.248700  0.457400  1.0  -0.5661
  O  O304  1  0.647500  0.696600  0.553000  1.0  -0.6453
