# generated using pymatgen
data_Zn2H15C25N3O8
_symmetry_space_group_name_H-M   'P 1'
_cell_length_a   10.92900000
_cell_length_b   16.59400000
_cell_length_c   18.27700000
_cell_angle_alpha   63.00200000
_cell_angle_beta   72.60340000
_cell_angle_gamma   90.00000000
_symmetry_Int_Tables_number   1
_chemical_formula_structural   Zn2H15C25N3O8
_chemical_formula_sum   'Zn8 H60 C100 N12 O32'
_cell_volume   2782.18473637
_cell_formula_units_Z   4
loop_
 _symmetry_equiv_pos_site_id
 _symmetry_equiv_pos_as_xyz
  1  'x, y, z'
loop_
 _atom_site_type_symbol
 _atom_site_label
 _atom_site_symmetry_multiplicity
 _atom_site_fract_x
 _atom_site_fract_y
 _atom_site_fract_z
 _atom_site_occupancy
 _atom_site_charge
  Zn  Zn1  1  0.574110  0.785440  0.649240  1.0  0.8978
  Zn  Zn2  1  0.635690  0.477160  0.153420  1.0  1.1004
  Zn  Zn3  1  0.425890  0.434680  0.350760  1.0  0.8971
  Zn  Zn4  1  0.364310  0.630580  0.846580  1.0  1.1006
  Zn  Zn5  1  0.776650  0.285440  0.649240  1.0  0.8953
  Zn  Zn6  1  0.210890  0.977160  0.153420  1.0  1.1011
  Zn  Zn7  1  0.223350  0.934680  0.350760  1.0  0.8967
  Zn  Zn8  1  0.789110  0.130580  0.846580  1.0  1.1036
  H  H9  1  0.735500  0.491200  0.708400  1.0  0.0922
  H  H10  1  0.734200  0.318800  0.949000  1.0  0.113
  H  H11  1  0.634000  0.566400  0.894400  1.0  0.101
  H  H12  1  0.937500  0.990100  0.641000  1.0  0.1392
  H  H13  1  0.767300  0.858200  0.736200  1.0  0.1202
  H  H14  1  0.908100  0.010700  0.367400  1.0  0.1256
  H  H15  1  0.817900  0.997700  0.270600  1.0  0.1194
  H  H16  1  0.625100  0.900600  0.326000  1.0  0.1317
  H  H17  1  0.523300  0.824300  0.472200  1.0  0.0687
  H  H18  1  0.038500  0.095900  0.477800  1.0  0.1119
  H  H19  1  0.025300  0.055400  0.417200  1.0  0.0991
  H  H20  1  0.988900  0.181700  0.299800  1.0  0.0966
  H  H21  1  0.864400  0.291100  0.242600  1.0  0.1212
  H  H22  1  0.652200  0.236500  0.484000  1.0  0.0947
  H  H23  1  0.770600  0.125500  0.540800  1.0  0.1149
  H  H24  1  0.264500  0.199600  0.291600  1.0  0.0907
  H  H25  1  0.265800  0.267800  0.051000  1.0  0.1126
  H  H26  1  0.366000  0.460800  0.105600  1.0  0.1012
  H  H27  1  0.062500  0.631100  0.359000  1.0  0.139
  H  H28  1  0.232700  0.594400  0.263800  1.0  0.1191
  H  H29  1  0.091900  0.378100  0.632600  1.0  0.124
  H  H30  1  0.182100  0.268300  0.729400  1.0  0.119
  H  H31  1  0.374900  0.226600  0.674000  1.0  0.1323
  H  H32  1  0.476700  0.296500  0.527800  1.0  0.07
  H  H33  1  0.961500  0.573700  0.522200  1.0  0.1134
  H  H34  1  0.974700  0.472600  0.582800  1.0  0.0999
  H  H35  1  0.011100  0.481500  0.700200  1.0  0.0975
  H  H36  1  0.135600  0.533700  0.757400  1.0  0.1199
  H  H37  1  0.347800  0.720500  0.516000  1.0  0.0953
  H  H38  1  0.229400  0.666300  0.459200  1.0  0.1151
  H  H39  1  0.556100  0.991200  0.708400  1.0  0.0906
  H  H40  1  0.316800  0.818800  0.949000  1.0  0.1126
  H  H41  1  0.471600  0.066400  0.894400  1.0  0.101
  H  H42  1  0.421500  0.490100  0.641000  1.0  0.1379
  H  H43  1  0.496500  0.358200  0.736200  1.0  0.1191
  H  H44  1  0.724500  0.510700  0.367400  1.0  0.125
  H  H45  1  0.911500  0.497700  0.270600  1.0  0.1195
  H  H46  1  0.048900  0.400600  0.326000  1.0  0.132
  H  H47  1  0.004500  0.324300  0.472200  1.0  0.0698
  H  H48  1  0.483700  0.595900  0.477800  1.0  0.1131
  H  H49  1  0.557500  0.555400  0.417200  1.0  0.1
  H  H50  1  0.711300  0.681700  0.299800  1.0  0.0971
  H  H51  1  0.893000  0.791100  0.242600  1.0  0.1205
  H  H52  1  0.863800  0.736500  0.484000  1.0  0.0963
  H  H53  1  0.688600  0.625500  0.540800  1.0  0.1147
  H  H54  1  0.443900  0.699600  0.291600  1.0  0.0905
  H  H55  1  0.683200  0.767800  0.051000  1.0  0.1131
  H  H56  1  0.528400  0.960800  0.105600  1.0  0.1008
  H  H57  1  0.578500  0.131100  0.359000  1.0  0.1392
  H  H58  1  0.503500  0.094400  0.263800  1.0  0.12
  H  H59  1  0.275500  0.878100  0.632600  1.0  0.1251
  H  H60  1  0.088500  0.768300  0.729400  1.0  0.1192
  H  H61  1  0.951100  0.726600  0.674000  1.0  0.1325
  H  H62  1  0.995500  0.796500  0.527800  1.0  0.0694
  H  H63  1  0.516300  0.073700  0.522200  1.0  0.1125
  H  H64  1  0.442500  0.972600  0.582800  1.0  0.0995
  H  H65  1  0.288700  0.981500  0.700200  1.0  0.0974
  H  H66  1  0.107000  0.033700  0.757400  1.0  0.12
  H  H67  1  0.136200  0.220500  0.516000  1.0  0.0953
  H  H68  1  0.311400  0.166300  0.459200  1.0  0.1152
  C  C69  1  0.721610  0.477910  0.765780  1.0  -0.0046
  C  C70  1  0.743240  0.394540  0.823520  1.0  -0.1663
  C  C71  1  0.722940  0.375540  0.909120  1.0  0.0232
  C  C72  1  0.685400  0.442200  0.935200  1.0  -0.1348
  C  C73  1  0.662100  0.523100  0.876800  1.0  0.0039
  C  C74  1  0.679430  0.541930  0.792740  1.0  -0.1543
  C  C75  1  0.669300  0.423900  0.026600  1.0  0.6405
  C  C76  1  0.649920  0.631420  0.730960  1.0  0.6836
  C  C77  1  0.780460  0.323160  0.796480  1.0  0.7131
  C  C78  1  0.886500  0.962000  0.623800  1.0  -0.1204
  C  C79  1  0.791800  0.889900  0.675800  1.0  0.0579
  C  C80  1  0.797210  0.930110  0.545180  1.0  0.1714
  C  C81  1  0.759070  0.927870  0.475060  1.0  0.1852
  C  C82  1  0.828300  0.974200  0.388000  1.0  -0.1662
  C  C83  1  0.775300  0.965200  0.330400  1.0  0.0203
  C  C84  1  0.661100  0.908500  0.362800  1.0  -0.1735
  C  C85  1  0.600900  0.863500  0.450600  1.0  0.179
  C  C86  1  0.976800  0.070900  0.461800  1.0  -0.0689
  C  C87  1  0.893280  0.143280  0.425040  1.0  0.0459
  C  C88  1  0.919900  0.192300  0.337000  1.0  -0.1341
  C  C89  1  0.845030  0.257730  0.302540  1.0  -0.0106
  C  C90  1  0.742450  0.272850  0.357500  1.0  -0.1939
  C  C91  1  0.718690  0.224290  0.446620  1.0  -0.0365
  C  C92  1  0.790380  0.159180  0.480640  1.0  -0.1424
  C  C93  1  0.660950  0.342950  0.319900  1.0  0.6958
  C  C94  1  0.278390  0.243690  0.234220  1.0  -0.004
  C  C95  1  0.256760  0.218060  0.176480  1.0  -0.1626
  C  C96  1  0.277060  0.284660  0.090880  1.0  0.0296
  C  C97  1  0.314600  0.377400  0.064800  1.0  -0.1341
  C  C98  1  0.337900  0.399900  0.123200  1.0  0.0047
  C  C99  1  0.320570  0.334670  0.207260  1.0  -0.1506
  C  C100  1  0.330700  0.450500  0.973400  1.0  0.6377
  C  C101  1  0.350080  0.362380  0.269040  1.0  0.683
  C  C102  1  0.219540  0.119640  0.203520  1.0  0.7138
  C  C103  1  0.113500  0.585800  0.376200  1.0  -0.1244
  C  C104  1  0.208200  0.565700  0.324200  1.0  0.0587
  C  C105  1  0.202790  0.475290  0.454820  1.0  0.1687
  C  C106  1  0.240930  0.402930  0.524940  1.0  0.1853
  C  C107  1  0.171700  0.362200  0.612000  1.0  -0.1688
  C  C108  1  0.224700  0.295600  0.669600  1.0  0.0152
  C  C109  1  0.338900  0.271300  0.637200  1.0  -0.1748
  C  C110  1  0.399100  0.314100  0.549400  1.0  0.1811
  C  C111  1  0.023200  0.532700  0.538200  1.0  -0.0682
  C  C112  1  0.106720  0.568320  0.574960  1.0  0.0481
  C  C113  1  0.080100  0.529300  0.663000  1.0  -0.1332
  C  C114  1  0.154970  0.560270  0.697460  1.0  -0.0119
  C  C115  1  0.257550  0.630350  0.642500  1.0  -0.1923
  C  C116  1  0.281310  0.670910  0.553380  1.0  -0.0351
  C  C117  1  0.209620  0.639820  0.519360  1.0  -0.1408
  C  C118  1  0.339050  0.662850  0.680100  1.0  0.6974
  C  C119  1  0.512610  0.977910  0.765780  1.0  -0.0064
  C  C120  1  0.433240  0.894540  0.823520  1.0  -0.1693
  C  C121  1  0.367940  0.875540  0.909120  1.0  0.0248
  C  C122  1  0.379400  0.942200  0.935200  1.0  -0.1347
  C  C123  1  0.461100  0.023100  0.876800  1.0  0.0059
  C  C124  1  0.527830  0.041930  0.792740  1.0  -0.1547
  C  C125  1  0.304100  0.923900  0.026600  1.0  0.635
  C  C126  1  0.619120  0.131420  0.730960  1.0  0.6832
  C  C127  1  0.423060  0.823160  0.796480  1.0  0.7126
  C  C128  1  0.489700  0.462000  0.623800  1.0  -0.1246
  C  C129  1  0.532400  0.389900  0.675800  1.0  0.0566
  C  C130  1  0.657610  0.430110  0.545180  1.0  0.1709
  C  C131  1  0.765870  0.427870  0.475060  1.0  0.1843
  C  C132  1  0.783700  0.474200  0.388000  1.0  -0.1669
  C  C133  1  0.894300  0.465200  0.330400  1.0  0.0138
  C  C134  1  0.976100  0.408500  0.362800  1.0  -0.1757
  C  C135  1  0.948500  0.363500  0.450600  1.0  0.1798
  C  C136  1  0.561400  0.570900  0.461800  1.0  -0.0676
  C  C137  1  0.681680  0.643280  0.425040  1.0  0.0455
  C  C138  1  0.743100  0.692300  0.337000  1.0  -0.1349
  C  C139  1  0.852430  0.757730  0.302540  1.0  -0.0132
  C  C140  1  0.900050  0.772850  0.357500  1.0  -0.1936
  C  C141  1  0.834690  0.724290  0.446620  1.0  -0.0444
  C  C142  1  0.728980  0.659180  0.480640  1.0  -0.1441
  C  C143  1  0.019150  0.842950  0.319900  1.0  0.6969
  C  C144  1  0.487390  0.743690  0.234220  1.0  -0.0063
  C  C145  1  0.566760  0.718060  0.176480  1.0  -0.1695
  C  C146  1  0.632060  0.784660  0.090880  1.0  0.0229
  C  C147  1  0.620600  0.877400  0.064800  1.0  -0.136
  C  C148  1  0.538900  0.899900  0.123200  1.0  0.0048
  C  C149  1  0.472170  0.834670  0.207260  1.0  -0.1527
  C  C150  1  0.695900  0.950500  0.973400  1.0  0.6353
  C  C151  1  0.380880  0.862380  0.269040  1.0  0.683
  C  C152  1  0.576940  0.619640  0.203520  1.0  0.714
  C  C153  1  0.510300  0.085800  0.376200  1.0  -0.1248
  C  C154  1  0.467600  0.065700  0.324200  1.0  0.0569
  C  C155  1  0.342390  0.975290  0.454820  1.0  0.1695
  C  C156  1  0.234130  0.902930  0.524940  1.0  0.1848
  C  C157  1  0.216300  0.862200  0.612000  1.0  -0.1668
  C  C158  1  0.105700  0.795600  0.669600  1.0  0.0152
  C  C159  1  0.023900  0.771300  0.637200  1.0  -0.1759
  C  C160  1  0.051500  0.814100  0.549400  1.0  0.1824
  C  C161  1  0.438600  0.032700  0.538200  1.0  -0.0666
  C  C162  1  0.318320  0.068320  0.574960  1.0  0.0467
  C  C163  1  0.256900  0.029300  0.663000  1.0  -0.1332
  C  C164  1  0.147570  0.060270  0.697460  1.0  -0.0147
  C  C165  1  0.099950  0.130350  0.642500  1.0  -0.196
  C  C166  1  0.165310  0.170910  0.553380  1.0  -0.0346
  C  C167  1  0.271020  0.139820  0.519360  1.0  -0.1422
  C  C168  1  0.980850  0.162850  0.680100  1.0  0.6974
  N  N169  1  0.893480  0.986680  0.539840  1.0  0.0278
  N  N170  1  0.736520  0.869420  0.627560  1.0  -0.373
  N  N171  1  0.645770  0.871670  0.508460  1.0  -0.3485
  N  N172  1  0.106520  0.526520  0.460160  1.0  0.0286
  N  N173  1  0.263480  0.496980  0.372440  1.0  -0.3767
  N  N174  1  0.354230  0.380130  0.491540  1.0  -0.3486
  N  N175  1  0.566680  0.486680  0.539840  1.0  0.028
  N  N176  1  0.635920  0.369420  0.627560  1.0  -0.3725
  N  N177  1  0.845770  0.371670  0.508460  1.0  -0.3488
  N  N178  1  0.433320  0.026520  0.460160  1.0  0.0274
  N  N179  1  0.364080  0.996980  0.372440  1.0  -0.3762
  N  N180  1  0.154230  0.880130  0.491540  1.0  -0.3478
  O  O181  1  0.637330  0.488930  0.043340  1.0  -0.6108
  O  O182  1  0.654300  0.341900  0.087000  1.0  -0.5877
  O  O183  1  0.705160  0.665560  0.651880  1.0  -0.5752
  O  O184  1  0.567900  0.670600  0.764200  1.0  -0.6404
  O  O185  1  0.825870  0.346270  0.716660  1.0  -0.6142
  O  O186  1  0.761260  0.241260  0.857280  1.0  -0.6222
  O  O187  1  0.567550  0.355250  0.370100  1.0  -0.5817
  O  O188  1  0.694590  0.384390  0.237420  1.0  -0.6262
  O  O189  1  0.362670  0.532270  0.956660  1.0  -0.6105
  O  O190  1  0.345700  0.428900  0.913000  1.0  -0.5807
  O  O191  1  0.294840  0.317440  0.348120  1.0  -0.5749
  O  O192  1  0.432100  0.434800  0.235800  1.0  -0.6391
  O  O193  1  0.174130  0.062930  0.283340  1.0  -0.614
  O  O194  1  0.238740  0.098540  0.142720  1.0  -0.6219
  O  O195  1  0.432450  0.725350  0.629900  1.0  -0.581
  O  O196  1  0.305410  0.621810  0.762580  1.0  -0.6266
  O  O197  1  0.319330  0.988930  0.043340  1.0  -0.6112
  O  O198  1  0.258700  0.841900  0.087000  1.0  -0.5844
  O  O199  1  0.642960  0.165560  0.651880  1.0  -0.5751
  O  O200  1  0.667900  0.170600  0.764200  1.0  -0.6417
  O  O201  1  0.457470  0.846270  0.716660  1.0  -0.6142
  O  O202  1  0.381460  0.741260  0.857280  1.0  -0.6272
  O  O203  1  0.062350  0.855250  0.370100  1.0  -0.5809
  O  O204  1  0.067990  0.884390  0.237420  1.0  -0.6237
  O  O205  1  0.680670  0.032270  0.956660  1.0  -0.6101
  O  O206  1  0.741300  0.928900  0.913000  1.0  -0.5803
  O  O207  1  0.357040  0.817440  0.348120  1.0  -0.5754
  O  O208  1  0.332100  0.934800  0.235800  1.0  -0.6393
  O  O209  1  0.542530  0.562930  0.283340  1.0  -0.614
  O  O210  1  0.618540  0.598540  0.142720  1.0  -0.6272
  O  O211  1  0.937650  0.225350  0.629900  1.0  -0.5821
  O  O212  1  0.932010  0.121810  0.762580  1.0  -0.6244
