# generated using pymatgen
data_Cd3P2H22C14(NO5)2
_symmetry_space_group_name_H-M   'P 1'
_cell_length_a   22.49410000
_cell_length_b   11.13770000
_cell_length_c   9.81010000
_cell_angle_alpha   90.00000000
_cell_angle_beta   103.10000000
_cell_angle_gamma   90.00000000
_symmetry_Int_Tables_number   1
_chemical_formula_structural   Cd3P2H22C14(NO5)2
_chemical_formula_sum   'Cd12 P8 H88 C56 N8 O40'
_cell_volume   2393.78870000
_cell_formula_units_Z   4
loop_
 _symmetry_equiv_pos_site_id
 _symmetry_equiv_pos_as_xyz
  1  'x, y, z'
loop_
 _atom_site_type_symbol
 _atom_site_label
 _atom_site_symmetry_multiplicity
 _atom_site_fract_x
 _atom_site_fract_y
 _atom_site_fract_z
 _atom_site_occupancy
 _atom_site_charge
  Cd  Cd1  1  0.392140  0.085920  0.071670  1.0  0.9873
  Cd  Cd2  1  0.892140  0.585920  0.071670  1.0  0.9873
  Cd  Cd3  1  0.607860  0.085920  0.428330  1.0  0.9865
  Cd  Cd4  1  0.107860  0.585920  0.428330  1.0  0.9865
  Cd  Cd5  1  0.607860  0.914080  0.928330  1.0  0.9867
  Cd  Cd6  1  0.107860  0.414080  0.928330  1.0  0.9867
  Cd  Cd7  1  0.392140  0.914080  0.571670  1.0  0.9881
  Cd  Cd8  1  0.892140  0.414080  0.571670  1.0  0.9881
  Cd  Cd9  1  0.500000  0.880010  0.250000  1.0  1.121
  Cd  Cd10  1  0.000000  0.380010  0.250000  1.0  1.121
  Cd  Cd11  1  0.500000  0.119990  0.750000  1.0  1.1192
  Cd  Cd12  1  0.000000  0.619990  0.750000  1.0  1.1192
  P  P13  1  0.454230  0.133200  0.406570  1.0  1.5372
  P  P14  1  0.954230  0.633200  0.406570  1.0  1.5372
  P  P15  1  0.545770  0.133200  0.093430  1.0  1.5344
  P  P16  1  0.045770  0.633200  0.093430  1.0  1.5344
  P  P17  1  0.545770  0.866800  0.593430  1.0  1.535
  P  P18  1  0.045770  0.366800  0.593430  1.0  1.535
  P  P19  1  0.454230  0.866800  0.906570  1.0  1.5371
  P  P20  1  0.954230  0.366800  0.906570  1.0  1.5371
  H  H21  1  0.446400  0.314000  0.287000  1.0  0.1463
  H  H22  1  0.405100  0.317200  0.393500  1.0  0.1361
  H  H23  1  0.322000  0.136400  0.321300  1.0  0.0941
  H  H24  1  0.278600  0.177000  0.182800  1.0  0.0851
  H  H25  1  0.310400  0.316700  0.427000  1.0  0.0848
  H  H26  1  0.245600  0.266400  0.363300  1.0  0.0961
  H  H27  1  0.257000  0.474000  0.317700  1.0  0.088
  H  H28  1  0.352400  0.483400  0.280300  1.0  0.0991
  H  H29  1  0.309200  0.524800  0.141200  1.0  0.0942
  H  H30  1  0.314900  0.337300  0.042100  1.0  0.0931
  H  H31  1  0.380500  0.387000  0.094100  1.0  0.0988
  H  H32  1  0.946400  0.814000  0.287000  1.0  0.1463
  H  H33  1  0.905100  0.817200  0.393500  1.0  0.1361
  H  H34  1  0.822000  0.636400  0.321300  1.0  0.0941
  H  H35  1  0.778600  0.677000  0.182800  1.0  0.0851
  H  H36  1  0.810400  0.816700  0.427000  1.0  0.0848
  H  H37  1  0.745600  0.766400  0.363300  1.0  0.0961
  H  H38  1  0.757000  0.974000  0.317700  1.0  0.088
  H  H39  1  0.852400  0.983400  0.280300  1.0  0.0991
  H  H40  1  0.809200  0.024800  0.141200  1.0  0.0942
  H  H41  1  0.814900  0.837300  0.042100  1.0  0.0931
  H  H42  1  0.880500  0.887000  0.094100  1.0  0.0988
  H  H43  1  0.553600  0.314000  0.213000  1.0  0.1462
  H  H44  1  0.594900  0.317200  0.106500  1.0  0.1364
  H  H45  1  0.678000  0.136400  0.178700  1.0  0.0942
  H  H46  1  0.721400  0.177000  0.317200  1.0  0.084
  H  H47  1  0.689600  0.316700  0.073000  1.0  0.0854
  H  H48  1  0.754400  0.266400  0.136700  1.0  0.0974
  H  H49  1  0.743000  0.474000  0.182300  1.0  0.0875
  H  H50  1  0.647600  0.483400  0.219700  1.0  0.1006
  H  H51  1  0.690800  0.524800  0.358800  1.0  0.0936
  H  H52  1  0.685100  0.337300  0.457900  1.0  0.0904
  H  H53  1  0.619500  0.387000  0.405900  1.0  0.0993
  H  H54  1  0.053600  0.814000  0.213000  1.0  0.1462
  H  H55  1  0.094900  0.817200  0.106500  1.0  0.1364
  H  H56  1  0.178000  0.636400  0.178700  1.0  0.0942
  H  H57  1  0.221400  0.677000  0.317200  1.0  0.084
  H  H58  1  0.189600  0.816700  0.073000  1.0  0.0854
  H  H59  1  0.254400  0.766400  0.136700  1.0  0.0974
  H  H60  1  0.243000  0.974000  0.182300  1.0  0.0875
  H  H61  1  0.147600  0.983400  0.219700  1.0  0.1006
  H  H62  1  0.190800  0.024800  0.358800  1.0  0.0936
  H  H63  1  0.185100  0.837300  0.457900  1.0  0.0904
  H  H64  1  0.119500  0.887000  0.405900  1.0  0.0993
  H  H65  1  0.553600  0.686000  0.713000  1.0  0.1469
  H  H66  1  0.594900  0.682800  0.606500  1.0  0.1365
  H  H67  1  0.678000  0.863600  0.678700  1.0  0.094
  H  H68  1  0.721400  0.823000  0.817200  1.0  0.0839
  H  H69  1  0.689600  0.683300  0.573000  1.0  0.0858
  H  H70  1  0.754400  0.733600  0.636700  1.0  0.0975
  H  H71  1  0.743000  0.526000  0.682300  1.0  0.0872
  H  H72  1  0.647600  0.516600  0.719700  1.0  0.1008
  H  H73  1  0.690800  0.475200  0.858800  1.0  0.0953
  H  H74  1  0.685100  0.662700  0.957900  1.0  0.0904
  H  H75  1  0.619500  0.613000  0.905900  1.0  0.0992
  H  H76  1  0.053600  0.186000  0.713000  1.0  0.1469
  H  H77  1  0.094900  0.182800  0.606500  1.0  0.1365
  H  H78  1  0.178000  0.363600  0.678700  1.0  0.094
  H  H79  1  0.221400  0.323000  0.817200  1.0  0.0839
  H  H80  1  0.189600  0.183300  0.573000  1.0  0.0858
  H  H81  1  0.254400  0.233600  0.636700  1.0  0.0975
  H  H82  1  0.243000  0.026000  0.682300  1.0  0.0872
  H  H83  1  0.147600  0.016600  0.719700  1.0  0.1008
  H  H84  1  0.190800  0.975200  0.858800  1.0  0.0953
  H  H85  1  0.185100  0.162700  0.957900  1.0  0.0904
  H  H86  1  0.119500  0.113000  0.905900  1.0  0.0992
  H  H87  1  0.446400  0.686000  0.787000  1.0  0.1461
  H  H88  1  0.405100  0.682800  0.893500  1.0  0.1364
  H  H89  1  0.322000  0.863600  0.821300  1.0  0.0925
  H  H90  1  0.278600  0.823000  0.682800  1.0  0.0854
  H  H91  1  0.310400  0.683300  0.927000  1.0  0.0846
  H  H92  1  0.245600  0.733600  0.863300  1.0  0.0956
  H  H93  1  0.257000  0.526000  0.817700  1.0  0.0881
  H  H94  1  0.352400  0.516600  0.780300  1.0  0.1003
  H  H95  1  0.309200  0.475200  0.641200  1.0  0.0943
  H  H96  1  0.314900  0.662700  0.542100  1.0  0.093
  H  H97  1  0.380500  0.613000  0.594100  1.0  0.0979
  H  H98  1  0.946400  0.186000  0.787000  1.0  0.1461
  H  H99  1  0.905100  0.182800  0.893500  1.0  0.1364
  H  H100  1  0.822000  0.363600  0.821300  1.0  0.0925
  H  H101  1  0.778600  0.323000  0.682800  1.0  0.0854
  H  H102  1  0.810400  0.183300  0.927000  1.0  0.0846
  H  H103  1  0.745600  0.233600  0.863300  1.0  0.0956
  H  H104  1  0.757000  0.026000  0.817700  1.0  0.0881
  H  H105  1  0.852400  0.016600  0.780300  1.0  0.1003
  H  H106  1  0.809200  0.975200  0.641200  1.0  0.0943
  H  H107  1  0.814900  0.162700  0.542100  1.0  0.093
  H  H108  1  0.880500  0.113000  0.594100  1.0  0.0979
  C  C109  1  0.417140  0.268840  0.323370  1.0  -0.4106
  C  C110  1  0.309540  0.204130  0.260990  1.0  -0.0034
  C  C111  1  0.281890  0.298320  0.340780  1.0  -0.1275
  C  C112  1  0.265940  0.413630  0.255330  1.0  -0.1567
  C  C113  1  0.320940  0.457470  0.202500  1.0  -0.1163
  C  C114  1  0.345480  0.357550  0.124230  1.0  -0.0071
  C  C115  1  0.209140  0.400980  0.135330  1.0  0.6799
  C  C116  1  0.917140  0.768840  0.323370  1.0  -0.4106
  C  C117  1  0.809540  0.704130  0.260990  1.0  -0.0034
  C  C118  1  0.781890  0.798320  0.340780  1.0  -0.1275
  C  C119  1  0.765940  0.913630  0.255330  1.0  -0.1567
  C  C120  1  0.820940  0.957470  0.202500  1.0  -0.1163
  C  C121  1  0.845480  0.857550  0.124230  1.0  -0.0071
  C  C122  1  0.709140  0.900980  0.135330  1.0  0.6799
  C  C123  1  0.582860  0.268840  0.176630  1.0  -0.4126
  C  C124  1  0.690460  0.204130  0.239010  1.0  -0.004
  C  C125  1  0.718110  0.298320  0.159220  1.0  -0.1261
  C  C126  1  0.734060  0.413630  0.244670  1.0  -0.1541
  C  C127  1  0.679060  0.457470  0.297500  1.0  -0.1154
  C  C128  1  0.654520  0.357550  0.375770  1.0  -0.0071
  C  C129  1  0.790860  0.400980  0.364670  1.0  0.6856
  C  C130  1  0.082860  0.768840  0.176630  1.0  -0.4126
  C  C131  1  0.190460  0.704130  0.239010  1.0  -0.004
  C  C132  1  0.218110  0.798320  0.159220  1.0  -0.1261
  C  C133  1  0.234060  0.913630  0.244670  1.0  -0.1541
  C  C134  1  0.179060  0.957470  0.297500  1.0  -0.1154
  C  C135  1  0.154520  0.857550  0.375770  1.0  -0.0071
  C  C136  1  0.290860  0.900980  0.364670  1.0  0.6856
  C  C137  1  0.582860  0.731160  0.676630  1.0  -0.4135
  C  C138  1  0.690460  0.795870  0.739010  1.0  -0.0042
  C  C139  1  0.718110  0.701680  0.659220  1.0  -0.1261
  C  C140  1  0.734060  0.586370  0.744670  1.0  -0.1546
  C  C141  1  0.679060  0.542530  0.797500  1.0  -0.1146
  C  C142  1  0.654520  0.642450  0.875770  1.0  -0.0075
  C  C143  1  0.790860  0.599020  0.864670  1.0  0.6856
  C  C144  1  0.082860  0.231160  0.676630  1.0  -0.4135
  C  C145  1  0.190460  0.295870  0.739010  1.0  -0.0042
  C  C146  1  0.218110  0.201680  0.659220  1.0  -0.1261
  C  C147  1  0.234060  0.086370  0.744670  1.0  -0.1546
  C  C148  1  0.179060  0.042530  0.797500  1.0  -0.1146
  C  C149  1  0.154520  0.142450  0.875770  1.0  -0.0075
  C  C150  1  0.290860  0.099020  0.864670  1.0  0.6856
  C  C151  1  0.417140  0.731160  0.823370  1.0  -0.4103
  C  C152  1  0.309540  0.795870  0.760990  1.0  -0.0042
  C  C153  1  0.281890  0.701680  0.840780  1.0  -0.127
  C  C154  1  0.265940  0.586370  0.755330  1.0  -0.1567
  C  C155  1  0.320940  0.542530  0.702500  1.0  -0.1156
  C  C156  1  0.345480  0.642450  0.624230  1.0  -0.0065
  C  C157  1  0.209140  0.599020  0.635330  1.0  0.6799
  C  C158  1  0.917140  0.231160  0.823370  1.0  -0.4103
  C  C159  1  0.809540  0.295870  0.760990  1.0  -0.0042
  C  C160  1  0.781890  0.201680  0.840780  1.0  -0.127
  C  C161  1  0.765940  0.086370  0.755330  1.0  -0.1567
  C  C162  1  0.820940  0.042530  0.702500  1.0  -0.1156
  C  C163  1  0.845480  0.142450  0.624230  1.0  -0.0065
  C  C164  1  0.709140  0.099020  0.635330  1.0  0.6799
  N  N165  1  0.362940  0.247250  0.208460  1.0  -0.145
  N  N166  1  0.862940  0.747250  0.208460  1.0  -0.145
  N  N167  1  0.637060  0.247250  0.291540  1.0  -0.1465
  N  N168  1  0.137060  0.747250  0.291540  1.0  -0.1465
  N  N169  1  0.637060  0.752750  0.791540  1.0  -0.1456
  N  N170  1  0.137060  0.252750  0.791540  1.0  -0.1456
  N  N171  1  0.362940  0.752750  0.708460  1.0  -0.1448
  N  N172  1  0.862940  0.252750  0.708460  1.0  -0.1448
  O  O173  1  0.439860  0.033300  0.297500  1.0  -0.8911
  O  O174  1  0.429500  0.101700  0.535200  1.0  -0.9279
  O  O175  1  0.520730  0.169100  0.450300  1.0  -0.8802
  O  O176  1  0.205560  0.464500  0.028400  1.0  -0.5843
  O  O177  1  0.166990  0.332200  0.148700  1.0  -0.6327
  O  O178  1  0.939860  0.533300  0.297500  1.0  -0.8911
  O  O179  1  0.929500  0.601700  0.535200  1.0  -0.9279
  O  O180  1  0.020730  0.669100  0.450300  1.0  -0.8802
  O  O181  1  0.705560  0.964500  0.028400  1.0  -0.5843
  O  O182  1  0.666990  0.832200  0.148700  1.0  -0.6327
  O  O183  1  0.560140  0.033300  0.202500  1.0  -0.8922
  O  O184  1  0.570500  0.101700  0.964800  1.0  -0.9271
  O  O185  1  0.479270  0.169100  0.049700  1.0  -0.8823
  O  O186  1  0.794440  0.464500  0.471600  1.0  -0.5845
  O  O187  1  0.833010  0.332200  0.351300  1.0  -0.63
  O  O188  1  0.060140  0.533300  0.202500  1.0  -0.8922
  O  O189  1  0.070500  0.601700  0.964800  1.0  -0.9271
  O  O190  1  0.979270  0.669100  0.049700  1.0  -0.8823
  O  O191  1  0.294440  0.964500  0.471600  1.0  -0.5845
  O  O192  1  0.333010  0.832200  0.351300  1.0  -0.63
  O  O193  1  0.560140  0.966700  0.702500  1.0  -0.8921
  O  O194  1  0.570500  0.898300  0.464800  1.0  -0.9266
  O  O195  1  0.479270  0.830900  0.549700  1.0  -0.8829
  O  O196  1  0.794440  0.535500  0.971600  1.0  -0.5871
  O  O197  1  0.833010  0.667800  0.851300  1.0  -0.629
  O  O198  1  0.060140  0.466700  0.702500  1.0  -0.8921
  O  O199  1  0.070500  0.398300  0.464800  1.0  -0.9266
  O  O200  1  0.979270  0.330900  0.549700  1.0  -0.8829
  O  O201  1  0.294440  0.035500  0.971600  1.0  -0.5871
  O  O202  1  0.333010  0.167800  0.851300  1.0  -0.629
  O  O203  1  0.439860  0.966700  0.797500  1.0  -0.8916
  O  O204  1  0.429500  0.898300  0.035200  1.0  -0.9274
  O  O205  1  0.520730  0.830900  0.950300  1.0  -0.8803
  O  O206  1  0.205560  0.535500  0.528400  1.0  -0.582
  O  O207  1  0.166990  0.667800  0.648700  1.0  -0.6308
  O  O208  1  0.939860  0.466700  0.797500  1.0  -0.8916
  O  O209  1  0.929500  0.398300  0.035200  1.0  -0.9274
  O  O210  1  0.020730  0.330900  0.950300  1.0  -0.8803
  O  O211  1  0.705560  0.035500  0.528400  1.0  -0.582
  O  O212  1  0.666990  0.167800  0.648700  1.0  -0.6308
