# generated using pymatgen
data_Cd2HC9NO8
_symmetry_space_group_name_H-M   'P 1'
_cell_length_a   8.39890000
_cell_length_b   8.53500000
_cell_length_c   11.48830000
_cell_angle_alpha   89.32500000
_cell_angle_beta   69.01400000
_cell_angle_gamma   67.26900000
_symmetry_Int_Tables_number   1
_chemical_formula_structural   Cd2HC9NO8
_chemical_formula_sum   'Cd4 H2 C18 N2 O16'
_cell_volume   701.47953291
_cell_formula_units_Z   2
loop_
 _symmetry_equiv_pos_site_id
 _symmetry_equiv_pos_as_xyz
  1  'x, y, z'
loop_
 _atom_site_type_symbol
 _atom_site_label
 _atom_site_symmetry_multiplicity
 _atom_site_fract_x
 _atom_site_fract_y
 _atom_site_fract_z
 _atom_site_occupancy
 _atom_site_charge
  Cd  Cd1  1  0.236330  0.800770  0.889860  1.0  1.131
  Cd  Cd2  1  0.148020  0.438420  0.592290  1.0  1.1544
  Cd  Cd3  1  0.763670  0.199230  0.110140  1.0  1.1263
  Cd  Cd4  1  0.851980  0.561580  0.407710  1.0  1.1533
  H  H5  1  0.285600  0.167100  0.140000  1.0  0.1251
  H  H6  1  0.714400  0.832900  0.860000  1.0  0.1238
  C  C7  1  0.282900  0.703000  0.151800  1.0  0.6155
  C  C8  1  0.279800  0.543700  0.096200  1.0  0.1325
  C  C9  1  0.288600  0.400800  0.157900  1.0  -0.1657
  C  C10  1  0.311300  0.384400  0.282700  1.0  0.7682
  C  C11  1  0.276300  0.265300  0.102000  1.0  0.014
  C  C12  1  0.250000  0.276400  0.988900  1.0  -0.0618
  C  C13  1  0.233700  0.124500  0.935700  1.0  0.6938
  C  C14  1  0.240900  0.423300  0.933700  1.0  0.1151
  C  C15  1  0.199800  0.454900  0.817000  1.0  0.6366
  C  C16  1  0.717100  0.297000  0.848200  1.0  0.6175
  C  C17  1  0.720200  0.456300  0.903800  1.0  0.1323
  C  C18  1  0.711400  0.599200  0.842100  1.0  -0.1655
  C  C19  1  0.688700  0.615600  0.717300  1.0  0.7578
  C  C20  1  0.723700  0.734700  0.898000  1.0  0.0123
  C  C21  1  0.750000  0.723600  0.011100  1.0  -0.0614
  C  C22  1  0.766300  0.875500  0.064300  1.0  0.6944
  C  C23  1  0.759100  0.576700  0.066300  1.0  0.1144
  C  C24  1  0.800200  0.545100  0.183000  1.0  0.6359
  N  N25  1  0.260300  0.552100  0.985700  1.0  -0.3426
  N  N26  1  0.739700  0.447900  0.014300  1.0  -0.3429
  O  O27  1  0.271600  0.825100  0.088300  1.0  -0.603
  O  O28  1  0.291600  0.701600  0.257800  1.0  -0.5669
  O  O29  1  0.161500  0.424800  0.381200  1.0  -0.681
  O  O30  1  0.471300  0.324100  0.282500  1.0  -0.5922
  O  O31  1  0.080600  0.112800  0.981900  1.0  -0.647
  O  O32  1  0.377800  0.008300  0.857500  1.0  -0.5685
  O  O33  1  0.161800  0.346000  0.773000  1.0  -0.536
  O  O34  1  0.198800  0.588200  0.771400  1.0  -0.6137
  O  O35  1  0.728400  0.174900  0.911700  1.0  -0.5999
  O  O36  1  0.708400  0.298400  0.742200  1.0  -0.5645
  O  O37  1  0.838500  0.575200  0.618800  1.0  -0.6835
  O  O38  1  0.528700  0.675900  0.717500  1.0  -0.5929
  O  O39  1  0.919400  0.887200  0.018100  1.0  -0.6461
  O  O40  1  0.622200  0.991700  0.142500  1.0  -0.5701
  O  O41  1  0.838200  0.654000  0.227000  1.0  -0.536
  O  O42  1  0.801200  0.411800  0.228600  1.0  -0.6133
