# generated using pymatgen
data_Cd5(C3N2)4
_symmetry_space_group_name_H-M   'P 1'
_cell_length_a   20.07000000
_cell_length_b   20.07000000
_cell_length_c   12.73300000
_cell_angle_alpha   90.00000000
_cell_angle_beta   90.00000000
_cell_angle_gamma   90.00000000
_symmetry_Int_Tables_number   1
_chemical_formula_structural   Cd5(C3N2)4
_chemical_formula_sum   'Cd20 C48 N32'
_cell_volume   5128.91479170
_cell_formula_units_Z   4
loop_
 _symmetry_equiv_pos_site_id
 _symmetry_equiv_pos_as_xyz
  1  'x, y, z'
loop_
 _atom_site_type_symbol
 _atom_site_label
 _atom_site_symmetry_multiplicity
 _atom_site_fract_x
 _atom_site_fract_y
 _atom_site_fract_z
 _atom_site_occupancy
 _atom_site_charge
  Cd  Cd1  1  0.103840  0.069040  0.406670  1.0  0.7274
  Cd  Cd2  1  0.603840  0.569040  0.906670  1.0  0.7274
  Cd  Cd3  1  0.396160  0.930960  0.906670  1.0  0.7278
  Cd  Cd4  1  0.896160  0.430960  0.406670  1.0  0.7278
  Cd  Cd5  1  0.680960  0.353840  0.656670  1.0  0.7281
  Cd  Cd6  1  0.180960  0.853840  0.156670  1.0  0.7281
  Cd  Cd7  1  0.819040  0.646160  0.156670  1.0  0.7286
  Cd  Cd8  1  0.319040  0.146160  0.656670  1.0  0.7286
  Cd  Cd9  1  0.896160  0.930960  0.593330  1.0  0.7267
  Cd  Cd10  1  0.396160  0.430960  0.093330  1.0  0.7267
  Cd  Cd11  1  0.603840  0.069040  0.093330  1.0  0.7263
  Cd  Cd12  1  0.103840  0.569040  0.593330  1.0  0.7263
  Cd  Cd13  1  0.319040  0.646160  0.343330  1.0  0.7274
  Cd  Cd14  1  0.819040  0.146160  0.843330  1.0  0.7274
  Cd  Cd15  1  0.180960  0.353840  0.843330  1.0  0.727
  Cd  Cd16  1  0.680960  0.853840  0.343330  1.0  0.727
  Cd  Cd17  1  0.000000  0.250000  0.125000  1.0  0.5998
  Cd  Cd18  1  0.500000  0.750000  0.625000  1.0  0.5998
  Cd  Cd19  1  0.500000  0.250000  0.375000  1.0  0.5998
  Cd  Cd20  1  0.000000  0.750000  0.875000  1.0  0.5998
  C  C21  1  0.192100  0.094200  0.498200  1.0  0.0233
  C  C22  1  0.046400  0.174700  0.225600  1.0  -0.007
  C  C23  1  0.021900  0.013700  0.479800  1.0  -0.0637
  C  C24  1  0.692100  0.594200  0.998200  1.0  0.0233
  C  C25  1  0.546400  0.674700  0.725600  1.0  -0.007
  C  C26  1  0.521900  0.513700  0.979800  1.0  -0.0637
  C  C27  1  0.307900  0.905800  0.998200  1.0  0.0229
  C  C28  1  0.453600  0.825300  0.725600  1.0  -0.0057
  C  C29  1  0.478100  0.986300  0.979800  1.0  -0.0619
  C  C30  1  0.807900  0.405800  0.498200  1.0  0.0229
  C  C31  1  0.953600  0.325300  0.225600  1.0  -0.0057
  C  C32  1  0.978100  0.486300  0.479800  1.0  -0.0619
  C  C33  1  0.655800  0.442100  0.748200  1.0  0.0208
  C  C34  1  0.575300  0.296400  0.475600  1.0  -0.0052
  C  C35  1  0.736300  0.271900  0.729800  1.0  -0.0633
  C  C36  1  0.155800  0.942100  0.248200  1.0  0.0208
  C  C37  1  0.075300  0.796400  0.975600  1.0  -0.0052
  C  C38  1  0.236300  0.771900  0.229800  1.0  -0.0633
  C  C39  1  0.844200  0.557900  0.248200  1.0  0.0193
  C  C40  1  0.924700  0.703600  0.975600  1.0  -0.0046
  C  C41  1  0.763700  0.728100  0.229800  1.0  -0.0633
  C  C42  1  0.344200  0.057900  0.748200  1.0  0.0193
  C  C43  1  0.424700  0.203600  0.475600  1.0  -0.0046
  C  C44  1  0.263700  0.228100  0.729800  1.0  -0.0633
  C  C45  1  0.807900  0.905800  0.501800  1.0  0.0213
  C  C46  1  0.953600  0.825300  0.774400  1.0  -0.0055
  C  C47  1  0.978100  0.986300  0.520200  1.0  -0.0624
  C  C48  1  0.307900  0.405800  0.001800  1.0  0.0213
  C  C49  1  0.453600  0.325300  0.274400  1.0  -0.0055
  C  C50  1  0.478100  0.486300  0.020200  1.0  -0.0624
  C  C51  1  0.692100  0.094200  0.001800  1.0  0.0215
  C  C52  1  0.546400  0.174700  0.274400  1.0  -0.0069
  C  C53  1  0.521900  0.013700  0.020200  1.0  -0.0638
  C  C54  1  0.192100  0.594200  0.501800  1.0  0.0215
  C  C55  1  0.046400  0.674700  0.774400  1.0  -0.0069
  C  C56  1  0.021900  0.513700  0.520200  1.0  -0.0638
  C  C57  1  0.344200  0.557900  0.251800  1.0  0.0176
  C  C58  1  0.424700  0.703600  0.524400  1.0  -0.0044
  C  C59  1  0.263700  0.728100  0.270200  1.0  -0.0636
  C  C60  1  0.844200  0.057900  0.751800  1.0  0.0176
  C  C61  1  0.924700  0.203600  0.024400  1.0  -0.0044
  C  C62  1  0.763700  0.228100  0.770200  1.0  -0.0636
  C  C63  1  0.155800  0.442100  0.751800  1.0  0.0192
  C  C64  1  0.075300  0.296400  0.024400  1.0  -0.0052
  C  C65  1  0.236300  0.271900  0.770200  1.0  -0.064
  C  C66  1  0.655800  0.942100  0.251800  1.0  0.0192
  C  C67  1  0.575300  0.796400  0.524400  1.0  -0.0052
  C  C68  1  0.736300  0.771900  0.270200  1.0  -0.064
  N  N69  1  0.141100  0.986700  0.298000  1.0  -0.4216
  N  N70  1  0.068700  0.137300  0.281600  1.0  -0.4101
  N  N71  1  0.641100  0.486700  0.798000  1.0  -0.4216
  N  N72  1  0.568700  0.637300  0.781600  1.0  -0.4101
  N  N73  1  0.358900  0.013300  0.798000  1.0  -0.4203
  N  N74  1  0.431300  0.862700  0.781600  1.0  -0.4124
  N  N75  1  0.858900  0.513300  0.298000  1.0  -0.4203
  N  N76  1  0.931300  0.362700  0.281600  1.0  -0.4124
  N  N77  1  0.763300  0.391100  0.548000  1.0  -0.4176
  N  N78  1  0.612700  0.318700  0.531600  1.0  -0.4096
  N  N79  1  0.263300  0.891100  0.048000  1.0  -0.4176
  N  N80  1  0.112700  0.818700  0.031600  1.0  -0.4096
  N  N81  1  0.736700  0.608900  0.048000  1.0  -0.4177
  N  N82  1  0.887300  0.681300  0.031600  1.0  -0.4102
  N  N83  1  0.236700  0.108900  0.548000  1.0  -0.4177
  N  N84  1  0.387300  0.181300  0.531600  1.0  -0.4102
  N  N85  1  0.858900  0.013300  0.702000  1.0  -0.4197
  N  N86  1  0.931300  0.862700  0.718400  1.0  -0.4117
  N  N87  1  0.358900  0.513300  0.202000  1.0  -0.4197
  N  N88  1  0.431300  0.362700  0.218400  1.0  -0.4117
  N  N89  1  0.641100  0.986700  0.202000  1.0  -0.4202
  N  N90  1  0.568700  0.137300  0.218400  1.0  -0.4099
  N  N91  1  0.141100  0.486700  0.702000  1.0  -0.4202
  N  N92  1  0.068700  0.637300  0.718400  1.0  -0.4099
  N  N93  1  0.236700  0.608900  0.452000  1.0  -0.4172
  N  N94  1  0.387300  0.681300  0.468400  1.0  -0.4092
  N  N95  1  0.736700  0.108900  0.952000  1.0  -0.4172
  N  N96  1  0.887300  0.181300  0.968400  1.0  -0.4092
  N  N97  1  0.263300  0.391100  0.952000  1.0  -0.4167
  N  N98  1  0.112700  0.318700  0.968400  1.0  -0.4101
  N  N99  1  0.763300  0.891100  0.452000  1.0  -0.4167
  N  N100  1  0.612700  0.818700  0.468400  1.0  -0.4101
