# generated using pymatgen
data_H14Pb(C3O)6
_symmetry_space_group_name_H-M   'P 1'
_cell_length_a   10.23940000
_cell_length_b   37.78630000
_cell_length_c   10.07310000
_cell_angle_alpha   90.00000000
_cell_angle_beta   97.14400000
_cell_angle_gamma   90.00000000
_symmetry_Int_Tables_number   1
_chemical_formula_structural   H14Pb(C3O)6
_chemical_formula_sum   'H112 Pb8 C144 O48'
_cell_volume   3867.11707569
_cell_formula_units_Z   8
loop_
 _symmetry_equiv_pos_site_id
 _symmetry_equiv_pos_as_xyz
  1  'x, y, z'
loop_
 _atom_site_type_symbol
 _atom_site_label
 _atom_site_symmetry_multiplicity
 _atom_site_fract_x
 _atom_site_fract_y
 _atom_site_fract_z
 _atom_site_occupancy
 _atom_site_charge
  H  H1  1  0.041200  0.302300  0.696000  1.0  0.1045
  H  H2  1  0.951200  0.271700  0.862400  1.0  0.1063
  H  H3  1  0.908200  0.300800  0.056000  1.0  0.1097
  H  H4  1  0.929700  0.437900  0.176300  1.0  0.0961
  H  H5  1  0.093100  0.474000  0.280700  1.0  0.1096
  H  H6  1  0.301100  0.450800  0.353300  1.0  0.1098
  H  H7  1  0.474600  0.318100  0.365700  1.0  0.1066
  H  H8  1  0.579700  0.284400  0.218600  1.0  0.116
  H  H9  1  0.611600  0.307400  0.011800  1.0  0.1074
  H  H10  1  0.541500  0.437600  0.818300  1.0  0.1079
  H  H11  1  0.367700  0.466400  0.694200  1.0  0.1109
  H  H12  1  0.170600  0.437500  0.634700  1.0  0.104
  H  H13  1  0.908900  0.349700  0.191600  1.0  0.1147
  H  H14  1  0.845700  0.382400  0.106000  1.0  0.0972
  H  H15  1  0.452500  0.406300  0.377100  1.0  0.1324
  H  H16  1  0.388400  0.371800  0.433500  1.0  0.1127
  H  H17  1  0.641300  0.386500  0.914600  1.0  0.099
  H  H18  1  0.587600  0.350200  0.847800  1.0  0.1272
  H  H19  1  0.105600  0.354800  0.599300  1.0  0.0944
  H  H20  1  0.029900  0.389500  0.637600  1.0  0.1262
  H  H21  1  0.862200  0.417700  0.776500  1.0  0.1102
  H  H22  1  0.837200  0.415900  0.930000  1.0  0.0721
  H  H23  1  0.228500  0.331300  0.419900  1.0  0.0715
  H  H24  1  0.072900  0.331000  0.376600  1.0  0.0859
  H  H25  1  0.634500  0.425200  0.229300  1.0  0.1029
  H  H26  1  0.650500  0.424400  0.073300  1.0  0.0753
  H  H27  1  0.252200  0.313400  0.641300  1.0  0.0742
  H  H28  1  0.400500  0.326700  0.640900  1.0  0.105
  H  H29  1  0.958800  0.802300  0.804000  1.0  0.1053
  H  H30  1  0.048800  0.771700  0.637600  1.0  0.1065
  H  H31  1  0.091800  0.800800  0.444000  1.0  0.1089
  H  H32  1  0.070300  0.937900  0.323700  1.0  0.0961
  H  H33  1  0.906900  0.974000  0.219300  1.0  0.1101
  H  H34  1  0.698900  0.950800  0.146700  1.0  0.1105
  H  H35  1  0.525400  0.818100  0.134300  1.0  0.1065
  H  H36  1  0.420300  0.784400  0.281400  1.0  0.1155
  H  H37  1  0.388400  0.807400  0.488200  1.0  0.1073
  H  H38  1  0.458500  0.937600  0.681700  1.0  0.1075
  H  H39  1  0.632300  0.966400  0.805800  1.0  0.1112
  H  H40  1  0.829400  0.937500  0.865300  1.0  0.1044
  H  H41  1  0.091100  0.849700  0.308400  1.0  0.1134
  H  H42  1  0.154300  0.882400  0.394000  1.0  0.0967
  H  H43  1  0.547500  0.906300  0.122900  1.0  0.1336
  H  H44  1  0.611600  0.871800  0.066500  1.0  0.1129
  H  H45  1  0.358700  0.886500  0.585400  1.0  0.0985
  H  H46  1  0.412400  0.850200  0.652200  1.0  0.1286
  H  H47  1  0.894400  0.854800  0.900700  1.0  0.0949
  H  H48  1  0.970100  0.889500  0.862400  1.0  0.1251
  H  H49  1  0.137800  0.917700  0.723500  1.0  0.1093
  H  H50  1  0.162800  0.915900  0.570000  1.0  0.0717
  H  H51  1  0.771500  0.831300  0.080100  1.0  0.0716
  H  H52  1  0.927100  0.831000  0.123400  1.0  0.0865
  H  H53  1  0.365500  0.925200  0.270700  1.0  0.1035
  H  H54  1  0.349500  0.924400  0.426700  1.0  0.0769
  H  H55  1  0.747800  0.813400  0.858700  1.0  0.0724
  H  H56  1  0.599500  0.826700  0.859100  1.0  0.1059
  H  H57  1  0.958800  0.697700  0.304000  1.0  0.1046
  H  H58  1  0.048800  0.728300  0.137600  1.0  0.1058
  H  H59  1  0.091800  0.699200  0.944000  1.0  0.1098
  H  H60  1  0.070300  0.562100  0.823700  1.0  0.0961
  H  H61  1  0.906900  0.526000  0.719300  1.0  0.1098
  H  H62  1  0.698900  0.549200  0.646700  1.0  0.1098
  H  H63  1  0.525400  0.681900  0.634300  1.0  0.1063
  H  H64  1  0.420300  0.715600  0.781400  1.0  0.1163
  H  H65  1  0.388400  0.692600  0.988200  1.0  0.1076
  H  H66  1  0.458500  0.562400  0.181700  1.0  0.1078
  H  H67  1  0.632300  0.533600  0.305800  1.0  0.1113
  H  H68  1  0.829400  0.562500  0.365300  1.0  0.1041
  H  H69  1  0.091100  0.650300  0.808400  1.0  0.1136
  H  H70  1  0.154300  0.617600  0.894000  1.0  0.0967
  H  H71  1  0.547500  0.593700  0.622900  1.0  0.1329
  H  H72  1  0.611600  0.628200  0.566500  1.0  0.1131
  H  H73  1  0.358700  0.613500  0.085400  1.0  0.0989
  H  H74  1  0.412400  0.649800  0.152200  1.0  0.1276
  H  H75  1  0.894400  0.645200  0.400700  1.0  0.0943
  H  H76  1  0.970100  0.610500  0.362400  1.0  0.1257
  H  H77  1  0.137800  0.582300  0.223500  1.0  0.1094
  H  H78  1  0.162800  0.584100  0.070000  1.0  0.0717
  H  H79  1  0.771500  0.668700  0.580100  1.0  0.0719
  H  H80  1  0.927100  0.669000  0.623400  1.0  0.0869
  H  H81  1  0.365500  0.574800  0.770700  1.0  0.1038
  H  H82  1  0.349500  0.575600  0.926700  1.0  0.0768
  H  H83  1  0.747800  0.686600  0.358700  1.0  0.0727
  H  H84  1  0.599500  0.673300  0.359100  1.0  0.1059
  H  H85  1  0.041200  0.197700  0.196000  1.0  0.1039
  H  H86  1  0.951200  0.228300  0.362400  1.0  0.1065
  H  H87  1  0.908200  0.199200  0.556000  1.0  0.1098
  H  H88  1  0.929700  0.062100  0.676300  1.0  0.096
  H  H89  1  0.093100  0.026000  0.780700  1.0  0.1103
  H  H90  1  0.301100  0.049200  0.853300  1.0  0.1097
  H  H91  1  0.474600  0.181900  0.865700  1.0  0.1063
  H  H92  1  0.579700  0.215600  0.718600  1.0  0.1157
  H  H93  1  0.611600  0.192600  0.511800  1.0  0.1081
  H  H94  1  0.541500  0.062400  0.318300  1.0  0.1077
  H  H95  1  0.367700  0.033600  0.194200  1.0  0.1107
  H  H96  1  0.170600  0.062500  0.134700  1.0  0.1038
  H  H97  1  0.908900  0.150300  0.691600  1.0  0.1138
  H  H98  1  0.845700  0.117600  0.606000  1.0  0.0972
  H  H99  1  0.452500  0.093700  0.877100  1.0  0.1326
  H  H100  1  0.388400  0.128200  0.933500  1.0  0.1127
  H  H101  1  0.641300  0.113500  0.414600  1.0  0.0989
  H  H102  1  0.587600  0.149800  0.347800  1.0  0.1281
  H  H103  1  0.105600  0.145200  0.099300  1.0  0.0947
  H  H104  1  0.029900  0.110500  0.137600  1.0  0.1261
  H  H105  1  0.862200  0.082300  0.276500  1.0  0.11
  H  H106  1  0.837200  0.084100  0.430000  1.0  0.0719
  H  H107  1  0.228500  0.168700  0.919900  1.0  0.0716
  H  H108  1  0.072900  0.169000  0.876600  1.0  0.0857
  H  H109  1  0.634500  0.074800  0.729300  1.0  0.1032
  H  H110  1  0.650500  0.075600  0.573300  1.0  0.0751
  H  H111  1  0.252200  0.186600  0.141300  1.0  0.0745
  H  H112  1  0.400500  0.173300  0.140900  1.0  0.1051
  Pb  Pb113  1  0.751790  0.530780  0.994230  1.0  0.9754
  Pb  Pb114  1  0.267970  0.217130  0.524250  1.0  1.022
  Pb  Pb115  1  0.732030  0.717130  0.975750  1.0  1.0219
  Pb  Pb116  1  0.248210  0.030780  0.505760  1.0  0.9753
  Pb  Pb117  1  0.248210  0.469220  0.005770  1.0  0.9759
  Pb  Pb118  1  0.732030  0.782870  0.475750  1.0  1.0214
  Pb  Pb119  1  0.267970  0.282870  0.024250  1.0  1.0216
  Pb  Pb120  1  0.751790  0.969220  0.494240  1.0  0.9759
  C  C121  1  0.004600  0.368640  0.895100  1.0  0.1789
  C  C122  1  0.038300  0.351180  0.781500  1.0  0.0578
  C  C123  1  0.018800  0.314690  0.772100  1.0  -0.1139
  C  C124  1  0.967500  0.296370  0.871800  1.0  -0.1116
  C  C125  1  0.939700  0.313840  0.986000  1.0  -0.1287
  C  C126  1  0.957400  0.350310  0.999500  1.0  0.0594
  C  C127  1  0.157800  0.378190  0.239800  1.0  0.1985
  C  C128  1  0.034300  0.392020  0.192700  1.0  0.0575
  C  C129  1  0.013100  0.428030  0.208300  1.0  -0.1158
  C  C130  1  0.110000  0.449540  0.269000  1.0  -0.088
  C  C131  1  0.233400  0.435600  0.313500  1.0  -0.1262
  C  C132  1  0.259300  0.399500  0.300500  1.0  0.0677
  C  C133  1  0.489600  0.377220  0.134000  1.0  0.1926
  C  C134  1  0.459300  0.363110  0.254000  1.0  0.0605
  C  C135  1  0.493100  0.328160  0.283600  1.0  -0.0863
  C  C136  1  0.552900  0.307950  0.195700  1.0  -0.1245
  C  C137  1  0.573900  0.321970  0.073600  1.0  -0.1095
  C  C138  1  0.541800  0.356620  0.038200  1.0  0.0873
  C  C139  1  0.333400  0.372310  0.783700  1.0  0.1832
  C  C140  1  0.450400  0.389890  0.826300  1.0  0.0556
  C  C141  1  0.461700  0.425220  0.791600  1.0  -0.1496
  C  C142  1  0.358500  0.442400  0.719300  1.0  -0.1118
  C  C143  1  0.241800  0.424970  0.682900  1.0  -0.1342
  C  C144  1  0.224600  0.389400  0.714600  1.0  0.0828
  C  C145  1  0.927000  0.368210  0.126800  1.0  -0.1952
  C  C146  1  0.394600  0.385830  0.351500  1.0  -0.1996
  C  C147  1  0.564400  0.370420  0.902800  1.0  -0.1956
  C  C148  1  0.094600  0.371360  0.673200  1.0  -0.2362
  C  C149  1  0.900000  0.423870  0.868900  1.0  -0.0686
  C  C150  1  0.915600  0.463740  0.879800  1.0  0.7289
  C  C151  1  0.158500  0.323840  0.348800  1.0  -0.1157
  C  C152  1  0.161800  0.283650  0.336200  1.0  0.7259
  C  C153  1  0.591900  0.431930  0.139100  1.0  -0.0915
  C  C154  1  0.576700  0.471460  0.132600  1.0  0.7459
  C  C155  1  0.339400  0.314930  0.695800  1.0  -0.0633
  C  C156  1  0.388600  0.278180  0.729400  1.0  0.7054
  C  C157  1  0.995400  0.868640  0.604900  1.0  0.1798
  C  C158  1  0.961700  0.851180  0.718500  1.0  0.0593
  C  C159  1  0.981200  0.814690  0.727900  1.0  -0.113
  C  C160  1  0.032500  0.796370  0.628200  1.0  -0.1113
  C  C161  1  0.060300  0.813840  0.514000  1.0  -0.1296
  C  C162  1  0.042600  0.850310  0.500500  1.0  0.0599
  C  C163  1  0.842200  0.878190  0.260200  1.0  0.1983
  C  C164  1  0.965700  0.892020  0.307300  1.0  0.06
  C  C165  1  0.986900  0.928030  0.291700  1.0  -0.1176
  C  C166  1  0.890000  0.949540  0.231000  1.0  -0.0873
  C  C167  1  0.766600  0.935600  0.186500  1.0  -0.1281
  C  C168  1  0.740700  0.899500  0.199500  1.0  0.068
  C  C169  1  0.510400  0.877220  0.366000  1.0  0.192
  C  C170  1  0.540700  0.863110  0.246000  1.0  0.0615
  C  C171  1  0.506900  0.828160  0.216400  1.0  -0.0868
  C  C172  1  0.447100  0.807950  0.304300  1.0  -0.1256
  C  C173  1  0.426100  0.821970  0.426400  1.0  -0.1093
  C  C174  1  0.458200  0.856620  0.461800  1.0  0.0865
  C  C175  1  0.666667  0.872310  0.716300  1.0  0.1813
  C  C176  1  0.549600  0.889890  0.673700  1.0  0.0562
  C  C177  1  0.538300  0.925220  0.708400  1.0  -0.1479
  C  C178  1  0.641500  0.942400  0.780700  1.0  -0.1142
  C  C179  1  0.758200  0.924970  0.817100  1.0  -0.1331
  C  C180  1  0.775400  0.889400  0.785400  1.0  0.0836
  C  C181  1  0.073000  0.868210  0.373200  1.0  -0.1974
  C  C182  1  0.605400  0.885830  0.148500  1.0  -0.2017
  C  C183  1  0.435600  0.870420  0.597200  1.0  -0.1927
  C  C184  1  0.905400  0.871360  0.826800  1.0  -0.2379
  C  C185  1  0.100000  0.923870  0.631100  1.0  -0.0694
  C  C186  1  0.084400  0.963740  0.620200  1.0  0.7285
  C  C187  1  0.841500  0.823840  0.151200  1.0  -0.1145
  C  C188  1  0.838200  0.783650  0.163800  1.0  0.7265
  C  C189  1  0.408100  0.931930  0.360900  1.0  -0.0946
  C  C190  1  0.423300  0.971460  0.367400  1.0  0.7466
  C  C191  1  0.660600  0.814930  0.804200  1.0  -0.0627
  C  C192  1  0.611400  0.778180  0.770600  1.0  0.7082
  C  C193  1  0.995400  0.631360  0.104900  1.0  0.18
  C  C194  1  0.961700  0.648820  0.218500  1.0  0.059
  C  C195  1  0.981200  0.685310  0.227900  1.0  -0.1133
  C  C196  1  0.032500  0.703630  0.128200  1.0  -0.1105
  C  C197  1  0.060300  0.686160  0.014000  1.0  -0.1282
  C  C198  1  0.042600  0.649690  0.000500  1.0  0.0598
  C  C199  1  0.842200  0.621810  0.760200  1.0  0.1981
  C  C200  1  0.965700  0.607980  0.807300  1.0  0.06
  C  C201  1  0.986900  0.571970  0.791700  1.0  -0.1172
  C  C202  1  0.890000  0.550460  0.731000  1.0  -0.0879
  C  C203  1  0.766600  0.564400  0.686500  1.0  -0.1255
  C  C204  1  0.740700  0.600500  0.699500  1.0  0.0679
  C  C205  1  0.510400  0.622780  0.866000  1.0  0.1921
  C  C206  1  0.540700  0.636890  0.746000  1.0  0.0617
  C  C207  1  0.506900  0.671840  0.716400  1.0  -0.0872
  C  C208  1  0.447100  0.692050  0.804300  1.0  -0.1241
  C  C209  1  0.426100  0.678030  0.926400  1.0  -0.1097
  C  C210  1  0.458200  0.643380  0.961800  1.0  0.0867
  C  C211  1  0.666667  0.627690  0.216300  1.0  0.1814
  C  C212  1  0.549600  0.610110  0.173700  1.0  0.0558
  C  C213  1  0.538300  0.574780  0.208400  1.0  -0.1464
  C  C214  1  0.641500  0.557600  0.280700  1.0  -0.115
  C  C215  1  0.758200  0.575030  0.317100  1.0  -0.1346
  C  C216  1  0.775400  0.610600  0.285400  1.0  0.0843
  C  C217  1  0.073000  0.631790  0.873200  1.0  -0.1968
  C  C218  1  0.605400  0.614170  0.648500  1.0  -0.2018
  C  C219  1  0.435600  0.629580  0.097200  1.0  -0.1921
  C  C220  1  0.905400  0.628640  0.326800  1.0  -0.2378
  C  C221  1  0.100000  0.576130  0.131100  1.0  -0.0677
  C  C222  1  0.084400  0.536260  0.120200  1.0  0.7299
  C  C223  1  0.841500  0.676160  0.651200  1.0  -0.1137
  C  C224  1  0.838200  0.716350  0.663800  1.0  0.7268
  C  C225  1  0.408100  0.568070  0.860900  1.0  -0.0951
  C  C226  1  0.423300  0.528540  0.867400  1.0  0.7466
  C  C227  1  0.660600  0.685070  0.304200  1.0  -0.0626
  C  C228  1  0.611400  0.721820  0.270600  1.0  0.7081
  C  C229  1  0.004600  0.131360  0.395100  1.0  0.1792
  C  C230  1  0.038300  0.148820  0.281500  1.0  0.0571
  C  C231  1  0.018800  0.185310  0.272100  1.0  -0.1141
  C  C232  1  0.967500  0.203630  0.371800  1.0  -0.1103
  C  C233  1  0.939700  0.186160  0.486000  1.0  -0.1283
  C  C234  1  0.957400  0.149690  0.499500  1.0  0.0596
  C  C235  1  0.157800  0.121810  0.739800  1.0  0.1982
  C  C236  1  0.034300  0.107980  0.692700  1.0  0.0574
  C  C237  1  0.013100  0.071970  0.708300  1.0  -0.1138
  C  C238  1  0.110000  0.050460  0.769000  1.0  -0.0886
  C  C239  1  0.233400  0.064400  0.813500  1.0  -0.1266
  C  C240  1  0.259300  0.100500  0.800500  1.0  0.0674
  C  C241  1  0.489600  0.122780  0.634000  1.0  0.1926
  C  C242  1  0.459300  0.136890  0.754000  1.0  0.0609
  C  C243  1  0.493100  0.171840  0.783600  1.0  -0.0871
  C  C244  1  0.552900  0.192050  0.695700  1.0  -0.1241
  C  C245  1  0.573900  0.178030  0.573600  1.0  -0.1094
  C  C246  1  0.541800  0.143380  0.538200  1.0  0.0874
  C  C247  1  0.333400  0.127690  0.283700  1.0  0.1834
  C  C248  1  0.450400  0.110110  0.326300  1.0  0.0555
  C  C249  1  0.461700  0.074780  0.291600  1.0  -0.1497
  C  C250  1  0.358500  0.057600  0.219300  1.0  -0.1136
  C  C251  1  0.241800  0.075030  0.182900  1.0  -0.1321
  C  C252  1  0.224600  0.110600  0.214600  1.0  0.0837
  C  C253  1  0.927000  0.131790  0.626800  1.0  -0.1947
  C  C254  1  0.394600  0.114170  0.851500  1.0  -0.2005
  C  C255  1  0.564400  0.129580  0.402800  1.0  -0.1944
  C  C256  1  0.094600  0.128640  0.173200  1.0  -0.2359
  C  C257  1  0.900000  0.076130  0.368900  1.0  -0.0688
  C  C258  1  0.915600  0.036260  0.379800  1.0  0.729
  C  C259  1  0.158500  0.176160  0.848800  1.0  -0.1123
  C  C260  1  0.161800  0.216350  0.836200  1.0  0.7269
  C  C261  1  0.591900  0.068070  0.639100  1.0  -0.0911
  C  C262  1  0.576700  0.028540  0.632600  1.0  0.7475
  C  C263  1  0.339400  0.185070  0.195800  1.0  -0.064
  C  C264  1  0.388600  0.221820  0.229400  1.0  0.7042
  O  O265  1  0.021600  0.405390  0.901000  1.0  -0.2766
  O  O266  1  0.806400  0.479240  0.882400  1.0  -0.6919
  O  O267  1  0.024700  0.477900  0.878800  1.0  -0.6526
  O  O268  1  0.176400  0.341920  0.227200  1.0  -0.3367
  O  O269  1  0.159900  0.269200  0.450000  1.0  -0.6532
  O  O270  1  0.162500  0.268620  0.228000  1.0  -0.6204
  O  O271  1  0.469700  0.413720  0.112600  1.0  -0.3328
  O  O272  1  0.687100  0.487000  0.135600  1.0  -0.6837
  O  O273  1  0.467900  0.486050  0.129800  1.0  -0.631
  O  O274  1  0.327900  0.336100  0.811400  1.0  -0.3393
  O  O275  1  0.407500  0.260330  0.626700  1.0  -0.6799
  O  O276  1  0.408500  0.267600  0.847300  1.0  -0.6171
  O  O277  1  0.978400  0.905390  0.599000  1.0  -0.2761
  O  O278  1  0.193600  0.979240  0.617600  1.0  -0.6926
  O  O279  1  0.975300  0.977900  0.621200  1.0  -0.6507
  O  O280  1  0.823600  0.841920  0.272800  1.0  -0.3384
  O  O281  1  0.840100  0.769200  0.050000  1.0  -0.6534
  O  O282  1  0.837500  0.768620  0.272000  1.0  -0.617
  O  O283  1  0.530300  0.913720  0.387400  1.0  -0.3325
  O  O284  1  0.312900  0.987000  0.364400  1.0  -0.6823
  O  O285  1  0.532100  0.986050  0.370200  1.0  -0.6305
  O  O286  1  0.672100  0.836100  0.688600  1.0  -0.3361
  O  O287  1  0.592500  0.760330  0.873300  1.0  -0.6783
  O  O288  1  0.591500  0.767600  0.652700  1.0  -0.619
  O  O289  1  0.978400  0.594610  0.099000  1.0  -0.2774
  O  O290  1  0.193600  0.520760  0.117600  1.0  -0.6966
  O  O291  1  0.975300  0.522100  0.121200  1.0  -0.6509
  O  O292  1  0.823600  0.658080  0.772800  1.0  -0.339
  O  O293  1  0.840100  0.730800  0.550000  1.0  -0.6533
  O  O294  1  0.837500  0.731380  0.772000  1.0  -0.6169
  O  O295  1  0.530300  0.586280  0.887400  1.0  -0.3337
  O  O296  1  0.312900  0.513000  0.864400  1.0  -0.6826
  O  O297  1  0.532100  0.513950  0.870200  1.0  -0.6309
  O  O298  1  0.672100  0.663900  0.188600  1.0  -0.3355
  O  O299  1  0.592500  0.739670  0.373300  1.0  -0.6792
  O  O300  1  0.591500  0.732400  0.152700  1.0  -0.6181
  O  O301  1  0.021600  0.094610  0.401000  1.0  -0.2765
  O  O302  1  0.806400  0.020760  0.382400  1.0  -0.6955
  O  O303  1  0.024700  0.022100  0.378800  1.0  -0.6531
  O  O304  1  0.176400  0.158080  0.727200  1.0  -0.3357
  O  O305  1  0.159900  0.230800  0.950000  1.0  -0.6539
  O  O306  1  0.162500  0.231380  0.728000  1.0  -0.6194
  O  O307  1  0.469700  0.086280  0.612600  1.0  -0.3348
  O  O308  1  0.687100  0.013000  0.635600  1.0  -0.6839
  O  O309  1  0.467900  0.013950  0.629800  1.0  -0.6308
  O  O310  1  0.327900  0.163900  0.311400  1.0  -0.3399
  O  O311  1  0.407500  0.239670  0.126700  1.0  -0.6795
  O  O312  1  0.408500  0.232400  0.347300  1.0  -0.6177
