# generated using pymatgen
data_Zn3CoH21C42(N2O5)3
_symmetry_space_group_name_H-M   'P 1'
_cell_length_a   15.02900000
_cell_length_b   19.22060000
_cell_length_c   21.38620000
_cell_angle_alpha   90.00000000
_cell_angle_beta   118.36300000
_cell_angle_gamma   90.00000000
_symmetry_Int_Tables_number   1
_chemical_formula_structural   Zn3CoH21C42(N2O5)3
_chemical_formula_sum   'Zn12 Co4 H84 C168 N24 O60'
_cell_volume   5436.14930315
_cell_formula_units_Z   4
loop_
 _symmetry_equiv_pos_site_id
 _symmetry_equiv_pos_as_xyz
  1  'x, y, z'
loop_
 _atom_site_type_symbol
 _atom_site_label
 _atom_site_symmetry_multiplicity
 _atom_site_fract_x
 _atom_site_fract_y
 _atom_site_fract_z
 _atom_site_occupancy
 _atom_site_charge
  Zn  Zn1  1  0.787710  0.931700  0.867870  1.0  1.0351
  Zn  Zn2  1  0.957000  0.874300  0.424570  1.0  0.9445
  Zn  Zn3  1  0.750190  0.780620  0.396520  1.0  0.9206
  Zn  Zn4  1  0.212290  0.431700  0.632130  1.0  1.0357
  Zn  Zn5  1  0.043000  0.374300  0.075430  1.0  0.9452
  Zn  Zn6  1  0.249810  0.280620  0.103480  1.0  0.9212
  Zn  Zn7  1  0.212290  0.068300  0.132130  1.0  1.036
  Zn  Zn8  1  0.043000  0.125700  0.575430  1.0  0.9445
  Zn  Zn9  1  0.249810  0.219380  0.603480  1.0  0.9214
  Zn  Zn10  1  0.787710  0.568300  0.367870  1.0  1.035
  Zn  Zn11  1  0.957000  0.625700  0.924570  1.0  0.9448
  Zn  Zn12  1  0.750190  0.719380  0.896520  1.0  0.921
  Co  Co13  1  0.242280  0.820040  0.804180  1.0  0.4952
  Co  Co14  1  0.757720  0.320040  0.695820  1.0  0.4972
  Co  Co15  1  0.757720  0.179960  0.195820  1.0  0.4965
  Co  Co16  1  0.242280  0.679960  0.304180  1.0  0.4947
  H  H17  1  0.462200  0.828600  0.920400  1.0  0.0937
  H  H18  1  0.578500  0.917300  0.965100  1.0  0.1238
  H  H19  1  0.525700  0.030800  0.933100  1.0  0.1146
  H  H20  1  0.354400  0.054000  0.864400  1.0  0.1354
  H  H21  1  0.059300  0.884000  0.639800  1.0  0.1061
  H  H22  1  0.778900  0.856600  0.612600  1.0  0.1221
  H  H23  1  0.003500  0.917000  0.802000  1.0  0.1092
  H  H24  1  0.397800  0.743400  0.775200  1.0  0.0881
  H  H25  1  0.507300  0.652900  0.825800  1.0  0.1244
  H  H26  1  0.507100  0.594100  0.920500  1.0  0.1167
  H  H27  1  0.392400  0.626700  0.958900  1.0  0.12
  H  H28  1  0.248900  0.905000  0.952900  1.0  0.1091
  H  H29  1  0.006400  0.910600  0.984300  1.0  0.1103
  H  H30  1  0.037100  0.756600  0.869200  1.0  0.1158
  H  H31  1  0.068300  0.721700  0.782100  1.0  0.0935
  H  H32  1  0.955400  0.654100  0.690400  1.0  0.1208
  H  H33  1  0.965900  0.647500  0.585700  1.0  0.1177
  H  H34  1  0.091900  0.709300  0.576800  1.0  0.1101
  H  H35  1  0.467600  0.856500  0.780300  1.0  0.1194
  H  H36  1  0.468900  0.052700  0.717500  1.0  0.1051
  H  H37  1  0.206700  0.957100  0.664800  1.0  0.1188
  H  H38  1  0.537800  0.328600  0.579600  1.0  0.0925
  H  H39  1  0.421500  0.417300  0.534900  1.0  0.1229
  H  H40  1  0.474300  0.530800  0.566900  1.0  0.114
  H  H41  1  0.645600  0.554000  0.635600  1.0  0.1357
  H  H42  1  0.940700  0.384000  0.860200  1.0  0.1053
  H  H43  1  0.221100  0.356600  0.887400  1.0  0.1215
  H  H44  1  0.996500  0.417000  0.698000  1.0  0.1095
  H  H45  1  0.602200  0.243400  0.724800  1.0  0.0885
  H  H46  1  0.492700  0.152900  0.674200  1.0  0.1248
  H  H47  1  0.492900  0.094100  0.579500  1.0  0.1153
  H  H48  1  0.607600  0.126700  0.541100  1.0  0.1202
  H  H49  1  0.751100  0.405000  0.547100  1.0  0.109
  H  H50  1  0.993600  0.410600  0.515700  1.0  0.1102
  H  H51  1  0.962900  0.256600  0.630800  1.0  0.1166
  H  H52  1  0.931700  0.221700  0.717900  1.0  0.0934
  H  H53  1  0.044600  0.154100  0.809600  1.0  0.1207
  H  H54  1  0.034100  0.147500  0.914300  1.0  0.1181
  H  H55  1  0.908100  0.209300  0.923200  1.0  0.1111
  H  H56  1  0.532400  0.356500  0.719700  1.0  0.1197
  H  H57  1  0.531100  0.552700  0.782500  1.0  0.105
  H  H58  1  0.793300  0.457100  0.835200  1.0  0.1187
  H  H59  1  0.537800  0.171400  0.079600  1.0  0.0932
  H  H60  1  0.421500  0.082700  0.034900  1.0  0.1229
  H  H61  1  0.474300  0.969200  0.066900  1.0  0.1145
  H  H62  1  0.645600  0.946000  0.135600  1.0  0.135
  H  H63  1  0.940700  0.116000  0.360200  1.0  0.1047
  H  H64  1  0.221100  0.143400  0.387400  1.0  0.1215
  H  H65  1  0.996500  0.083000  0.198000  1.0  0.1094
  H  H66  1  0.602200  0.256600  0.224800  1.0  0.0882
  H  H67  1  0.492700  0.347100  0.174200  1.0  0.1247
  H  H68  1  0.492900  0.405900  0.079500  1.0  0.1167
  H  H69  1  0.607600  0.373300  0.041100  1.0  0.12
  H  H70  1  0.751100  0.095000  0.047100  1.0  0.1092
  H  H71  1  0.993600  0.089400  0.015700  1.0  0.1104
  H  H72  1  0.962900  0.243400  0.130800  1.0  0.1154
  H  H73  1  0.931700  0.278300  0.217900  1.0  0.0928
  H  H74  1  0.044600  0.345900  0.309600  1.0  0.1211
  H  H75  1  0.034100  0.352500  0.414300  1.0  0.1184
  H  H76  1  0.908100  0.290700  0.423200  1.0  0.1113
  H  H77  1  0.532400  0.143500  0.219700  1.0  0.1202
  H  H78  1  0.531100  0.947300  0.282500  1.0  0.1052
  H  H79  1  0.793300  0.042900  0.335200  1.0  0.1187
  H  H80  1  0.462200  0.671400  0.420400  1.0  0.0932
  H  H81  1  0.578500  0.582700  0.465100  1.0  0.1236
  H  H82  1  0.525700  0.469200  0.433100  1.0  0.115
  H  H83  1  0.354400  0.446000  0.364400  1.0  0.1346
  H  H84  1  0.059300  0.616000  0.139800  1.0  0.1054
  H  H85  1  0.778900  0.643400  0.112600  1.0  0.1217
  H  H86  1  0.003500  0.583000  0.302000  1.0  0.1094
  H  H87  1  0.397800  0.756600  0.275200  1.0  0.0879
  H  H88  1  0.507300  0.847100  0.325800  1.0  0.1243
  H  H89  1  0.507100  0.905900  0.420500  1.0  0.1162
  H  H90  1  0.392400  0.873300  0.458900  1.0  0.1199
  H  H91  1  0.248900  0.595000  0.452900  1.0  0.1096
  H  H92  1  0.006400  0.589400  0.484300  1.0  0.1106
  H  H93  1  0.037100  0.743400  0.369200  1.0  0.1152
  H  H94  1  0.068300  0.778300  0.282100  1.0  0.0936
  H  H95  1  0.955400  0.845900  0.190400  1.0  0.1208
  H  H96  1  0.965900  0.852500  0.085700  1.0  0.1179
  H  H97  1  0.091900  0.790700  0.076800  1.0  0.1105
  H  H98  1  0.467600  0.643500  0.280300  1.0  0.1199
  H  H99  1  0.468900  0.447300  0.217500  1.0  0.1053
  H  H100  1  0.206700  0.542900  0.164800  1.0  0.1183
  C  C101  1  0.440800  0.874300  0.907930  1.0  0.1151
  C  C102  1  0.510700  0.927200  0.935000  1.0  -0.1005
  C  C103  1  0.479100  0.994600  0.917100  1.0  -0.0567
  C  C104  1  0.377500  0.008500  0.875100  1.0  -0.1023
  C  C105  1  0.311000  0.953120  0.849320  1.0  0.1567
  C  C106  1  0.200000  0.961330  0.801070  1.0  0.5972
  C  C107  1  0.050000  0.897270  0.729570  1.0  0.1946
  C  C108  1  0.014400  0.883320  0.658250  1.0  -0.1015
  C  C109  1  0.913700  0.868340  0.613750  1.0  -0.1168
  C  C110  1  0.846100  0.869190  0.641130  1.0  0.013
  C  C111  1  0.879700  0.889060  0.711640  1.0  -0.1336
  C  C112  1  0.981300  0.903280  0.755160  1.0  -0.1257
  C  C113  1  0.884500  0.849730  0.537090  1.0  0.7126
  C  C114  1  0.810400  0.891400  0.744630  1.0  0.7009
  C  C115  1  0.398300  0.720140  0.813500  1.0  0.1529
  C  C116  1  0.463400  0.665900  0.843000  1.0  -0.1415
  C  C117  1  0.462700  0.630800  0.898800  1.0  -0.1015
  C  C118  1  0.395400  0.650800  0.922300  1.0  -0.1035
  C  C119  1  0.333333  0.706560  0.891200  1.0  0.122
  C  C120  1  0.262600  0.734990  0.915310  1.0  0.607
  C  C121  1  0.153400  0.825190  0.906700  1.0  0.1598
  C  C122  1  0.188400  0.885490  0.946240  1.0  -0.0923
  C  C123  1  0.134500  0.917320  0.976290  1.0  -0.1438
  C  C124  1  0.043200  0.889250  0.964940  1.0  -0.0549
  C  C125  1  0.006600  0.829060  0.924480  1.0  -0.147
  C  C126  1  0.061500  0.797090  0.895820  1.0  -0.0703
  C  C127  1  0.908700  0.799290  0.914600  1.0  0.6959
  C  C128  1  0.072100  0.720000  0.739900  1.0  0.1425
  C  C129  1  0.004700  0.679000  0.685400  1.0  -0.1253
  C  C130  1  0.011000  0.674900  0.623200  1.0  -0.1015
  C  C131  1  0.084900  0.712100  0.617700  1.0  -0.1062
  C  C132  1  0.148000  0.753280  0.673290  1.0  0.1404
  C  C133  1  0.220700  0.803130  0.668560  1.0  0.6029
  C  C134  1  0.328600  0.897700  0.723270  1.0  0.2032
  C  C135  1  0.432900  0.896330  0.756590  1.0  -0.1254
  C  C136  1  0.485400  0.954580  0.754520  1.0  -0.1256
  C  C137  1  0.433400  0.013770  0.719000  1.0  -0.0233
  C  C138  1  0.277000  0.956740  0.687670  1.0  -0.1282
  C  C139  1  0.599100  0.954980  0.792750  1.0  0.6528
  C  C140  1  0.329100  0.015310  0.685840  1.0  -0.1552
  C  C141  1  0.270500  0.079700  0.650230  1.0  0.7286
  C  C142  1  0.179000  0.979820  0.023500  1.0  0.6696
  C  C143  1  0.559200  0.374300  0.592070  1.0  0.115
  C  C144  1  0.489300  0.427200  0.565000  1.0  -0.1036
  C  C145  1  0.520900  0.494600  0.582900  1.0  -0.0583
  C  C146  1  0.622500  0.508500  0.624900  1.0  -0.1013
  C  C147  1  0.689000  0.453120  0.650680  1.0  0.1566
  C  C148  1  0.800000  0.461330  0.698930  1.0  0.5974
  C  C149  1  0.950000  0.397270  0.770430  1.0  0.1954
  C  C150  1  0.985600  0.383320  0.841750  1.0  -0.1008
  C  C151  1  0.086300  0.368340  0.886250  1.0  -0.1186
  C  C152  1  0.153900  0.369190  0.858870  1.0  0.0153
  C  C153  1  0.120300  0.389060  0.788360  1.0  -0.1333
  C  C154  1  0.018700  0.403280  0.744840  1.0  -0.1272
  C  C155  1  0.115500  0.349730  0.962910  1.0  0.7138
  C  C156  1  0.189600  0.391400  0.755370  1.0  0.7011
  C  C157  1  0.601700  0.220140  0.686500  1.0  0.1521
  C  C158  1  0.536600  0.165900  0.657000  1.0  -0.1412
  C  C159  1  0.537300  0.130800  0.601200  1.0  -0.1017
  C  C160  1  0.604600  0.150800  0.577700  1.0  -0.1018
  C  C161  1  0.666667  0.206560  0.608800  1.0  0.1226
  C  C162  1  0.737400  0.234990  0.584690  1.0  0.6106
  C  C163  1  0.846600  0.325190  0.593300  1.0  0.1576
  C  C164  1  0.811600  0.385490  0.553760  1.0  -0.0896
  C  C165  1  0.865500  0.417320  0.523710  1.0  -0.1443
  C  C166  1  0.956800  0.389250  0.535060  1.0  -0.0545
  C  C167  1  0.993400  0.329060  0.575520  1.0  -0.1465
  C  C168  1  0.938500  0.297090  0.604180  1.0  -0.071
  C  C169  1  0.091300  0.299290  0.585400  1.0  0.6953
  C  C170  1  0.927900  0.220000  0.760100  1.0  0.145
  C  C171  1  0.995300  0.179000  0.814600  1.0  -0.1253
  C  C172  1  0.989000  0.174900  0.876800  1.0  -0.1015
  C  C173  1  0.915100  0.212100  0.882300  1.0  -0.1051
  C  C174  1  0.852000  0.253280  0.826710  1.0  0.1388
  C  C175  1  0.779300  0.303130  0.831440  1.0  0.6024
  C  C176  1  0.671400  0.397700  0.776730  1.0  0.2064
  C  C177  1  0.567100  0.396330  0.743410  1.0  -0.1247
  C  C178  1  0.514600  0.454580  0.745480  1.0  -0.1254
  C  C179  1  0.566600  0.513770  0.781000  1.0  -0.0236
  C  C180  1  0.723000  0.456740  0.812330  1.0  -0.1289
  C  C181  1  0.400900  0.454980  0.707250  1.0  0.653
  C  C182  1  0.670900  0.515310  0.814160  1.0  -0.1575
  C  C183  1  0.729500  0.579700  0.849770  1.0  0.7281
  C  C184  1  0.821000  0.479820  0.476500  1.0  0.6682
  C  C185  1  0.559200  0.125700  0.092070  1.0  0.1134
  C  C186  1  0.489300  0.072800  0.065000  1.0  -0.104
  C  C187  1  0.520900  0.005400  0.082900  1.0  -0.0621
  C  C188  1  0.622500  0.991500  0.124900  1.0  -0.1052
  C  C189  1  0.689000  0.046880  0.150680  1.0  0.1581
  C  C190  1  0.800000  0.038670  0.198930  1.0  0.5974
  C  C191  1  0.950000  0.102730  0.270430  1.0  0.1957
  C  C192  1  0.985600  0.116680  0.341750  1.0  -0.1003
  C  C193  1  0.086300  0.131660  0.386250  1.0  -0.1189
  C  C194  1  0.153900  0.130810  0.358870  1.0  0.0153
  C  C195  1  0.120300  0.110940  0.288360  1.0  -0.1339
  C  C196  1  0.018700  0.096720  0.244840  1.0  -0.1267
  C  C197  1  0.115500  0.150270  0.462910  1.0  0.7144
  C  C198  1  0.189600  0.108600  0.255370  1.0  0.7013
  C  C199  1  0.601700  0.279860  0.186500  1.0  0.1522
  C  C200  1  0.536600  0.334100  0.157000  1.0  -0.1419
  C  C201  1  0.537300  0.369200  0.101200  1.0  -0.0988
  C  C202  1  0.604600  0.349200  0.077700  1.0  -0.101
  C  C203  1  0.666667  0.293440  0.108800  1.0  0.1212
  C  C204  1  0.737400  0.265010  0.084690  1.0  0.6119
  C  C205  1  0.846600  0.174810  0.093300  1.0  0.1579
  C  C206  1  0.811600  0.114510  0.053760  1.0  -0.0889
  C  C207  1  0.865500  0.082680  0.023710  1.0  -0.1465
  C  C208  1  0.956800  0.110750  0.035060  1.0  -0.0549
  C  C209  1  0.993400  0.170940  0.075520  1.0  -0.1461
  C  C210  1  0.938500  0.202910  0.104180  1.0  -0.0717
  C  C211  1  0.091300  0.200710  0.085400  1.0  0.6949
  C  C212  1  0.927900  0.280000  0.260100  1.0  0.1434
  C  C213  1  0.995300  0.321000  0.314600  1.0  -0.1239
  C  C214  1  0.989000  0.325100  0.376800  1.0  -0.0987
  C  C215  1  0.915100  0.287900  0.382300  1.0  -0.1041
  C  C216  1  0.852000  0.246720  0.326710  1.0  0.1393
  C  C217  1  0.779300  0.196870  0.331440  1.0  0.6006
  C  C218  1  0.671400  0.102300  0.276730  1.0  0.2065
  C  C219  1  0.567100  0.103670  0.243410  1.0  -0.1241
  C  C220  1  0.514600  0.045420  0.245480  1.0  -0.1253
  C  C221  1  0.566600  0.986230  0.281000  1.0  -0.0245
  C  C222  1  0.723000  0.043260  0.312330  1.0  -0.1293
  C  C223  1  0.400900  0.045020  0.207250  1.0  0.6529
  C  C224  1  0.670900  0.984690  0.314160  1.0  -0.1567
  C  C225  1  0.729500  0.920300  0.349770  1.0  0.7277
  C  C226  1  0.821000  0.020180  0.976500  1.0  0.6688
  C  C227  1  0.440800  0.625700  0.407930  1.0  0.1138
  C  C228  1  0.510700  0.572800  0.435000  1.0  -0.1008
  C  C229  1  0.479100  0.505400  0.417100  1.0  -0.0625
  C  C230  1  0.377500  0.491500  0.375100  1.0  -0.1048
  C  C231  1  0.311000  0.546880  0.349320  1.0  0.1577
  C  C232  1  0.200000  0.538670  0.301070  1.0  0.5969
  C  C233  1  0.050000  0.602730  0.229570  1.0  0.1945
  C  C234  1  0.014400  0.616680  0.158250  1.0  -0.1013
  C  C235  1  0.913700  0.631660  0.113750  1.0  -0.1175
  C  C236  1  0.846100  0.630810  0.141130  1.0  0.0122
  C  C237  1  0.879700  0.610940  0.211640  1.0  -0.134
  C  C238  1  0.981300  0.596720  0.255160  1.0  -0.1259
  C  C239  1  0.884500  0.650270  0.037090  1.0  0.7132
  C  C240  1  0.810400  0.608600  0.244630  1.0  0.7011
  C  C241  1  0.398300  0.779860  0.313500  1.0  0.152
  C  C242  1  0.463400  0.834100  0.343000  1.0  -0.1424
  C  C243  1  0.462700  0.869200  0.398800  1.0  -0.0995
  C  C244  1  0.395400  0.849200  0.422300  1.0  -0.1017
  C  C245  1  0.333333  0.793440  0.391200  1.0  0.1218
  C  C246  1  0.262600  0.765010  0.415310  1.0  0.6069
  C  C247  1  0.153400  0.674810  0.406700  1.0  0.1595
  C  C248  1  0.188400  0.614510  0.446240  1.0  -0.0918
  C  C249  1  0.134500  0.582680  0.476290  1.0  -0.1447
  C  C250  1  0.043200  0.610750  0.464940  1.0  -0.0549
  C  C251  1  0.006600  0.670940  0.424480  1.0  -0.1464
  C  C252  1  0.061500  0.702910  0.395820  1.0  -0.072
  C  C253  1  0.908700  0.700710  0.414600  1.0  0.6952
  C  C254  1  0.072100  0.780000  0.239900  1.0  0.1426
  C  C255  1  0.004700  0.821000  0.185400  1.0  -0.125
  C  C256  1  0.011000  0.825100  0.123200  1.0  -0.0997
  C  C257  1  0.084900  0.787900  0.117700  1.0  -0.1066
  C  C258  1  0.148000  0.746720  0.173290  1.0  0.1409
  C  C259  1  0.220700  0.696870  0.168560  1.0  0.6038
  C  C260  1  0.328600  0.602300  0.223270  1.0  0.2046
  C  C261  1  0.432900  0.603670  0.256590  1.0  -0.1251
  C  C262  1  0.485400  0.545420  0.254520  1.0  -0.1257
  C  C263  1  0.433400  0.486230  0.219000  1.0  -0.0235
  C  C264  1  0.277000  0.543260  0.187670  1.0  -0.1277
  C  C265  1  0.599100  0.545020  0.292750  1.0  0.6528
  C  C266  1  0.329100  0.484690  0.185840  1.0  -0.157
  C  C267  1  0.270500  0.420300  0.150230  1.0  0.7288
  C  C268  1  0.179000  0.520180  0.523500  1.0  0.67
  N  N269  1  0.342700  0.886880  0.864140  1.0  -0.3067
  N  N270  1  0.155600  0.900730  0.776680  1.0  -0.3216
  N  N271  1  0.334600  0.741440  0.837460  1.0  -0.3281
  N  N272  1  0.214300  0.790980  0.880590  1.0  -0.3366
  N  N273  1  0.142900  0.757600  0.734400  1.0  -0.2828
  N  N274  1  0.272100  0.839200  0.727230  1.0  -0.3051
  N  N275  1  0.657300  0.386880  0.635860  1.0  -0.3062
  N  N276  1  0.844400  0.400730  0.723320  1.0  -0.3212
  N  N277  1  0.665400  0.241440  0.662540  1.0  -0.3282
  N  N278  1  0.785700  0.290980  0.619410  1.0  -0.3359
  N  N279  1  0.857100  0.257600  0.765600  1.0  -0.282
  N  N280  1  0.727900  0.339200  0.772770  1.0  -0.3044
  N  N281  1  0.657300  0.113120  0.135860  1.0  -0.3063
  N  N282  1  0.844400  0.099270  0.223320  1.0  -0.3215
  N  N283  1  0.665400  0.258560  0.162540  1.0  -0.328
  N  N284  1  0.785700  0.209020  0.119410  1.0  -0.3361
  N  N285  1  0.857100  0.242400  0.265600  1.0  -0.2824
  N  N286  1  0.727900  0.160800  0.272770  1.0  -0.3048
  N  N287  1  0.342700  0.613120  0.364140  1.0  -0.3065
  N  N288  1  0.155600  0.599270  0.276680  1.0  -0.3222
  N  N289  1  0.334600  0.758560  0.337460  1.0  -0.3288
  N  N290  1  0.214300  0.709020  0.380590  1.0  -0.3374
  N  N291  1  0.142900  0.742400  0.234400  1.0  -0.2835
  N  N292  1  0.272100  0.660800  0.227230  1.0  -0.305
  O  O293  1  0.160300  0.019790  0.787560  1.0  -0.5421
  O  O294  1  0.646200  0.004910  0.787680  1.0  -0.5596
  O  O295  1  0.644270  0.902530  0.831280  1.0  -0.5889
  O  O296  1  0.141700  0.994830  0.064180  1.0  -0.5914
  O  O297  1  0.843600  0.925890  0.801800  1.0  -0.6182
  O  O298  1  0.845100  0.837880  0.919500  1.0  -0.6078
  O  O299  1  0.249000  0.011650  0.021880  1.0  -0.5379
  O  O300  1  0.178800  0.079450  0.631370  1.0  -0.6782
  O  O301  1  0.318300  0.129690  0.643440  1.0  -0.5764
  O  O302  1  0.730600  0.859600  0.717560  1.0  -0.4825
  O  O303  1  0.808000  0.813070  0.502530  1.0  -0.5973
  O  O304  1  0.943300  0.872570  0.515310  1.0  -0.634
  O  O305  1  0.256400  0.706550  0.965740  1.0  -0.5313
  O  O306  1  0.890420  0.734480  0.901980  1.0  -0.687
  O  O307  1  0.226400  0.808790  0.612650  1.0  -0.5461
  O  O308  1  0.839700  0.519790  0.712440  1.0  -0.5417
  O  O309  1  0.353800  0.504910  0.712320  1.0  -0.5599
  O  O310  1  0.355730  0.402530  0.668720  1.0  -0.5893
  O  O311  1  0.858300  0.494830  0.435820  1.0  -0.5909
  O  O312  1  0.156400  0.425890  0.698200  1.0  -0.6175
  O  O313  1  0.154900  0.337880  0.580500  1.0  -0.6075
  O  O314  1  0.751000  0.511650  0.478120  1.0  -0.5379
  O  O315  1  0.821200  0.579450  0.868630  1.0  -0.679
  O  O316  1  0.681700  0.629690  0.856560  1.0  -0.5764
  O  O317  1  0.269400  0.359600  0.782440  1.0  -0.4793
  O  O318  1  0.192000  0.313070  0.997470  1.0  -0.5967
  O  O319  1  0.056700  0.372570  0.984690  1.0  -0.6318
  O  O320  1  0.743600  0.206550  0.534260  1.0  -0.5291
  O  O321  1  0.109580  0.234480  0.598020  1.0  -0.6859
  O  O322  1  0.773600  0.308790  0.887350  1.0  -0.5485
  O  O323  1  0.839700  0.980210  0.212440  1.0  -0.5391
  O  O324  1  0.353800  0.995090  0.212320  1.0  -0.5593
  O  O325  1  0.355730  0.097470  0.168720  1.0  -0.5903
  O  O326  1  0.858300  0.005170  0.935820  1.0  -0.5912
  O  O327  1  0.156400  0.074110  0.198200  1.0  -0.6171
  O  O328  1  0.154900  0.162120  0.080500  1.0  -0.6078
  O  O329  1  0.751000  0.988350  0.978120  1.0  -0.5378
  O  O330  1  0.821200  0.920550  0.368630  1.0  -0.6787
  O  O331  1  0.681700  0.870310  0.356560  1.0  -0.5766
  O  O332  1  0.269400  0.140400  0.282440  1.0  -0.4786
  O  O333  1  0.192000  0.186930  0.497470  1.0  -0.5982
  O  O334  1  0.056700  0.127430  0.484690  1.0  -0.6305
  O  O335  1  0.743600  0.293450  0.034260  1.0  -0.5313
  O  O336  1  0.109580  0.265520  0.098020  1.0  -0.6875
  O  O337  1  0.773600  0.191210  0.387350  1.0  -0.5482
  O  O338  1  0.160300  0.480210  0.287560  1.0  -0.5385
  O  O339  1  0.646200  0.495090  0.287680  1.0  -0.5601
  O  O340  1  0.644270  0.597470  0.331280  1.0  -0.5906
  O  O341  1  0.141700  0.505170  0.564180  1.0  -0.5914
  O  O342  1  0.843600  0.574110  0.301800  1.0  -0.6177
  O  O343  1  0.845100  0.662120  0.419500  1.0  -0.6076
  O  O344  1  0.249000  0.488350  0.521880  1.0  -0.5385
  O  O345  1  0.178800  0.420550  0.131370  1.0  -0.6777
  O  O346  1  0.318300  0.370310  0.143440  1.0  -0.5766
  O  O347  1  0.730600  0.640400  0.217560  1.0  -0.4814
  O  O348  1  0.808000  0.686930  0.002530  1.0  -0.5979
  O  O349  1  0.943300  0.627430  0.015310  1.0  -0.6319
  O  O350  1  0.256400  0.793450  0.465740  1.0  -0.5316
  O  O351  1  0.890420  0.765520  0.401980  1.0  -0.6879
  O  O352  1  0.226400  0.691210  0.112650  1.0  -0.5462
