# generated using pymatgen
data_ZnCoH24C39(N2O3)3
_symmetry_space_group_name_H-M   'P 1'
_cell_length_a   17.31700000
_cell_length_b   25.39700000
_cell_length_c   21.54000000
_cell_angle_alpha   90.00000000
_cell_angle_beta   94.43100000
_cell_angle_gamma   90.00000000
_symmetry_Int_Tables_number   1
_chemical_formula_structural   ZnCoH24C39(N2O3)3
_chemical_formula_sum   'Zn8 Co8 H192 C312 N48 O72'
_cell_volume   9444.97400917
_cell_formula_units_Z   8
loop_
 _symmetry_equiv_pos_site_id
 _symmetry_equiv_pos_as_xyz
  1  'x, y, z'
loop_
 _atom_site_type_symbol
 _atom_site_label
 _atom_site_symmetry_multiplicity
 _atom_site_fract_x
 _atom_site_fract_y
 _atom_site_fract_z
 _atom_site_occupancy
 _atom_site_charge
  Zn  Zn1  1  0.705330  0.217000  0.427080  1.0  1.0253
  Zn  Zn2  1  0.205330  0.717000  0.427080  1.0  1.0253
  Zn  Zn3  1  0.294670  0.217000  0.072920  1.0  1.0268
  Zn  Zn4  1  0.794670  0.717000  0.072920  1.0  1.0268
  Zn  Zn5  1  0.294670  0.783000  0.572920  1.0  1.0269
  Zn  Zn6  1  0.794670  0.283000  0.572920  1.0  1.0269
  Zn  Zn7  1  0.705330  0.783000  0.927080  1.0  1.0253
  Zn  Zn8  1  0.205330  0.283000  0.927080  1.0  1.0253
  Co  Co9  1  0.806040  0.909820  0.515260  1.0  0.5017
  Co  Co10  1  0.306040  0.409820  0.515260  1.0  0.5017
  Co  Co11  1  0.193960  0.909820  0.984740  1.0  0.5004
  Co  Co12  1  0.693960  0.409820  0.984740  1.0  0.5004
  Co  Co13  1  0.193960  0.090180  0.484740  1.0  0.5
  Co  Co14  1  0.693960  0.590180  0.484740  1.0  0.5
  Co  Co15  1  0.806040  0.090180  0.015260  1.0  0.5012
  Co  Co16  1  0.306040  0.590180  0.015260  1.0  0.5012
  H  H17  1  0.828200  0.792800  0.547700  1.0  0.0951
  H  H18  1  0.927000  0.744000  0.598600  1.0  0.1082
  H  H19  1  0.034800  0.785700  0.643200  1.0  0.1138
  H  H20  1  0.045900  0.876700  0.634800  1.0  0.1127
  H  H21  1  0.890000  0.029600  0.455700  1.0  0.1125
  H  H22  1  0.857900  0.118900  0.452200  1.0  0.0973
  H  H23  1  0.801800  0.112800  0.629700  1.0  0.1128
  H  H24  1  0.834500  0.023900  0.635000  1.0  0.1154
  H  H25  1  0.049700  0.056600  0.549600  1.0  0.0791
  H  H26  1  0.982200  0.090500  0.629800  1.0  0.1106
  H  H27  1  0.033200  0.162200  0.687000  1.0  0.1185
  H  H28  1  0.153100  0.196800  0.663000  1.0  0.1154
  H  H29  1  0.396200  0.099700  0.551400  1.0  0.1307
  H  H30  1  0.521200  0.125200  0.522400  1.0  0.0967
  H  H31  1  0.428400  0.240800  0.417900  1.0  0.0977
  H  H32  1  0.307100  0.220000  0.449400  1.0  0.0865
  H  H33  1  0.771800  0.041300  0.886300  1.0  0.1098
  H  H34  1  0.699000  0.969400  0.849400  1.0  0.109
  H  H35  1  0.625200  0.923100  0.915400  1.0  0.1118
  H  H36  1  0.619300  0.952900  0.018400  1.0  0.1173
  H  H37  1  0.638000  0.128600  0.133100  1.0  0.1249
  H  H38  1  0.644300  0.172900  0.228200  1.0  0.117
  H  H39  1  0.861500  0.120500  0.265700  1.0  0.0881
  H  H40  1  0.851800  0.072200  0.175100  1.0  0.1091
  H  H41  1  0.328200  0.292800  0.547700  1.0  0.0951
  H  H42  1  0.427000  0.244000  0.598600  1.0  0.1077
  H  H43  1  0.534800  0.285700  0.643200  1.0  0.1125
  H  H44  1  0.545900  0.376700  0.634800  1.0  0.1127
  H  H45  1  0.390000  0.529600  0.455700  1.0  0.1125
  H  H46  1  0.357900  0.618900  0.452200  1.0  0.0973
  H  H47  1  0.301800  0.612800  0.629700  1.0  0.1128
  H  H48  1  0.334500  0.523900  0.635000  1.0  0.1154
  H  H49  1  0.549700  0.556600  0.549600  1.0  0.0791
  H  H50  1  0.482200  0.590500  0.629800  1.0  0.1106
  H  H51  1  0.533200  0.662200  0.687000  1.0  0.1185
  H  H52  1  0.653100  0.696800  0.663000  1.0  0.1154
  H  H53  1  0.896200  0.599700  0.551400  1.0  0.1307
  H  H54  1  0.021200  0.625200  0.522400  1.0  0.0967
  H  H55  1  0.928400  0.740800  0.417900  1.0  0.0977
  H  H56  1  0.807100  0.720000  0.449400  1.0  0.0865
  H  H57  1  0.271800  0.541300  0.886300  1.0  0.1098
  H  H58  1  0.199000  0.469400  0.849400  1.0  0.109
  H  H59  1  0.125200  0.423100  0.915400  1.0  0.1118
  H  H60  1  0.119300  0.452900  0.018400  1.0  0.1173
  H  H61  1  0.138000  0.628600  0.133100  1.0  0.1249
  H  H62  1  0.144300  0.672900  0.228200  1.0  0.117
  H  H63  1  0.361500  0.620500  0.265700  1.0  0.0881
  H  H64  1  0.351800  0.572200  0.175100  1.0  0.1091
  H  H65  1  0.171800  0.792800  0.952300  1.0  0.0955
  H  H66  1  0.073000  0.744000  0.901400  1.0  0.1088
  H  H67  1  0.965200  0.785700  0.856800  1.0  0.1118
  H  H68  1  0.954100  0.876700  0.865200  1.0  0.1126
  H  H69  1  0.110000  0.029600  0.044300  1.0  0.1117
  H  H70  1  0.142100  0.118900  0.047800  1.0  0.0968
  H  H71  1  0.198200  0.112800  0.870300  1.0  0.1134
  H  H72  1  0.165500  0.023900  0.865000  1.0  0.1163
  H  H73  1  0.950300  0.056600  0.950400  1.0  0.0785
  H  H74  1  0.017800  0.090500  0.870200  1.0  0.1104
  H  H75  1  0.966800  0.162200  0.813000  1.0  0.1173
  H  H76  1  0.846900  0.196800  0.837000  1.0  0.1159
  H  H77  1  0.603800  0.099700  0.948600  1.0  0.1318
  H  H78  1  0.478800  0.125200  0.977600  1.0  0.0964
  H  H79  1  0.571600  0.240800  0.082100  1.0  0.0974
  H  H80  1  0.692900  0.220000  0.050600  1.0  0.0841
  H  H81  1  0.228200  0.041300  0.613700  1.0  0.1082
  H  H82  1  0.301000  0.969400  0.650600  1.0  0.1118
  H  H83  1  0.374800  0.923100  0.584600  1.0  0.1117
  H  H84  1  0.380700  0.952900  0.481600  1.0  0.117
  H  H85  1  0.362000  0.128600  0.366900  1.0  0.1254
  H  H86  1  0.355700  0.172900  0.271800  1.0  0.1173
  H  H87  1  0.138500  0.120500  0.234300  1.0  0.0879
  H  H88  1  0.148200  0.072200  0.324900  1.0  0.1091
  H  H89  1  0.671800  0.292800  0.952300  1.0  0.0955
  H  H90  1  0.573000  0.244000  0.901400  1.0  0.1081
  H  H91  1  0.465200  0.285700  0.856800  1.0  0.1129
  H  H92  1  0.454100  0.376700  0.865200  1.0  0.1126
  H  H93  1  0.610000  0.529600  0.044300  1.0  0.1114
  H  H94  1  0.642100  0.618900  0.047800  1.0  0.0968
  H  H95  1  0.698200  0.612800  0.870300  1.0  0.1134
  H  H96  1  0.665500  0.523900  0.865000  1.0  0.1163
  H  H97  1  0.450300  0.556600  0.950400  1.0  0.0785
  H  H98  1  0.517800  0.590500  0.870200  1.0  0.1104
  H  H99  1  0.466800  0.662200  0.813000  1.0  0.1153
  H  H100  1  0.346900  0.696800  0.837000  1.0  0.1159
  H  H101  1  0.103800  0.599700  0.948600  1.0  0.1318
  H  H102  1  0.978800  0.625200  0.977600  1.0  0.0964
  H  H103  1  0.071600  0.740800  0.082100  1.0  0.0974
  H  H104  1  0.192900  0.720000  0.050600  1.0  0.0841
  H  H105  1  0.728200  0.541300  0.613700  1.0  0.1082
  H  H106  1  0.801000  0.469400  0.650600  1.0  0.1118
  H  H107  1  0.874800  0.423100  0.584600  1.0  0.1117
  H  H108  1  0.880700  0.452900  0.481600  1.0  0.117
  H  H109  1  0.862000  0.628600  0.366900  1.0  0.1254
  H  H110  1  0.855700  0.672900  0.271800  1.0  0.1173
  H  H111  1  0.638500  0.620500  0.234300  1.0  0.0879
  H  H112  1  0.648200  0.572200  0.324900  1.0  0.1091
  H  H113  1  0.171800  0.207200  0.452300  1.0  0.0954
  H  H114  1  0.073000  0.256000  0.401400  1.0  0.1091
  H  H115  1  0.965200  0.214300  0.356800  1.0  0.1114
  H  H116  1  0.954100  0.123300  0.365200  1.0  0.1125
  H  H117  1  0.110000  0.970400  0.544300  1.0  0.1116
  H  H118  1  0.142100  0.881100  0.547800  1.0  0.0973
  H  H119  1  0.198200  0.887200  0.370300  1.0  0.1131
  H  H120  1  0.165500  0.976100  0.365000  1.0  0.116
  H  H121  1  0.950300  0.943400  0.450400  1.0  0.0782
  H  H122  1  0.017800  0.909500  0.370200  1.0  0.1103
  H  H123  1  0.966800  0.837800  0.313000  1.0  0.1179
  H  H124  1  0.846900  0.803200  0.337000  1.0  0.1161
  H  H125  1  0.603800  0.900300  0.448600  1.0  0.1322
  H  H126  1  0.478800  0.874800  0.477600  1.0  0.0965
  H  H127  1  0.571600  0.759200  0.582100  1.0  0.0978
  H  H128  1  0.692900  0.780000  0.550600  1.0  0.0857
  H  H129  1  0.228200  0.958700  0.113700  1.0  0.1085
  H  H130  1  0.301000  0.030600  0.150600  1.0  0.1081
  H  H131  1  0.374800  0.076900  0.084600  1.0  0.1112
  H  H132  1  0.380700  0.047100  0.981600  1.0  0.117
  H  H133  1  0.362000  0.871400  0.866900  1.0  0.1255
  H  H134  1  0.355700  0.827100  0.771800  1.0  0.1173
  H  H135  1  0.138500  0.879500  0.734300  1.0  0.0881
  H  H136  1  0.148200  0.927800  0.824900  1.0  0.1096
  H  H137  1  0.671800  0.707200  0.452300  1.0  0.0954
  H  H138  1  0.573000  0.756000  0.401400  1.0  0.1083
  H  H139  1  0.465200  0.714300  0.356800  1.0  0.1119
  H  H140  1  0.454100  0.623300  0.365200  1.0  0.1126
  H  H141  1  0.610000  0.470400  0.544300  1.0  0.1113
  H  H142  1  0.642100  0.381100  0.547800  1.0  0.0973
  H  H143  1  0.698200  0.387200  0.370300  1.0  0.1131
  H  H144  1  0.665500  0.476100  0.365000  1.0  0.116
  H  H145  1  0.450300  0.443400  0.450400  1.0  0.0785
  H  H146  1  0.517800  0.409500  0.370200  1.0  0.1103
  H  H147  1  0.466800  0.337800  0.313000  1.0  0.1178
  H  H148  1  0.346900  0.303200  0.337000  1.0  0.1161
  H  H149  1  0.103800  0.400300  0.448600  1.0  0.1322
  H  H150  1  0.978800  0.374800  0.477600  1.0  0.0965
  H  H151  1  0.071600  0.259200  0.582100  1.0  0.0978
  H  H152  1  0.192900  0.280000  0.550600  1.0  0.0857
  H  H153  1  0.728200  0.458700  0.113700  1.0  0.1085
  H  H154  1  0.801000  0.530600  0.150600  1.0  0.1081
  H  H155  1  0.874800  0.576900  0.084600  1.0  0.1112
  H  H156  1  0.880700  0.547100  0.981600  1.0  0.117
  H  H157  1  0.862000  0.371400  0.866900  1.0  0.1255
  H  H158  1  0.855700  0.327100  0.771800  1.0  0.1173
  H  H159  1  0.638500  0.379500  0.734300  1.0  0.0881
  H  H160  1  0.648200  0.427800  0.824900  1.0  0.1096
  H  H161  1  0.828200  0.207200  0.047700  1.0  0.0958
  H  H162  1  0.927000  0.256000  0.098600  1.0  0.1084
  H  H163  1  0.034800  0.214300  0.143200  1.0  0.112
  H  H164  1  0.045900  0.123300  0.134800  1.0  0.1129
  H  H165  1  0.890000  0.970400  0.955700  1.0  0.1122
  H  H166  1  0.857900  0.881100  0.952200  1.0  0.0975
  H  H167  1  0.801800  0.887200  0.129700  1.0  0.1132
  H  H168  1  0.834500  0.976100  0.135000  1.0  0.1155
  H  H169  1  0.049700  0.943400  0.049600  1.0  0.0785
  H  H170  1  0.982200  0.909500  0.129800  1.0  0.11
  H  H171  1  0.033200  0.837800  0.187000  1.0  0.1212
  H  H172  1  0.153100  0.803200  0.163000  1.0  0.1161
  H  H173  1  0.396200  0.900300  0.051400  1.0  0.1306
  H  H174  1  0.521200  0.874800  0.022400  1.0  0.0967
  H  H175  1  0.428400  0.759200  0.917900  1.0  0.0968
  H  H176  1  0.307100  0.780000  0.949400  1.0  0.0856
  H  H177  1  0.771800  0.958700  0.386300  1.0  0.11
  H  H178  1  0.699000  0.030600  0.349400  1.0  0.1069
  H  H179  1  0.625200  0.076900  0.415400  1.0  0.1123
  H  H180  1  0.619300  0.047100  0.518400  1.0  0.117
  H  H181  1  0.638000  0.871400  0.633100  1.0  0.1248
  H  H182  1  0.644300  0.827100  0.728200  1.0  0.117
  H  H183  1  0.861500  0.879500  0.765700  1.0  0.0881
  H  H184  1  0.851800  0.927800  0.675100  1.0  0.1091
  H  H185  1  0.328200  0.707200  0.047700  1.0  0.0958
  H  H186  1  0.427000  0.756000  0.098600  1.0  0.1078
  H  H187  1  0.534800  0.714300  0.143200  1.0  0.1117
  H  H188  1  0.545900  0.623300  0.134800  1.0  0.1129
  H  H189  1  0.390000  0.470400  0.955700  1.0  0.1122
  H  H190  1  0.357900  0.381100  0.952200  1.0  0.0975
  H  H191  1  0.301800  0.387200  0.129700  1.0  0.1132
  H  H192  1  0.334500  0.476100  0.135000  1.0  0.1155
  H  H193  1  0.549700  0.443400  0.049600  1.0  0.0785
  H  H194  1  0.482200  0.409500  0.129800  1.0  0.11
  H  H195  1  0.533200  0.337800  0.187000  1.0  0.1212
  H  H196  1  0.653100  0.303200  0.163000  1.0  0.1161
  H  H197  1  0.896200  0.400300  0.051400  1.0  0.1306
  H  H198  1  0.021200  0.374800  0.022400  1.0  0.0967
  H  H199  1  0.928400  0.259200  0.917900  1.0  0.0968
  H  H200  1  0.807100  0.280000  0.949400  1.0  0.0856
  H  H201  1  0.271800  0.458700  0.386300  1.0  0.11
  H  H202  1  0.199000  0.530600  0.349400  1.0  0.1065
  H  H203  1  0.125200  0.576900  0.415400  1.0  0.1123
  H  H204  1  0.119300  0.547100  0.518400  1.0  0.117
  H  H205  1  0.138000  0.371400  0.633100  1.0  0.1248
  H  H206  1  0.144300  0.327100  0.728200  1.0  0.117
  H  H207  1  0.361500  0.379500  0.765700  1.0  0.0881
  H  H208  1  0.351800  0.427800  0.675100  1.0  0.1091
  C  C209  1  0.873000  0.810300  0.565600  1.0  0.1053
  C  C210  1  0.931500  0.781200  0.596000  1.0  -0.0688
  C  C211  1  0.994600  0.805600  0.621800  1.0  -0.1044
  C  C212  1  0.000900  0.859200  0.617300  1.0  -0.0751
  C  C213  1  0.941300  0.887200  0.587300  1.0  0.1515
  C  C214  1  0.940500  0.945600  0.582200  1.0  0.6025
  C  C215  1  0.865700  0.017960  0.546100  1.0  0.1524
  C  C216  1  0.872200  0.046400  0.491300  1.0  -0.1237
  C  C217  1  0.852400  0.099400  0.489200  1.0  -0.0163
  C  C218  1  0.825000  0.123790  0.539500  1.0  -0.1202
  C  C219  1  0.819400  0.095700  0.594200  1.0  -0.0826
  C  C220  1  0.839100  0.043000  0.597500  1.0  -0.1271
  C  C221  1  0.804100  0.181000  0.535600  1.0  0.6822
  C  C222  1  0.070000  0.086200  0.572200  1.0  0.1638
  C  C223  1  0.029900  0.105900  0.620400  1.0  -0.1227
  C  C224  1  0.059900  0.147700  0.654100  1.0  -0.1029
  C  C225  1  0.130400  0.168500  0.639300  1.0  -0.0786
  C  C226  1  0.166900  0.148100  0.590600  1.0  0.1523
  C  C227  1  0.241300  0.168300  0.571400  1.0  0.5693
  C  C228  1  0.339200  0.157600  0.502600  1.0  0.169
  C  C229  1  0.401800  0.128900  0.524700  1.0  -0.1477
  C  C230  1  0.476800  0.144200  0.506400  1.0  -0.0441
  C  C231  1  0.485700  0.184900  0.466800  1.0  -0.1149
  C  C232  1  0.423000  0.212300  0.445700  1.0  -0.1086
  C  C233  1  0.350500  0.199300  0.464100  1.0  -0.1389
  C  C234  1  0.566100  0.199900  0.444200  1.0  0.6838
  C  C235  1  0.741200  0.022600  0.913600  1.0  0.1039
  C  C236  1  0.697800  0.979900  0.891600  1.0  -0.1172
  C  C237  1  0.653700  0.953200  0.929900  1.0  -0.1308
  C  C238  1  0.650900  0.970600  0.990700  1.0  -0.0683
  C  C239  1  0.694100  0.013400  0.010400  1.0  0.2258
  C  C240  1  0.694300  0.034600  0.073700  1.0  0.5834
  C  C241  1  0.747900  0.099900  0.143100  1.0  0.1896
  C  C242  1  0.684200  0.127600  0.160000  1.0  -0.2206
  C  C243  1  0.688000  0.153800  0.216400  1.0  -0.0737
  C  C244  1  0.757000  0.152600  0.256800  1.0  0.0313
  C  C245  1  0.815200  0.122700  0.239100  1.0  -0.0921
  C  C246  1  0.810700  0.095000  0.184300  1.0  -0.2124
  C  C247  1  0.761300  0.181900  0.316800  1.0  0.7442
  C  C248  1  0.373000  0.310300  0.565600  1.0  0.1049
  C  C249  1  0.431500  0.281200  0.596000  1.0  -0.068
  C  C250  1  0.494600  0.305600  0.621800  1.0  -0.1044
  C  C251  1  0.500900  0.359200  0.617300  1.0  -0.0751
  C  C252  1  0.441300  0.387200  0.587300  1.0  0.1479
  C  C253  1  0.440500  0.445600  0.582200  1.0  0.6018
  C  C254  1  0.365700  0.517960  0.546100  1.0  0.1524
  C  C255  1  0.372200  0.546400  0.491300  1.0  -0.1237
  C  C256  1  0.352400  0.599400  0.489200  1.0  -0.0163
  C  C257  1  0.325000  0.623790  0.539500  1.0  -0.1202
  C  C258  1  0.319400  0.595700  0.594200  1.0  -0.0826
  C  C259  1  0.339100  0.543000  0.597500  1.0  -0.1271
  C  C260  1  0.304100  0.681000  0.535600  1.0  0.6822
  C  C261  1  0.570000  0.586200  0.572200  1.0  0.1638
  C  C262  1  0.529900  0.605900  0.620400  1.0  -0.1227
  C  C263  1  0.559900  0.647700  0.654100  1.0  -0.1029
  C  C264  1  0.630400  0.668500  0.639300  1.0  -0.0786
  C  C265  1  0.666900  0.648100  0.590600  1.0  0.1523
  C  C266  1  0.741300  0.668300  0.571400  1.0  0.5693
  C  C267  1  0.839200  0.657600  0.502600  1.0  0.169
  C  C268  1  0.901800  0.628900  0.524700  1.0  -0.1477
  C  C269  1  0.976800  0.644200  0.506400  1.0  -0.0441
  C  C270  1  0.985700  0.684900  0.466800  1.0  -0.1149
  C  C271  1  0.923000  0.712300  0.445700  1.0  -0.1086
  C  C272  1  0.850500  0.699300  0.464100  1.0  -0.1389
  C  C273  1  0.066100  0.699900  0.444200  1.0  0.6826
  C  C274  1  0.241200  0.522600  0.913600  1.0  0.1039
  C  C275  1  0.197800  0.479900  0.891600  1.0  -0.1172
  C  C276  1  0.153700  0.453200  0.929900  1.0  -0.1308
  C  C277  1  0.150900  0.470600  0.990700  1.0  -0.0685
  C  C278  1  0.194100  0.513400  0.010400  1.0  0.2258
  C  C279  1  0.194300  0.534600  0.073700  1.0  0.5834
  C  C280  1  0.247900  0.599900  0.143100  1.0  0.1896
  C  C281  1  0.184200  0.627600  0.160000  1.0  -0.2206
  C  C282  1  0.188000  0.653800  0.216400  1.0  -0.0737
  C  C283  1  0.257000  0.652600  0.256800  1.0  0.0313
  C  C284  1  0.315200  0.622700  0.239100  1.0  -0.0921
  C  C285  1  0.310700  0.595000  0.184300  1.0  -0.2124
  C  C286  1  0.261300  0.681900  0.316800  1.0  0.7442
  C  C287  1  0.127000  0.810300  0.934400  1.0  0.1034
  C  C288  1  0.068500  0.781200  0.904000  1.0  -0.0709
  C  C289  1  0.005400  0.805600  0.878200  1.0  -0.1033
  C  C290  1  0.999100  0.859200  0.882700  1.0  -0.0732
  C  C291  1  0.058700  0.887200  0.912700  1.0  0.1467
  C  C292  1  0.059500  0.945600  0.917800  1.0  0.6019
  C  C293  1  0.134300  0.017960  0.953900  1.0  0.1524
  C  C294  1  0.127800  0.046400  0.008700  1.0  -0.1329
  C  C295  1  0.147600  0.099400  0.010800  1.0  -0.0168
  C  C296  1  0.175000  0.123790  0.960500  1.0  -0.1197
  C  C297  1  0.180600  0.095700  0.905800  1.0  -0.08
  C  C298  1  0.160900  0.043000  0.902500  1.0  -0.1228
  C  C299  1  0.195900  0.181000  0.964400  1.0  0.6827
  C  C300  1  0.930000  0.086200  0.927800  1.0  0.1621
  C  C301  1  0.970100  0.105900  0.879600  1.0  -0.1194
  C  C302  1  0.940100  0.147700  0.845900  1.0  -0.1053
  C  C303  1  0.869600  0.168500  0.860700  1.0  -0.0782
  C  C304  1  0.833100  0.148100  0.909400  1.0  0.1493
  C  C305  1  0.758700  0.168300  0.928600  1.0  0.5664
  C  C306  1  0.660800  0.157600  0.997400  1.0  0.1686
  C  C307  1  0.598200  0.128900  0.975300  1.0  -0.1502
  C  C308  1  0.523200  0.144200  0.993600  1.0  -0.0492
  C  C309  1  0.514300  0.184900  0.033200  1.0  -0.1175
  C  C310  1  0.577000  0.212300  0.054300  1.0  -0.1079
  C  C311  1  0.649500  0.199300  0.035900  1.0  -0.1372
  C  C312  1  0.433900  0.199900  0.055800  1.0  0.6837
  C  C313  1  0.258800  0.022600  0.586400  1.0  0.1023
  C  C314  1  0.302200  0.979900  0.608400  1.0  -0.118
  C  C315  1  0.346300  0.953200  0.570100  1.0  -0.1287
  C  C316  1  0.349100  0.970600  0.509300  1.0  -0.0724
  C  C317  1  0.305900  0.013400  0.489600  1.0  0.2256
  C  C318  1  0.305700  0.034600  0.426300  1.0  0.5823
  C  C319  1  0.252100  0.099900  0.356900  1.0  0.1868
  C  C320  1  0.315800  0.127600  0.340000  1.0  -0.2157
  C  C321  1  0.312000  0.153800  0.283600  1.0  -0.0762
  C  C322  1  0.243000  0.152600  0.243200  1.0  0.0321
  C  C323  1  0.184800  0.122700  0.260900  1.0  -0.091
  C  C324  1  0.189300  0.095000  0.315700  1.0  -0.2163
  C  C325  1  0.238700  0.181900  0.183200  1.0  0.7456
  C  C326  1  0.627000  0.310300  0.934400  1.0  0.1034
  C  C327  1  0.568500  0.281200  0.904000  1.0  -0.0709
  C  C328  1  0.505400  0.305600  0.878200  1.0  -0.1033
  C  C329  1  0.499100  0.359200  0.882700  1.0  -0.0732
  C  C330  1  0.558700  0.387200  0.912700  1.0  0.1483
  C  C331  1  0.559500  0.445600  0.917800  1.0  0.6017
  C  C332  1  0.634300  0.517960  0.953900  1.0  0.1524
  C  C333  1  0.627800  0.546400  0.008700  1.0  -0.1329
  C  C334  1  0.647600  0.599400  0.010800  1.0  -0.0168
  C  C335  1  0.675000  0.623790  0.960500  1.0  -0.1197
  C  C336  1  0.680600  0.595700  0.905800  1.0  -0.08
  C  C337  1  0.660900  0.543000  0.902500  1.0  -0.1219
  C  C338  1  0.695900  0.681000  0.964400  1.0  0.6827
  C  C339  1  0.430000  0.586200  0.927800  1.0  0.1619
  C  C340  1  0.470100  0.605900  0.879600  1.0  -0.1194
  C  C341  1  0.440100  0.647700  0.845900  1.0  -0.1024
  C  C342  1  0.369600  0.668500  0.860700  1.0  -0.0782
  C  C343  1  0.333100  0.648100  0.909400  1.0  0.1493
  C  C344  1  0.258700  0.668300  0.928600  1.0  0.5664
  C  C345  1  0.160800  0.657600  0.997400  1.0  0.1686
  C  C346  1  0.098200  0.628900  0.975300  1.0  -0.1502
  C  C347  1  0.023200  0.644200  0.993600  1.0  -0.049
  C  C348  1  0.014300  0.684900  0.033200  1.0  -0.1175
  C  C349  1  0.077000  0.712300  0.054300  1.0  -0.1079
  C  C350  1  0.149500  0.699300  0.035900  1.0  -0.1372
  C  C351  1  0.933900  0.699900  0.055800  1.0  0.6837
  C  C352  1  0.758800  0.522600  0.586400  1.0  0.1023
  C  C353  1  0.802200  0.479900  0.608400  1.0  -0.118
  C  C354  1  0.846300  0.453200  0.570100  1.0  -0.1287
  C  C355  1  0.849100  0.470600  0.509300  1.0  -0.0724
  C  C356  1  0.805900  0.513400  0.489600  1.0  0.2256
  C  C357  1  0.805700  0.534600  0.426300  1.0  0.5823
  C  C358  1  0.752100  0.599900  0.356900  1.0  0.1868
  C  C359  1  0.815800  0.627600  0.340000  1.0  -0.2157
  C  C360  1  0.812000  0.653800  0.283600  1.0  -0.0762
  C  C361  1  0.743000  0.652600  0.243200  1.0  0.0321
  C  C362  1  0.684800  0.622700  0.260900  1.0  -0.091
  C  C363  1  0.689300  0.595000  0.315700  1.0  -0.2163
  C  C364  1  0.738700  0.681900  0.183200  1.0  0.7456
  C  C365  1  0.127000  0.189700  0.434400  1.0  0.105
  C  C366  1  0.068500  0.218800  0.404000  1.0  -0.0681
  C  C367  1  0.005400  0.194400  0.378200  1.0  -0.1017
  C  C368  1  0.999100  0.140800  0.382700  1.0  -0.0741
  C  C369  1  0.058700  0.112800  0.412700  1.0  0.1451
  C  C370  1  0.059500  0.054400  0.417800  1.0  0.6012
  C  C371  1  0.134300  0.982040  0.453900  1.0  0.1526
  C  C372  1  0.127800  0.953600  0.508700  1.0  -0.1276
  C  C373  1  0.147600  0.900600  0.510800  1.0  -0.0178
  C  C374  1  0.175000  0.876210  0.460500  1.0  -0.1198
  C  C375  1  0.180600  0.904300  0.405800  1.0  -0.0813
  C  C376  1  0.160900  0.957000  0.402500  1.0  -0.1219
  C  C377  1  0.195900  0.819000  0.464400  1.0  0.6829
  C  C378  1  0.930000  0.913800  0.427800  1.0  0.1624
  C  C379  1  0.970100  0.894100  0.379600  1.0  -0.1176
  C  C380  1  0.940100  0.852300  0.345900  1.0  -0.1005
  C  C381  1  0.869600  0.831500  0.360700  1.0  -0.0775
  C  C382  1  0.833100  0.851900  0.409400  1.0  0.1482
  C  C383  1  0.758700  0.831700  0.428600  1.0  0.5676
  C  C384  1  0.660800  0.842400  0.497400  1.0  0.1614
  C  C385  1  0.598200  0.871100  0.475300  1.0  -0.15
  C  C386  1  0.523200  0.855800  0.493600  1.0  -0.046
  C  C387  1  0.514300  0.815100  0.533200  1.0  -0.1174
  C  C388  1  0.577000  0.787700  0.554300  1.0  -0.1075
  C  C389  1  0.649500  0.800700  0.535900  1.0  -0.143
  C  C390  1  0.433900  0.800100  0.555800  1.0  0.6839
  C  C391  1  0.258800  0.977400  0.086400  1.0  0.1028
  C  C392  1  0.302200  0.020100  0.108400  1.0  -0.1181
  C  C393  1  0.346300  0.046800  0.070100  1.0  -0.1298
  C  C394  1  0.349100  0.029400  0.009300  1.0  -0.0729
  C  C395  1  0.305900  0.986600  0.989600  1.0  0.2261
  C  C396  1  0.305700  0.965400  0.926300  1.0  0.5837
  C  C397  1  0.252100  0.900100  0.856900  1.0  0.1883
  C  C398  1  0.315800  0.872400  0.840000  1.0  -0.2147
  C  C399  1  0.312000  0.846200  0.783600  1.0  -0.0758
  C  C400  1  0.243000  0.847400  0.743200  1.0  0.032
  C  C401  1  0.184800  0.877300  0.760900  1.0  -0.0899
  C  C402  1  0.189300  0.905000  0.815700  1.0  -0.2163
  C  C403  1  0.238700  0.818100  0.683200  1.0  0.7441
  C  C404  1  0.627000  0.689700  0.434400  1.0  0.105
  C  C405  1  0.568500  0.718800  0.404000  1.0  -0.0681
  C  C406  1  0.505400  0.694400  0.378200  1.0  -0.1017
  C  C407  1  0.499100  0.640800  0.382700  1.0  -0.0741
  C  C408  1  0.558700  0.612800  0.412700  1.0  0.1452
  C  C409  1  0.559500  0.554400  0.417800  1.0  0.6012
  C  C410  1  0.634300  0.482040  0.453900  1.0  0.1526
  C  C411  1  0.627800  0.453600  0.508700  1.0  -0.1276
  C  C412  1  0.647600  0.400600  0.510800  1.0  -0.0178
  C  C413  1  0.675000  0.376210  0.460500  1.0  -0.1198
  C  C414  1  0.680600  0.404300  0.405800  1.0  -0.0813
  C  C415  1  0.660900  0.457000  0.402500  1.0  -0.1219
  C  C416  1  0.695900  0.319000  0.464400  1.0  0.6829
  C  C417  1  0.430000  0.413800  0.427800  1.0  0.1622
  C  C418  1  0.470100  0.394100  0.379600  1.0  -0.1176
  C  C419  1  0.440100  0.352300  0.345900  1.0  -0.1019
  C  C420  1  0.369600  0.331500  0.360700  1.0  -0.0775
  C  C421  1  0.333100  0.351900  0.409400  1.0  0.1482
  C  C422  1  0.258700  0.331700  0.428600  1.0  0.5676
  C  C423  1  0.160800  0.342400  0.497400  1.0  0.1614
  C  C424  1  0.098200  0.371100  0.475300  1.0  -0.15
  C  C425  1  0.023200  0.355800  0.493600  1.0  -0.0452
  C  C426  1  0.014300  0.315100  0.533200  1.0  -0.1174
  C  C427  1  0.077000  0.287700  0.554300  1.0  -0.1075
  C  C428  1  0.149500  0.300700  0.535900  1.0  -0.143
  C  C429  1  0.933900  0.300100  0.555800  1.0  0.6839
  C  C430  1  0.758800  0.477400  0.086400  1.0  0.1028
  C  C431  1  0.802200  0.520100  0.108400  1.0  -0.1181
  C  C432  1  0.846300  0.546800  0.070100  1.0  -0.1291
  C  C433  1  0.849100  0.529400  0.009300  1.0  -0.0726
  C  C434  1  0.805900  0.486600  0.989600  1.0  0.2261
  C  C435  1  0.805700  0.465400  0.926300  1.0  0.5831
  C  C436  1  0.752100  0.400100  0.856900  1.0  0.1883
  C  C437  1  0.815800  0.372400  0.840000  1.0  -0.2147
  C  C438  1  0.812000  0.346200  0.783600  1.0  -0.0758
  C  C439  1  0.743000  0.347400  0.743200  1.0  0.032
  C  C440  1  0.684800  0.377300  0.760900  1.0  -0.0899
  C  C441  1  0.689300  0.405000  0.815700  1.0  -0.2163
  C  C442  1  0.738700  0.318100  0.683200  1.0  0.7441
  C  C443  1  0.873000  0.189700  0.065600  1.0  0.1063
  C  C444  1  0.931500  0.218800  0.096000  1.0  -0.0711
  C  C445  1  0.994600  0.194400  0.121800  1.0  -0.1035
  C  C446  1  0.000900  0.140800  0.117300  1.0  -0.0767
  C  C447  1  0.941300  0.112800  0.087300  1.0  0.1462
  C  C448  1  0.940500  0.054400  0.082200  1.0  0.6029
  C  C449  1  0.865700  0.982040  0.046100  1.0  0.1526
  C  C450  1  0.872200  0.953600  0.991300  1.0  -0.1238
  C  C451  1  0.852400  0.900600  0.989200  1.0  -0.0171
  C  C452  1  0.825000  0.876210  0.039500  1.0  -0.1212
  C  C453  1  0.819400  0.904300  0.094200  1.0  -0.0817
  C  C454  1  0.839100  0.957000  0.097500  1.0  -0.1257
  C  C455  1  0.804100  0.819000  0.035600  1.0  0.6822
  C  C456  1  0.070000  0.913800  0.072200  1.0  0.1637
  C  C457  1  0.029900  0.894100  0.120400  1.0  -0.123
  C  C458  1  0.059900  0.852300  0.154100  1.0  -0.1039
  C  C459  1  0.130400  0.831500  0.139300  1.0  -0.0786
  C  C460  1  0.166900  0.851900  0.090600  1.0  0.1623
  C  C461  1  0.241300  0.831700  0.071400  1.0  0.5696
  C  C462  1  0.339200  0.842400  0.002600  1.0  0.1685
  C  C463  1  0.401800  0.871100  0.024700  1.0  -0.1491
  C  C464  1  0.476800  0.855800  0.006400  1.0  -0.0455
  C  C465  1  0.485700  0.815100  0.966800  1.0  -0.1151
  C  C466  1  0.423000  0.787700  0.945700  1.0  -0.1079
  C  C467  1  0.350500  0.800700  0.964100  1.0  -0.1425
  C  C468  1  0.566100  0.800100  0.944200  1.0  0.6839
  C  C469  1  0.741200  0.977400  0.413600  1.0  0.1031
  C  C470  1  0.697800  0.020100  0.391600  1.0  -0.1179
  C  C471  1  0.653700  0.046800  0.429900  1.0  -0.1317
  C  C472  1  0.650900  0.029400  0.490700  1.0  -0.0694
  C  C473  1  0.694100  0.986600  0.510400  1.0  0.2251
  C  C474  1  0.694300  0.965400  0.573700  1.0  0.5825
  C  C475  1  0.747900  0.900100  0.643100  1.0  0.1981
  C  C476  1  0.684200  0.872400  0.660000  1.0  -0.2204
  C  C477  1  0.688000  0.846200  0.716400  1.0  -0.075
  C  C478  1  0.757000  0.847400  0.756800  1.0  0.031
  C  C479  1  0.815200  0.877300  0.739100  1.0  -0.0921
  C  C480  1  0.810700  0.905000  0.684300  1.0  -0.2116
  C  C481  1  0.761300  0.818100  0.816800  1.0  0.7446
  C  C482  1  0.373000  0.689700  0.065600  1.0  0.1053
  C  C483  1  0.431500  0.718800  0.096000  1.0  -0.0696
  C  C484  1  0.494600  0.694400  0.121800  1.0  -0.1035
  C  C485  1  0.500900  0.640800  0.117300  1.0  -0.0767
  C  C486  1  0.441300  0.612800  0.087300  1.0  0.1458
  C  C487  1  0.440500  0.554400  0.082200  1.0  0.6028
  C  C488  1  0.365700  0.482040  0.046100  1.0  0.1526
  C  C489  1  0.372200  0.453600  0.991300  1.0  -0.1238
  C  C490  1  0.352400  0.400600  0.989200  1.0  -0.0171
  C  C491  1  0.325000  0.376210  0.039500  1.0  -0.1212
  C  C492  1  0.319400  0.404300  0.094200  1.0  -0.0817
  C  C493  1  0.339100  0.457000  0.097500  1.0  -0.1257
  C  C494  1  0.304100  0.319000  0.035600  1.0  0.6822
  C  C495  1  0.570000  0.413800  0.072200  1.0  0.1637
  C  C496  1  0.529900  0.394100  0.120400  1.0  -0.123
  C  C497  1  0.559900  0.352300  0.154100  1.0  -0.1039
  C  C498  1  0.630400  0.331500  0.139300  1.0  -0.0786
  C  C499  1  0.666900  0.351900  0.090600  1.0  0.1623
  C  C500  1  0.741300  0.331700  0.071400  1.0  0.5696
  C  C501  1  0.839200  0.342400  0.002600  1.0  0.1685
  C  C502  1  0.901800  0.371100  0.024700  1.0  -0.1491
  C  C503  1  0.976800  0.355800  0.006400  1.0  -0.0455
  C  C504  1  0.985700  0.315100  0.966800  1.0  -0.1151
  C  C505  1  0.923000  0.287700  0.945700  1.0  -0.1079
  C  C506  1  0.850500  0.300700  0.964100  1.0  -0.1425
  C  C507  1  0.066100  0.300100  0.944200  1.0  0.6828
  C  C508  1  0.241200  0.477400  0.413600  1.0  0.1033
  C  C509  1  0.197800  0.520100  0.391600  1.0  -0.1179
  C  C510  1  0.153700  0.546800  0.429900  1.0  -0.1317
  C  C511  1  0.150900  0.529400  0.490700  1.0  -0.0694
  C  C512  1  0.194100  0.486600  0.510400  1.0  0.2251
  C  C513  1  0.194300  0.465400  0.573700  1.0  0.5825
  C  C514  1  0.247900  0.400100  0.643100  1.0  0.1981
  C  C515  1  0.184200  0.372400  0.660000  1.0  -0.2204
  C  C516  1  0.188000  0.346200  0.716400  1.0  -0.075
  C  C517  1  0.257000  0.347400  0.756800  1.0  0.031
  C  C518  1  0.315200  0.377300  0.739100  1.0  -0.0921
  C  C519  1  0.310700  0.405000  0.684300  1.0  -0.2116
  C  C520  1  0.261300  0.318100  0.816800  1.0  0.7446
  N  N521  1  0.877800  0.862850  0.560700  1.0  -0.277
  N  N522  1  0.881000  0.962790  0.547300  1.0  -0.3237
  N  N523  1  0.136400  0.107540  0.556500  1.0  -0.3274
  N  N524  1  0.262900  0.145230  0.520500  1.0  -0.3622
  N  N525  1  0.740500  0.037950  0.973600  1.0  -0.2438
  N  N526  1  0.744100  0.074550  0.083700  1.0  -0.3404
  N  N527  1  0.377800  0.362850  0.560700  1.0  -0.277
  N  N528  1  0.381000  0.462790  0.547300  1.0  -0.3237
  N  N529  1  0.636400  0.607540  0.556500  1.0  -0.3274
  N  N530  1  0.762900  0.645230  0.520500  1.0  -0.3622
  N  N531  1  0.240500  0.537950  0.973600  1.0  -0.2438
  N  N532  1  0.244100  0.574550  0.083700  1.0  -0.3404
  N  N533  1  0.122200  0.862850  0.939300  1.0  -0.2782
  N  N534  1  0.119000  0.962790  0.952700  1.0  -0.3259
  N  N535  1  0.863600  0.107540  0.943500  1.0  -0.3283
  N  N536  1  0.737100  0.145230  0.979500  1.0  -0.3622
  N  N537  1  0.259500  0.037950  0.526400  1.0  -0.2426
  N  N538  1  0.255900  0.074550  0.416300  1.0  -0.3384
  N  N539  1  0.622200  0.362850  0.939300  1.0  -0.2782
  N  N540  1  0.619000  0.462790  0.952700  1.0  -0.3259
  N  N541  1  0.363600  0.607540  0.943500  1.0  -0.3283
  N  N542  1  0.237100  0.645230  0.979500  1.0  -0.3622
  N  N543  1  0.759500  0.537950  0.526400  1.0  -0.2426
  N  N544  1  0.755900  0.574550  0.416300  1.0  -0.3384
  N  N545  1  0.122200  0.137150  0.439300  1.0  -0.2769
  N  N546  1  0.119000  0.037210  0.452700  1.0  -0.326
  N  N547  1  0.863600  0.892460  0.443500  1.0  -0.3282
  N  N548  1  0.737100  0.854770  0.479500  1.0  -0.3621
  N  N549  1  0.259500  0.962050  0.026400  1.0  -0.2451
  N  N550  1  0.255900  0.925450  0.916300  1.0  -0.3382
  N  N551  1  0.622200  0.637150  0.439300  1.0  -0.278
  N  N552  1  0.619000  0.537210  0.452700  1.0  -0.326
  N  N553  1  0.363600  0.392460  0.443500  1.0  -0.3282
  N  N554  1  0.237100  0.354770  0.479500  1.0  -0.3621
  N  N555  1  0.759500  0.462050  0.026400  1.0  -0.2451
  N  N556  1  0.755900  0.425450  0.916300  1.0  -0.3382
  N  N557  1  0.877800  0.137150  0.060700  1.0  -0.2771
  N  N558  1  0.881000  0.037210  0.047300  1.0  -0.3239
  N  N559  1  0.136400  0.892460  0.056500  1.0  -0.3283
  N  N560  1  0.262900  0.854770  0.020500  1.0  -0.3621
  N  N561  1  0.740500  0.962050  0.473600  1.0  -0.2427
  N  N562  1  0.744100  0.925450  0.583700  1.0  -0.3402
  N  N563  1  0.377800  0.637150  0.060700  1.0  -0.2771
  N  N564  1  0.381000  0.537210  0.047300  1.0  -0.3239
  N  N565  1  0.636400  0.392460  0.056500  1.0  -0.3283
  N  N566  1  0.762900  0.354770  0.020500  1.0  -0.3621
  N  N567  1  0.240500  0.462050  0.473600  1.0  -0.2433
  N  N568  1  0.244100  0.425450  0.583700  1.0  -0.3402
  O  O569  1  0.992400  0.972570  0.608900  1.0  -0.5618
  O  O570  1  0.799300  0.202020  0.482700  1.0  -0.6162
  O  O571  1  0.794100  0.205350  0.585000  1.0  -0.6032
  O  O572  1  0.277700  0.203000  0.602100  1.0  -0.5345
  O  O573  1  0.567700  0.229600  0.400800  1.0  -0.5385
  O  O574  1  0.621700  0.182800  0.473900  1.0  -0.5569
  O  O575  1  0.653000  0.014700  0.112500  1.0  -0.5351
  O  O576  1  0.817900  0.209500  0.329800  1.0  -0.5169
  O  O577  1  0.704600  0.179500  0.348000  1.0  -0.5839
  O  O578  1  0.492400  0.472570  0.608900  1.0  -0.5618
  O  O579  1  0.299300  0.702020  0.482700  1.0  -0.6162
  O  O580  1  0.294100  0.705350  0.585000  1.0  -0.6032
  O  O581  1  0.777700  0.703000  0.602100  1.0  -0.5345
  O  O582  1  0.067700  0.729600  0.400800  1.0  -0.5385
  O  O583  1  0.121700  0.682800  0.473900  1.0  -0.5569
  O  O584  1  0.153000  0.514700  0.112500  1.0  -0.5351
  O  O585  1  0.317900  0.709500  0.329800  1.0  -0.5169
  O  O586  1  0.204600  0.679500  0.348000  1.0  -0.5839
  O  O587  1  0.007600  0.972570  0.891100  1.0  -0.5635
  O  O588  1  0.200700  0.202020  0.017300  1.0  -0.6163
  O  O589  1  0.205900  0.205350  0.915000  1.0  -0.6009
  O  O590  1  0.722300  0.203000  0.897900  1.0  -0.5356
  O  O591  1  0.432300  0.229600  0.099200  1.0  -0.5393
  O  O592  1  0.378300  0.182800  0.026100  1.0  -0.5564
  O  O593  1  0.347000  0.014700  0.387500  1.0  -0.5309
  O  O594  1  0.182100  0.209500  0.170200  1.0  -0.5157
  O  O595  1  0.295400  0.179500  0.152000  1.0  -0.5838
  O  O596  1  0.507600  0.472570  0.891100  1.0  -0.5635
  O  O597  1  0.700700  0.702020  0.017300  1.0  -0.6163
  O  O598  1  0.705900  0.705350  0.915000  1.0  -0.6009
  O  O599  1  0.222300  0.703000  0.897900  1.0  -0.5356
  O  O600  1  0.932300  0.729600  0.099200  1.0  -0.5393
  O  O601  1  0.878300  0.682800  0.026100  1.0  -0.5564
  O  O602  1  0.847000  0.514700  0.387500  1.0  -0.5309
  O  O603  1  0.682100  0.709500  0.170200  1.0  -0.5157
  O  O604  1  0.795400  0.679500  0.152000  1.0  -0.5838
  O  O605  1  0.007600  0.027430  0.391100  1.0  -0.5641
  O  O606  1  0.200700  0.797980  0.517300  1.0  -0.6157
  O  O607  1  0.205900  0.794650  0.415000  1.0  -0.6013
  O  O608  1  0.722300  0.797000  0.397900  1.0  -0.5358
  O  O609  1  0.432300  0.770400  0.599200  1.0  -0.5394
  O  O610  1  0.378300  0.817200  0.526100  1.0  -0.5558
  O  O611  1  0.347000  0.985300  0.887500  1.0  -0.5312
  O  O612  1  0.182100  0.790500  0.670200  1.0  -0.516
  O  O613  1  0.295400  0.820500  0.652000  1.0  -0.5839
  O  O614  1  0.507600  0.527430  0.391100  1.0  -0.5641
  O  O615  1  0.700700  0.297980  0.517300  1.0  -0.6157
  O  O616  1  0.705900  0.294650  0.415000  1.0  -0.6013
  O  O617  1  0.222300  0.297000  0.397900  1.0  -0.5358
  O  O618  1  0.932300  0.270400  0.599200  1.0  -0.5394
  O  O619  1  0.878300  0.317200  0.526100  1.0  -0.5558
  O  O620  1  0.847000  0.485300  0.887500  1.0  -0.5312
  O  O621  1  0.682100  0.290500  0.670200  1.0  -0.516
  O  O622  1  0.795400  0.320500  0.652000  1.0  -0.5839
  O  O623  1  0.992400  0.027430  0.108900  1.0  -0.5621
  O  O624  1  0.799300  0.797980  0.982700  1.0  -0.6162
  O  O625  1  0.794100  0.794650  0.085000  1.0  -0.6029
  O  O626  1  0.277700  0.797000  0.102100  1.0  -0.5345
  O  O627  1  0.567700  0.770400  0.900800  1.0  -0.5386
  O  O628  1  0.621700  0.817200  0.973900  1.0  -0.5568
  O  O629  1  0.653000  0.985300  0.612500  1.0  -0.5333
  O  O630  1  0.817900  0.790500  0.829800  1.0  -0.5169
  O  O631  1  0.704600  0.820500  0.848000  1.0  -0.584
  O  O632  1  0.492400  0.527430  0.108900  1.0  -0.5621
  O  O633  1  0.299300  0.297980  0.982700  1.0  -0.6162
  O  O634  1  0.294100  0.294650  0.085000  1.0  -0.6029
  O  O635  1  0.777700  0.297000  0.102100  1.0  -0.5345
  O  O636  1  0.067700  0.270400  0.900800  1.0  -0.5386
  O  O637  1  0.121700  0.317200  0.973900  1.0  -0.5568
  O  O638  1  0.153000  0.485300  0.612500  1.0  -0.5333
  O  O639  1  0.317900  0.290500  0.829800  1.0  -0.5169
  O  O640  1  0.204600  0.320500  0.848000  1.0  -0.584
