# generated using pymatgen
data_U2P2H3(C4O5)2
_symmetry_space_group_name_H-M   'P 1'
_cell_length_a   9.75610000
_cell_length_b   10.28520000
_cell_length_c   11.04650000
_cell_angle_alpha   95.12700000
_cell_angle_beta   95.10900000
_cell_angle_gamma   105.97400000
_symmetry_Int_Tables_number   1
_chemical_formula_structural   U2P2H3(C4O5)2
_chemical_formula_sum   'U4 P4 H6 C16 O20'
_cell_volume   1053.87791805
_cell_formula_units_Z   2
loop_
 _symmetry_equiv_pos_site_id
 _symmetry_equiv_pos_as_xyz
  1  'x, y, z'
loop_
 _atom_site_type_symbol
 _atom_site_label
 _atom_site_symmetry_multiplicity
 _atom_site_fract_x
 _atom_site_fract_y
 _atom_site_fract_z
 _atom_site_occupancy
 _atom_site_charge
  U  U1  1  0.332790  0.387880  0.369360  1.0  1.9275
  U  U2  1  0.135000  0.172060  0.827350  1.0  1.6508
  U  U3  1  0.667210  0.612120  0.630640  1.0  1.9248
  U  U4  1  0.865000  0.827940  0.172650  1.0  1.6514
  P  P5  1  0.054200  0.183400  0.145200  1.0  1.4531
  P  P6  1  0.632700  0.541300  0.290400  1.0  1.5076
  P  P7  1  0.945800  0.816600  0.854800  1.0  1.4521
  P  P8  1  0.367300  0.458700  0.709600  1.0  1.5091
  H  H9  1  0.652600  0.446500  0.877200  1.0  0.4237
  H  H10  1  0.885700  0.323400  0.018300  1.0  0.0919
  H  H11  1  0.807300  0.397900  0.422500  1.0  0.0743
  H  H12  1  0.347400  0.553500  0.122800  1.0  0.4239
  H  H13  1  0.114300  0.676600  0.981700  1.0  0.0916
  H  H14  1  0.192700  0.602100  0.577500  1.0  0.0742
  C  C15  1  0.940700  0.286400  0.191100  1.0  -0.168
  C  C16  1  0.872200  0.341400  0.099700  1.0  -0.0359
  C  C17  1  0.783200  0.423700  0.130100  1.0  -0.0835
  C  C18  1  0.753600  0.445900  0.250300  1.0  -0.2174
  C  C19  1  0.824800  0.385200  0.341500  1.0  -0.0743
  C  C20  1  0.915400  0.311200  0.313800  1.0  -0.0506
  C  C21  1  0.980200  0.257000  0.418100  1.0  0.7103
  C  C22  1  0.721400  0.486800  0.031500  1.0  0.6774
  C  C23  1  0.059300  0.713600  0.808900  1.0  -0.1716
  C  C24  1  0.127800  0.658600  0.900300  1.0  -0.0369
  C  C25  1  0.216800  0.576300  0.869900  1.0  -0.0836
  C  C26  1  0.246400  0.554100  0.749700  1.0  -0.2175
  C  C27  1  0.175200  0.614800  0.658500  1.0  -0.0723
  C  C28  1  0.084600  0.688800  0.686200  1.0  -0.0515
  C  C29  1  0.019800  0.743000  0.581900  1.0  0.7088
  C  C30  1  0.278600  0.513200  0.968500  1.0  0.6777
  O  O31  1  0.033800  0.164700  0.007000  1.0  -0.8943
  O  O32  1  0.206900  0.265600  0.196400  1.0  -0.9374
  O  O33  1  0.011000  0.049100  0.200400  1.0  -0.9299
  O  O34  1  0.112800  0.273500  0.436500  1.0  -0.7446
  O  O35  1  0.891800  0.188600  0.479800  1.0  -0.5078
  O  O36  1  0.694400  0.686800  0.273500  1.0  -0.9195
  O  O37  1  0.488400  0.471500  0.212100  1.0  -0.83
  O  O38  1  0.602500  0.521400  0.422400  1.0  -0.9923
  O  O39  1  0.646700  0.406000  0.938100  1.0  -0.5246
  O  O40  1  0.736100  0.610000  0.041700  1.0  -0.6028
  O  O41  1  0.966200  0.835300  0.993000  1.0  -0.8935
  O  O42  1  0.793100  0.734400  0.803600  1.0  -0.9377
  O  O43  1  0.989000  0.950900  0.799600  1.0  -0.9298
  O  O44  1  0.887200  0.726500  0.563500  1.0  -0.744
  O  O45  1  0.108200  0.811400  0.520200  1.0  -0.5096
  O  O46  1  0.305600  0.313200  0.726500  1.0  -0.9165
  O  O47  1  0.511600  0.528500  0.787900  1.0  -0.8315
  O  O48  1  0.397500  0.478600  0.577600  1.0  -0.994
  O  O49  1  0.353300  0.594000  0.061900  1.0  -0.5247
  O  O50  1  0.263900  0.390000  0.958300  1.0  -0.6029
