# generated using pymatgen
data_Cu2SiH38C56(NO)4
_symmetry_space_group_name_H-M   'P 1'
_cell_length_a   18.69500000
_cell_length_b   20.12200000
_cell_length_c   21.06800000
_cell_angle_alpha   111.92400000
_cell_angle_beta   92.82400000
_cell_angle_gamma   94.97300000
_symmetry_Int_Tables_number   1
_chemical_formula_structural   Cu2SiH38C56(NO)4
_chemical_formula_sum   'Cu8 Si4 H152 C224 N16 O16'
_cell_volume   7295.90633885
_cell_formula_units_Z   4
loop_
 _symmetry_equiv_pos_site_id
 _symmetry_equiv_pos_as_xyz
  1  'x, y, z'
loop_
 _atom_site_type_symbol
 _atom_site_label
 _atom_site_symmetry_multiplicity
 _atom_site_fract_x
 _atom_site_fract_y
 _atom_site_fract_z
 _atom_site_occupancy
 _atom_site_charge
  Cu  Cu1  1  0.464220  0.049460  0.491090  1.0  0.8507
  Cu  Cu2  1  0.469730  0.260750  0.014150  1.0  0.3242
  Cu  Cu3  1  0.537280  0.447020  0.497210  1.0  0.7864
  Cu  Cu4  1  0.006400  0.760810  0.006910  1.0  0.346
  Cu  Cu5  1  0.535780  0.950540  0.508910  1.0  0.8509
  Cu  Cu6  1  0.530270  0.739250  0.985850  1.0  0.324
  Cu  Cu7  1  0.462720  0.552980  0.502790  1.0  0.7863
  Cu  Cu8  1  0.993600  0.239190  0.993090  1.0  0.3471
  Si  Si9  1  0.101900  0.633000  0.583400  1.0  0.924
  Si  Si10  1  0.899300  0.863100  0.415100  1.0  0.9258
  Si  Si11  1  0.898100  0.367000  0.416600  1.0  0.9234
  Si  Si12  1  0.100700  0.136900  0.584900  1.0  0.9267
  H  H13  1  0.941800  0.615300  0.553600  1.0  0.0766
  H  H14  1  0.843300  0.623100  0.616900  1.0  0.1211
  H  H15  1  0.976800  0.650500  0.783200  1.0  0.1162
  H  H16  1  0.074000  0.637300  0.717600  1.0  0.1026
  H  H17  1  0.671900  0.659000  0.962700  1.0  0.085
  H  H18  1  0.762600  0.622100  0.889000  1.0  0.1295
  H  H19  1  0.689200  0.739600  0.787500  1.0  0.0955
  H  H20  1  0.596500  0.768600  0.859000  1.0  0.0975
  H  H21  1  0.126500  0.743700  0.525700  1.0  0.0986
  H  H22  1  0.107900  0.750400  0.418600  1.0  0.099
  H  H23  1  0.015500  0.545100  0.339300  1.0  0.1138
  H  H24  1  0.046300  0.534100  0.443300  1.0  0.0927
  H  H25  1  0.923100  0.680000  0.068300  1.0  0.1115
  H  H26  1  0.934700  0.636100  0.158400  1.0  0.1204
  H  H27  1  0.143800  0.719200  0.195600  1.0  0.1255
  H  H28  1  0.128400  0.756100  0.101800  1.0  0.0921
  H  H29  1  0.256300  0.679500  0.631000  1.0  0.0876
  H  H30  1  0.325900  0.786100  0.703400  1.0  0.1268
  H  H31  1  0.144500  0.886600  0.733600  1.0  0.1186
  H  H32  1  0.076700  0.779400  0.662700  1.0  0.0953
  H  H33  1  0.321300  0.200400  0.946200  1.0  0.1023
  H  H34  1  0.261500  0.087000  0.870400  1.0  0.1256
  H  H35  1  0.454300  0.009300  0.841100  1.0  0.1165
  H  H36  1  0.510500  0.124300  0.918400  1.0  0.1
  H  H37  1  0.094500  0.508400  0.627700  1.0  0.1087
  H  H38  1  0.153700  0.406400  0.602200  1.0  0.0834
  H  H39  1  0.275000  0.467000  0.477000  1.0  0.1222
  H  H40  1  0.216900  0.569800  0.504100  1.0  0.077
  H  H41  1  0.488300  0.205800  0.509700  1.0  0.0947
  H  H42  1  0.423100  0.306500  0.530600  1.0  0.1076
  H  H43  1  0.241200  0.170000  0.450800  1.0  0.1234
  H  H44  1  0.311000  0.074200  0.436200  1.0  0.0685
  H  H45  1  0.915300  0.964100  0.558200  1.0  0.0738
  H  H46  1  0.946700  0.963800  0.665200  1.0  0.1202
  H  H47  1  0.936700  0.748700  0.580300  1.0  0.0839
  H  H48  1  0.920400  0.751800  0.472600  1.0  0.0922
  H  H49  1  0.890500  0.785100  0.930700  1.0  0.1086
  H  H50  1  0.866100  0.813200  0.831000  1.0  0.1309
  H  H51  1  0.081000  0.852400  0.826100  1.0  0.1084
  H  H52  1  0.099800  0.816700  0.921200  1.0  0.11
  H  H53  1  0.744500  0.816100  0.371600  1.0  0.0874
  H  H54  1  0.674600  0.707200  0.305500  1.0  0.1254
  H  H55  1  0.856100  0.610700  0.257900  1.0  0.1249
  H  H56  1  0.924400  0.717600  0.329900  1.0  0.0899
  H  H57  1  0.626000  0.305500  0.034700  1.0  0.1147
  H  H58  1  0.709400  0.404000  0.108800  1.0  0.1236
  H  H59  1  0.541000  0.513000  0.183000  1.0  0.1221
  H  H60  1  0.462100  0.410000  0.113700  1.0  0.089
  H  H61  1  0.926100  0.993400  0.382500  1.0  0.1001
  H  H62  1  0.868000  0.094900  0.398300  1.0  0.104
  H  H63  1  0.712600  0.022300  0.490200  1.0  0.1241
  H  H64  1  0.773100  0.923000  0.477200  1.0  0.079
  H  H65  1  0.531000  0.285100  0.417300  1.0  0.0866
  H  H66  1  0.594900  0.185700  0.402700  1.0  0.1197
  H  H67  1  0.738000  0.316100  0.559300  1.0  0.1203
  H  H68  1  0.669100  0.410800  0.569100  1.0  0.0835
  H  H69  1  0.935400  0.851100  0.280300  1.0  0.1034
  H  H70  1  0.038200  0.867600  0.229100  1.0  0.1206
  H  H71  1  0.160100  0.895100  0.402300  1.0  0.1192
  H  H72  1  0.057400  0.884100  0.454600  1.0  0.0844
  H  H73  1  0.452500  0.018500  0.282500  1.0  0.1005
  H  H74  1  0.349800  0.976700  0.324900  1.0  0.0991
  H  H75  1  0.249000  0.898100  0.133900  1.0  0.1237
  H  H76  1  0.360400  0.924000  0.092500  1.0  0.106
  H  H77  1  0.650800  0.160800  0.669700  1.0  0.1346
  H  H78  1  0.654100  0.200100  0.616200  1.0  0.1321
  H  H79  1  0.703800  0.137400  0.609700  1.0  0.1312
  H  H80  1  0.645200  0.952800  0.329100  1.0  0.1389
  H  H81  1  0.636500  0.035000  0.341400  1.0  0.1237
  H  H82  1  0.576400  0.972100  0.294000  1.0  0.1259
  H  H83  1  0.628900  0.663100  0.685200  1.0  0.1273
  H  H84  1  0.669600  0.677600  0.625700  1.0  0.1389
  H  H85  1  0.689400  0.613700  0.648900  1.0  0.1322
  H  H86  1  0.355100  0.504900  0.665400  1.0  0.1426
  H  H87  1  0.426100  0.479500  0.690900  1.0  0.1187
  H  H88  1  0.367200  0.421400  0.635800  1.0  0.1357
  H  H89  1  0.058200  0.384700  0.446400  1.0  0.0754
  H  H90  1  0.156700  0.376900  0.383100  1.0  0.1205
  H  H91  1  0.023200  0.349500  0.216800  1.0  0.1165
  H  H92  1  0.926000  0.362700  0.282400  1.0  0.1037
  H  H93  1  0.328100  0.341000  0.037300  1.0  0.0845
  H  H94  1  0.237400  0.377900  0.111000  1.0  0.1302
  H  H95  1  0.310800  0.260400  0.212500  1.0  0.0956
  H  H96  1  0.403500  0.231400  0.141000  1.0  0.0985
  H  H97  1  0.873500  0.256300  0.474300  1.0  0.0977
  H  H98  1  0.892100  0.249600  0.581400  1.0  0.0996
  H  H99  1  0.984500  0.454900  0.660700  1.0  0.1136
  H  H100  1  0.953700  0.465900  0.556700  1.0  0.0912
  H  H101  1  0.076900  0.320000  0.931700  1.0  0.1118
  H  H102  1  0.065300  0.363900  0.841600  1.0  0.1209
  H  H103  1  0.856200  0.280800  0.804400  1.0  0.1266
  H  H104  1  0.871600  0.243900  0.898200  1.0  0.0934
  H  H105  1  0.743700  0.320500  0.369000  1.0  0.0876
  H  H106  1  0.674100  0.213900  0.296600  1.0  0.1271
  H  H107  1  0.855500  0.113400  0.266400  1.0  0.1177
  H  H108  1  0.923300  0.220600  0.337300  1.0  0.0949
  H  H109  1  0.678700  0.799600  0.053800  1.0  0.1013
  H  H110  1  0.738500  0.913000  0.129600  1.0  0.1247
  H  H111  1  0.545700  0.990700  0.158900  1.0  0.1171
  H  H112  1  0.489500  0.875700  0.081600  1.0  0.0991
  H  H113  1  0.905500  0.491600  0.372300  1.0  0.1074
  H  H114  1  0.846300  0.593600  0.397800  1.0  0.083
  H  H115  1  0.725000  0.533000  0.523000  1.0  0.1228
  H  H116  1  0.783100  0.430200  0.495900  1.0  0.0774
  H  H117  1  0.511700  0.794200  0.490300  1.0  0.0943
  H  H118  1  0.576900  0.693500  0.469400  1.0  0.1072
  H  H119  1  0.758800  0.830000  0.549200  1.0  0.1239
  H  H120  1  0.689000  0.925800  0.563800  1.0  0.0679
  H  H121  1  0.084700  0.035900  0.441800  1.0  0.0741
  H  H122  1  0.053300  0.036200  0.334800  1.0  0.1206
  H  H123  1  0.063300  0.251300  0.419700  1.0  0.0844
  H  H124  1  0.079600  0.248200  0.527400  1.0  0.0923
  H  H125  1  0.109500  0.214900  0.069300  1.0  0.1082
  H  H126  1  0.133900  0.186800  0.169000  1.0  0.1295
  H  H127  1  0.919000  0.147600  0.173900  1.0  0.1076
  H  H128  1  0.900200  0.183300  0.078800  1.0  0.1101
  H  H129  1  0.255500  0.183900  0.628400  1.0  0.0872
  H  H130  1  0.325400  0.292800  0.694500  1.0  0.1258
  H  H131  1  0.143900  0.389300  0.742100  1.0  0.126
  H  H132  1  0.075600  0.282400  0.670100  1.0  0.0913
  H  H133  1  0.374000  0.694500  0.965300  1.0  0.1152
  H  H134  1  0.290600  0.596000  0.891200  1.0  0.125
  H  H135  1  0.459000  0.487000  0.817000  1.0  0.1214
  H  H136  1  0.537900  0.590000  0.886300  1.0  0.0878
  H  H137  1  0.073900  0.006600  0.617500  1.0  0.1004
  H  H138  1  0.132000  0.905100  0.601700  1.0  0.1045
  H  H139  1  0.287400  0.977700  0.509800  1.0  0.1243
  H  H140  1  0.226900  0.077000  0.522800  1.0  0.0786
  H  H141  1  0.469000  0.714900  0.582700  1.0  0.0861
  H  H142  1  0.405100  0.814300  0.597300  1.0  0.1199
  H  H143  1  0.262000  0.683900  0.440700  1.0  0.1198
  H  H144  1  0.330900  0.589200  0.430900  1.0  0.0831
  H  H145  1  0.064600  0.148900  0.719700  1.0  0.1032
  H  H146  1  0.961800  0.132400  0.770900  1.0  0.1199
  H  H147  1  0.839900  0.104900  0.597700  1.0  0.1189
  H  H148  1  0.942600  0.115900  0.545400  1.0  0.0842
  H  H149  1  0.547500  0.981500  0.717500  1.0  0.0997
  H  H150  1  0.650200  0.023300  0.675100  1.0  0.0992
  H  H151  1  0.751000  0.101900  0.866100  1.0  0.1234
  H  H152  1  0.639600  0.076000  0.907500  1.0  0.1076
  H  H153  1  0.349200  0.839200  0.330300  1.0  0.1354
  H  H154  1  0.345900  0.799900  0.383800  1.0  0.1303
  H  H155  1  0.296200  0.862600  0.390300  1.0  0.1328
  H  H156  1  0.354800  0.047200  0.670900  1.0  0.1389
  H  H157  1  0.363500  0.965000  0.658600  1.0  0.1231
  H  H158  1  0.423600  0.027900  0.706000  1.0  0.1262
  H  H159  1  0.371100  0.336900  0.314800  1.0  0.1251
  H  H160  1  0.330400  0.322400  0.374300  1.0  0.1399
  H  H161  1  0.310600  0.386300  0.351100  1.0  0.1297
  H  H162  1  0.644900  0.495100  0.334600  1.0  0.1435
  H  H163  1  0.573900  0.520500  0.309100  1.0  0.1179
  H  H164  1  0.632800  0.578600  0.364200  1.0  0.1371
  C  C165  1  0.018700  0.627400  0.627800  1.0  -0.1893
  C  C166  1  0.949500  0.622300  0.600700  1.0  -0.0484
  C  C167  1  0.890400  0.626800  0.638000  1.0  -0.202
  C  C168  1  0.900700  0.636600  0.706600  1.0  0.0136
  C  C169  1  0.969300  0.642200  0.735800  1.0  -0.1652
  C  C170  1  0.027200  0.635900  0.697100  1.0  -0.0797
  C  C171  1  0.842100  0.647600  0.748400  1.0  -0.038
  C  C172  1  0.674300  0.674600  0.925400  1.0  0.142
  C  C173  1  0.730600  0.653800  0.882800  1.0  -0.1645
  C  C174  1  0.738100  0.680700  0.831600  1.0  0.0309
  C  C175  1  0.686600  0.722000  0.823400  1.0  -0.1651
  C  C176  1  0.630600  0.739100  0.866100  1.0  0.0999
  C  C177  1  0.795900  0.661400  0.786800  1.0  -0.0608
  C  C178  1  0.082500  0.639400  0.497700  1.0  -0.3166
  C  C179  1  0.104200  0.702700  0.488000  1.0  -0.0611
  C  C180  1  0.093600  0.706500  0.424200  1.0  -0.148
  C  C181  1  0.062600  0.647800  0.368800  1.0  -0.0108
  C  C182  1  0.040500  0.584700  0.376600  1.0  -0.1819
  C  C183  1  0.055200  0.579700  0.439600  1.0  -0.0497
  C  C184  1  0.055700  0.652500  0.302600  1.0  -0.0661
  C  C185  1  0.968000  0.687600  0.094400  1.0  0.1048
  C  C186  1  0.974500  0.662500  0.148900  1.0  -0.123
  C  C187  1  0.039300  0.676900  0.187400  1.0  -0.0088
  C  C188  1  0.098100  0.710800  0.170400  1.0  -0.127
  C  C189  1  0.088500  0.732900  0.114700  1.0  0.1307
  C  C190  1  0.045300  0.661000  0.250100  1.0  -0.0504
  C  C191  1  0.159300  0.717800  0.642300  1.0  -0.3045
  C  C192  1  0.233300  0.721500  0.653000  1.0  -0.023
  C  C193  1  0.275300  0.784900  0.695100  1.0  -0.1795
  C  C194  1  0.241200  0.845400  0.724300  1.0  -0.0117
  C  C195  1  0.167200  0.844200  0.713000  1.0  -0.1982
  C  C196  1  0.127200  0.780300  0.671500  1.0  -0.0443
  C  C197  1  0.281700  0.912200  0.766700  1.0  -0.0575
  C  C198  1  0.348000  0.160700  0.926200  1.0  0.1209
  C  C199  1  0.312300  0.093300  0.880600  1.0  -0.1308
  C  C200  1  0.352700  0.037300  0.851500  1.0  0.0002
  C  C201  1  0.426200  0.047200  0.863200  1.0  -0.1165
  C  C202  1  0.459500  0.115700  0.909600  1.0  0.1256
  C  C203  1  0.316400  0.967300  0.804300  1.0  -0.063
  C  C204  1  0.149200  0.550500  0.567800  1.0  -0.2427
  C  C205  1  0.131100  0.500700  0.596900  1.0  -0.1102
  C  C206  1  0.166300  0.439600  0.581100  1.0  -0.126
  C  C207  1  0.218300  0.425100  0.536500  1.0  -0.0475
  C  C208  1  0.238100  0.474800  0.507600  1.0  -0.2307
  C  C209  1  0.203000  0.535900  0.524100  1.0  -0.0531
  C  C210  1  0.252900  0.361500  0.522200  1.0  0.026
  C  C211  1  0.437400  0.198800  0.500100  1.0  0.1288
  C  C212  1  0.398700  0.259100  0.511400  1.0  -0.1126
  C  C213  1  0.326100  0.248400  0.494400  1.0  -0.0193
  C  C214  1  0.291300  0.179000  0.464900  1.0  -0.1777
  C  C215  1  0.333700  0.122300  0.456800  1.0  0.1547
  C  C216  1  0.284700  0.309700  0.504400  1.0  0.0444
  C  C217  1  0.916800  0.859600  0.502500  1.0  -0.1309
  C  C218  1  0.922400  0.919500  0.561800  1.0  -0.0467
  C  C219  1  0.937700  0.919600  0.626500  1.0  -0.1847
  C  C220  1  0.939700  0.854800  0.634100  1.0  0.0159
  C  C221  1  0.933600  0.793800  0.576100  1.0  -0.1437
  C  C222  1  0.923200  0.795500  0.511700  1.0  -0.0862
  C  C223  1  0.951100  0.850700  0.700400  1.0  0.0343
  C  C224  1  0.928800  0.796500  0.907100  1.0  0.1136
  C  C225  1  0.914100  0.814000  0.848500  1.0  -0.0972
  C  C226  1  0.972000  0.832100  0.818300  1.0  -0.0392
  C  C227  1  0.041400  0.836300  0.845200  1.0  -0.1264
  C  C228  1  0.052400  0.816000  0.902200  1.0  0.1198
  C  C229  1  0.959100  0.845500  0.754800  1.0  -0.0169
  C  C230  1  0.841700  0.777600  0.358900  1.0  -0.338
  C  C231  1  0.767400  0.774000  0.349900  1.0  -0.0473
  C  C232  1  0.725700  0.709900  0.309700  1.0  -0.1495
  C  C233  1  0.760100  0.650500  0.276100  1.0  -0.0185
  C  C234  1  0.833300  0.652100  0.282000  1.0  -0.1642
  C  C235  1  0.873500  0.716000  0.324400  1.0  -0.0498
  C  C236  1  0.717500  0.586600  0.229000  1.0  -0.0595
  C  C237  1  0.608900  0.347200  0.066400  1.0  0.1029
  C  C238  1  0.658900  0.407000  0.108500  1.0  -0.1249
  C  C239  1  0.632100  0.469200  0.148600  1.0  0.0008
  C  C240  1  0.559500  0.471100  0.153100  1.0  -0.1842
  C  C241  1  0.512700  0.409000  0.112000  1.0  0.1399
  C  C242  1  0.679800  0.532600  0.193800  1.0  -0.0478
  C  C243  1  0.852800  0.944900  0.425500  1.0  -0.2376
  C  C244  1  0.882400  0.998800  0.404100  1.0  -0.0456
  C  C245  1  0.848300  0.059500  0.414200  1.0  -0.063
  C  C246  1  0.786500  0.069100  0.447000  1.0  -0.0354
  C  C247  1  0.756500  0.016900  0.469000  1.0  -0.2225
  C  C248  1  0.791900  0.957200  0.459400  1.0  -0.0644
  C  C249  1  0.749000  0.131400  0.458700  1.0  -0.0126
  C  C250  1  0.574400  0.291700  0.445400  1.0  0.1548
  C  C251  1  0.611900  0.231800  0.436700  1.0  -0.1863
  C  C252  1  0.674200  0.241500  0.478900  1.0  -0.0546
  C  C253  1  0.696200  0.308400  0.528900  1.0  -0.2002
  C  C254  1  0.654900  0.364900  0.533800  1.0  0.1591
  C  C255  1  0.714300  0.180500  0.470600  1.0  0.0229
  C  C256  1  0.985200  0.866500  0.374400  1.0  -0.2747
  C  C257  1  0.981100  0.861200  0.305800  1.0  -0.0469
  C  C258  1  0.041900  0.870600  0.275200  1.0  -0.1649
  C  C259  1  0.108300  0.884300  0.311100  1.0  0.0183
  C  C260  1  0.114100  0.887600  0.377900  1.0  -0.2291
  C  C261  1  0.053000  0.879900  0.408200  1.0  -0.0325
  C  C262  1  0.171800  0.898300  0.282100  1.0  0.0884
  C  C263  1  0.411900  0.991400  0.252100  1.0  0.14
  C  C264  1  0.350100  0.968000  0.277400  1.0  -0.1257
  C  C265  1  0.291000  0.933000  0.233400  1.0  -0.0186
  C  C266  1  0.291100  0.919300  0.164400  1.0  -0.1331
  C  C267  1  0.356500  0.938000  0.140400  1.0  0.1197
  C  C268  1  0.224700  0.912200  0.259300  1.0  0.0777
  C  C269  1  0.595700  0.097000  0.573800  1.0  0.6838
  C  C270  1  0.656800  0.154200  0.621800  1.0  -0.43
  C  C271  1  0.568700  0.995400  0.399700  1.0  0.5965
  C  C272  1  0.610600  0.988100  0.335000  1.0  -0.4336
  C  C273  1  0.591200  0.587000  0.586600  1.0  0.6756
  C  C274  1  0.650300  0.640400  0.641800  1.0  -0.4412
  C  C275  1  0.431200  0.481300  0.591900  1.0  0.6579
  C  C276  1  0.391200  0.470800  0.651600  1.0  -0.4652
  C  C277  1  0.981300  0.372600  0.372200  1.0  -0.1871
  C  C278  1  0.050500  0.377700  0.399300  1.0  -0.0488
  C  C279  1  0.109600  0.373200  0.362000  1.0  -0.2016
  C  C280  1  0.099300  0.363400  0.293400  1.0  0.0165
  C  C281  1  0.030700  0.357800  0.264200  1.0  -0.1589
  C  C282  1  0.972800  0.364100  0.302900  1.0  -0.0787
  C  C283  1  0.157900  0.352400  0.251600  1.0  -0.0379
  C  C284  1  0.325700  0.325400  0.074600  1.0  0.1432
  C  C285  1  0.269400  0.346200  0.117200  1.0  -0.1667
  C  C286  1  0.261900  0.319300  0.168400  1.0  0.0276
  C  C287  1  0.313400  0.278000  0.176600  1.0  -0.1648
  C  C288  1  0.369400  0.260900  0.133900  1.0  0.1001
  C  C289  1  0.204100  0.338600  0.213200  1.0  -0.0628
  C  C290  1  0.917500  0.360600  0.502300  1.0  -0.3123
  C  C291  1  0.895800  0.297300  0.512000  1.0  -0.0621
  C  C292  1  0.906400  0.293500  0.575800  1.0  -0.1475
  C  C293  1  0.937400  0.352200  0.631200  1.0  -0.0154
  C  C294  1  0.959500  0.415300  0.623400  1.0  -0.1817
  C  C295  1  0.944800  0.420300  0.560400  1.0  -0.0476
  C  C296  1  0.944300  0.347500  0.697400  1.0  -0.0635
  C  C297  1  0.032000  0.312400  0.905600  1.0  0.1057
  C  C298  1  0.025500  0.337500  0.851100  1.0  -0.1224
  C  C299  1  0.960700  0.323100  0.812600  1.0  -0.0107
  C  C300  1  0.901900  0.289200  0.829600  1.0  -0.1282
  C  C301  1  0.911500  0.267100  0.885300  1.0  0.1291
  C  C302  1  0.954700  0.339000  0.749900  1.0  -0.054
  C  C303  1  0.840700  0.282200  0.357700  1.0  -0.3049
  C  C304  1  0.766700  0.278500  0.347000  1.0  -0.0226
  C  C305  1  0.724700  0.215100  0.304900  1.0  -0.1783
  C  C306  1  0.758800  0.154600  0.275700  1.0  -0.0145
  C  C307  1  0.832800  0.155800  0.287000  1.0  -0.1966
  C  C308  1  0.872800  0.219700  0.328500  1.0  -0.0471
  C  C309  1  0.718300  0.087800  0.233300  1.0  -0.0561
  C  C310  1  0.652000  0.839300  0.073800  1.0  0.1214
  C  C311  1  0.687700  0.906700  0.119400  1.0  -0.13
  C  C312  1  0.647300  0.962700  0.148500  1.0  0.0002
  C  C313  1  0.573800  0.952800  0.136800  1.0  -0.1131
  C  C314  1  0.540500  0.884300  0.090400  1.0  0.1243
  C  C315  1  0.683600  0.032700  0.195700  1.0  -0.0611
  C  C316  1  0.850800  0.449500  0.432200  1.0  -0.242
  C  C317  1  0.868900  0.499300  0.403100  1.0  -0.1089
  C  C318  1  0.833700  0.560400  0.418900  1.0  -0.1275
  C  C319  1  0.781700  0.574900  0.463500  1.0  -0.0462
  C  C320  1  0.761900  0.525200  0.492400  1.0  -0.229
  C  C321  1  0.797000  0.464100  0.475900  1.0  -0.0516
  C  C322  1  0.747100  0.638500  0.477800  1.0  0.0236
  C  C323  1  0.562600  0.801200  0.499900  1.0  0.129
  C  C324  1  0.601300  0.740900  0.488600  1.0  -0.1138
  C  C325  1  0.673900  0.751600  0.505600  1.0  -0.018
  C  C326  1  0.708700  0.821000  0.535100  1.0  -0.1764
  C  C327  1  0.666300  0.877700  0.543200  1.0  0.1613
  C  C328  1  0.715300  0.690300  0.495600  1.0  0.0445
  C  C329  1  0.083200  0.140400  0.497500  1.0  -0.1305
  C  C330  1  0.077600  0.080500  0.438200  1.0  -0.0462
  C  C331  1  0.062300  0.080400  0.373500  1.0  -0.1837
  C  C332  1  0.060300  0.145200  0.365900  1.0  0.0151
  C  C333  1  0.066400  0.206200  0.423900  1.0  -0.1445
  C  C334  1  0.076800  0.204500  0.488300  1.0  -0.0858
  C  C335  1  0.048900  0.149300  0.299600  1.0  0.0343
  C  C336  1  0.071200  0.203500  0.092900  1.0  0.1128
  C  C337  1  0.085900  0.186000  0.151500  1.0  -0.0958
  C  C338  1  0.028000  0.167900  0.181700  1.0  -0.0358
  C  C339  1  0.958600  0.163700  0.154800  1.0  -0.1257
  C  C340  1  0.947600  0.184000  0.097800  1.0  0.121
  C  C341  1  0.040900  0.154500  0.245200  1.0  -0.0168
  C  C342  1  0.158300  0.222400  0.641100  1.0  -0.3378
  C  C343  1  0.232600  0.226000  0.650100  1.0  -0.0479
  C  C344  1  0.274300  0.290100  0.690300  1.0  -0.1483
  C  C345  1  0.239900  0.349500  0.723900  1.0  -0.0188
  C  C346  1  0.166700  0.347900  0.718000  1.0  -0.1632
  C  C347  1  0.126500  0.284000  0.675600  1.0  -0.0511
  C  C348  1  0.282500  0.413400  0.771000  1.0  -0.0602
  C  C349  1  0.391100  0.652800  0.933600  1.0  0.1057
  C  C350  1  0.341100  0.593000  0.891500  1.0  -0.1282
  C  C351  1  0.367900  0.530800  0.851400  1.0  0.0037
  C  C352  1  0.440500  0.528900  0.846900  1.0  -0.1826
  C  C353  1  0.487300  0.591000  0.888000  1.0  0.1428
  C  C354  1  0.320200  0.467400  0.806200  1.0  -0.0482
  C  C355  1  0.147200  0.055100  0.574500  1.0  -0.2379
  C  C356  1  0.117600  0.001200  0.595900  1.0  -0.0425
  C  C357  1  0.151700  0.940500  0.585800  1.0  -0.0624
  C  C358  1  0.213500  0.930900  0.553000  1.0  -0.0351
  C  C359  1  0.243500  0.983100  0.531000  1.0  -0.2243
  C  C360  1  0.208100  0.042800  0.540600  1.0  -0.0647
  C  C361  1  0.251000  0.868600  0.541300  1.0  -0.0113
  C  C362  1  0.425600  0.708300  0.554600  1.0  0.1548
  C  C363  1  0.388100  0.768200  0.563300  1.0  -0.1859
  C  C364  1  0.325800  0.758500  0.521100  1.0  -0.0541
  C  C365  1  0.303800  0.691600  0.471100  1.0  -0.2006
  C  C366  1  0.345100  0.635100  0.466200  1.0  0.16
  C  C367  1  0.285700  0.819500  0.529400  1.0  0.0228
  C  C368  1  0.014800  0.133500  0.625600  1.0  -0.2721
  C  C369  1  0.018900  0.138800  0.694200  1.0  -0.0473
  C  C370  1  0.958100  0.129400  0.724800  1.0  -0.1691
  C  C371  1  0.891700  0.115700  0.688900  1.0  0.016
  C  C372  1  0.885900  0.112400  0.622100  1.0  -0.2312
  C  C373  1  0.947000  0.120100  0.591800  1.0  -0.0313
  C  C374  1  0.828200  0.101700  0.717900  1.0  0.0869
  C  C375  1  0.588100  0.008600  0.747900  1.0  0.1391
  C  C376  1  0.649900  0.032000  0.722600  1.0  -0.1243
  C  C377  1  0.709000  0.067000  0.766600  1.0  -0.016
  C  C378  1  0.708900  0.080700  0.835600  1.0  -0.1307
  C  C379  1  0.643500  0.062000  0.859600  1.0  0.1184
  C  C380  1  0.775300  0.087800  0.740700  1.0  0.0764
  C  C381  1  0.404300  0.903000  0.426200  1.0  0.6852
  C  C382  1  0.343200  0.845800  0.378200  1.0  -0.427
  C  C383  1  0.431300  0.004600  0.600300  1.0  0.5957
  C  C384  1  0.389400  0.011900  0.665000  1.0  -0.433
  C  C385  1  0.408800  0.413000  0.413400  1.0  0.6789
  C  C386  1  0.349700  0.359600  0.358200  1.0  -0.4412
  C  C387  1  0.568800  0.518700  0.408100  1.0  0.6593
  C  C388  1  0.608800  0.529200  0.348400  1.0  -0.4657
  N  N389  1  0.624000  0.714600  0.917200  1.0  -0.3246
  N  N390  1  0.025200  0.721700  0.080400  1.0  -0.2686
  N  N391  1  0.418600  0.168000  0.940900  1.0  -0.2994
  N  N392  1  0.403000  0.132400  0.476200  1.0  -0.3236
  N  N393  1  0.996100  0.796300  0.928000  1.0  -0.2615
  N  N394  1  0.537700  0.349600  0.071300  1.0  -0.2916
  N  N395  1  0.597100  0.357500  0.491400  1.0  -0.3137
  N  N396  1  0.412100  0.974800  0.184700  1.0  -0.4212
  N  N397  1  0.376000  0.285400  0.082800  1.0  -0.3256
  N  N398  1  0.974800  0.278300  0.919600  1.0  -0.2638
  N  N399  1  0.581400  0.832000  0.059100  1.0  -0.2983
  N  N400  1  0.597000  0.867600  0.523800  1.0  -0.3242
  N  N401  1  0.003900  0.203700  0.072000  1.0  -0.2648
  N  N402  1  0.462300  0.650400  0.928700  1.0  -0.2919
  N  N403  1  0.402900  0.642500  0.508600  1.0  -0.3114
  N  N404  1  0.587900  0.025200  0.815300  1.0  -0.4169
  O  O405  1  0.543000  0.116000  0.550900  1.0  -0.5755
  O  O406  1  0.606000  0.034000  0.568200  1.0  -0.5819
  O  O407  1  0.520400  0.035000  0.409400  1.0  -0.5625
  O  O408  1  0.583900  0.951000  0.424300  1.0  -0.5552
  O  O409  1  0.603200  0.523000  0.566600  1.0  -0.5696
  O  O410  1  0.539300  0.614000  0.571700  1.0  -0.5695
  O  O411  1  0.478200  0.440500  0.571400  1.0  -0.5633
  O  O412  1  0.415200  0.532400  0.577700  1.0  -0.5619
  O  O413  1  0.457000  0.884000  0.449100  1.0  -0.5752
  O  O414  1  0.394000  0.966000  0.431800  1.0  -0.5834
  O  O415  1  0.479600  0.965000  0.590600  1.0  -0.5599
  O  O416  1  0.416100  0.049000  0.575700  1.0  -0.5551
  O  O417  1  0.396800  0.477000  0.433400  1.0  -0.5693
  O  O418  1  0.460700  0.386000  0.428300  1.0  -0.5694
  O  O419  1  0.521800  0.559500  0.428600  1.0  -0.5629
  O  O420  1  0.584800  0.467600  0.422300  1.0  -0.5612
