# generated using pymatgen
data_CdH9(C7O2)3
_symmetry_space_group_name_H-M   'P 1'
_cell_length_a   14.03060000
_cell_length_b   14.03060000
_cell_length_c   28.17800000
_cell_angle_alpha   90.00000000
_cell_angle_beta   90.00000000
_cell_angle_gamma   120.00000000
_symmetry_Int_Tables_number   1
_chemical_formula_structural   CdH9(C7O2)3
_chemical_formula_sum   'Cd6 H54 C126 O36'
_cell_volume   4803.89253385
_cell_formula_units_Z   6
loop_
 _symmetry_equiv_pos_site_id
 _symmetry_equiv_pos_as_xyz
  1  'x, y, z'
loop_
 _atom_site_type_symbol
 _atom_site_label
 _atom_site_symmetry_multiplicity
 _atom_site_fract_x
 _atom_site_fract_y
 _atom_site_fract_z
 _atom_site_occupancy
 _atom_site_charge
  Cd  Cd1  1  0.429900  0.090830  0.024720  1.0  1.0404
  Cd  Cd2  1  0.909170  0.339070  0.691380  1.0  1.035
  Cd  Cd3  1  0.660930  0.570100  0.358050  1.0  1.0367
  Cd  Cd4  1  0.090830  0.429900  0.975280  1.0  1.0362
  Cd  Cd5  1  0.339070  0.909170  0.308620  1.0  1.0386
  Cd  Cd6  1  0.570100  0.660930  0.641950  1.0  1.0357
  H  H7  1  0.139000  0.865200  0.135100  1.0  0.1361
  H  H8  1  0.972800  0.790900  0.173900  1.0  0.1472
  H  H9  1  0.049800  0.034500  0.051000  1.0  0.1359
  H  H10  1  0.827300  0.732400  0.208600  1.0  0.0887
  H  H11  1  0.541500  0.726300  0.230000  1.0  0.1464
  H  H12  1  0.569200  0.824000  0.161200  1.0  0.1379
  H  H13  1  0.595400  0.917600  0.102700  1.0  0.1281
  H  H14  1  0.797200  0.104000  0.002900  1.0  0.1228
  H  H15  1  0.930400  0.070200  0.028000  1.0  0.1372
  H  H16  1  0.134800  0.273800  0.801770  1.0  0.1365
  H  H17  1  0.209100  0.181900  0.840570  1.0  0.1488
  H  H18  1  0.965500  0.015300  0.717670  1.0  0.1363
  H  H19  1  0.267600  0.094900  0.875270  1.0  0.0846
  H  H20  1  0.273700  0.815200  0.896670  1.0  0.1453
  H  H21  1  0.176000  0.745200  0.827870  1.0  0.1409
  H  H22  1  0.082400  0.677800  0.769370  1.0  0.1269
  H  H23  1  0.896000  0.693200  0.669570  1.0  0.1231
  H  H24  1  0.929800  0.860200  0.694670  1.0  0.138
  H  H25  1  0.726200  0.861000  0.468430  1.0  0.136
  H  H26  1  0.818100  0.027200  0.507230  1.0  0.1459
  H  H27  1  0.984700  0.950200  0.384330  1.0  0.1366
  H  H28  1  0.905100  0.172700  0.541930  1.0  0.0874
  H  H29  1  0.184800  0.458500  0.563330  1.0  0.1449
  H  H30  1  0.254800  0.430800  0.494530  1.0  0.1425
  H  H31  1  0.322200  0.404600  0.436030  1.0  0.1265
  H  H32  1  0.306800  0.202800  0.336230  1.0  0.1217
  H  H33  1  0.139800  0.069600  0.361330  1.0  0.1388
  H  H34  1  0.865200  0.139000  0.864900  1.0  0.1367
  H  H35  1  0.790900  0.972800  0.826100  1.0  0.1456
  H  H36  1  0.034500  0.049800  0.949000  1.0  0.1359
  H  H37  1  0.732400  0.827300  0.791400  1.0  0.0882
  H  H38  1  0.726300  0.541500  0.770000  1.0  0.1451
  H  H39  1  0.824000  0.569200  0.838800  1.0  0.1425
  H  H40  1  0.917600  0.595400  0.897300  1.0  0.1261
  H  H41  1  0.104000  0.797200  0.997100  1.0  0.1218
  H  H42  1  0.070200  0.930400  0.972000  1.0  0.1394
  H  H43  1  0.273800  0.134800  0.198230  1.0  0.1366
  H  H44  1  0.181900  0.209100  0.159430  1.0  0.1477
  H  H45  1  0.015300  0.965500  0.282330  1.0  0.1357
  H  H46  1  0.094900  0.267600  0.124730  1.0  0.0897
  H  H47  1  0.815200  0.273700  0.103330  1.0  0.1464
  H  H48  1  0.745200  0.176000  0.172130  1.0  0.1396
  H  H49  1  0.677800  0.082400  0.230630  1.0  0.1284
  H  H50  1  0.693200  0.896000  0.330430  1.0  0.123
  H  H51  1  0.860200  0.929800  0.305330  1.0  0.1379
  H  H52  1  0.861000  0.726200  0.531570  1.0  0.136
  H  H53  1  0.027200  0.818100  0.492770  1.0  0.1483
  H  H54  1  0.950200  0.984700  0.615670  1.0  0.1357
  H  H55  1  0.172700  0.905100  0.458070  1.0  0.0856
  H  H56  1  0.458500  0.184800  0.436670  1.0  0.1458
  H  H57  1  0.430800  0.254800  0.505470  1.0  0.1409
  H  H58  1  0.404600  0.322200  0.563970  1.0  0.1275
  H  H59  1  0.202800  0.306800  0.663770  1.0  0.1226
  H  H60  1  0.069600  0.139800  0.638670  1.0  0.1381
  C  C61  1  0.219700  0.012100  0.064800  1.0  0.7208
  C  C62  1  0.111300  0.959400  0.089900  1.0  -0.1376
  C  C63  1  0.087600  0.885100  0.126100  1.0  -0.0253
  C  C64  1  0.987400  0.840000  0.149000  1.0  -0.0719
  C  C65  1  0.904800  0.867300  0.135300  1.0  -0.0382
  C  C66  1  0.929300  0.940900  0.098500  1.0  -0.079
  C  C67  1  0.033600  0.985600  0.076100  1.0  -0.0815
  C  C68  1  0.800400  0.819500  0.161600  1.0  -0.0389
  C  C69  1  0.776700  0.753700  0.199900  1.0  -0.0266
  C  C70  1  0.684100  0.716100  0.226900  1.0  -0.0096
  C  C71  1  0.667100  0.652200  0.272500  1.0  0.7281
  C  C72  1  0.604700  0.747500  0.212100  1.0  -0.0574
  C  C73  1  0.622700  0.808400  0.171800  1.0  0.0249
  C  C74  1  0.720200  0.847300  0.146200  1.0  -0.0325
  C  C75  1  0.745000  0.921100  0.105400  1.0  0.0095
  C  C76  1  0.663900  0.948500  0.088000  1.0  -0.0569
  C  C77  1  0.685500  0.015700  0.052100  1.0  -0.1535
  C  C78  1  0.599600  0.047600  0.038300  1.0  0.744
  C  C79  1  0.784000  0.058600  0.029100  1.0  -0.0257
  C  C80  1  0.862700  0.036600  0.043400  1.0  -0.0725
  C  C81  1  0.844700  0.965000  0.080600  1.0  -0.0685
  C  C82  1  0.987900  0.207600  0.731470  1.0  0.7241
  C  C83  1  0.040600  0.151900  0.756570  1.0  -0.1376
  C  C84  1  0.114900  0.202500  0.792770  1.0  -0.0262
  C  C85  1  0.160000  0.147400  0.815670  1.0  -0.0727
  C  C86  1  0.132700  0.037500  0.801970  1.0  -0.0378
  C  C87  1  0.059100  0.988400  0.765170  1.0  -0.0791
  C  C88  1  0.014400  0.048000  0.742770  1.0  -0.0811
  C  C89  1  0.180500  0.980900  0.828270  1.0  -0.0428
  C  C90  1  0.246300  0.023000  0.866570  1.0  -0.0279
  C  C91  1  0.283900  0.968000  0.893570  1.0  -0.0099
  C  C92  1  0.347800  0.014900  0.939170  1.0  0.7261
  C  C93  1  0.252500  0.857200  0.878770  1.0  -0.0562
  C  C94  1  0.191600  0.814300  0.838470  1.0  0.0226
  C  C95  1  0.152700  0.872900  0.812870  1.0  -0.0359
  C  C96  1  0.078900  0.823900  0.772070  1.0  0.0076
  C  C97  1  0.051500  0.715400  0.754670  1.0  -0.0544
  C  C98  1  0.984300  0.669800  0.718770  1.0  -0.1509
  C  C99  1  0.952400  0.552000  0.704970  1.0  0.7429
  C  C100  1  0.941400  0.725400  0.695770  1.0  -0.0265
  C  C101  1  0.963400  0.826100  0.710070  1.0  -0.0715
  C  C102  1  0.035000  0.879700  0.747270  1.0  -0.0666
  C  C103  1  0.792400  0.780300  0.398130  1.0  0.7273
  C  C104  1  0.848100  0.888700  0.423230  1.0  -0.1352
  C  C105  1  0.797500  0.912400  0.459430  1.0  -0.0258
  C  C106  1  0.852600  0.012600  0.482330  1.0  -0.0722
  C  C107  1  0.962500  0.095200  0.468630  1.0  -0.0374
  C  C108  1  0.011600  0.070700  0.431830  1.0  -0.0782
  C  C109  1  0.952000  0.966400  0.409430  1.0  -0.083
  C  C110  1  0.019100  0.199600  0.494930  1.0  -0.045
  C  C111  1  0.977000  0.223300  0.533230  1.0  -0.0245
  C  C112  1  0.032000  0.315900  0.560230  1.0  -0.0109
  C  C113  1  0.985100  0.332900  0.605830  1.0  0.7254
  C  C114  1  0.142800  0.395300  0.545430  1.0  -0.0564
  C  C115  1  0.185700  0.377300  0.505130  1.0  0.0214
  C  C116  1  0.127100  0.279800  0.479530  1.0  -0.0367
  C  C117  1  0.176100  0.255000  0.438730  1.0  0.0056
  C  C118  1  0.284600  0.336100  0.421330  1.0  -0.0594
  C  C119  1  0.330200  0.314500  0.385430  1.0  -0.1477
  C  C120  1  0.448000  0.400400  0.371630  1.0  0.7438
  C  C121  1  0.274600  0.216000  0.362430  1.0  -0.0283
  C  C122  1  0.173900  0.137300  0.376730  1.0  -0.0698
  C  C123  1  0.120300  0.155300  0.413930  1.0  -0.0677
  C  C124  1  0.012100  0.219700  0.935200  1.0  0.7284
  C  C125  1  0.959400  0.111300  0.910100  1.0  -0.135
  C  C126  1  0.885100  0.087600  0.873900  1.0  -0.0263
  C  C127  1  0.840000  0.987400  0.851000  1.0  -0.0736
  C  C128  1  0.867300  0.904800  0.864700  1.0  -0.0375
  C  C129  1  0.940900  0.929300  0.901500  1.0  -0.078
  C  C130  1  0.985600  0.033600  0.923900  1.0  -0.0802
  C  C131  1  0.819500  0.800400  0.838400  1.0  -0.0422
  C  C132  1  0.753700  0.776700  0.800100  1.0  -0.0246
  C  C133  1  0.716100  0.684100  0.773100  1.0  -0.0122
  C  C134  1  0.652200  0.667100  0.727500  1.0  0.7254
  C  C135  1  0.747500  0.604700  0.787900  1.0  -0.0546
  C  C136  1  0.808400  0.622700  0.828200  1.0  0.0217
  C  C137  1  0.847300  0.720200  0.853800  1.0  -0.0334
  C  C138  1  0.921100  0.745000  0.894600  1.0  0.0089
  C  C139  1  0.948500  0.663900  0.912000  1.0  -0.0574
  C  C140  1  0.015700  0.685500  0.947900  1.0  -0.148
  C  C141  1  0.047600  0.599600  0.961700  1.0  0.7425
  C  C142  1  0.058600  0.784000  0.970900  1.0  -0.0297
  C  C143  1  0.036600  0.862700  0.956600  1.0  -0.0709
  C  C144  1  0.965000  0.844700  0.919400  1.0  -0.0674
  C  C145  1  0.207600  0.987900  0.268530  1.0  0.7224
  C  C146  1  0.151900  0.040600  0.243430  1.0  -0.1373
  C  C147  1  0.202500  0.114900  0.207230  1.0  -0.026
  C  C148  1  0.147400  0.160000  0.184330  1.0  -0.072
  C  C149  1  0.037500  0.132700  0.198030  1.0  -0.0374
  C  C150  1  0.988400  0.059100  0.234830  1.0  -0.0789
  C  C151  1  0.048000  0.014400  0.257230  1.0  -0.0788
  C  C152  1  0.980900  0.180500  0.171730  1.0  -0.0365
  C  C153  1  0.023000  0.246300  0.133430  1.0  -0.0265
  C  C154  1  0.968000  0.283900  0.106430  1.0  -0.0066
  C  C155  1  0.014900  0.347800  0.060830  1.0  0.729
  C  C156  1  0.857200  0.252500  0.121230  1.0  -0.0571
  C  C157  1  0.814300  0.191600  0.161530  1.0  0.0223
  C  C158  1  0.872900  0.152700  0.187130  1.0  -0.0322
  C  C159  1  0.823900  0.078900  0.227930  1.0  0.0074
  C  C160  1  0.715400  0.051500  0.245330  1.0  -0.0574
  C  C161  1  0.669800  0.984300  0.281230  1.0  -0.1503
  C  C162  1  0.552000  0.952400  0.295030  1.0  0.7426
  C  C163  1  0.725400  0.941400  0.304230  1.0  -0.0271
  C  C164  1  0.826100  0.963400  0.289930  1.0  -0.0733
  C  C165  1  0.879700  0.035000  0.252730  1.0  -0.0692
  C  C166  1  0.780300  0.792400  0.601870  1.0  0.7232
  C  C167  1  0.888700  0.848100  0.576770  1.0  -0.1372
  C  C168  1  0.912400  0.797500  0.540570  1.0  -0.0253
  C  C169  1  0.012600  0.852600  0.517670  1.0  -0.073
  C  C170  1  0.095200  0.962500  0.531370  1.0  -0.0374
  C  C171  1  0.070700  0.011600  0.568170  1.0  -0.0802
  C  C172  1  0.966400  0.952000  0.590570  1.0  -0.0785
  C  C173  1  0.199600  0.019100  0.505070  1.0  -0.0402
  C  C174  1  0.223300  0.977000  0.466770  1.0  -0.028
  C  C175  1  0.315900  0.032000  0.439770  1.0  -0.0105
  C  C176  1  0.332900  0.985100  0.394170  1.0  0.7241
  C  C177  1  0.395300  0.142800  0.454570  1.0  -0.0565
  C  C178  1  0.377300  0.185700  0.494870  1.0  0.0206
  C  C179  1  0.279800  0.127100  0.520470  1.0  -0.0354
  C  C180  1  0.255000  0.176100  0.561270  1.0  0.0079
  C  C181  1  0.336100  0.284600  0.578670  1.0  -0.0541
  C  C182  1  0.314500  0.330200  0.614570  1.0  -0.153
  C  C183  1  0.400400  0.448000  0.628370  1.0  0.7431
  C  C184  1  0.216000  0.274600  0.637570  1.0  -0.0276
  C  C185  1  0.137300  0.173900  0.623270  1.0  -0.0717
  C  C186  1  0.155300  0.120300  0.586070  1.0  -0.0669
  O  O187  1  0.237700  0.072200  0.029930  1.0  -0.5134
  O  O188  1  0.290900  0.988400  0.079700  1.0  -0.5972
  O  O189  1  0.720300  0.602500  0.278400  1.0  -0.5948
  O  O190  1  0.600400  0.651900  0.302200  1.0  -0.5743
  O  O191  1  0.510600  0.001600  0.060900  1.0  -0.6062
  O  O192  1  0.618600  0.113400  0.006700  1.0  -0.5857
  O  O193  1  0.927800  0.165500  0.696600  1.0  -0.5156
  O  O194  1  0.011600  0.302500  0.746370  1.0  -0.5968
  O  O195  1  0.397500  0.117800  0.945070  1.0  -0.5961
  O  O196  1  0.348100  0.948500  0.968870  1.0  -0.5742
  O  O197  1  0.998400  0.509000  0.727570  1.0  -0.6054
  O  O198  1  0.886600  0.505200  0.673370  1.0  -0.5852
  O  O199  1  0.834500  0.762300  0.363260  1.0  -0.5164
  O  O200  1  0.697500  0.709100  0.413030  1.0  -0.5962
  O  O201  1  0.882200  0.279700  0.611730  1.0  -0.5908
  O  O202  1  0.051500  0.399600  0.635530  1.0  -0.5751
  O  O203  1  0.491000  0.489400  0.394230  1.0  -0.5996
  O  O204  1  0.494800  0.381400  0.340030  1.0  -0.5866
  O  O205  1  0.072200  0.237700  0.970070  1.0  -0.5173
  O  O206  1  0.988400  0.290900  0.920300  1.0  -0.5978
  O  O207  1  0.602500  0.720300  0.721600  1.0  -0.5896
  O  O208  1  0.651900  0.600400  0.697800  1.0  -0.5742
  O  O209  1  0.001600  0.510600  0.939100  1.0  -0.6021
  O  O210  1  0.113400  0.618600  0.993300  1.0  -0.5844
  O  O211  1  0.165500  0.927800  0.303400  1.0  -0.5119
  O  O212  1  0.302500  0.011600  0.253630  1.0  -0.5975
  O  O213  1  0.117800  0.397500  0.054930  1.0  -0.594
  O  O214  1  0.948500  0.348100  0.031130  1.0  -0.5761
  O  O215  1  0.509000  0.998400  0.272430  1.0  -0.6054
  O  O216  1  0.505200  0.886600  0.326630  1.0  -0.581
  O  O217  1  0.762300  0.834500  0.636740  1.0  -0.5162
  O  O218  1  0.709100  0.697500  0.586970  1.0  -0.5965
  O  O219  1  0.279700  0.882200  0.388270  1.0  -0.598
  O  O220  1  0.399600  0.051500  0.364470  1.0  -0.5743
  O  O221  1  0.489400  0.491000  0.605770  1.0  -0.6043
  O  O222  1  0.381400  0.494800  0.659970  1.0  -0.58
