# generated using pymatgen
data_Cu2H4C8SO8
_symmetry_space_group_name_H-M   'P 1'
_cell_length_a   10.89080000
_cell_length_b   11.55370000
_cell_length_c   16.77930000
_cell_angle_alpha   90.00000000
_cell_angle_beta   90.00000000
_cell_angle_gamma   90.00000000
_symmetry_Int_Tables_number   1
_chemical_formula_structural   Cu2H4C8SO8
_chemical_formula_sum   'Cu8 H16 C32 S4 O32'
_cell_volume   2111.32314308
_cell_formula_units_Z   4
loop_
 _symmetry_equiv_pos_site_id
 _symmetry_equiv_pos_as_xyz
  1  'x, y, z'
loop_
 _atom_site_type_symbol
 _atom_site_label
 _atom_site_symmetry_multiplicity
 _atom_site_fract_x
 _atom_site_fract_y
 _atom_site_fract_z
 _atom_site_occupancy
 _atom_site_charge
  Cu  Cu1  1  0.000000  0.821380  0.864660  1.0  1.0249
  Cu  Cu2  1  0.000000  0.178620  0.135340  1.0  1.0159
  Cu  Cu3  1  0.137980  0.000000  0.000000  1.0  1.1105
  Cu  Cu4  1  0.862020  0.000000  0.000000  1.0  1.1104
  Cu  Cu5  1  0.500000  0.678620  0.364660  1.0  1.019
  Cu  Cu6  1  0.500000  0.321380  0.635340  1.0  1.0204
  Cu  Cu7  1  0.362020  0.500000  0.500000  1.0  1.1097
  Cu  Cu8  1  0.637980  0.500000  0.500000  1.0  1.1098
  H  H9  1  0.313900  0.293400  0.231600  1.0  0.1203
  H  H10  1  0.313900  0.706600  0.768400  1.0  0.1205
  H  H11  1  0.686100  0.706600  0.768400  1.0  0.1204
  H  H12  1  0.686100  0.293400  0.231600  1.0  0.1202
  H  H13  1  0.000000  0.840000  0.997000  1.0  0.4537
  H  H14  1  0.000000  0.160000  0.003000  1.0  0.4554
  H  H15  1  0.500000  0.109400  0.065400  1.0  0.1134
  H  H16  1  0.500000  0.890600  0.934600  1.0  0.1139
  H  H17  1  0.186100  0.206600  0.731600  1.0  0.1201
  H  H18  1  0.186100  0.793400  0.268400  1.0  0.1208
  H  H19  1  0.813900  0.793400  0.268400  1.0  0.1209
  H  H20  1  0.813900  0.206600  0.731600  1.0  0.1204
  H  H21  1  0.000000  0.390600  0.565400  1.0  0.1135
  H  H22  1  0.000000  0.609400  0.434600  1.0  0.114
  H  H23  1  0.500000  0.660000  0.497000  1.0  0.455
  H  H24  1  0.500000  0.340000  0.503000  1.0  0.4541
  C  C25  1  0.268300  0.156700  0.107500  1.0  0.7374
  C  C26  1  0.268300  0.843300  0.892500  1.0  0.7374
  C  C27  1  0.388700  0.194700  0.143200  1.0  -0.1601
  C  C28  1  0.389300  0.267700  0.209300  1.0  0.0331
  C  C29  1  0.388700  0.805300  0.856800  1.0  -0.1601
  C  C30  1  0.389300  0.732300  0.790700  1.0  0.0329
  C  C31  1  0.731700  0.843300  0.892500  1.0  0.7369
  C  C32  1  0.731700  0.156700  0.107500  1.0  0.7366
  C  C33  1  0.611300  0.805300  0.856800  1.0  -0.1602
  C  C34  1  0.610700  0.732300  0.790700  1.0  0.0339
  C  C35  1  0.611300  0.194700  0.143200  1.0  -0.16
  C  C36  1  0.610700  0.267700  0.209300  1.0  0.034
  C  C37  1  0.500000  0.158900  0.110500  1.0  0.0277
  C  C38  1  0.500000  0.303000  0.242700  1.0  -0.2145
  C  C39  1  0.500000  0.841100  0.889500  1.0  0.0276
  C  C40  1  0.500000  0.697000  0.757300  1.0  -0.2149
  C  C41  1  0.111300  0.305300  0.643200  1.0  -0.16
  C  C42  1  0.110700  0.232300  0.709300  1.0  0.0342
  C  C43  1  0.111300  0.694700  0.356800  1.0  -0.1603
  C  C44  1  0.110700  0.767700  0.290700  1.0  0.0334
  C  C45  1  0.231700  0.343300  0.607500  1.0  0.7369
  C  C46  1  0.231700  0.656700  0.392500  1.0  0.7367
  C  C47  1  0.888700  0.694700  0.356800  1.0  -0.1602
  C  C48  1  0.889300  0.767700  0.290700  1.0  0.034
  C  C49  1  0.888700  0.305300  0.643200  1.0  -0.16
  C  C50  1  0.889300  0.232300  0.709300  1.0  0.0341
  C  C51  1  0.768300  0.656700  0.392500  1.0  0.7374
  C  C52  1  0.768300  0.343300  0.607500  1.0  0.7374
  C  C53  1  0.000000  0.341100  0.610500  1.0  0.0257
  C  C54  1  0.000000  0.197000  0.742700  1.0  -0.2141
  C  C55  1  0.000000  0.658900  0.389500  1.0  0.0274
  C  C56  1  0.000000  0.803000  0.257300  1.0  -0.2146
  S  S57  1  0.500000  0.399530  0.325720  1.0  1.3847
  S  S58  1  0.500000  0.600470  0.674280  1.0  1.3839
  S  S59  1  0.000000  0.100470  0.825720  1.0  1.3845
  S  S60  1  0.000000  0.899530  0.174280  1.0  1.3843
  O  O61  1  0.270500  0.085900  0.051700  1.0  -0.5437
  O  O62  1  0.175100  0.797000  0.861700  1.0  -0.6203
  O  O63  1  0.270500  0.914100  0.948300  1.0  -0.5426
  O  O64  1  0.175100  0.203000  0.138300  1.0  -0.6195
  O  O65  1  0.389300  0.378400  0.370200  1.0  -0.68
  O  O66  1  0.389300  0.621600  0.629800  1.0  -0.6782
  O  O67  1  0.729500  0.914100  0.948300  1.0  -0.5424
  O  O68  1  0.824900  0.203000  0.138300  1.0  -0.6188
  O  O69  1  0.729500  0.085900  0.051700  1.0  -0.5435
  O  O70  1  0.824900  0.797000  0.861700  1.0  -0.6197
  O  O71  1  0.610700  0.621600  0.629800  1.0  -0.6799
  O  O72  1  0.610700  0.378400  0.370200  1.0  -0.6821
  O  O73  1  0.000000  0.898400  0.967100  1.0  -0.9697
  O  O74  1  0.000000  0.101600  0.032900  1.0  -0.9721
  O  O75  1  0.500000  0.513700  0.289600  1.0  -0.7002
  O  O76  1  0.500000  0.486300  0.710400  1.0  -0.7011
  O  O77  1  0.110700  0.121600  0.870200  1.0  -0.6805
  O  O78  1  0.110700  0.878400  0.129800  1.0  -0.6811
  O  O79  1  0.229500  0.414100  0.551700  1.0  -0.5442
  O  O80  1  0.324900  0.703000  0.361700  1.0  -0.6197
  O  O81  1  0.229500  0.585900  0.448300  1.0  -0.5435
  O  O82  1  0.324900  0.297000  0.638300  1.0  -0.6197
  O  O83  1  0.889300  0.878400  0.129800  1.0  -0.679
  O  O84  1  0.889300  0.121600  0.870200  1.0  -0.6788
  O  O85  1  0.770500  0.585900  0.448300  1.0  -0.5438
  O  O86  1  0.675100  0.297000  0.638300  1.0  -0.6202
  O  O87  1  0.770500  0.414100  0.551700  1.0  -0.5441
  O  O88  1  0.675100  0.703000  0.361700  1.0  -0.6202
  O  O89  1  0.000000  0.986300  0.789600  1.0  -0.6998
  O  O90  1  0.000000  0.013700  0.210400  1.0  -0.7
  O  O91  1  0.500000  0.601600  0.467100  1.0  -0.9721
  O  O92  1  0.500000  0.398400  0.532900  1.0  -0.9701
