# generated using pymatgen
data_Fe3H12C24O13
_symmetry_space_group_name_H-M   'P 1'
_cell_length_a   14.41620000
_cell_length_b   14.41620000
_cell_length_c   17.30400000
_cell_angle_alpha   90.00000000
_cell_angle_beta   90.00000000
_cell_angle_gamma   120.00000000
_symmetry_Int_Tables_number   1
_chemical_formula_structural   Fe3H12C24O13
_chemical_formula_sum   'Fe6 H24 C48 O26'
_cell_volume   3114.43115853
_cell_formula_units_Z   2
loop_
 _symmetry_equiv_pos_site_id
 _symmetry_equiv_pos_as_xyz
  1  'x, y, z'
loop_
 _atom_site_type_symbol
 _atom_site_label
 _atom_site_symmetry_multiplicity
 _atom_site_fract_x
 _atom_site_fract_y
 _atom_site_fract_z
 _atom_site_occupancy
 _atom_site_charge
  Fe  Fe1  1  0.256390  0.512790  0.750000  1.0  1.2511
  Fe  Fe2  1  0.487210  0.743610  0.750000  1.0  1.2547
  Fe  Fe3  1  0.256390  0.743610  0.750000  1.0  1.2544
  Fe  Fe4  1  0.743610  0.487210  0.250000  1.0  1.2536
  Fe  Fe5  1  0.512790  0.256390  0.250000  1.0  1.2528
  Fe  Fe6  1  0.743610  0.256390  0.250000  1.0  1.2527
  H  H7  1  0.335400  0.386100  0.556100  1.0  0.1205
  H  H8  1  0.613900  0.949300  0.556100  1.0  0.1205
  H  H9  1  0.050700  0.664600  0.556100  1.0  0.1204
  H  H10  1  0.664600  0.613900  0.056100  1.0  0.1205
  H  H11  1  0.386100  0.050700  0.056100  1.0  0.1197
  H  H12  1  0.949300  0.335400  0.056100  1.0  0.1201
  H  H13  1  0.386100  0.335400  0.443900  1.0  0.1198
  H  H14  1  0.949300  0.613900  0.443900  1.0  0.121
  H  H15  1  0.664600  0.050700  0.443900  1.0  0.1205
  H  H16  1  0.613900  0.664600  0.943900  1.0  0.1205
  H  H17  1  0.050700  0.386100  0.943900  1.0  0.1203
  H  H18  1  0.335400  0.949300  0.943900  1.0  0.1199
  H  H19  1  0.664600  0.613900  0.443900  1.0  0.1206
  H  H20  1  0.386100  0.050700  0.443900  1.0  0.1198
  H  H21  1  0.949300  0.335400  0.443900  1.0  0.1203
  H  H22  1  0.335400  0.386100  0.943900  1.0  0.1203
  H  H23  1  0.613900  0.949300  0.943900  1.0  0.1205
  H  H24  1  0.050700  0.664600  0.943900  1.0  0.1203
  H  H25  1  0.613900  0.664600  0.556100  1.0  0.1205
  H  H26  1  0.050700  0.386100  0.556100  1.0  0.1204
  H  H27  1  0.335400  0.949300  0.556100  1.0  0.1198
  H  H28  1  0.386100  0.335400  0.056100  1.0  0.12
  H  H29  1  0.949300  0.613900  0.056100  1.0  0.1209
  H  H30  1  0.664600  0.050700  0.056100  1.0  0.1205
  C  C31  1  0.401500  0.431800  0.533600  1.0  -0.0397
  C  C32  1  0.568200  0.969700  0.533600  1.0  -0.0395
  C  C33  1  0.030300  0.598500  0.533600  1.0  -0.0404
  C  C34  1  0.598500  0.568200  0.033600  1.0  -0.0404
  C  C35  1  0.431800  0.030300  0.033600  1.0  -0.0405
  C  C36  1  0.969700  0.401500  0.033600  1.0  -0.0394
  C  C37  1  0.431800  0.401500  0.466400  1.0  -0.04
  C  C38  1  0.969700  0.568200  0.466400  1.0  -0.0412
  C  C39  1  0.598500  0.030300  0.466400  1.0  -0.0404
  C  C40  1  0.568200  0.598500  0.966400  1.0  -0.0399
  C  C41  1  0.030300  0.431800  0.966400  1.0  -0.041
  C  C42  1  0.401500  0.969700  0.966400  1.0  -0.0405
  C  C43  1  0.598500  0.568200  0.466400  1.0  -0.0405
  C  C44  1  0.431800  0.030300  0.466400  1.0  -0.0408
  C  C45  1  0.969700  0.401500  0.466400  1.0  -0.0394
  C  C46  1  0.401500  0.431800  0.966400  1.0  -0.0403
  C  C47  1  0.568200  0.969700  0.966400  1.0  -0.0402
  C  C48  1  0.030300  0.598500  0.966400  1.0  -0.0407
  C  C49  1  0.568200  0.598500  0.533600  1.0  -0.0399
  C  C50  1  0.030300  0.431800  0.533600  1.0  -0.0406
  C  C51  1  0.401500  0.969700  0.533600  1.0  -0.0402
  C  C52  1  0.431800  0.401500  0.033600  1.0  -0.0398
  C  C53  1  0.969700  0.568200  0.033600  1.0  -0.041
  C  C54  1  0.598500  0.030300  0.033600  1.0  -0.0398
  C  C55  1  0.436330  0.563670  0.639200  1.0  0.7623
  C  C56  1  0.469800  0.530200  0.567400  1.0  -0.122
  C  C57  1  0.436330  0.872660  0.639200  1.0  0.7598
  C  C58  1  0.469800  0.939600  0.567400  1.0  -0.1197
  C  C59  1  0.127340  0.563670  0.639200  1.0  0.7616
  C  C60  1  0.060400  0.530200  0.567400  1.0  -0.1227
  C  C61  1  0.563670  0.436330  0.139200  1.0  0.7612
  C  C62  1  0.530200  0.469800  0.067400  1.0  -0.1225
  C  C63  1  0.563670  0.127340  0.139200  1.0  0.7598
  C  C64  1  0.530200  0.060400  0.067400  1.0  -0.1198
  C  C65  1  0.872660  0.436330  0.139200  1.0  0.7617
  C  C66  1  0.939600  0.469800  0.067400  1.0  -0.122
  C  C67  1  0.563670  0.436330  0.360800  1.0  0.7623
  C  C68  1  0.530200  0.469800  0.432600  1.0  -0.1224
  C  C69  1  0.872660  0.436330  0.360800  1.0  0.7625
  C  C70  1  0.939600  0.469800  0.432600  1.0  -0.1222
  C  C71  1  0.563670  0.127340  0.360800  1.0  0.7607
  C  C72  1  0.530200  0.060400  0.432600  1.0  -0.1197
  C  C73  1  0.436330  0.563670  0.860800  1.0  0.7633
  C  C74  1  0.469800  0.530200  0.932600  1.0  -0.122
  C  C75  1  0.127340  0.563670  0.860800  1.0  0.7628
  C  C76  1  0.060400  0.530200  0.932600  1.0  -0.1222
  C  C77  1  0.436330  0.872660  0.860800  1.0  0.7607
  C  C78  1  0.469800  0.939600  0.932600  1.0  -0.1199
  O  O79  1  0.346000  0.499500  0.666090  1.0  -0.6202
  O  O80  1  0.500500  0.846500  0.666090  1.0  -0.6207
  O  O81  1  0.153500  0.654000  0.666090  1.0  -0.6251
  O  O82  1  0.654000  0.500500  0.166090  1.0  -0.6215
  O  O83  1  0.499500  0.153500  0.166090  1.0  -0.621
  O  O84  1  0.846500  0.346000  0.166090  1.0  -0.6233
  O  O85  1  0.499500  0.346000  0.333910  1.0  -0.6241
  O  O86  1  0.846500  0.500500  0.333910  1.0  -0.6211
  O  O87  1  0.654000  0.153500  0.333910  1.0  -0.6197
  O  O88  1  0.500500  0.654000  0.833910  1.0  -0.6233
  O  O89  1  0.153500  0.499500  0.833910  1.0  -0.6201
  O  O90  1  0.346000  0.846500  0.833910  1.0  -0.6216
  O  O91  1  0.654000  0.500500  0.333910  1.0  -0.6215
  O  O92  1  0.499500  0.153500  0.333910  1.0  -0.6209
  O  O93  1  0.846500  0.346000  0.333910  1.0  -0.6228
  O  O94  1  0.346000  0.499500  0.833910  1.0  -0.6198
  O  O95  1  0.500500  0.846500  0.833910  1.0  -0.6204
  O  O96  1  0.153500  0.654000  0.833910  1.0  -0.6253
  O  O97  1  0.500500  0.654000  0.666090  1.0  -0.6236
  O  O98  1  0.153500  0.499500  0.666090  1.0  -0.6205
  O  O99  1  0.346000  0.846500  0.666090  1.0  -0.6216
  O  O100  1  0.499500  0.346000  0.166090  1.0  -0.624
  O  O101  1  0.846500  0.500500  0.166090  1.0  -0.6209
  O  O102  1  0.654000  0.153500  0.166090  1.0  -0.62
  O  O103  1  0.333333  0.666667  0.750000  1.0  -1.0996
  O  O104  1  0.666667  0.333333  0.250000  1.0  -1.0997
