# generated using pymatgen
data_TbAgH11C14(NO3)2
_symmetry_space_group_name_H-M   'P 1'
_cell_length_a   16.21070000
_cell_length_b   14.97810000
_cell_length_c   7.95730000
_cell_angle_alpha   90.00000000
_cell_angle_beta   92.06900000
_cell_angle_gamma   90.00000000
_symmetry_Int_Tables_number   1
_chemical_formula_structural   TbAgH11C14(NO3)2
_chemical_formula_sum   'Tb4 Ag4 H44 C56 N8 O24'
_cell_volume   1930.81651983
_cell_formula_units_Z   4
loop_
 _symmetry_equiv_pos_site_id
 _symmetry_equiv_pos_as_xyz
  1  'x, y, z'
loop_
 _atom_site_type_symbol
 _atom_site_label
 _atom_site_symmetry_multiplicity
 _atom_site_fract_x
 _atom_site_fract_y
 _atom_site_fract_z
 _atom_site_occupancy
 _atom_site_charge
  Tb  Tb1  1  0.546160  0.383640  0.951090  1.0  2.2891
  Tb  Tb2  1  0.453840  0.883640  0.548910  1.0  2.2886
  Tb  Tb3  1  0.453840  0.616360  0.048910  1.0  2.2883
  Tb  Tb4  1  0.546160  0.116360  0.451090  1.0  2.2886
  Ag  Ag5  1  0.027240  0.260530  0.399420  1.0  0.2025
  Ag  Ag6  1  0.972760  0.760530  0.100580  1.0  0.2028
  Ag  Ag7  1  0.972760  0.739470  0.600580  1.0  0.2026
  Ag  Ag8  1  0.027240  0.239470  0.899420  1.0  0.2024
  H  H9  1  0.894100  0.382700  0.523200  1.0  0.0553
  H  H10  1  0.765000  0.382900  0.634600  1.0  0.0883
  H  H11  1  0.762900  0.116300  0.603000  1.0  0.0988
  H  H12  1  0.893400  0.122300  0.497000  1.0  0.0676
  H  H13  1  0.208900  0.193000  0.324400  1.0  0.064
  H  H14  1  0.331700  0.250900  0.237800  1.0  0.0942
  H  H15  1  0.220700  0.487000  0.174300  1.0  0.0967
  H  H16  1  0.100000  0.423500  0.258100  1.0  0.0604
  H  H17  1  0.320200  0.449500  0.581900  1.0  0.1161
  H  H18  1  0.341500  0.547100  0.639900  1.0  0.1293
  H  H19  1  0.386200  0.504900  0.487400  1.0  0.1153
  H  H20  1  0.105900  0.882700  0.976800  1.0  0.0556
  H  H21  1  0.235000  0.882900  0.865400  1.0  0.0889
  H  H22  1  0.237100  0.616300  0.897000  1.0  0.099
  H  H23  1  0.106600  0.622300  0.003000  1.0  0.067
  H  H24  1  0.791100  0.693000  0.175600  1.0  0.0644
  H  H25  1  0.668300  0.750900  0.262200  1.0  0.0936
  H  H26  1  0.779300  0.987000  0.325700  1.0  0.0967
  H  H27  1  0.900000  0.923500  0.241900  1.0  0.06
  H  H28  1  0.679800  0.949500  0.918100  1.0  0.1168
  H  H29  1  0.658500  0.047100  0.860100  1.0  0.1296
  H  H30  1  0.613800  0.004900  0.012600  1.0  0.1153
  H  H31  1  0.105900  0.617300  0.476800  1.0  0.055
  H  H32  1  0.235000  0.617100  0.365400  1.0  0.0892
  H  H33  1  0.237100  0.883700  0.397000  1.0  0.099
  H  H34  1  0.106600  0.877700  0.503000  1.0  0.0682
  H  H35  1  0.791100  0.807000  0.675600  1.0  0.064
  H  H36  1  0.668300  0.749100  0.762200  1.0  0.0938
  H  H37  1  0.779300  0.513000  0.825700  1.0  0.0969
  H  H38  1  0.900000  0.576500  0.741900  1.0  0.0597
  H  H39  1  0.679800  0.550500  0.418100  1.0  0.1159
  H  H40  1  0.658500  0.452900  0.360100  1.0  0.1299
  H  H41  1  0.613800  0.495100  0.512600  1.0  0.1152
  H  H42  1  0.894100  0.117300  0.023200  1.0  0.0552
  H  H43  1  0.765000  0.117100  0.134600  1.0  0.0884
  H  H44  1  0.762900  0.383700  0.103000  1.0  0.0987
  H  H45  1  0.893400  0.377700  0.997000  1.0  0.0678
  H  H46  1  0.208900  0.307000  0.824400  1.0  0.0636
  H  H47  1  0.331700  0.249100  0.737800  1.0  0.0941
  H  H48  1  0.220700  0.013000  0.674300  1.0  0.0967
  H  H49  1  0.100000  0.076500  0.758100  1.0  0.0604
  H  H50  1  0.320200  0.050500  0.081900  1.0  0.1157
  H  H51  1  0.341500  0.952900  0.139900  1.0  0.1309
  H  H52  1  0.386200  0.995100  0.987400  1.0  0.1153
  C  C53  1  0.867600  0.328600  0.540600  1.0  0.1395
  C  C54  1  0.789850  0.329200  0.606600  1.0  -0.1386
  C  C55  1  0.749370  0.249110  0.630600  1.0  -0.1252
  C  C56  1  0.788610  0.171100  0.588600  1.0  -0.1394
  C  C57  1  0.867020  0.175200  0.524500  1.0  0.1336
  C  C58  1  0.664260  0.249080  0.700100  1.0  0.7322
  C  C59  1  0.211400  0.252900  0.293900  1.0  0.1391
  C  C60  1  0.285360  0.287300  0.242200  1.0  -0.1215
  C  C61  1  0.289950  0.375700  0.197400  1.0  -0.1178
  C  C62  1  0.219580  0.427000  0.204100  1.0  -0.1578
  C  C63  1  0.147400  0.388500  0.255400  1.0  0.1361
  C  C64  1  0.368180  0.418500  0.141000  1.0  0.6799
  C  C65  1  0.429700  0.457650  0.712300  1.0  0.7355
  C  C66  1  0.363500  0.493000  0.594900  1.0  -0.4928
  C  C67  1  0.132400  0.828600  0.959400  1.0  0.1393
  C  C68  1  0.210150  0.829200  0.893400  1.0  -0.1395
  C  C69  1  0.250630  0.749110  0.869400  1.0  -0.1256
  C  C70  1  0.211390  0.671100  0.911400  1.0  -0.1408
  C  C71  1  0.132980  0.675200  0.975500  1.0  0.1337
  C  C72  1  0.335740  0.749080  0.799900  1.0  0.7108
  C  C73  1  0.788600  0.752900  0.206100  1.0  0.1395
  C  C74  1  0.714640  0.787300  0.257800  1.0  -0.1212
  C  C75  1  0.710050  0.875700  0.302600  1.0  -0.1195
  C  C76  1  0.780420  0.927000  0.295900  1.0  -0.1597
  C  C77  1  0.852600  0.888500  0.244600  1.0  0.1369
  C  C78  1  0.631820  0.918500  0.359000  1.0  0.6804
  C  C79  1  0.570300  0.957650  0.787700  1.0  0.7369
  C  C80  1  0.636500  0.993000  0.905100  1.0  -0.4925
  C  C81  1  0.132400  0.671400  0.459400  1.0  0.1393
  C  C82  1  0.210150  0.670800  0.393400  1.0  -0.1397
  C  C83  1  0.250630  0.750890  0.369400  1.0  -0.1257
  C  C84  1  0.211390  0.828900  0.411400  1.0  -0.1404
  C  C85  1  0.132980  0.824800  0.475500  1.0  0.1334
  C  C86  1  0.335740  0.750920  0.299900  1.0  0.7309
  C  C87  1  0.788600  0.747100  0.706100  1.0  0.1387
  C  C88  1  0.714640  0.712700  0.757800  1.0  -0.1218
  C  C89  1  0.710050  0.624300  0.802600  1.0  -0.1192
  C  C90  1  0.780420  0.573000  0.795900  1.0  -0.1595
  C  C91  1  0.852600  0.611500  0.744600  1.0  0.137
  C  C92  1  0.631820  0.581500  0.859000  1.0  0.6802
  C  C93  1  0.570300  0.542350  0.287700  1.0  0.7368
  C  C94  1  0.636500  0.507000  0.405100  1.0  -0.4925
  C  C95  1  0.867600  0.171400  0.040600  1.0  0.1385
  C  C96  1  0.789850  0.170800  0.106600  1.0  -0.1395
  C  C97  1  0.749370  0.250890  0.130600  1.0  -0.125
  C  C98  1  0.788610  0.328900  0.088600  1.0  -0.14
  C  C99  1  0.867020  0.324800  0.024500  1.0  0.1337
  C  C100  1  0.664260  0.250920  0.200100  1.0  0.7123
  C  C101  1  0.211400  0.247100  0.793900  1.0  0.1386
  C  C102  1  0.285360  0.212700  0.742200  1.0  -0.1215
  C  C103  1  0.289950  0.124300  0.697400  1.0  -0.1181
  C  C104  1  0.219580  0.073000  0.704100  1.0  -0.1582
  C  C105  1  0.147400  0.111500  0.755400  1.0  0.1366
  C  C106  1  0.368180  0.081500  0.641000  1.0  0.6794
  C  C107  1  0.429700  0.042350  0.212300  1.0  0.7351
  C  C108  1  0.363500  0.007000  0.094900  1.0  -0.4932
  N  N109  1  0.906070  0.252950  0.501000  1.0  -0.3212
  N  N110  1  0.143040  0.303100  0.301400  1.0  -0.3137
  N  N111  1  0.093930  0.752950  0.999000  1.0  -0.3244
  N  N112  1  0.856960  0.803100  0.198600  1.0  -0.314
  N  N113  1  0.093930  0.747050  0.499000  1.0  -0.3246
  N  N114  1  0.856960  0.696900  0.698600  1.0  -0.3142
  N  N115  1  0.906070  0.247050  0.001000  1.0  -0.3212
  N  N116  1  0.143040  0.196900  0.801400  1.0  -0.3134
  O  O117  1  0.642830  0.315480  0.781700  1.0  -0.7571
  O  O118  1  0.619350  0.181030  0.672000  1.0  -0.6932
  O  O119  1  0.425240  0.366140  0.098000  1.0  -0.6968
  O  O120  1  0.370850  0.501520  0.141900  1.0  -0.6933
  O  O121  1  0.450160  0.501640  0.842500  1.0  -0.7216
  O  O122  1  0.464980  0.384490  0.686900  1.0  -0.6664
  O  O123  1  0.357170  0.815480  0.718300  1.0  -0.759
  O  O124  1  0.380650  0.681030  0.828000  1.0  -0.6928
  O  O125  1  0.574760  0.866140  0.402000  1.0  -0.6987
  O  O126  1  0.629150  0.001520  0.358100  1.0  -0.6942
  O  O127  1  0.549840  0.001640  0.657500  1.0  -0.723
  O  O128  1  0.535020  0.884490  0.813100  1.0  -0.6637
  O  O129  1  0.357170  0.684520  0.218300  1.0  -0.7588
  O  O130  1  0.380650  0.818970  0.328000  1.0  -0.6928
  O  O131  1  0.574760  0.633860  0.902000  1.0  -0.6989
  O  O132  1  0.629150  0.498480  0.858100  1.0  -0.6944
  O  O133  1  0.549840  0.498360  0.157500  1.0  -0.7229
  O  O134  1  0.535020  0.615510  0.313100  1.0  -0.6662
  O  O135  1  0.642830  0.184520  0.281700  1.0  -0.7569
  O  O136  1  0.619350  0.318970  0.172000  1.0  -0.6929
  O  O137  1  0.425240  0.133860  0.598000  1.0  -0.6967
  O  O138  1  0.370850  0.998480  0.641900  1.0  -0.6934
  O  O139  1  0.450160  0.998360  0.342500  1.0  -0.7214
  O  O140  1  0.464980  0.115510  0.186900  1.0  -0.6672
