# generated using pymatgen
data_UH27C30(NO2)3
_symmetry_space_group_name_H-M   'P 1'
_cell_length_a   6.97950000
_cell_length_b   29.50100000
_cell_length_c   15.83270000
_cell_angle_alpha   90.00000000
_cell_angle_beta   101.45500000
_cell_angle_gamma   90.00000000
_symmetry_Int_Tables_number   1
_chemical_formula_structural   UH27C30(NO2)3
_chemical_formula_sum   'U4 H108 C120 N12 O24'
_cell_volume   3195.05247646
_cell_formula_units_Z   4
loop_
 _symmetry_equiv_pos_site_id
 _symmetry_equiv_pos_as_xyz
  1  'x, y, z'
loop_
 _atom_site_type_symbol
 _atom_site_label
 _atom_site_symmetry_multiplicity
 _atom_site_fract_x
 _atom_site_fract_y
 _atom_site_fract_z
 _atom_site_occupancy
 _atom_site_charge
  U  U1  1  0.982600  0.463940  0.847950  1.0  1.8151
  U  U2  1  0.017400  0.963940  0.652050  1.0  1.8148
  U  U3  1  0.017400  0.536060  0.152050  1.0  1.8151
  U  U4  1  0.982600  0.036060  0.347950  1.0  1.8151
  H  H5  1  0.312900  0.494000  0.666300  1.0  0.0973
  H  H6  1  0.006100  0.465300  0.599300  1.0  0.1043
  H  H7  1  0.232400  0.342200  0.591100  1.0  0.0924
  H  H8  1  0.542100  0.368400  0.654500  1.0  0.1014
  H  H9  1  0.331900  0.428400  0.205200  1.0  0.1049
  H  H10  1  0.610000  0.392200  0.280700  1.0  0.0955
  H  H11  1  0.871700  0.404300  0.081400  1.0  0.1063
  H  H12  1  0.596300  0.439500  0.001000  1.0  0.1017
  H  H13  1  0.252200  0.224400  0.277200  1.0  0.0942
  H  H14  1  0.545300  0.263300  0.322400  1.0  0.0936
  H  H15  1  0.801400  0.151200  0.427600  1.0  0.1055
  H  H16  1  0.518800  0.110800  0.384300  1.0  0.0944
  H  H17  1  0.808000  0.408900  0.536200  1.0  0.0773
  H  H18  1  0.854100  0.364400  0.594500  1.0  0.1003
  H  H19  1  0.931200  0.441200  0.339200  1.0  0.0903
  H  H20  1  0.089300  0.436800  0.427000  1.0  0.0991
  H  H21  1  0.863100  0.443400  0.429800  1.0  0.0838
  H  H22  1  0.005900  0.355800  0.203700  1.0  0.0805
  H  H23  1  0.044000  0.402600  0.255200  1.0  0.0914
  H  H24  1  0.846400  0.249300  0.243600  1.0  0.084
  H  H25  1  0.007400  0.281800  0.216400  1.0  0.0968
  H  H26  1  0.780700  0.294900  0.191000  1.0  0.0985
  H  H27  1  0.959900  0.223200  0.457300  1.0  0.0749
  H  H28  1  0.974900  0.222200  0.358000  1.0  0.0759
  H  H29  1  0.800600  0.302700  0.588700  1.0  0.0864
  H  H30  1  0.993500  0.274100  0.584500  1.0  0.0945
  H  H31  1  0.784000  0.255800  0.536700  1.0  0.0941
  H  H32  1  0.687100  0.994000  0.833700  1.0  0.0979
  H  H33  1  0.993900  0.965300  0.900700  1.0  0.1041
  H  H34  1  0.767600  0.842200  0.908900  1.0  0.0932
  H  H35  1  0.457900  0.868400  0.845500  1.0  0.1015
  H  H36  1  0.668100  0.928400  0.294800  1.0  0.1046
  H  H37  1  0.390000  0.892200  0.219300  1.0  0.0962
  H  H38  1  0.128300  0.904300  0.418600  1.0  0.1059
  H  H39  1  0.403700  0.939500  0.499000  1.0  0.1018
  H  H40  1  0.747800  0.724400  0.222800  1.0  0.0939
  H  H41  1  0.454700  0.763300  0.177600  1.0  0.0935
  H  H42  1  0.198600  0.651200  0.072400  1.0  0.1053
  H  H43  1  0.481200  0.610800  0.115700  1.0  0.0939
  H  H44  1  0.192000  0.908900  0.963800  1.0  0.078
  H  H45  1  0.145900  0.864400  0.905500  1.0  0.0993
  H  H46  1  0.068800  0.941200  0.160800  1.0  0.0895
  H  H47  1  0.910700  0.936800  0.073000  1.0  0.0999
  H  H48  1  0.136900  0.943400  0.070200  1.0  0.0846
  H  H49  1  0.994100  0.855800  0.296300  1.0  0.0804
  H  H50  1  0.956000  0.902600  0.244800  1.0  0.0913
  H  H51  1  0.153600  0.749300  0.256400  1.0  0.084
  H  H52  1  0.992600  0.781800  0.283600  1.0  0.0962
  H  H53  1  0.219300  0.794900  0.309000  1.0  0.0984
  H  H54  1  0.040100  0.723200  0.042700  1.0  0.0757
  H  H55  1  0.025100  0.722200  0.142000  1.0  0.0746
  H  H56  1  0.199400  0.802700  0.911300  1.0  0.0865
  H  H57  1  0.006500  0.774100  0.915500  1.0  0.094
  H  H58  1  0.216000  0.755800  0.963300  1.0  0.0939
  H  H59  1  0.687100  0.506000  0.333700  1.0  0.098
  H  H60  1  0.993900  0.534700  0.400700  1.0  0.1036
  H  H61  1  0.767600  0.657800  0.408900  1.0  0.0927
  H  H62  1  0.457900  0.631600  0.345500  1.0  0.1016
  H  H63  1  0.668100  0.571600  0.794800  1.0  0.1046
  H  H64  1  0.390000  0.607800  0.719300  1.0  0.0959
  H  H65  1  0.128300  0.595700  0.918600  1.0  0.106
  H  H66  1  0.403700  0.560500  0.999000  1.0  0.1017
  H  H67  1  0.747800  0.775600  0.722800  1.0  0.0942
  H  H68  1  0.454700  0.736700  0.677600  1.0  0.0946
  H  H69  1  0.198600  0.848800  0.572400  1.0  0.1047
  H  H70  1  0.481200  0.889200  0.615700  1.0  0.0953
  H  H71  1  0.192000  0.591100  0.463800  1.0  0.078
  H  H72  1  0.145900  0.635600  0.405500  1.0  0.0992
  H  H73  1  0.068800  0.558800  0.660800  1.0  0.0899
  H  H74  1  0.910700  0.563200  0.573000  1.0  0.1
  H  H75  1  0.136900  0.556600  0.570200  1.0  0.0843
  H  H76  1  0.994100  0.644200  0.796300  1.0  0.08
  H  H77  1  0.956000  0.597400  0.744800  1.0  0.0909
  H  H78  1  0.153600  0.750700  0.756400  1.0  0.0835
  H  H79  1  0.992600  0.718200  0.783600  1.0  0.0964
  H  H80  1  0.219300  0.705100  0.809000  1.0  0.0984
  H  H81  1  0.040100  0.776800  0.542700  1.0  0.0756
  H  H82  1  0.025100  0.777800  0.642000  1.0  0.0744
  H  H83  1  0.199400  0.697300  0.411300  1.0  0.0868
  H  H84  1  0.006500  0.725900  0.415500  1.0  0.0943
  H  H85  1  0.216000  0.744200  0.463300  1.0  0.0942
  H  H86  1  0.312900  0.006000  0.166300  1.0  0.0976
  H  H87  1  0.006100  0.034700  0.099300  1.0  0.1037
  H  H88  1  0.232400  0.157800  0.091100  1.0  0.0925
  H  H89  1  0.542100  0.131600  0.154500  1.0  0.1015
  H  H90  1  0.331900  0.071600  0.705200  1.0  0.1048
  H  H91  1  0.610000  0.107800  0.780700  1.0  0.0954
  H  H92  1  0.871700  0.095700  0.581400  1.0  0.1065
  H  H93  1  0.596300  0.060500  0.501000  1.0  0.1018
  H  H94  1  0.252200  0.275600  0.777200  1.0  0.0938
  H  H95  1  0.545300  0.236700  0.822400  1.0  0.0934
  H  H96  1  0.801400  0.348800  0.927600  1.0  0.1046
  H  H97  1  0.518800  0.389200  0.884300  1.0  0.0953
  H  H98  1  0.808000  0.091100  0.036200  1.0  0.0774
  H  H99  1  0.854100  0.135600  0.094500  1.0  0.1001
  H  H100  1  0.931200  0.058800  0.839200  1.0  0.0903
  H  H101  1  0.089300  0.063200  0.927000  1.0  0.0989
  H  H102  1  0.863100  0.056600  0.929800  1.0  0.0845
  H  H103  1  0.005900  0.144200  0.703700  1.0  0.0806
  H  H104  1  0.044000  0.097400  0.755200  1.0  0.0913
  H  H105  1  0.846400  0.250700  0.743600  1.0  0.0842
  H  H106  1  0.007400  0.218200  0.716400  1.0  0.0968
  H  H107  1  0.780700  0.205100  0.691000  1.0  0.099
  H  H108  1  0.959900  0.276800  0.957300  1.0  0.0749
  H  H109  1  0.974900  0.277800  0.858000  1.0  0.0756
  H  H110  1  0.800600  0.197300  0.088700  1.0  0.0872
  H  H111  1  0.993500  0.225900  0.084500  1.0  0.0937
  H  H112  1  0.784000  0.244200  0.036700  1.0  0.0946
  C  C113  1  0.647800  0.449700  0.719200  1.0  0.676
  C  C114  1  0.455900  0.433800  0.669600  1.0  -0.1174
  C  C115  1  0.298000  0.462800  0.651600  1.0  -0.1216
  C  C116  1  0.116400  0.445800  0.611400  1.0  0.0496
  C  C117  1  0.250900  0.373300  0.606400  1.0  0.0404
  C  C118  1  0.433300  0.388400  0.644900  1.0  -0.0549
  C  C119  1  0.257900  0.461300  0.045000  1.0  0.686
  C  C120  1  0.436100  0.438300  0.096100  1.0  -0.1392
  C  C121  1  0.441400  0.423800  0.178900  1.0  -0.0852
  C  C122  1  0.606900  0.402500  0.223600  1.0  0.0239
  C  C123  1  0.760300  0.409500  0.106100  1.0  0.039
  C  C124  1  0.598100  0.430500  0.058700  1.0  -0.0745
  C  C125  1  0.159500  0.137800  0.303100  1.0  0.6641
  C  C126  1  0.351100  0.163500  0.329400  1.0  -0.153
  C  C127  1  0.363200  0.209100  0.308800  1.0  -0.114
  C  C128  1  0.538100  0.231900  0.334700  1.0  0.0223
  C  C129  1  0.688400  0.166000  0.396400  1.0  0.0631
  C  C130  1  0.520800  0.142400  0.372100  1.0  -0.1247
  C  C131  1  0.903500  0.355600  0.471800  1.0  -0.0677
  C  C132  1  0.927700  0.378600  0.396300  1.0  0.0533
  C  C133  1  0.924400  0.353800  0.321200  1.0  -0.1578
  C  C134  1  0.898500  0.306700  0.319200  1.0  -0.0129
  C  C135  1  0.889300  0.283900  0.396600  1.0  -0.1214
  C  C136  1  0.884800  0.307900  0.473000  1.0  0.0685
  C  C137  1  0.901000  0.383500  0.551300  1.0  -0.0915
  C  C138  1  0.955200  0.429500  0.398200  1.0  -0.358
  C  C139  1  0.949600  0.377400  0.239900  1.0  -0.0789
  C  C140  1  0.881800  0.280900  0.235100  1.0  -0.348
  C  C141  1  0.894400  0.233000  0.398900  1.0  -0.1152
  C  C142  1  0.863900  0.283000  0.552500  1.0  -0.3777
  C  C143  1  0.352200  0.949700  0.780800  1.0  0.6755
  C  C144  1  0.544100  0.933800  0.830400  1.0  -0.1163
  C  C145  1  0.702000  0.962800  0.848400  1.0  -0.1206
  C  C146  1  0.883600  0.945800  0.888600  1.0  0.0515
  C  C147  1  0.749100  0.873300  0.893600  1.0  0.0399
  C  C148  1  0.566700  0.888400  0.855100  1.0  -0.0543
  C  C149  1  0.742100  0.961300  0.455000  1.0  0.6853
  C  C150  1  0.563900  0.938300  0.403900  1.0  -0.137
  C  C151  1  0.558600  0.923800  0.321100  1.0  -0.0855
  C  C152  1  0.393100  0.902500  0.276400  1.0  0.0227
  C  C153  1  0.239700  0.909500  0.393900  1.0  0.0399
  C  C154  1  0.401900  0.930500  0.441300  1.0  -0.0756
  C  C155  1  0.840500  0.637800  0.196900  1.0  0.6666
  C  C156  1  0.648900  0.663500  0.170600  1.0  -0.152
  C  C157  1  0.636800  0.709100  0.191200  1.0  -0.1139
  C  C158  1  0.461900  0.731900  0.165300  1.0  0.0228
  C  C159  1  0.311600  0.666000  0.103600  1.0  0.0641
  C  C160  1  0.479200  0.642400  0.127900  1.0  -0.1238
  C  C161  1  0.096500  0.855600  0.028200  1.0  -0.0675
  C  C162  1  0.072300  0.878600  0.103700  1.0  0.0533
  C  C163  1  0.075600  0.853800  0.178800  1.0  -0.1585
  C  C164  1  0.101500  0.806700  0.180800  1.0  -0.0135
  C  C165  1  0.110700  0.783900  0.103400  1.0  -0.1217
  C  C166  1  0.115200  0.807900  0.027000  1.0  0.0675
  C  C167  1  0.099000  0.883500  0.948700  1.0  -0.0925
  C  C168  1  0.044800  0.929500  0.101800  1.0  -0.3579
  C  C169  1  0.050400  0.877400  0.260100  1.0  -0.0797
  C  C170  1  0.118200  0.780900  0.264900  1.0  -0.349
  C  C171  1  0.105600  0.733000  0.101100  1.0  -0.1151
  C  C172  1  0.136100  0.783000  0.947500  1.0  -0.3779
  C  C173  1  0.352200  0.550300  0.280800  1.0  0.6764
  C  C174  1  0.544100  0.566200  0.330400  1.0  -0.1172
  C  C175  1  0.702000  0.537200  0.348400  1.0  -0.1212
  C  C176  1  0.883600  0.554200  0.388600  1.0  0.0515
  C  C177  1  0.749100  0.626700  0.393600  1.0  0.0394
  C  C178  1  0.566700  0.611600  0.355100  1.0  -0.0537
  C  C179  1  0.742100  0.538700  0.955000  1.0  0.6854
  C  C180  1  0.563900  0.561700  0.903900  1.0  -0.1368
  C  C181  1  0.558600  0.576200  0.821100  1.0  -0.085
  C  C182  1  0.393100  0.597500  0.776400  1.0  0.0226
  C  C183  1  0.239700  0.590500  0.893900  1.0  0.0398
  C  C184  1  0.401900  0.569500  0.941300  1.0  -0.0755
  C  C185  1  0.840500  0.862200  0.696900  1.0  0.6665
  C  C186  1  0.648900  0.836500  0.670600  1.0  -0.1512
  C  C187  1  0.636800  0.790900  0.691200  1.0  -0.1137
  C  C188  1  0.461900  0.768100  0.665300  1.0  0.0236
  C  C189  1  0.311600  0.834000  0.603600  1.0  0.0628
  C  C190  1  0.479200  0.857600  0.627900  1.0  -0.1242
  C  C191  1  0.096500  0.644400  0.528200  1.0  -0.0677
  C  C192  1  0.072300  0.621400  0.603700  1.0  0.0537
  C  C193  1  0.075600  0.646200  0.678800  1.0  -0.1588
  C  C194  1  0.101500  0.693300  0.680800  1.0  -0.0138
  C  C195  1  0.110700  0.716100  0.603400  1.0  -0.1229
  C  C196  1  0.115200  0.692100  0.527000  1.0  0.0675
  C  C197  1  0.099000  0.616500  0.448700  1.0  -0.0926
  C  C198  1  0.044800  0.570500  0.601800  1.0  -0.3589
  C  C199  1  0.050400  0.622600  0.760100  1.0  -0.0798
  C  C200  1  0.118200  0.719100  0.764900  1.0  -0.3484
  C  C201  1  0.105600  0.767000  0.601100  1.0  -0.1159
  C  C202  1  0.136100  0.717000  0.447500  1.0  -0.3779
  C  C203  1  0.647800  0.050300  0.219200  1.0  0.6767
  C  C204  1  0.455900  0.066200  0.169600  1.0  -0.1175
  C  C205  1  0.298000  0.037200  0.151600  1.0  -0.1215
  C  C206  1  0.116400  0.054200  0.111400  1.0  0.0503
  C  C207  1  0.250900  0.126700  0.106400  1.0  0.0404
  C  C208  1  0.433300  0.111600  0.144900  1.0  -0.0546
  C  C209  1  0.257900  0.038700  0.545000  1.0  0.6862
  C  C210  1  0.436100  0.061700  0.596100  1.0  -0.139
  C  C211  1  0.441400  0.076200  0.678900  1.0  -0.0851
  C  C212  1  0.606900  0.097500  0.723600  1.0  0.0236
  C  C213  1  0.760300  0.090500  0.606100  1.0  0.039
  C  C214  1  0.598100  0.069500  0.558700  1.0  -0.0748
  C  C215  1  0.159500  0.362200  0.803100  1.0  0.6633
  C  C216  1  0.351100  0.336500  0.829400  1.0  -0.1531
  C  C217  1  0.363200  0.290900  0.808800  1.0  -0.114
  C  C218  1  0.538100  0.268100  0.834700  1.0  0.0233
  C  C219  1  0.688400  0.334000  0.896400  1.0  0.0615
  C  C220  1  0.520800  0.357600  0.872100  1.0  -0.1248
  C  C221  1  0.903500  0.144400  0.971800  1.0  -0.0676
  C  C222  1  0.927700  0.121400  0.896300  1.0  0.0537
  C  C223  1  0.924400  0.146200  0.821200  1.0  -0.1583
  C  C224  1  0.898500  0.193300  0.819200  1.0  -0.0132
  C  C225  1  0.889300  0.216100  0.896600  1.0  -0.1225
  C  C226  1  0.884800  0.192100  0.973000  1.0  0.0677
  C  C227  1  0.901000  0.116500  0.051300  1.0  -0.0915
  C  C228  1  0.955200  0.070500  0.898200  1.0  -0.3584
  C  C229  1  0.949600  0.122600  0.739900  1.0  -0.0788
  C  C230  1  0.881800  0.219100  0.735100  1.0  -0.3485
  C  C231  1  0.894400  0.267000  0.898900  1.0  -0.1152
  C  C232  1  0.863900  0.217000  0.052500  1.0  -0.3777
  N  N233  1  0.097500  0.402010  0.590100  1.0  -0.0177
  N  N234  1  0.761500  0.396180  0.188000  1.0  0.005
  N  N235  1  0.697100  0.210350  0.376800  1.0  -0.0039
  N  N236  1  0.902500  0.902010  0.909900  1.0  -0.0169
  N  N237  1  0.238500  0.896180  0.312000  1.0  0.0055
  N  N238  1  0.302900  0.710350  0.123200  1.0  -0.0043
  N  N239  1  0.902500  0.597990  0.409900  1.0  -0.0163
  N  N240  1  0.238500  0.603820  0.812000  1.0  0.0054
  N  N241  1  0.302900  0.789650  0.623200  1.0  -0.0044
  N  N242  1  0.097500  0.097990  0.090100  1.0  -0.017
  N  N243  1  0.761500  0.103820  0.688000  1.0  0.0051
  N  N244  1  0.697100  0.289650  0.876800  1.0  -0.0038
  O  O245  1  0.801300  0.427600  0.716000  1.0  -0.6265
  O  O246  1  0.651200  0.483270  0.769100  1.0  -0.6324
  O  O247  1  0.252100  0.468330  0.966100  1.0  -0.7199
  O  O248  1  0.124100  0.471610  0.084700  1.0  -0.7438
  O  O249  1  0.172000  0.095590  0.318100  1.0  -0.7087
  O  O250  1  0.014100  0.159320  0.269300  1.0  -0.5592
  O  O251  1  0.198700  0.927600  0.784000  1.0  -0.6257
  O  O252  1  0.348800  0.983270  0.730900  1.0  -0.6316
  O  O253  1  0.747900  0.968330  0.533900  1.0  -0.721
  O  O254  1  0.875900  0.971610  0.415300  1.0  -0.7447
  O  O255  1  0.828000  0.595590  0.181900  1.0  -0.7093
  O  O256  1  0.985900  0.659320  0.230700  1.0  -0.5592
  O  O257  1  0.198700  0.572400  0.284000  1.0  -0.6263
  O  O258  1  0.348800  0.516730  0.230900  1.0  -0.6328
  O  O259  1  0.747900  0.531670  0.033900  1.0  -0.7207
  O  O260  1  0.875900  0.528390  0.915300  1.0  -0.7447
  O  O261  1  0.828000  0.904410  0.681900  1.0  -0.7084
  O  O262  1  0.985900  0.840680  0.730700  1.0  -0.5598
  O  O263  1  0.801300  0.072400  0.216000  1.0  -0.6267
  O  O264  1  0.651200  0.016730  0.269100  1.0  -0.632
  O  O265  1  0.252100  0.031670  0.466100  1.0  -0.7201
  O  O266  1  0.124100  0.028390  0.584700  1.0  -0.744
  O  O267  1  0.172000  0.404410  0.818100  1.0  -0.7086
  O  O268  1  0.014100  0.340680  0.769300  1.0  -0.56
