# generated using pymatgen
data_Zn2H3C19N4O5
_symmetry_space_group_name_H-M   'P 1'
_cell_length_a   10.28000000
_cell_length_b   32.06700000
_cell_length_c   6.94030000
_cell_angle_alpha   90.00000000
_cell_angle_beta   90.00000000
_cell_angle_gamma   90.00000000
_symmetry_Int_Tables_number   1
_chemical_formula_structural   Zn2H3C19N4O5
_chemical_formula_sum   'Zn8 H12 C76 N16 O20'
_cell_volume   2287.86128903
_cell_formula_units_Z   4
loop_
 _symmetry_equiv_pos_site_id
 _symmetry_equiv_pos_as_xyz
  1  'x, y, z'
loop_
 _atom_site_type_symbol
 _atom_site_label
 _atom_site_symmetry_multiplicity
 _atom_site_fract_x
 _atom_site_fract_y
 _atom_site_fract_z
 _atom_site_occupancy
 _atom_site_charge
  Zn  Zn1  1  0.500000  0.403830  0.250000  1.0  1.0041
  Zn  Zn2  1  0.000000  0.903830  0.250000  1.0  1.0041
  Zn  Zn3  1  0.500000  0.596170  0.750000  1.0  1.0039
  Zn  Zn4  1  0.000000  0.096170  0.750000  1.0  1.0039
  Zn  Zn5  1  0.500000  0.500000  0.000000  1.0  1.0265
  Zn  Zn6  1  0.000000  0.000000  0.000000  1.0  1.0265
  Zn  Zn7  1  0.500000  0.500000  0.500000  1.0  1.0265
  Zn  Zn8  1  0.000000  0.000000  0.500000  1.0  1.0265
  H  H9  1  0.307100  0.193800  0.750000  1.0  0.097
  H  H10  1  0.807100  0.693800  0.750000  1.0  0.097
  H  H11  1  0.692900  0.806200  0.250000  1.0  0.0969
  H  H12  1  0.192900  0.306200  0.250000  1.0  0.0969
  H  H13  1  0.692900  0.193800  0.750000  1.0  0.0969
  H  H14  1  0.192900  0.693800  0.750000  1.0  0.0969
  H  H15  1  0.307100  0.806200  0.250000  1.0  0.0969
  H  H16  1  0.807100  0.306200  0.250000  1.0  0.0969
  H  H17  1  0.500000  0.084200  0.750000  1.0  0.1157
  H  H18  1  0.000000  0.584200  0.750000  1.0  0.1157
  H  H19  1  0.500000  0.915800  0.250000  1.0  0.1156
  H  H20  1  0.000000  0.415800  0.250000  1.0  0.1156
  C  C21  1  0.430300  0.270600  0.890000  1.0  0.009
  C  C22  1  0.431000  0.314400  0.891000  1.0  0.0198
  C  C23  1  0.930300  0.770600  0.890000  1.0  0.009
  C  C24  1  0.931000  0.814400  0.891000  1.0  0.0198
  C  C25  1  0.569700  0.729400  0.390000  1.0  0.016
  C  C26  1  0.569000  0.685600  0.391000  1.0  0.0276
  C  C27  1  0.069700  0.229400  0.390000  1.0  0.016
  C  C28  1  0.069000  0.185600  0.391000  1.0  0.0276
  C  C29  1  0.569700  0.270600  0.610000  1.0  0.0152
  C  C30  1  0.569000  0.314400  0.609000  1.0  0.0276
  C  C31  1  0.069700  0.770600  0.610000  1.0  0.0152
  C  C32  1  0.069000  0.814400  0.609000  1.0  0.0276
  C  C33  1  0.430300  0.729400  0.110000  1.0  0.0109
  C  C34  1  0.431000  0.685600  0.109000  1.0  0.0192
  C  C35  1  0.930300  0.229400  0.110000  1.0  0.0109
  C  C36  1  0.931000  0.185600  0.109000  1.0  0.0192
  C  C37  1  0.569700  0.729400  0.110000  1.0  0.0155
  C  C38  1  0.569000  0.685600  0.109000  1.0  0.0272
  C  C39  1  0.069700  0.229400  0.110000  1.0  0.014
  C  C40  1  0.069000  0.185600  0.109000  1.0  0.0272
  C  C41  1  0.430300  0.270600  0.610000  1.0  0.0075
  C  C42  1  0.431000  0.314400  0.609000  1.0  0.0226
  C  C43  1  0.930300  0.770600  0.610000  1.0  0.0075
  C  C44  1  0.931000  0.814400  0.609000  1.0  0.0226
  C  C45  1  0.430300  0.729400  0.390000  1.0  0.0068
  C  C46  1  0.431000  0.685600  0.391000  1.0  0.0177
  C  C47  1  0.930300  0.229400  0.390000  1.0  0.0083
  C  C48  1  0.931000  0.185600  0.391000  1.0  0.0177
  C  C49  1  0.569700  0.270600  0.890000  1.0  0.0127
  C  C50  1  0.569000  0.314400  0.891000  1.0  0.0269
  C  C51  1  0.069700  0.770600  0.890000  1.0  0.0127
  C  C52  1  0.069000  0.814400  0.891000  1.0  0.0269
  C  C53  1  0.388000  0.134900  0.750000  1.0  -0.1406
  C  C54  1  0.265000  0.111300  0.750000  1.0  0.6197
  C  C55  1  0.385900  0.179600  0.750000  1.0  -0.073
  C  C56  1  0.888000  0.634900  0.750000  1.0  -0.1406
  C  C57  1  0.765000  0.611300  0.750000  1.0  0.6197
  C  C58  1  0.885900  0.679600  0.750000  1.0  -0.073
  C  C59  1  0.612000  0.865100  0.250000  1.0  -0.141
  C  C60  1  0.735000  0.888700  0.250000  1.0  0.6184
  C  C61  1  0.614100  0.820400  0.250000  1.0  -0.0723
  C  C62  1  0.112000  0.365100  0.250000  1.0  -0.141
  C  C63  1  0.235000  0.388700  0.250000  1.0  0.6184
  C  C64  1  0.114100  0.320400  0.250000  1.0  -0.0723
  C  C65  1  0.612000  0.134900  0.750000  1.0  -0.1409
  C  C66  1  0.735000  0.111300  0.750000  1.0  0.6189
  C  C67  1  0.614100  0.179600  0.750000  1.0  -0.0724
  C  C68  1  0.112000  0.634900  0.750000  1.0  -0.1409
  C  C69  1  0.235000  0.611300  0.750000  1.0  0.6189
  C  C70  1  0.114100  0.679600  0.750000  1.0  -0.0724
  C  C71  1  0.388000  0.865100  0.250000  1.0  -0.1396
  C  C72  1  0.265000  0.888700  0.250000  1.0  0.619
  C  C73  1  0.385900  0.820400  0.250000  1.0  -0.0732
  C  C74  1  0.888000  0.365100  0.250000  1.0  -0.1396
  C  C75  1  0.765000  0.388700  0.250000  1.0  0.619
  C  C76  1  0.885900  0.320400  0.250000  1.0  -0.0732
  C  C77  1  0.500000  0.113200  0.750000  1.0  -0.0326
  C  C78  1  0.500000  0.200900  0.750000  1.0  0.0377
  C  C79  1  0.500000  0.248200  0.750000  1.0  0.1161
  C  C80  1  0.500000  0.335100  0.750000  1.0  0.044
  C  C81  1  0.500000  0.381200  0.750000  1.0  0.2403
  C  C82  1  0.000000  0.613200  0.750000  1.0  -0.0326
  C  C83  1  0.000000  0.700900  0.750000  1.0  0.0377
  C  C84  1  0.000000  0.748200  0.750000  1.0  0.1161
  C  C85  1  0.000000  0.835100  0.750000  1.0  0.044
  C  C86  1  0.000000  0.881200  0.750000  1.0  0.2403
  C  C87  1  0.500000  0.886800  0.250000  1.0  -0.0336
  C  C88  1  0.500000  0.799100  0.250000  1.0  0.0379
  C  C89  1  0.500000  0.751800  0.250000  1.0  0.1155
  C  C90  1  0.500000  0.664900  0.250000  1.0  0.0459
  C  C91  1  0.500000  0.618800  0.250000  1.0  0.2401
  C  C92  1  0.000000  0.386800  0.250000  1.0  -0.0336
  C  C93  1  0.000000  0.299100  0.250000  1.0  0.0379
  C  C94  1  0.000000  0.251800  0.250000  1.0  0.1155
  C  C95  1  0.000000  0.164900  0.250000  1.0  0.0459
  C  C96  1  0.000000  0.118800  0.250000  1.0  0.2401
  N  N97  1  0.500000  0.404700  0.591100  1.0  -0.317
  N  N98  1  0.500000  0.443900  0.661300  1.0  -0.0672
  N  N99  1  0.000000  0.904700  0.591100  1.0  -0.317
  N  N100  1  0.000000  0.943900  0.661300  1.0  -0.0672
  N  N101  1  0.500000  0.595300  0.091100  1.0  -0.3175
  N  N102  1  0.500000  0.556100  0.161300  1.0  -0.067
  N  N103  1  0.000000  0.095300  0.091100  1.0  -0.3175
  N  N104  1  0.000000  0.056100  0.161300  1.0  -0.067
  N  N105  1  0.500000  0.404700  0.908900  1.0  -0.3197
  N  N106  1  0.500000  0.443900  0.838700  1.0  -0.0673
  N  N107  1  0.000000  0.904700  0.908900  1.0  -0.3197
  N  N108  1  0.000000  0.943900  0.838700  1.0  -0.0673
  N  N109  1  0.500000  0.595300  0.408900  1.0  -0.3196
  N  N110  1  0.500000  0.556100  0.338700  1.0  -0.0672
  N  N111  1  0.000000  0.095300  0.408900  1.0  -0.3196
  N  N112  1  0.000000  0.056100  0.338700  1.0  -0.0672
  O  O113  1  0.500000  0.466300  0.250000  1.0  -0.8122
  O  O114  1  0.000000  0.966300  0.250000  1.0  -0.8122
  O  O115  1  0.500000  0.533700  0.750000  1.0  -0.8119
  O  O116  1  0.000000  0.033700  0.750000  1.0  -0.8119
  O  O117  1  0.162300  0.130400  0.750000  1.0  -0.5774
  O  O118  1  0.261000  0.072300  0.750000  1.0  -0.4794
  O  O119  1  0.662300  0.630400  0.750000  1.0  -0.5774
  O  O120  1  0.761000  0.572300  0.750000  1.0  -0.4794
  O  O121  1  0.837700  0.869600  0.250000  1.0  -0.5781
  O  O122  1  0.739000  0.927700  0.250000  1.0  -0.481
  O  O123  1  0.337700  0.369600  0.250000  1.0  -0.5781
  O  O124  1  0.239000  0.427700  0.250000  1.0  -0.481
  O  O125  1  0.837700  0.130400  0.750000  1.0  -0.5781
  O  O126  1  0.739000  0.072300  0.750000  1.0  -0.4788
  O  O127  1  0.337700  0.630400  0.750000  1.0  -0.5781
  O  O128  1  0.239000  0.572300  0.750000  1.0  -0.4788
  O  O129  1  0.162300  0.869600  0.250000  1.0  -0.5774
  O  O130  1  0.261000  0.927700  0.250000  1.0  -0.4796
  O  O131  1  0.662300  0.369600  0.250000  1.0  -0.5774
  O  O132  1  0.761000  0.427700  0.250000  1.0  -0.4796
