# generated using pymatgen
data_Zn2H30C49N9O8
_symmetry_space_group_name_H-M   'P 1'
_cell_length_a   15.52850000
_cell_length_b   15.75420000
_cell_length_c   15.86910000
_cell_angle_alpha   107.60400000
_cell_angle_beta   109.57300000
_cell_angle_gamma   109.80800000
_symmetry_Int_Tables_number   1
_chemical_formula_structural   Zn2H30C49N9O8
_chemical_formula_sum   'Zn4 H60 C98 N18 O16'
_cell_volume   3039.05343546
_cell_formula_units_Z   2
loop_
 _symmetry_equiv_pos_site_id
 _symmetry_equiv_pos_as_xyz
  1  'x, y, z'
loop_
 _atom_site_type_symbol
 _atom_site_label
 _atom_site_symmetry_multiplicity
 _atom_site_fract_x
 _atom_site_fract_y
 _atom_site_fract_z
 _atom_site_occupancy
 _atom_site_charge
  Zn  Zn1  1  0.047690  0.305890  0.928910  1.0  0.9323
  Zn  Zn2  1  0.406770  0.259390  0.883140  1.0  0.8506
  Zn  Zn3  1  0.952310  0.694110  0.071090  1.0  0.9324
  Zn  Zn4  1  0.593230  0.740610  0.116860  1.0  0.8504
  H  H5  1  0.324100  0.641000  0.280600  1.0  0.1144
  H  H6  1  0.431000  0.684500  0.444700  1.0  0.104
  H  H7  1  0.011500  0.759200  0.522800  1.0  0.0846
  H  H8  1  0.157100  0.357500  0.228800  1.0  0.1098
  H  H9  1  0.927300  0.945900  0.912100  1.0  0.114
  H  H10  1  0.261300  0.398600  0.390100  1.0  0.1207
  H  H11  1  0.706600  0.467900  0.172300  1.0  0.1149
  H  H12  1  0.110700  0.920600  0.574400  1.0  0.1189
  H  H13  1  0.837700  0.545200  0.334200  1.0  0.0949
  H  H14  1  0.282500  0.206700  0.000900  1.0  0.356
  H  H15  1  0.185600  0.205900  0.998800  1.0  0.34
  H  H16  1  0.787500  0.784900  0.834900  1.0  0.1056
  H  H17  1  0.635700  0.659000  0.796000  1.0  0.1119
  H  H18  1  0.220000  0.760200  0.753300  1.0  0.1216
  H  H19  1  0.544900  0.242100  0.216400  1.0  0.1037
  H  H20  1  0.679700  0.319700  0.379400  1.0  0.1193
  H  H21  1  0.744000  0.021700  0.739700  1.0  0.1063
  H  H22  1  0.581800  0.577600  0.871900  1.0  0.1046
  H  H23  1  0.608000  0.863300  0.663600  1.0  0.1063
  H  H24  1  0.816500  0.380800  0.518800  1.0  0.1286
  H  H25  1  0.390000  0.335500  0.598400  1.0  0.1242
  H  H26  1  0.899500  0.306200  0.603000  1.0  0.1247
  H  H27  1  0.554000  0.469300  0.940700  1.0  0.0794
  H  H28  1  0.034700  0.577800  0.837700  1.0  0.1126
  H  H29  1  0.058100  0.507300  0.942000  1.0  0.0886
  H  H30  1  0.086100  0.631800  0.735300  1.0  0.1127
  H  H31  1  0.365800  0.443300  0.543500  1.0  0.1102
  H  H32  1  0.332400  0.931900  0.803900  1.0  0.0989
  H  H33  1  0.925700  0.241200  0.713000  1.0  0.0845
  H  H34  1  0.368500  0.235400  0.673800  1.0  0.0909
  H  H35  1  0.675900  0.359000  0.719400  1.0  0.1128
  H  H36  1  0.569000  0.315500  0.555300  1.0  0.1034
  H  H37  1  0.988500  0.240800  0.477200  1.0  0.0862
  H  H38  1  0.842900  0.642500  0.771200  1.0  0.11
  H  H39  1  0.072700  0.054100  0.087900  1.0  0.1144
  H  H40  1  0.738700  0.601400  0.609900  1.0  0.1209
  H  H41  1  0.293400  0.532100  0.827700  1.0  0.115
  H  H42  1  0.889300  0.079400  0.425600  1.0  0.1192
  H  H43  1  0.162300  0.454800  0.665800  1.0  0.0949
  H  H44  1  0.717500  0.793300  0.999100  1.0  0.3521
  H  H45  1  0.814400  0.794100  0.001200  1.0  0.34
  H  H46  1  0.212500  0.215100  0.165100  1.0  0.1056
  H  H47  1  0.364300  0.341000  0.204000  1.0  0.1118
  H  H48  1  0.780000  0.239800  0.246700  1.0  0.1229
  H  H49  1  0.455100  0.757900  0.783600  1.0  0.1033
  H  H50  1  0.320300  0.680300  0.620600  1.0  0.1212
  H  H51  1  0.256000  0.978300  0.260300  1.0  0.1068
  H  H52  1  0.418200  0.422400  0.128100  1.0  0.1047
  H  H53  1  0.392000  0.136700  0.336400  1.0  0.1072
  H  H54  1  0.183500  0.619200  0.481200  1.0  0.1278
  H  H55  1  0.610000  0.664500  0.401600  1.0  0.1227
  H  H56  1  0.100500  0.693800  0.397000  1.0  0.124
  H  H57  1  0.446000  0.530700  0.059300  1.0  0.0797
  H  H58  1  0.965300  0.422200  0.162300  1.0  0.1129
  H  H59  1  0.941900  0.492700  0.058000  1.0  0.0881
  H  H60  1  0.913900  0.368200  0.264700  1.0  0.1126
  H  H61  1  0.634200  0.556700  0.456500  1.0  0.11
  H  H62  1  0.667600  0.068100  0.196100  1.0  0.0982
  H  H63  1  0.074300  0.758800  0.287000  1.0  0.0829
  H  H64  1  0.631500  0.764600  0.326200  1.0  0.09
  C  C65  1  0.311600  0.591800  0.302500  1.0  -0.0419
  C  C66  1  0.376100  0.617900  0.401300  1.0  -0.0261
  C  C67  1  0.229000  0.494100  0.235900  1.0  -0.1277
  C  C68  1  0.074600  0.795300  0.583100  1.0  -0.0449
  C  C69  1  0.212800  0.423700  0.272200  1.0  -0.0492
  C  C70  1  0.862700  0.929500  0.862500  1.0  -0.0661
  C  C71  1  0.275100  0.447900  0.368600  1.0  -0.1342
  C  C72  1  0.955000  0.498800  0.638400  1.0  0.0112
  C  C73  1  0.700600  0.437800  0.213700  1.0  -0.0781
  C  C74  1  0.133400  0.889500  0.611500  1.0  -0.0773
  C  C75  1  0.779100  0.483500  0.310500  1.0  -0.0086
  C  C76  1  0.775100  0.441800  0.374600  1.0  -0.0263
  C  C77  1  0.779000  0.832500  0.814900  1.0  -0.1171
  C  C78  1  0.610300  0.345200  0.175900  1.0  -0.1034
  C  C79  1  0.360900  0.547100  0.436800  1.0  -0.0211
  C  C80  1  0.098700  0.743000  0.636300  1.0  -0.0154
  C  C81  1  0.486700  0.470600  0.726100  1.0  0.0827
  C  C82  1  0.682900  0.803600  0.738400  1.0  -0.0057
  C  C83  1  0.584600  0.635600  0.730400  1.0  -0.1004
  C  C84  1  0.197700  0.793300  0.718500  1.0  -0.2058
  C  C85  1  0.499000  0.538100  0.678000  1.0  0.0593
  C  C86  1  0.604300  0.303000  0.239700  1.0  -0.0322
  C  C87  1  0.685100  0.349600  0.337700  1.0  -0.1273
  C  C88  1  0.593800  0.698300  0.684700  1.0  0.2398
  C  C89  1  0.753200  0.974200  0.759500  1.0  -0.0529
  C  C90  1  0.966000  0.452100  0.707900  1.0  0.0909
  C  C91  1  0.863900  0.494300  0.480600  1.0  0.2246
  C  C92  1  0.536600  0.507900  0.829600  1.0  -0.1844
  C  C93  1  0.672400  0.879400  0.713300  1.0  -0.0858
  C  C94  1  0.235200  0.947500  0.701600  1.0  -0.0916
  C  C95  1  0.167200  0.462800  0.125000  1.0  0.6949
  C  C96  1  0.869200  0.446300  0.542100  1.0  -0.0937
  C  C97  1  0.850300  0.003600  0.835900  1.0  -0.0953
  C  C98  1  0.423700  0.365200  0.668700  1.0  -0.19
  C  C99  1  0.932600  0.349200  0.672200  1.0  -0.2122
  C  C100  1  0.436700  0.574300  0.539900  1.0  0.2138
  C  C101  1  0.519600  0.442200  0.870600  1.0  0.1769
  C  C102  1  0.011900  0.508000  0.809900  1.0  -0.1943
  C  C103  1  0.025700  0.465700  0.872500  1.0  0.1492
  C  C104  1  0.029200  0.595000  0.670100  1.0  -0.1328
  C  C105  1  0.521500  0.296500  0.072000  1.0  0.6883
  C  C106  1  0.424300  0.508100  0.580900  1.0  -0.1075
  C  C107  1  0.941500  0.107900  0.887000  1.0  0.6849
  C  C108  1  0.020700  0.639000  0.605700  1.0  0.146
  C  C109  1  0.265200  0.897700  0.749000  1.0  -0.0958
  C  C110  1  0.948500  0.310900  0.738900  1.0  0.1632
  C  C111  1  0.411100  0.305700  0.714300  1.0  0.1697
  C  C112  1  0.235200  0.275200  0.930200  1.0  0.6896
  C  C113  1  0.291400  0.051200  0.732900  1.0  0.6649
  C  C114  1  0.688400  0.408200  0.697500  1.0  -0.0421
  C  C115  1  0.623900  0.382100  0.598700  1.0  -0.027
  C  C116  1  0.771000  0.505900  0.764100  1.0  -0.1257
  C  C117  1  0.925400  0.204700  0.416900  1.0  -0.0452
  C  C118  1  0.787200  0.576300  0.727800  1.0  -0.0498
  C  C119  1  0.137300  0.070500  0.137500  1.0  -0.066
  C  C120  1  0.724900  0.552100  0.631400  1.0  -0.1347
  C  C121  1  0.045000  0.501200  0.361600  1.0  0.0112
  C  C122  1  0.299400  0.562200  0.786300  1.0  -0.0779
  C  C123  1  0.866600  0.110500  0.388500  1.0  -0.0765
  C  C124  1  0.220900  0.516500  0.689500  1.0  -0.0087
  C  C125  1  0.224900  0.558200  0.625400  1.0  -0.0262
  C  C126  1  0.221000  0.167500  0.185100  1.0  -0.117
  C  C127  1  0.389700  0.654800  0.824100  1.0  -0.1048
  C  C128  1  0.639100  0.452900  0.563200  1.0  -0.0206
  C  C129  1  0.901300  0.257000  0.363700  1.0  -0.0151
  C  C130  1  0.513300  0.529400  0.273900  1.0  0.0821
  C  C131  1  0.317100  0.196400  0.261600  1.0  -0.0057
  C  C132  1  0.415400  0.364400  0.269600  1.0  -0.0997
  C  C133  1  0.802300  0.206700  0.281500  1.0  -0.2053
  C  C134  1  0.501000  0.461900  0.322000  1.0  0.0594
  C  C135  1  0.395700  0.697000  0.760300  1.0  -0.0324
  C  C136  1  0.314900  0.650400  0.662300  1.0  -0.1288
  C  C137  1  0.406200  0.301700  0.315300  1.0  0.2389
  C  C138  1  0.246800  0.025800  0.240500  1.0  -0.0527
  C  C139  1  0.034000  0.547900  0.292100  1.0  0.0896
  C  C140  1  0.136100  0.505700  0.519400  1.0  0.2242
  C  C141  1  0.463400  0.492100  0.170400  1.0  -0.1848
  C  C142  1  0.327600  0.120600  0.286700  1.0  -0.0867
  C  C143  1  0.764800  0.052500  0.298400  1.0  -0.0909
  C  C144  1  0.832800  0.537200  0.875000  1.0  0.6952
  C  C145  1  0.130800  0.553700  0.457900  1.0  -0.0943
  C  C146  1  0.149700  0.996400  0.164100  1.0  -0.0935
  C  C147  1  0.576300  0.634800  0.331300  1.0  -0.1896
  C  C148  1  0.067400  0.650800  0.327800  1.0  -0.2116
  C  C149  1  0.563300  0.425700  0.460100  1.0  0.2145
  C  C150  1  0.480400  0.557800  0.129400  1.0  0.1776
  C  C151  1  0.988100  0.492000  0.190100  1.0  -0.1935
  C  C152  1  0.974300  0.534300  0.127500  1.0  0.1499
  C  C153  1  0.970800  0.405000  0.329900  1.0  -0.1306
  C  C154  1  0.478500  0.703500  0.928000  1.0  0.6872
  C  C155  1  0.575700  0.491900  0.419100  1.0  -0.1053
  C  C156  1  0.058500  0.892100  0.113000  1.0  0.6842
  C  C157  1  0.979300  0.361000  0.394300  1.0  0.1473
  C  C158  1  0.734800  0.102300  0.251000  1.0  -0.0966
  C  C159  1  0.051500  0.689100  0.261100  1.0  0.1621
  C  C160  1  0.588900  0.694300  0.285700  1.0  0.1702
  C  C161  1  0.764800  0.724800  0.069800  1.0  0.6903
  C  C162  1  0.708600  0.948800  0.267100  1.0  0.6646
  N  N163  1  0.994200  0.366400  0.837700  1.0  -0.318
  N  N164  1  0.457100  0.343200  0.815300  1.0  -0.3104
  N  N165  1  0.936600  0.587900  0.511800  1.0  -0.4703
  N  N166  1  0.234400  0.223100  0.982900  1.0  -0.7109
  N  N167  1  0.521000  0.669100  0.592200  1.0  -0.4499
  N  N168  1  0.205100  0.371600  0.866800  1.0  -0.0803
  N  N169  1  0.285300  0.367700  0.862500  1.0  -0.1159
  N  N170  1  0.305600  0.305300  0.901900  1.0  -0.3371
  N  N171  1  0.170700  0.313600  0.909200  1.0  -0.3673
  N  N172  1  0.005800  0.633600  0.162300  1.0  -0.3213
  N  N173  1  0.542900  0.656800  0.184700  1.0  -0.3111
  N  N174  1  0.063400  0.412100  0.488200  1.0  -0.4708
  N  N175  1  0.765600  0.776900  0.017100  1.0  -0.7095
  N  N176  1  0.479000  0.330900  0.407800  1.0  -0.4499
  N  N177  1  0.794900  0.628400  0.133200  1.0  -0.082
  N  N178  1  0.714700  0.632300  0.137500  1.0  -0.1175
  N  N179  1  0.694400  0.694700  0.098100  1.0  -0.3365
  N  N180  1  0.829300  0.686400  0.090800  1.0  -0.365
  O  O181  1  0.538100  0.324800  0.009300  1.0  -0.5941
  O  O182  1  0.924800  0.172100  0.859700  1.0  -0.5971
  O  O183  1  0.026000  0.129900  0.953300  1.0  -0.5368
  O  O184  1  0.191300  0.524300  0.094900  1.0  -0.5387
  O  O185  1  0.433900  0.229700  0.047800  1.0  -0.5931
  O  O186  1  0.092000  0.372900  0.071300  1.0  -0.5984
  O  O187  1  0.378600  0.105300  0.817100  1.0  -0.6121
  O  O188  1  0.260300  0.098900  0.687300  1.0  -0.4645
  O  O189  1  0.461900  0.675200  0.990700  1.0  -0.5949
  O  O190  1  0.075200  0.827900  0.140300  1.0  -0.596
  O  O191  1  0.974000  0.870100  0.046700  1.0  -0.5375
  O  O192  1  0.808700  0.475700  0.905100  1.0  -0.535
  O  O193  1  0.566100  0.770300  0.952200  1.0  -0.5915
  O  O194  1  0.908000  0.627100  0.928700  1.0  -0.5971
  O  O195  1  0.621400  0.894700  0.182900  1.0  -0.6132
  O  O196  1  0.739700  0.901100  0.312700  1.0  -0.4637
