# generated using pymatgen
data_ZnH14C13NO4
_symmetry_space_group_name_H-M   'P 1'
_cell_length_a   21.62380000
_cell_length_b   21.62380000
_cell_length_c   24.53880000
_cell_angle_alpha   116.14300000
_cell_angle_beta   116.14300000
_cell_angle_gamma   90.00100000
_symmetry_Int_Tables_number   1
_chemical_formula_structural   ZnH14C13NO4
_chemical_formula_sum   'Zn16 H224 C208 N16 O64'
_cell_volume   8974.11049902
_cell_formula_units_Z   16
loop_
 _symmetry_equiv_pos_site_id
 _symmetry_equiv_pos_as_xyz
  1  'x, y, z'
loop_
 _atom_site_type_symbol
 _atom_site_label
 _atom_site_symmetry_multiplicity
 _atom_site_fract_x
 _atom_site_fract_y
 _atom_site_fract_z
 _atom_site_occupancy
 _atom_site_charge
  Zn  Zn1  1  0.684600  0.440480  0.326850  1.0  0.9016
  Zn  Zn2  1  0.613630  0.357750  0.173150  1.0  0.8988
  Zn  Zn3  1  0.357750  0.059520  0.673150  1.0  0.8988
  Zn  Zn4  1  0.940480  0.184600  0.826850  1.0  0.9014
  Zn  Zn5  1  0.857750  0.113630  0.673150  1.0  0.9001
  Zn  Zn6  1  0.142250  0.886370  0.326850  1.0  0.9007
  Zn  Zn7  1  0.315400  0.559520  0.673150  1.0  0.9014
  Zn  Zn8  1  0.642250  0.940480  0.326850  1.0  0.9002
  Zn  Zn9  1  0.059520  0.815400  0.173150  1.0  0.9014
  Zn  Zn10  1  0.559520  0.857750  0.173150  1.0  0.9015
  Zn  Zn11  1  0.184600  0.386370  0.326850  1.0  0.9001
  Zn  Zn12  1  0.113630  0.315400  0.173150  1.0  0.8978
  Zn  Zn13  1  0.440480  0.142250  0.826850  1.0  0.9
  Zn  Zn14  1  0.886370  0.684600  0.826850  1.0  0.8991
  Zn  Zn15  1  0.815400  0.613630  0.673150  1.0  0.9005
  Zn  Zn16  1  0.386370  0.642250  0.826850  1.0  0.8993
  H  H17  1  0.254900  0.913400  0.563400  1.0  0.0766
  H  H18  1  0.446000  0.011200  0.413600  1.0  0.1329
  H  H19  1  0.908600  0.728200  0.048600  1.0  0.0748
  H  H20  1  0.786300  0.315400  0.153200  1.0  0.0993
  H  H21  1  0.294400  0.122500  0.883600  1.0  0.1213
  H  H22  1  0.590200  0.666000  0.155400  1.0  0.101
  H  H23  1  0.498300  0.959100  0.409400  1.0  0.1279
  H  H24  1  0.430200  0.166400  0.953600  1.0  0.0696
  H  H25  1  0.622500  0.794400  0.383600  1.0  0.1213
  H  H26  1  0.023400  0.787200  0.953600  1.0  0.0703
  H  H27  1  0.011200  0.467600  0.913600  1.0  0.1321
  H  H28  1  0.371500  0.005600  0.543400  1.0  0.0722
  H  H29  1  0.532400  0.597600  0.586400  1.0  0.1319
  H  H30  1  0.170700  0.757700  0.917600  1.0  0.1299
  H  H31  1  0.757700  0.246900  0.417600  1.0  0.1309
  H  H32  1  0.885700  0.513000  0.380400  1.0  0.1224
  H  H33  1  0.698500  0.057000  0.569600  1.0  0.0798
  H  H34  1  0.962200  0.828100  0.956600  1.0  0.0777
  H  H35  1  0.746900  0.257700  0.917600  1.0  0.1307
  H  H36  1  0.091400  0.271800  0.951400  1.0  0.0762
  H  H37  1  0.411100  0.450300  0.409400  1.0  0.1269
  H  H38  1  0.967600  0.511200  0.413600  1.0  0.1331
  H  H39  1  0.614300  0.632600  0.619600  1.0  0.122
  H  H40  1  0.934800  0.510600  0.844600  1.0  0.1006
  H  H41  1  0.301500  0.943000  0.430400  1.0  0.08
  H  H42  1  0.122500  0.089200  0.383600  1.0  0.1209
  H  H43  1  0.494700  0.013000  0.380400  1.0  0.1224
  H  H44  1  0.565200  0.166000  0.155400  1.0  0.1002
  H  H45  1  0.911100  0.459100  0.409400  1.0  0.1266
  H  H46  1  0.732300  0.990500  0.567400  1.0  0.0742
  H  H47  1  0.132600  0.114300  0.119600  1.0  0.1237
  H  H48  1  0.328100  0.462200  0.456600  1.0  0.0768
  H  H49  1  0.860000  0.771800  0.951400  1.0  0.0748
  H  H50  1  0.808500  0.650000  0.563400  1.0  0.0776
  H  H51  1  0.576900  0.732300  0.067400  1.0  0.0687
  H  H52  1  0.462200  0.628500  0.956600  1.0  0.0786
  H  H53  1  0.245100  0.850000  0.436600  1.0  0.0776
  H  H54  1  0.201800  0.795100  0.089800  1.0  0.1276
  H  H55  1  0.850000  0.691500  0.936600  1.0  0.0774
  H  H56  1  0.837800  0.786300  0.653200  1.0  0.1009
  H  H57  1  0.671900  0.537800  0.543400  1.0  0.0767
  H  H58  1  0.923100  0.164900  0.932600  1.0  0.0686
  H  H59  1  0.238900  0.705600  0.616400  1.0  0.1205
  H  H60  1  0.840100  0.829300  0.582400  1.0  0.1288
  H  H61  1  0.232300  0.076900  0.567400  1.0  0.075
  H  H62  1  0.871500  0.037800  0.543400  1.0  0.0765
  H  H63  1  0.164900  0.509500  0.432600  1.0  0.0729
  H  H64  1  0.877500  0.910800  0.616400  1.0  0.1186
  H  H65  1  0.005600  0.671900  0.043400  1.0  0.0783
  H  H66  1  0.815400  0.286300  0.653200  1.0  0.1
  H  H67  1  0.459100  0.998300  0.909400  1.0  0.1268
  H  H68  1  0.467600  0.402400  0.413600  1.0  0.1281
  H  H69  1  0.350000  0.745100  0.936600  1.0  0.0761
  H  H70  1  0.866900  0.837800  0.153200  1.0  0.1012
  H  H71  1  0.767700  0.923100  0.432600  1.0  0.0719
  H  H72  1  0.166000  0.090200  0.655400  1.0  0.1013
  H  H73  1  0.150000  0.308500  0.063400  1.0  0.0773
  H  H74  1  0.385700  0.367400  0.380400  1.0  0.1235
  H  H75  1  0.990500  0.335100  0.067400  1.0  0.072
  H  H76  1  0.662200  0.633100  0.346800  1.0  0.1006
  H  H77  1  0.069800  0.712800  0.046400  1.0  0.067
  H  H78  1  0.950300  0.911100  0.909400  1.0  0.1224
  H  H79  1  0.633100  0.184600  0.846800  1.0  0.1002
  H  H80  1  0.287200  0.523400  0.453600  1.0  0.0716
  H  H81  1  0.994400  0.328100  0.956600  1.0  0.0775
  H  H82  1  0.128900  0.443000  0.430400  1.0  0.0793
  H  H83  1  0.505300  0.987000  0.619600  1.0  0.1206
  H  H84  1  0.650000  0.254900  0.063400  1.0  0.0762
  H  H85  1  0.512600  0.698500  0.069600  1.0  0.0817
  H  H86  1  0.712800  0.476600  0.546400  1.0  0.0724
  H  H87  1  0.367400  0.494700  0.880400  1.0  0.122
  H  H88  1  0.959100  0.411100  0.909400  1.0  0.1264
  H  H89  1  0.828100  0.494400  0.456600  1.0  0.0763
  H  H90  1  0.787200  0.430200  0.453600  1.0  0.0703
  H  H91  1  0.871100  0.557000  0.569600  1.0  0.0786
  H  H92  1  0.205300  0.112000  0.410200  1.0  0.1221
  H  H93  1  0.684600  0.133100  0.346800  1.0  0.0997
  H  H94  1  0.133100  0.162200  0.846800  1.0  0.1003
  H  H95  1  0.943000  0.628900  0.930400  1.0  0.0781
  H  H96  1  0.705300  0.798200  0.410200  1.0  0.1262
  H  H97  1  0.204900  0.612000  0.410200  1.0  0.1265
  H  H98  1  0.588900  0.549700  0.590600  1.0  0.1271
  H  H99  1  0.334000  0.934800  0.344600  1.0  0.1006
  H  H100  1  0.554000  0.988800  0.586400  1.0  0.1321
  H  H101  1  0.612000  0.705300  0.910200  1.0  0.1276
  H  H102  1  0.191500  0.350000  0.436600  1.0  0.0777
  H  H103  1  0.009500  0.664900  0.932600  1.0  0.0727
  H  H104  1  0.994700  0.867400  0.380400  1.0  0.1231
  H  H105  1  0.128500  0.962200  0.456600  1.0  0.0764
  H  H106  1  0.413400  0.754900  0.063400  1.0  0.0777
  H  H107  1  0.632600  0.505300  0.119600  1.0  0.1216
  H  H108  1  0.315400  0.866900  0.653200  1.0  0.1001
  H  H109  1  0.257700  0.670700  0.417600  1.0  0.13
  H  H110  1  0.640000  0.320400  0.048600  1.0  0.0729
  H  H111  1  0.286300  0.337800  0.153200  1.0  0.1003
  H  H112  1  0.443000  0.801500  0.930400  1.0  0.0812
  H  H113  1  0.333600  0.069800  0.546400  1.0  0.068
  H  H114  1  0.801500  0.987400  0.430400  1.0  0.0814
  H  H115  1  0.628900  0.487400  0.430400  1.0  0.0775
  H  H116  1  0.798200  0.204900  0.910200  1.0  0.1272
  H  H117  1  0.337800  0.366900  0.653200  1.0  0.1011
  H  H118  1  0.329300  0.340100  0.082400  1.0  0.1299
  H  H119  1  0.987400  0.128900  0.930400  1.0  0.0771
  H  H120  1  0.742300  0.329300  0.582400  1.0  0.1272
  H  H121  1  0.159900  0.170700  0.417600  1.0  0.1295
  H  H122  1  0.989400  0.565200  0.655400  1.0  0.1005
  H  H123  1  0.666000  0.065200  0.655400  1.0  0.1009
  H  H124  1  0.713700  0.662200  0.846800  1.0  0.0997
  H  H125  1  0.833600  0.976600  0.546400  1.0  0.0707
  H  H126  1  0.666400  0.930200  0.453600  1.0  0.0676
  H  H127  1  0.820400  0.140000  0.548600  1.0  0.074
  H  H128  1  0.510600  0.409800  0.344600  1.0  0.1005
  H  H129  1  0.704900  0.298200  0.410200  1.0  0.126
  H  H130  1  0.705600  0.877500  0.116400  1.0  0.1214
  H  H131  1  0.761100  0.294400  0.383600  1.0  0.1191
  H  H132  1  0.294700  0.201800  0.589800  1.0  0.1257
  H  H133  1  0.213700  0.684600  0.846800  1.0  0.0983
  H  H134  1  0.867400  0.885700  0.880400  1.0  0.1241
  H  H135  1  0.114300  0.487000  0.619600  1.0  0.1215
  H  H136  1  0.253100  0.742300  0.082400  1.0  0.1299
  H  H137  1  0.005300  0.132600  0.619600  1.0  0.1237
  H  H138  1  0.040900  0.588900  0.090600  1.0  0.1272
  H  H139  1  0.409800  0.334000  0.844600  1.0  0.101
  H  H140  1  0.537800  0.371500  0.043400  1.0  0.077
  H  H141  1  0.794700  0.888000  0.589800  1.0  0.1226
  H  H142  1  0.745100  0.086600  0.436600  1.0  0.0769
  H  H143  1  0.834000  0.909800  0.344600  1.0  0.1003
  H  H144  1  0.205600  0.738900  0.116400  1.0  0.1192
  H  H145  1  0.012600  0.871100  0.069600  1.0  0.0782
  H  H146  1  0.523400  0.666400  0.953600  1.0  0.0703
  H  H147  1  0.340100  0.253100  0.582400  1.0  0.1299
  H  H148  1  0.597600  0.554000  0.086400  1.0  0.132
  H  H149  1  0.089200  0.761100  0.883600  1.0  0.1196
  H  H150  1  0.086600  0.191500  0.936600  1.0  0.0776
  H  H151  1  0.242300  0.753100  0.582400  1.0  0.1308
  H  H152  1  0.410800  0.377500  0.116400  1.0  0.1193
  H  H153  1  0.794400  0.261100  0.883600  1.0  0.1191
  H  H154  1  0.509500  0.767700  0.932600  1.0  0.0734
  H  H155  1  0.065200  0.489400  0.155400  1.0  0.1007
  H  H156  1  0.212800  0.569800  0.546400  1.0  0.0697
  H  H157  1  0.664900  0.423100  0.432600  1.0  0.0696
  H  H158  1  0.010600  0.434800  0.344600  1.0  0.0995
  H  H159  1  0.487000  0.005300  0.119600  1.0  0.1214
  H  H160  1  0.246900  0.159900  0.917600  1.0  0.1295
  H  H161  1  0.679600  0.091400  0.451400  1.0  0.0726
  H  H162  1  0.179600  0.860000  0.451400  1.0  0.0749
  H  H163  1  0.298200  0.205300  0.910200  1.0  0.128
  H  H164  1  0.501700  0.040900  0.590600  1.0  0.1275
  H  H165  1  0.295100  0.701800  0.589800  1.0  0.1267
  H  H166  1  0.888000  0.295100  0.089800  1.0  0.1275
  H  H167  1  0.795100  0.388000  0.589800  1.0  0.1267
  H  H168  1  0.910800  0.238900  0.116400  1.0  0.1195
  H  H169  1  0.754900  0.150000  0.563400  1.0  0.0772
  H  H170  1  0.738900  0.410800  0.616400  1.0  0.1188
  H  H171  1  0.557000  0.198500  0.069600  1.0  0.0813
  H  H172  1  0.946000  0.902400  0.413600  1.0  0.1301
  H  H173  1  0.691500  0.586600  0.436600  1.0  0.0712
  H  H174  1  0.586600  0.245100  0.936600  1.0  0.0781
  H  H175  1  0.540900  0.001700  0.090600  1.0  0.1269
  H  H176  1  0.097600  0.032400  0.086400  1.0  0.1304
  H  H177  1  0.037800  0.171900  0.043400  1.0  0.0772
  H  H178  1  0.591400  0.179600  0.951400  1.0  0.0746
  H  H179  1  0.090200  0.989400  0.155400  1.0  0.101
  H  H180  1  0.489400  0.590200  0.655400  1.0  0.1004
  H  H181  1  0.408600  0.820400  0.048600  1.0  0.0759
  H  H182  1  0.987000  0.614300  0.119600  1.0  0.1232
  H  H183  1  0.261100  0.589200  0.383600  1.0  0.1196
  H  H184  1  0.166400  0.023400  0.453600  1.0  0.0716
  H  H185  1  0.377500  0.205600  0.616400  1.0  0.1206
  H  H186  1  0.402400  0.446000  0.913600  1.0  0.1304
  H  H187  1  0.913400  0.808500  0.063400  1.0  0.0771
  H  H188  1  0.513000  0.994700  0.880400  1.0  0.1228
  H  H189  1  0.835100  0.490500  0.567400  1.0  0.073
  H  H190  1  0.902400  0.967600  0.913600  1.0  0.1311
  H  H191  1  0.423100  0.267700  0.932600  1.0  0.0704
  H  H192  1  0.476600  0.333600  0.046400  1.0  0.0708
  H  H193  1  0.054000  0.097600  0.586400  1.0  0.1304
  H  H194  1  0.930200  0.287200  0.953600  1.0  0.0673
  H  H195  1  0.728200  0.640000  0.548600  1.0  0.075
  H  H196  1  0.909800  0.010600  0.844600  1.0  0.1001
  H  H197  1  0.320400  0.908600  0.548600  1.0  0.0708
  H  H198  1  0.366900  0.815400  0.153200  1.0  0.1008
  H  H199  1  0.589200  0.622500  0.883600  1.0  0.1202
  H  H200  1  0.701800  0.794700  0.089800  1.0  0.1278
  H  H201  1  0.371100  0.512600  0.569600  1.0  0.0747
  H  H202  1  0.569800  0.833600  0.046400  1.0  0.069
  H  H203  1  0.628500  0.994400  0.456600  1.0  0.0743
  H  H204  1  0.076900  0.835100  0.067400  1.0  0.0672
  H  H205  1  0.976600  0.212800  0.046400  1.0  0.0697
  H  H206  1  0.308500  0.413400  0.563400  1.0  0.0704
  H  H207  1  0.753100  0.840100  0.082400  1.0  0.1299
  H  H208  1  0.001700  0.049700  0.590600  1.0  0.128
  H  H209  1  0.388000  0.294700  0.089800  1.0  0.1254
  H  H210  1  0.998300  0.950300  0.409400  1.0  0.1273
  H  H211  1  0.267700  0.009500  0.432600  1.0  0.073
  H  H212  1  0.140000  0.228200  0.048600  1.0  0.0734
  H  H213  1  0.057000  0.371100  0.069600  1.0  0.0781
  H  H214  1  0.659900  0.746900  0.417600  1.0  0.13
  H  H215  1  0.013000  0.385700  0.880400  1.0  0.1229
  H  H216  1  0.271800  0.360000  0.451400  1.0  0.0762
  H  H217  1  0.488800  0.054000  0.086400  1.0  0.1328
  H  H218  1  0.228200  0.408600  0.548600  1.0  0.0759
  H  H219  1  0.171900  0.505600  0.543400  1.0  0.0769
  H  H220  1  0.487400  0.301500  0.930400  1.0  0.081
  H  H221  1  0.032400  0.488800  0.586400  1.0  0.1318
  H  H222  1  0.494400  0.128500  0.956600  1.0  0.0786
  H  H223  1  0.088900  0.540900  0.590600  1.0  0.127
  H  H224  1  0.670700  0.659900  0.917600  1.0  0.1284
  H  H225  1  0.360000  0.679600  0.951400  1.0  0.0735
  H  H226  1  0.049700  0.088900  0.090600  1.0  0.1257
  H  H227  1  0.511200  0.946000  0.913600  1.0  0.1325
  H  H228  1  0.829300  0.242300  0.082400  1.0  0.1287
  H  H229  1  0.988800  0.532400  0.086400  1.0  0.1298
  H  H230  1  0.771800  0.591400  0.451400  1.0  0.0747
  H  H231  1  0.198500  0.012600  0.569600  1.0  0.081
  H  H232  1  0.505600  0.871500  0.043400  1.0  0.0776
  H  H233  1  0.490500  0.232300  0.067400  1.0  0.0729
  H  H234  1  0.549700  0.501700  0.090600  1.0  0.1252
  H  H235  1  0.335100  0.576900  0.567400  1.0  0.0725
  H  H236  1  0.434800  0.834000  0.844600  1.0  0.1002
  H  H237  1  0.162200  0.213700  0.346800  1.0  0.1004
  H  H238  1  0.184600  0.713700  0.346800  1.0  0.0994
  H  H239  1  0.450300  0.498300  0.909400  1.0  0.1254
  H  H240  1  0.112000  0.704900  0.910200  1.0  0.1277
  C  C241  1  0.841150  0.878600  0.611560  1.0  -0.3968
  C  C242  1  0.905990  0.426650  0.314700  1.0  0.1235
  C  C243  1  0.390410  0.358520  0.182740  1.0  0.1183
  C  C244  1  0.147690  0.167540  0.307900  1.0  -0.0966
  C  C245  1  0.104970  0.035580  0.194360  1.0  -0.1222
  C  C246  1  0.467130  0.982430  0.385820  1.0  -0.3863
  C  C247  1  0.825110  0.012420  0.530740  1.0  -0.0692
  C  C248  1  0.118650  0.041630  0.257740  1.0  -0.0411
  C  C249  1  0.609590  0.641480  0.817260  1.0  0.1193
  C  C250  1  0.770410  0.378600  0.611560  1.0  -0.3952
  C  C251  1  0.783890  0.881350  0.242260  1.0  -0.0396
  C  C252  1  0.722840  0.023570  0.548380  1.0  -0.0744
  C  C253  1  0.885500  0.736590  0.960760  1.0  -0.0701
  C  C254  1  0.895030  0.964420  0.805640  1.0  -0.1226
  C  C255  1  0.035580  0.589390  0.694360  1.0  -0.1234
  C  C256  1  0.133710  0.161610  0.244180  1.0  -0.0896
  C  C257  1  0.850660  0.526490  0.740340  1.0  0.6836
  C  C258  1  0.017570  0.581310  0.114180  1.0  -0.3885
  C  C259  1  0.270010  0.358180  0.257440  1.0  0.6937
  C  C260  1  0.724170  0.075260  0.460760  1.0  -0.0714
  C  C261  1  0.081310  0.517570  0.614180  1.0  -0.3904
  C  C262  1  0.976430  0.674460  0.951620  1.0  -0.0771
  C  C263  1  0.236590  0.385500  0.460760  1.0  -0.0666
  C  C264  1  0.852310  0.832460  0.692100  1.0  -0.0954
  C  C265  1  0.140360  0.147690  0.807900  1.0  -0.1005
  C  C266  1  0.908710  0.888050  0.314700  1.0  0.1226
  C  C267  1  0.591290  0.073350  0.685300  1.0  0.1231
  C  C268  1  0.903390  0.918690  0.885820  1.0  -0.3895
  C  C269  1  0.777160  0.975190  0.451620  1.0  -0.0767
  C  C270  1  0.640360  0.160210  0.807900  1.0  -0.0976
  C  C271  1  0.338390  0.366290  0.255820  1.0  -0.0853
  C  C272  1  0.713850  0.889680  0.240340  1.0  0.6802
  C  C273  1  0.482430  0.967130  0.885820  1.0  -0.3892
  C  C274  1  0.359640  0.839790  0.192100  1.0  -0.0965
  C  C275  1  0.381350  0.283890  0.742260  1.0  -0.041
  C  C276  1  0.100740  0.729990  0.242560  1.0  0.6961
  C  C277  1  0.175780  0.609590  0.317260  1.0  0.118
  C  C278  1  0.618650  0.716110  0.257740  1.0  -0.0419
  C  C279  1  0.707670  0.175780  0.817260  1.0  0.1189
  C  C280  1  0.012570  0.141820  0.742560  1.0  0.6937
  C  C281  1  0.975190  0.174460  0.951620  1.0  -0.0727
  C  C282  1  0.075260  0.236590  0.960760  1.0  -0.0717
  C  C283  1  0.388050  0.408710  0.814700  1.0  0.1235
  C  C284  1  0.109590  0.675780  0.817260  1.0  0.1182
  C  C285  1  0.277160  0.976430  0.451620  1.0  -0.0743
  C  C286  1  0.832460  0.339790  0.192100  1.0  -0.0965
  C  C287  1  0.582570  0.110470  0.744180  1.0  -0.0879
  C  C288  1  0.158850  0.121400  0.388440  1.0  -0.3963
  C  C289  1  0.881350  0.958370  0.742260  1.0  -0.0422
  C  C290  1  0.917430  0.866290  0.255820  1.0  -0.0884
  C  C291  1  0.018320  0.705630  0.030740  1.0  -0.0683
  C  C292  1  0.358180  0.487430  0.757440  1.0  0.697
  C  C293  1  0.073350  0.594010  0.185300  1.0  0.123
  C  C294  1  0.890410  0.324220  0.182740  1.0  0.1175
  C  C295  1  0.716110  0.139090  0.757740  1.0  -0.0394
  C  C296  1  0.096610  0.081310  0.114180  1.0  -0.3912
  C  C297  1  0.216110  0.118650  0.757740  1.0  -0.037
  C  C298  1  0.424740  0.775830  0.039240  1.0  -0.0729
  C  C299  1  0.263410  0.424740  0.539240  1.0  -0.0753
  C  C300  1  0.573350  0.091290  0.185300  1.0  0.1232
  C  C301  1  0.232960  0.770410  0.111560  1.0  -0.395
  C  C302  1  0.639090  0.216110  0.257740  1.0  -0.0413
  C  C303  1  0.174890  0.987580  0.469260  1.0  -0.069
  C  C304  1  0.641820  0.512570  0.242560  1.0  0.6966
  C  C305  1  0.535580  0.604970  0.694360  1.0  -0.1239
  C  C306  1  0.408710  0.926650  0.314700  1.0  0.1241
  C  C307  1  0.926650  0.405990  0.814700  1.0  0.125
  C  C308  1  0.729990  0.641820  0.742560  1.0  0.6943
  C  C309  1  0.866290  0.838390  0.755820  1.0  -0.087
  C  C310  1  0.658780  0.089390  0.694360  1.0  -0.1246
  C  C311  1  0.141820  0.229990  0.242560  1.0  0.6945
  C  C312  1  0.089390  0.535580  0.194360  1.0  -0.1251
  C  C313  1  0.378600  0.341150  0.111560  1.0  -0.3948
  C  C314  1  0.524810  0.722840  0.048380  1.0  -0.0745
  C  C315  1  0.399260  0.987430  0.757440  1.0  0.6957
  C  C316  1  0.523570  0.222840  0.048380  1.0  -0.0799
  C  C317  1  0.403390  0.467130  0.885820  1.0  -0.3902
  C  C318  1  0.987580  0.794370  0.969260  1.0  -0.0703
  C  C319  1  0.149340  0.473510  0.259660  1.0  0.6836
  C  C320  1  0.899260  0.270010  0.757440  1.0  0.6968
  C  C321  1  0.418690  0.403390  0.385820  1.0  -0.3912
  C  C322  1  0.610320  0.786150  0.259660  1.0  0.6839
  C  C323  1  0.792330  0.858520  0.182740  1.0  0.1181
  C  C324  1  0.910610  0.464420  0.805640  1.0  -0.125
  C  C325  1  0.512420  0.325110  0.030740  1.0  -0.07
  C  C326  1  0.325110  0.018320  0.530740  1.0  -0.0668
  C  C327  1  0.366290  0.417430  0.755820  1.0  -0.0903
  C  C328  1  0.213850  0.850660  0.240340  1.0  0.6818
  C  C329  1  0.838390  0.389530  0.255820  1.0  -0.0876
  C  C330  1  0.858520  0.890410  0.682740  1.0  0.1172
  C  C331  1  0.858180  0.770010  0.757440  1.0  0.695
  C  C332  1  0.286150  0.110320  0.759660  1.0  0.6806
  C  C333  1  0.964420  0.410610  0.305640  1.0  -0.124
  C  C334  1  0.352310  0.359640  0.692100  1.0  -0.0966
  C  C335  1  0.174460  0.476430  0.451620  1.0  -0.0738
  C  C336  1  0.350660  0.713850  0.740340  1.0  0.6815
  C  C337  1  0.973510  0.649340  0.759660  1.0  0.6809
  C  C338  1  0.621400  0.658850  0.888440  1.0  -0.3962
  C  C339  1  0.824220  0.390410  0.682740  1.0  0.1166
  C  C340  1  0.794370  0.481680  0.469260  1.0  -0.0695
  C  C341  1  0.487430  0.899260  0.257440  1.0  0.6944
  C  C342  1  0.161610  0.610470  0.744180  1.0  -0.0869
  C  C343  1  0.487580  0.674890  0.969260  1.0  -0.0693
  C  C344  1  0.775830  0.114500  0.539240  1.0  -0.0688
  C  C345  1  0.674460  0.475190  0.451620  1.0  -0.0726
  C  C346  1  0.918690  0.482430  0.385820  1.0  -0.39
  C  C347  1  0.222840  0.024810  0.548380  1.0  -0.077
  C  C348  1  0.160210  0.667540  0.307900  1.0  -0.0984
  C  C349  1  0.267040  0.158850  0.888440  1.0  -0.3987
  C  C350  1  0.647690  0.640360  0.307900  1.0  -0.0988
  C  C351  1  0.270410  0.732960  0.611560  1.0  -0.3949
  C  C352  1  0.575260  0.224170  0.960760  1.0  -0.0711
  C  C353  1  0.294370  0.487580  0.469260  1.0  -0.0685
  C  C354  1  0.114500  0.263410  0.039240  1.0  -0.0724
  C  C355  1  0.600740  0.012570  0.242560  1.0  0.6953
  C  C356  1  0.464420  0.395030  0.305640  1.0  -0.1243
  C  C357  1  0.325540  0.524810  0.548380  1.0  -0.0743
  C  C358  1  0.229590  0.621400  0.388440  1.0  -0.3961
  C  C359  1  0.633710  0.582570  0.244180  1.0  -0.0886
  C  C360  1  0.229990  0.600740  0.742560  1.0  0.6933
  C  C361  1  0.967130  0.903390  0.385820  1.0  -0.3912
  C  C362  1  0.981680  0.294370  0.969260  1.0  -0.0747
  C  C363  1  0.641480  0.707670  0.317260  1.0  0.1181
  C  C364  1  0.860910  0.458370  0.742260  1.0  -0.0418
  C  C365  1  0.667540  0.647690  0.807900  1.0  -0.0979
  C  C366  1  0.705630  0.512420  0.530740  1.0  -0.0702
  C  C367  1  0.091290  0.111950  0.685300  1.0  0.1233
  C  C368  1  0.786150  0.149340  0.759660  1.0  0.68
  C  C369  1  0.770010  0.399260  0.257440  1.0  0.6942
  C  C370  1  0.594010  0.611950  0.685300  1.0  0.124
  C  C371  1  0.825540  0.523570  0.548380  1.0  -0.0721
  C  C372  1  0.110320  0.973510  0.259660  1.0  0.6812
  C  C373  1  0.341150  0.232960  0.611560  1.0  -0.3976
  C  C374  1  0.661610  0.633710  0.744180  1.0  -0.0858
  C  C375  1  0.589390  0.158780  0.194360  1.0  -0.1239
  C  C376  1  0.878600  0.270410  0.111560  1.0  -0.3951
  C  C377  1  0.324220  0.792330  0.682740  1.0  0.1179
  C  C378  1  0.385500  0.724170  0.960760  1.0  -0.0692
  C  C379  1  0.526490  0.389680  0.240340  1.0  0.6802
  C  C380  1  0.481680  0.174890  0.969260  1.0  -0.0698
  C  C381  1  0.167540  0.660210  0.807900  1.0  -0.0958
  C  C382  1  0.389530  0.917430  0.755820  1.0  -0.0879
  C  C383  1  0.475190  0.277160  0.951620  1.0  -0.0751
  C  C384  1  0.518320  0.825110  0.030740  1.0  -0.0688
  C  C385  1  0.604970  0.658780  0.194360  1.0  -0.1255
  C  C386  1  0.283890  0.860910  0.242260  1.0  -0.0371
  C  C387  1  0.360910  0.783890  0.742260  1.0  -0.0402
  C  C388  1  0.476430  0.777160  0.951620  1.0  -0.074
  C  C389  1  0.729590  0.267040  0.388440  1.0  -0.3961
  C  C390  1  0.012420  0.205630  0.030740  1.0  -0.0711
  C  C391  1  0.024810  0.825540  0.048380  1.0  -0.0747
  C  C392  1  0.339790  0.859640  0.692100  1.0  -0.0986
  C  C393  1  0.026490  0.350660  0.240340  1.0  0.6807
  C  C394  1  0.224170  0.885500  0.460760  1.0  -0.0677
  C  C395  1  0.405990  0.388050  0.314700  1.0  0.1241
  C  C396  1  0.341220  0.910610  0.305640  1.0  -0.129
  C  C397  1  0.958370  0.360910  0.242260  1.0  -0.0404
  C  C398  1  0.763410  0.614500  0.539240  1.0  -0.0682
  C  C399  1  0.924740  0.763410  0.039240  1.0  -0.0731
  C  C400  1  0.389680  0.213850  0.740340  1.0  0.6849
  C  C401  1  0.982430  0.418690  0.885820  1.0  -0.3889
  C  C402  1  0.410610  0.841220  0.805640  1.0  -0.1258
  C  C403  1  0.888050  0.905990  0.814700  1.0  0.1248
  C  C404  1  0.292330  0.824220  0.182740  1.0  0.118
  C  C405  1  0.395030  0.341220  0.805640  1.0  -0.128
  C  C406  1  0.732960  0.841150  0.111560  1.0  -0.3988
  C  C407  1  0.111950  0.094010  0.185300  1.0  0.1244
  C  C408  1  0.473510  0.610320  0.759660  1.0  0.6811
  C  C409  1  0.139090  0.541630  0.257740  1.0  -0.0419
  C  C410  1  0.610470  0.082570  0.244180  1.0  -0.0878
  C  C411  1  0.581310  0.596610  0.614180  1.0  -0.3906
  C  C412  1  0.532870  0.017570  0.614180  1.0  -0.3911
  C  C413  1  0.839790  0.332460  0.692100  1.0  -0.0983
  C  C414  1  0.889530  0.338390  0.755820  1.0  -0.0881
  C  C415  1  0.275830  0.924740  0.539240  1.0  -0.0738
  C  C416  1  0.675780  0.207670  0.317260  1.0  0.1179
  C  C417  1  0.082570  0.133710  0.744180  1.0  -0.0884
  C  C418  1  0.041630  0.639090  0.757740  1.0  -0.0404
  C  C419  1  0.614500  0.275830  0.039240  1.0  -0.0693
  C  C420  1  0.767040  0.229590  0.888440  1.0  -0.3954
  C  C421  1  0.541630  0.618650  0.757740  1.0  -0.0403
  C  C422  1  0.426650  0.908710  0.814700  1.0  0.1242
  C  C423  1  0.332460  0.352310  0.192100  1.0  -0.0977
  C  C424  1  0.417430  0.889530  0.255820  1.0  -0.0883
  C  C425  1  0.517570  0.032870  0.114180  1.0  -0.3902
  C  C426  1  0.023570  0.325540  0.048380  1.0  -0.0753
  C  C427  1  0.207670  0.141480  0.817260  1.0  0.1193
  C  C428  1  0.859640  0.852310  0.192100  1.0  -0.0974
  C  C429  1  0.987430  0.858180  0.257440  1.0  0.6944
  C  C430  1  0.649340  0.286150  0.259660  1.0  0.6822
  C  C431  1  0.674890  0.981680  0.469260  1.0  -0.0662
  C  C432  1  0.032870  0.096610  0.614180  1.0  -0.3921
  C  C433  1  0.358520  0.292330  0.682740  1.0  0.1179
  C  C434  1  0.110470  0.661610  0.244180  1.0  -0.0907
  C  C435  1  0.458370  0.381350  0.242260  1.0  -0.04
  C  C436  1  0.841220  0.895030  0.305640  1.0  -0.1297
  C  C437  1  0.141480  0.109590  0.317260  1.0  0.1192
  C  C438  1  0.736590  0.575260  0.460760  1.0  -0.0738
  C  C439  1  0.658850  0.767040  0.388440  1.0  -0.397
  C  C440  1  0.660210  0.140360  0.307900  1.0  -0.097
  C  C441  1  0.889680  0.026490  0.740340  1.0  0.6804
  C  C442  1  0.611950  0.591290  0.185300  1.0  0.1245
  C  C443  1  0.121400  0.729590  0.888440  1.0  -0.3949
  C  C444  1  0.094010  0.573350  0.685300  1.0  0.1227
  C  C445  1  0.158780  0.104970  0.694360  1.0  -0.1279
  C  C446  1  0.512570  0.100740  0.742560  1.0  0.6953
  C  C447  1  0.205630  0.518320  0.530740  1.0  -0.0704
  C  C448  1  0.596610  0.532870  0.114180  1.0  -0.3923
  N  N449  1  0.497300  0.208270  0.933160  1.0  -0.2299
  N  N450  1  0.064140  0.275110  0.066840  1.0  -0.2323
  N  N451  1  0.724890  0.497300  0.433160  1.0  -0.2297
  N  N452  1  0.708270  0.997300  0.433160  1.0  -0.232
  N  N453  1  0.002700  0.775110  0.066840  1.0  -0.2293
  N  N454  1  0.224890  0.435860  0.433160  1.0  -0.2311
  N  N455  1  0.775110  0.564140  0.566840  1.0  -0.2306
  N  N456  1  0.935860  0.724890  0.933160  1.0  -0.233
  N  N457  1  0.435860  0.708270  0.933160  1.0  -0.2324
  N  N458  1  0.502700  0.791730  0.066840  1.0  -0.2297
  N  N459  1  0.564140  0.291730  0.066840  1.0  -0.2318
  N  N460  1  0.791730  0.064140  0.566840  1.0  -0.2315
  N  N461  1  0.275110  0.502700  0.566840  1.0  -0.2297
  N  N462  1  0.208270  0.935860  0.433160  1.0  -0.2321
  N  N463  1  0.291730  0.002700  0.566840  1.0  -0.2315
  N  N464  1  0.997300  0.224890  0.933160  1.0  -0.2297
  O  O465  1  0.686290  0.516240  0.299680  1.0  -0.6031
  O  O466  1  0.896690  0.770300  0.814080  1.0  -0.5746
  O  O467  1  0.473300  0.652480  0.815280  1.0  -0.5742
  O  O468  1  0.396690  0.543780  0.814080  1.0  -0.5732
  O  O469  1  0.603310  0.456220  0.185920  1.0  -0.5735
  O  O470  1  0.886610  0.216560  0.700320  1.0  -0.6044
  O  O471  1  0.662800  0.341980  0.315280  1.0  -0.5751
  O  O472  1  0.313710  0.483760  0.700320  1.0  -0.6027
  O  O473  1  0.337200  0.658020  0.684720  1.0  -0.5748
  O  O474  1  0.082610  0.729700  0.185920  1.0  -0.5758
  O  O475  1  0.857520  0.578580  0.795160  1.0  -0.5867
  O  O476  1  0.016240  0.186290  0.799680  1.0  -0.6036
  O  O477  1  0.543780  0.917390  0.314080  1.0  -0.5735
  O  O478  1  0.341980  0.152480  0.815280  1.0  -0.5741
  O  O479  1  0.357520  0.716580  0.795160  1.0  -0.5881
  O  O480  1  0.062360  0.921420  0.204840  1.0  -0.5873
  O  O481  1  0.729700  0.603310  0.685920  1.0  -0.5759
  O  O482  1  0.216560  0.313710  0.200320  1.0  -0.6048
  O  O483  1  0.841980  0.162800  0.815280  1.0  -0.574
  O  O484  1  0.642480  0.283420  0.204840  1.0  -0.5877
  O  O485  1  0.716560  0.386610  0.200320  1.0  -0.6042
  O  O486  1  0.613390  0.016240  0.299680  1.0  -0.6047
  O  O487  1  0.917390  0.270300  0.814080  1.0  -0.5756
  O  O488  1  0.421420  0.562360  0.704840  1.0  -0.5888
  O  O489  1  0.652480  0.841980  0.315280  1.0  -0.5743
  O  O490  1  0.142480  0.421420  0.204840  1.0  -0.5879
  O  O491  1  0.417390  0.043780  0.814080  1.0  -0.5744
  O  O492  1  0.283420  0.062360  0.704840  1.0  -0.587
  O  O493  1  0.937640  0.078580  0.795160  1.0  -0.5874
  O  O494  1  0.186290  0.283440  0.299680  1.0  -0.6046
  O  O495  1  0.582610  0.956220  0.185920  1.0  -0.574
  O  O496  1  0.783440  0.686290  0.799680  1.0  -0.6059
  O  O497  1  0.270300  0.396690  0.314080  1.0  -0.5752
  O  O498  1  0.483760  0.886610  0.200320  1.0  -0.6046
  O  O499  1  0.983760  0.813710  0.200320  1.0  -0.6041
  O  O500  1  0.813710  0.716560  0.700320  1.0  -0.6024
  O  O501  1  0.783420  0.142480  0.704840  1.0  -0.5873
  O  O502  1  0.283440  0.613390  0.799680  1.0  -0.6048
  O  O503  1  0.103310  0.229700  0.185920  1.0  -0.5749
  O  O504  1  0.043780  0.896690  0.314080  1.0  -0.5737
  O  O505  1  0.026700  0.337200  0.184720  1.0  -0.573
  O  O506  1  0.562360  0.783420  0.204840  1.0  -0.5863
  O  O507  1  0.921420  0.642480  0.704840  1.0  -0.5865
  O  O508  1  0.347520  0.158020  0.684720  1.0  -0.5745
  O  O509  1  0.386610  0.983760  0.700320  1.0  -0.6044
  O  O510  1  0.437640  0.216580  0.795160  1.0  -0.5868
  O  O511  1  0.162800  0.473300  0.315280  1.0  -0.574
  O  O512  1  0.847520  0.026700  0.684720  1.0  -0.5723
  O  O513  1  0.837200  0.526700  0.684720  1.0  -0.574
  O  O514  1  0.526700  0.347520  0.184720  1.0  -0.5747
  O  O515  1  0.152480  0.973300  0.315280  1.0  -0.5731
  O  O516  1  0.516240  0.113390  0.799680  1.0  -0.6055
  O  O517  1  0.216580  0.857520  0.295160  1.0  -0.5884
  O  O518  1  0.158020  0.837200  0.184720  1.0  -0.5747
  O  O519  1  0.078580  0.357520  0.295160  1.0  -0.5865
  O  O520  1  0.770300  0.417390  0.314080  1.0  -0.5748
  O  O521  1  0.973300  0.662800  0.815280  1.0  -0.5735
  O  O522  1  0.229700  0.582610  0.685920  1.0  -0.5752
  O  O523  1  0.578580  0.437640  0.295160  1.0  -0.5883
  O  O524  1  0.956220  0.103310  0.685920  1.0  -0.5744
  O  O525  1  0.716580  0.937640  0.295160  1.0  -0.5874
  O  O526  1  0.658020  0.847520  0.184720  1.0  -0.5746
  O  O527  1  0.456220  0.082610  0.685920  1.0  -0.5729
  O  O528  1  0.113390  0.783440  0.299680  1.0  -0.6046
