# generated using pymatgen
data_ZnH2(C3O2)2
_symmetry_space_group_name_H-M   'P 1'
_cell_length_a   26.53600000
_cell_length_b   26.53600000
_cell_length_c   26.53600000
_cell_angle_alpha   90.00000000
_cell_angle_beta   90.00000000
_cell_angle_gamma   90.00000000
_symmetry_Int_Tables_number   1
_chemical_formula_structural   ZnH2(C3O2)2
_chemical_formula_sum   'Zn48 H96 C288 O192'
_cell_volume   18685.57107866
_cell_formula_units_Z   48
loop_
 _symmetry_equiv_pos_site_id
 _symmetry_equiv_pos_as_xyz
  1  'x, y, z'
loop_
 _atom_site_type_symbol
 _atom_site_label
 _atom_site_symmetry_multiplicity
 _atom_site_fract_x
 _atom_site_fract_y
 _atom_site_fract_z
 _atom_site_occupancy
 _atom_site_charge
  Zn  Zn1  1  0.215160  0.000000  0.215160  1.0  1.0497
  Zn  Zn2  1  0.215160  0.500000  0.715160  1.0  1.0497
  Zn  Zn3  1  0.715160  0.000000  0.715160  1.0  1.0497
  Zn  Zn4  1  0.715160  0.500000  0.215160  1.0  1.0497
  Zn  Zn5  1  0.784840  0.000000  0.215160  1.0  1.049
  Zn  Zn6  1  0.784840  0.500000  0.715160  1.0  1.049
  Zn  Zn7  1  0.284840  0.000000  0.715160  1.0  1.049
  Zn  Zn8  1  0.284840  0.500000  0.215160  1.0  1.049
  Zn  Zn9  1  0.784840  0.000000  0.784840  1.0  1.0489
  Zn  Zn10  1  0.784840  0.500000  0.284840  1.0  1.0489
  Zn  Zn11  1  0.284840  0.000000  0.284840  1.0  1.0489
  Zn  Zn12  1  0.284840  0.500000  0.784840  1.0  1.0489
  Zn  Zn13  1  0.215160  0.000000  0.784840  1.0  1.0491
  Zn  Zn14  1  0.215160  0.500000  0.284840  1.0  1.0491
  Zn  Zn15  1  0.715160  0.000000  0.284840  1.0  1.0491
  Zn  Zn16  1  0.715160  0.500000  0.784840  1.0  1.0491
  Zn  Zn17  1  0.215160  0.215160  0.000000  1.0  1.0529
  Zn  Zn18  1  0.215160  0.715160  0.500000  1.0  1.0529
  Zn  Zn19  1  0.715160  0.215160  0.500000  1.0  1.0529
  Zn  Zn20  1  0.715160  0.715160  0.000000  1.0  1.0529
  Zn  Zn21  1  0.215160  0.784840  0.000000  1.0  1.0539
  Zn  Zn22  1  0.215160  0.284840  0.500000  1.0  1.0539
  Zn  Zn23  1  0.715160  0.784840  0.500000  1.0  1.0539
  Zn  Zn24  1  0.715160  0.284840  0.000000  1.0  1.0539
  Zn  Zn25  1  0.784840  0.784840  0.000000  1.0  1.0544
  Zn  Zn26  1  0.784840  0.284840  0.500000  1.0  1.0544
  Zn  Zn27  1  0.284840  0.784840  0.500000  1.0  1.0544
  Zn  Zn28  1  0.284840  0.284840  0.000000  1.0  1.0544
  Zn  Zn29  1  0.784840  0.215160  0.000000  1.0  1.0522
  Zn  Zn30  1  0.784840  0.715160  0.500000  1.0  1.0522
  Zn  Zn31  1  0.284840  0.215160  0.500000  1.0  1.0522
  Zn  Zn32  1  0.284840  0.715160  0.000000  1.0  1.0522
  Zn  Zn33  1  0.000000  0.215160  0.215160  1.0  1.0483
  Zn  Zn34  1  0.000000  0.715160  0.715160  1.0  1.0483
  Zn  Zn35  1  0.500000  0.215160  0.715160  1.0  1.0483
  Zn  Zn36  1  0.500000  0.715160  0.215160  1.0  1.0483
  Zn  Zn37  1  0.000000  0.215160  0.784840  1.0  1.0481
  Zn  Zn38  1  0.000000  0.715160  0.284840  1.0  1.0481
  Zn  Zn39  1  0.500000  0.215160  0.284840  1.0  1.0481
  Zn  Zn40  1  0.500000  0.715160  0.784840  1.0  1.0481
  Zn  Zn41  1  0.000000  0.784840  0.784840  1.0  1.0502
  Zn  Zn42  1  0.000000  0.284840  0.284840  1.0  1.0502
  Zn  Zn43  1  0.500000  0.784840  0.284840  1.0  1.0502
  Zn  Zn44  1  0.500000  0.284840  0.784840  1.0  1.0502
  Zn  Zn45  1  0.000000  0.784840  0.215160  1.0  1.0498
  Zn  Zn46  1  0.000000  0.284840  0.715160  1.0  1.0498
  Zn  Zn47  1  0.500000  0.784840  0.715160  1.0  1.0498
  Zn  Zn48  1  0.500000  0.284840  0.215160  1.0  1.0498
  H  H49  1  0.381040  0.381040  0.266180  1.0  0.1343
  H  H50  1  0.381040  0.881040  0.766180  1.0  0.1343
  H  H51  1  0.881040  0.381040  0.766180  1.0  0.1343
  H  H52  1  0.881040  0.881040  0.266180  1.0  0.1343
  H  H53  1  0.618960  0.618960  0.266180  1.0  0.1341
  H  H54  1  0.618960  0.118960  0.766180  1.0  0.1341
  H  H55  1  0.118960  0.618960  0.766180  1.0  0.1341
  H  H56  1  0.118960  0.118960  0.266180  1.0  0.1341
  H  H57  1  0.618960  0.381040  0.733820  1.0  0.135
  H  H58  1  0.618960  0.881040  0.233820  1.0  0.135
  H  H59  1  0.118960  0.381040  0.233820  1.0  0.135
  H  H60  1  0.118960  0.881040  0.733820  1.0  0.135
  H  H61  1  0.381040  0.618960  0.733820  1.0  0.1346
  H  H62  1  0.381040  0.118960  0.233820  1.0  0.1346
  H  H63  1  0.881040  0.618960  0.233820  1.0  0.1346
  H  H64  1  0.881040  0.118960  0.733820  1.0  0.1346
  H  H65  1  0.266180  0.381040  0.381040  1.0  0.1346
  H  H66  1  0.266180  0.881040  0.881040  1.0  0.1346
  H  H67  1  0.766180  0.381040  0.881040  1.0  0.1346
  H  H68  1  0.766180  0.881040  0.381040  1.0  0.1346
  H  H69  1  0.266180  0.618960  0.618960  1.0  0.1337
  H  H70  1  0.266180  0.118960  0.118960  1.0  0.1337
  H  H71  1  0.766180  0.618960  0.118960  1.0  0.1337
  H  H72  1  0.766180  0.118960  0.618960  1.0  0.1337
  H  H73  1  0.733820  0.618960  0.381040  1.0  0.1341
  H  H74  1  0.733820  0.118960  0.881040  1.0  0.1341
  H  H75  1  0.233820  0.618960  0.881040  1.0  0.1341
  H  H76  1  0.233820  0.118960  0.381040  1.0  0.1341
  H  H77  1  0.733820  0.381040  0.618960  1.0  0.1341
  H  H78  1  0.733820  0.881040  0.118960  1.0  0.1341
  H  H79  1  0.233820  0.381040  0.118960  1.0  0.1341
  H  H80  1  0.233820  0.881040  0.618960  1.0  0.1341
  H  H81  1  0.381040  0.266180  0.381040  1.0  0.1352
  H  H82  1  0.381040  0.766180  0.881040  1.0  0.1352
  H  H83  1  0.881040  0.266180  0.881040  1.0  0.1352
  H  H84  1  0.881040  0.766180  0.381040  1.0  0.1352
  H  H85  1  0.618960  0.266180  0.618960  1.0  0.1348
  H  H86  1  0.618960  0.766180  0.118960  1.0  0.1348
  H  H87  1  0.118960  0.266180  0.118960  1.0  0.1348
  H  H88  1  0.118960  0.766180  0.618960  1.0  0.1348
  H  H89  1  0.381040  0.733820  0.618960  1.0  0.135
  H  H90  1  0.381040  0.233820  0.118960  1.0  0.135
  H  H91  1  0.881040  0.733820  0.118960  1.0  0.135
  H  H92  1  0.881040  0.233820  0.618960  1.0  0.135
  H  H93  1  0.618960  0.733820  0.381040  1.0  0.1357
  H  H94  1  0.618960  0.233820  0.881040  1.0  0.1357
  H  H95  1  0.118960  0.733820  0.881040  1.0  0.1357
  H  H96  1  0.118960  0.233820  0.381040  1.0  0.1357
  H  H97  1  0.381040  0.381040  0.733820  1.0  0.1349
  H  H98  1  0.381040  0.881040  0.233820  1.0  0.1349
  H  H99  1  0.881040  0.381040  0.233820  1.0  0.1349
  H  H100  1  0.881040  0.881040  0.733820  1.0  0.1349
  H  H101  1  0.618960  0.618960  0.733820  1.0  0.1348
  H  H102  1  0.618960  0.118960  0.233820  1.0  0.1348
  H  H103  1  0.118960  0.618960  0.233820  1.0  0.1348
  H  H104  1  0.118960  0.118960  0.733820  1.0  0.1348
  H  H105  1  0.381040  0.618960  0.266180  1.0  0.1339
  H  H106  1  0.381040  0.118960  0.766180  1.0  0.1339
  H  H107  1  0.881040  0.618960  0.766180  1.0  0.1339
  H  H108  1  0.881040  0.118960  0.266180  1.0  0.1339
  H  H109  1  0.618960  0.381040  0.266180  1.0  0.1345
  H  H110  1  0.618960  0.881040  0.766180  1.0  0.1345
  H  H111  1  0.118960  0.381040  0.766180  1.0  0.1345
  H  H112  1  0.118960  0.881040  0.266180  1.0  0.1345
  H  H113  1  0.381040  0.266180  0.618960  1.0  0.1346
  H  H114  1  0.381040  0.766180  0.118960  1.0  0.1346
  H  H115  1  0.881040  0.266180  0.118960  1.0  0.1346
  H  H116  1  0.881040  0.766180  0.618960  1.0  0.1346
  H  H117  1  0.618960  0.266180  0.381040  1.0  0.1357
  H  H118  1  0.618960  0.766180  0.881040  1.0  0.1357
  H  H119  1  0.118960  0.266180  0.881040  1.0  0.1357
  H  H120  1  0.118960  0.766180  0.381040  1.0  0.1357
  H  H121  1  0.618960  0.733820  0.618960  1.0  0.135
  H  H122  1  0.618960  0.233820  0.118960  1.0  0.135
  H  H123  1  0.118960  0.733820  0.118960  1.0  0.135
  H  H124  1  0.118960  0.233820  0.618960  1.0  0.135
  H  H125  1  0.381040  0.733820  0.381040  1.0  0.1357
  H  H126  1  0.381040  0.233820  0.881040  1.0  0.1357
  H  H127  1  0.881040  0.733820  0.881040  1.0  0.1357
  H  H128  1  0.881040  0.233820  0.381040  1.0  0.1357
  H  H129  1  0.266180  0.381040  0.618960  1.0  0.1341
  H  H130  1  0.266180  0.881040  0.118960  1.0  0.1341
  H  H131  1  0.766180  0.381040  0.118960  1.0  0.1341
  H  H132  1  0.766180  0.881040  0.618960  1.0  0.1341
  H  H133  1  0.266180  0.618960  0.381040  1.0  0.1344
  H  H134  1  0.266180  0.118960  0.881040  1.0  0.1344
  H  H135  1  0.766180  0.618960  0.881040  1.0  0.1344
  H  H136  1  0.766180  0.118960  0.381040  1.0  0.1344
  H  H137  1  0.733820  0.381040  0.381040  1.0  0.1345
  H  H138  1  0.733820  0.881040  0.881040  1.0  0.1345
  H  H139  1  0.233820  0.381040  0.881040  1.0  0.1345
  H  H140  1  0.233820  0.881040  0.381040  1.0  0.1345
  H  H141  1  0.733820  0.618960  0.618960  1.0  0.1338
  H  H142  1  0.733820  0.118960  0.118960  1.0  0.1338
  H  H143  1  0.233820  0.618960  0.118960  1.0  0.1338
  H  H144  1  0.233820  0.118960  0.618960  1.0  0.1338
  C  C145  1  0.387410  0.321210  0.321210  1.0  -0.1208
  C  C146  1  0.387410  0.821210  0.821210  1.0  -0.1208
  C  C147  1  0.887410  0.321210  0.821210  1.0  -0.1208
  C  C148  1  0.887410  0.821210  0.321210  1.0  -0.1208
  C  C149  1  0.612590  0.678790  0.321210  1.0  -0.1212
  C  C150  1  0.612590  0.178790  0.821210  1.0  -0.1212
  C  C151  1  0.112590  0.678790  0.821210  1.0  -0.1212
  C  C152  1  0.112590  0.178790  0.321210  1.0  -0.1212
  C  C153  1  0.612590  0.321210  0.678790  1.0  -0.1216
  C  C154  1  0.612590  0.821210  0.178790  1.0  -0.1216
  C  C155  1  0.112590  0.321210  0.178790  1.0  -0.1216
  C  C156  1  0.112590  0.821210  0.678790  1.0  -0.1216
  C  C157  1  0.387410  0.678790  0.678790  1.0  -0.1201
  C  C158  1  0.387410  0.178790  0.178790  1.0  -0.1201
  C  C159  1  0.887410  0.678790  0.178790  1.0  -0.1201
  C  C160  1  0.887410  0.178790  0.678790  1.0  -0.1201
  C  C161  1  0.321210  0.387410  0.321210  1.0  -0.1207
  C  C162  1  0.321210  0.887410  0.821210  1.0  -0.1207
  C  C163  1  0.821210  0.387410  0.821210  1.0  -0.1207
  C  C164  1  0.821210  0.887410  0.321210  1.0  -0.1207
  C  C165  1  0.321210  0.612590  0.678790  1.0  -0.1201
  C  C166  1  0.321210  0.112590  0.178790  1.0  -0.1201
  C  C167  1  0.821210  0.612590  0.178790  1.0  -0.1201
  C  C168  1  0.821210  0.112590  0.678790  1.0  -0.1201
  C  C169  1  0.678790  0.612590  0.321210  1.0  -0.1208
  C  C170  1  0.678790  0.112590  0.821210  1.0  -0.1208
  C  C171  1  0.178790  0.612590  0.821210  1.0  -0.1208
  C  C172  1  0.178790  0.112590  0.321210  1.0  -0.1208
  C  C173  1  0.678790  0.387410  0.678790  1.0  -0.121
  C  C174  1  0.678790  0.887410  0.178790  1.0  -0.121
  C  C175  1  0.178790  0.387410  0.178790  1.0  -0.121
  C  C176  1  0.178790  0.887410  0.678790  1.0  -0.121
  C  C177  1  0.321210  0.321210  0.387410  1.0  -0.1212
  C  C178  1  0.321210  0.821210  0.887410  1.0  -0.1212
  C  C179  1  0.821210  0.321210  0.887410  1.0  -0.1212
  C  C180  1  0.821210  0.821210  0.387410  1.0  -0.1212
  C  C181  1  0.678790  0.321210  0.612590  1.0  -0.1223
  C  C182  1  0.678790  0.821210  0.112590  1.0  -0.1223
  C  C183  1  0.178790  0.321210  0.112590  1.0  -0.1223
  C  C184  1  0.178790  0.821210  0.612590  1.0  -0.1223
  C  C185  1  0.321210  0.678790  0.612590  1.0  -0.1213
  C  C186  1  0.321210  0.178790  0.112590  1.0  -0.1213
  C  C187  1  0.821210  0.678790  0.112590  1.0  -0.1213
  C  C188  1  0.821210  0.178790  0.612590  1.0  -0.1213
  C  C189  1  0.678790  0.678790  0.387410  1.0  -0.1211
  C  C190  1  0.678790  0.178790  0.887410  1.0  -0.1211
  C  C191  1  0.178790  0.678790  0.887410  1.0  -0.1211
  C  C192  1  0.178790  0.178790  0.387410  1.0  -0.1211
  C  C193  1  0.321210  0.387410  0.678790  1.0  -0.1205
  C  C194  1  0.321210  0.887410  0.178790  1.0  -0.1205
  C  C195  1  0.821210  0.387410  0.178790  1.0  -0.1205
  C  C196  1  0.821210  0.887410  0.678790  1.0  -0.1205
  C  C197  1  0.678790  0.612590  0.678790  1.0  -0.1206
  C  C198  1  0.678790  0.112590  0.178790  1.0  -0.1206
  C  C199  1  0.178790  0.612590  0.178790  1.0  -0.1206
  C  C200  1  0.178790  0.112590  0.678790  1.0  -0.1206
  C  C201  1  0.321210  0.612590  0.321210  1.0  -0.1204
  C  C202  1  0.321210  0.112590  0.821210  1.0  -0.1204
  C  C203  1  0.821210  0.612590  0.821210  1.0  -0.1204
  C  C204  1  0.821210  0.112590  0.321210  1.0  -0.1204
  C  C205  1  0.678790  0.387410  0.321210  1.0  -0.1212
  C  C206  1  0.678790  0.887410  0.821210  1.0  -0.1212
  C  C207  1  0.178790  0.387410  0.821210  1.0  -0.1212
  C  C208  1  0.178790  0.887410  0.321210  1.0  -0.1212
  C  C209  1  0.387410  0.321210  0.678790  1.0  -0.1206
  C  C210  1  0.387410  0.821210  0.178790  1.0  -0.1206
  C  C211  1  0.887410  0.321210  0.178790  1.0  -0.1206
  C  C212  1  0.887410  0.821210  0.678790  1.0  -0.1206
  C  C213  1  0.612590  0.321210  0.321210  1.0  -0.1219
  C  C214  1  0.612590  0.821210  0.821210  1.0  -0.1219
  C  C215  1  0.112590  0.321210  0.821210  1.0  -0.1219
  C  C216  1  0.112590  0.821210  0.321210  1.0  -0.1219
  C  C217  1  0.612590  0.678790  0.678790  1.0  -0.1211
  C  C218  1  0.612590  0.178790  0.178790  1.0  -0.1211
  C  C219  1  0.112590  0.678790  0.178790  1.0  -0.1211
  C  C220  1  0.112590  0.178790  0.678790  1.0  -0.1211
  C  C221  1  0.387410  0.678790  0.321210  1.0  -0.1203
  C  C222  1  0.387410  0.178790  0.821210  1.0  -0.1203
  C  C223  1  0.887410  0.678790  0.821210  1.0  -0.1203
  C  C224  1  0.887410  0.178790  0.321210  1.0  -0.1203
  C  C225  1  0.321210  0.321210  0.612590  1.0  -0.1219
  C  C226  1  0.321210  0.821210  0.112590  1.0  -0.1219
  C  C227  1  0.821210  0.321210  0.112590  1.0  -0.1219
  C  C228  1  0.821210  0.821210  0.612590  1.0  -0.1219
  C  C229  1  0.321210  0.678790  0.387410  1.0  -0.1205
  C  C230  1  0.321210  0.178790  0.887410  1.0  -0.1205
  C  C231  1  0.821210  0.678790  0.887410  1.0  -0.1205
  C  C232  1  0.821210  0.178790  0.387410  1.0  -0.1205
  C  C233  1  0.678790  0.321210  0.387410  1.0  -0.1217
  C  C234  1  0.678790  0.821210  0.887410  1.0  -0.1217
  C  C235  1  0.178790  0.321210  0.887410  1.0  -0.1217
  C  C236  1  0.178790  0.821210  0.387410  1.0  -0.1217
  C  C237  1  0.678790  0.678790  0.612590  1.0  -0.1217
  C  C238  1  0.678790  0.178790  0.112590  1.0  -0.1217
  C  C239  1  0.178790  0.678790  0.112590  1.0  -0.1217
  C  C240  1  0.178790  0.178790  0.612590  1.0  -0.1217
  C  C241  1  0.364990  0.364990  0.300090  1.0  -0.0452
  C  C242  1  0.364990  0.864990  0.800090  1.0  -0.0452
  C  C243  1  0.864990  0.364990  0.800090  1.0  -0.0452
  C  C244  1  0.864990  0.864990  0.300090  1.0  -0.0452
  C  C245  1  0.635010  0.635010  0.300090  1.0  -0.0462
  C  C246  1  0.635010  0.135010  0.800090  1.0  -0.0462
  C  C247  1  0.135010  0.635010  0.800090  1.0  -0.0462
  C  C248  1  0.135010  0.135010  0.300090  1.0  -0.0462
  C  C249  1  0.635010  0.364990  0.699910  1.0  -0.0464
  C  C250  1  0.635010  0.864990  0.199910  1.0  -0.0464
  C  C251  1  0.135010  0.364990  0.199910  1.0  -0.0464
  C  C252  1  0.135010  0.864990  0.699910  1.0  -0.0464
  C  C253  1  0.364990  0.635010  0.699910  1.0  -0.0444
  C  C254  1  0.364990  0.135010  0.199910  1.0  -0.0444
  C  C255  1  0.864990  0.635010  0.199910  1.0  -0.0444
  C  C256  1  0.864990  0.135010  0.699910  1.0  -0.0444
  C  C257  1  0.300090  0.364990  0.364990  1.0  -0.0442
  C  C258  1  0.300090  0.864990  0.864990  1.0  -0.0442
  C  C259  1  0.800090  0.364990  0.864990  1.0  -0.0442
  C  C260  1  0.800090  0.864990  0.364990  1.0  -0.0442
  C  C261  1  0.300090  0.635010  0.635010  1.0  -0.0447
  C  C262  1  0.300090  0.135010  0.135010  1.0  -0.0447
  C  C263  1  0.800090  0.635010  0.135010  1.0  -0.0447
  C  C264  1  0.800090  0.135010  0.635010  1.0  -0.0447
  C  C265  1  0.699910  0.635010  0.364990  1.0  -0.0432
  C  C266  1  0.699910  0.135010  0.864990  1.0  -0.0432
  C  C267  1  0.199910  0.635010  0.864990  1.0  -0.0432
  C  C268  1  0.199910  0.135010  0.364990  1.0  -0.0432
  C  C269  1  0.699910  0.364990  0.635010  1.0  -0.044
  C  C270  1  0.699910  0.864990  0.135010  1.0  -0.044
  C  C271  1  0.199910  0.364990  0.135010  1.0  -0.044
  C  C272  1  0.199910  0.864990  0.635010  1.0  -0.044
  C  C273  1  0.364990  0.300090  0.364990  1.0  -0.044
  C  C274  1  0.364990  0.800090  0.864990  1.0  -0.044
  C  C275  1  0.864990  0.300090  0.864990  1.0  -0.044
  C  C276  1  0.864990  0.800090  0.364990  1.0  -0.044
  C  C277  1  0.635010  0.300090  0.635010  1.0  -0.0461
  C  C278  1  0.635010  0.800090  0.135010  1.0  -0.0461
  C  C279  1  0.135010  0.300090  0.135010  1.0  -0.0461
  C  C280  1  0.135010  0.800090  0.635010  1.0  -0.0461
  C  C281  1  0.364990  0.699910  0.635010  1.0  -0.045
  C  C282  1  0.364990  0.199910  0.135010  1.0  -0.045
  C  C283  1  0.864990  0.699910  0.135010  1.0  -0.045
  C  C284  1  0.864990  0.199910  0.635010  1.0  -0.045
  C  C285  1  0.635010  0.699910  0.364990  1.0  -0.0458
  C  C286  1  0.635010  0.199910  0.864990  1.0  -0.0458
  C  C287  1  0.135010  0.699910  0.864990  1.0  -0.0458
  C  C288  1  0.135010  0.199910  0.364990  1.0  -0.0458
  C  C289  1  0.364990  0.364990  0.699910  1.0  -0.045
  C  C290  1  0.364990  0.864990  0.199910  1.0  -0.045
  C  C291  1  0.864990  0.364990  0.199910  1.0  -0.045
  C  C292  1  0.864990  0.864990  0.699910  1.0  -0.045
  C  C293  1  0.635010  0.635010  0.699910  1.0  -0.0459
  C  C294  1  0.635010  0.135010  0.199910  1.0  -0.0459
  C  C295  1  0.135010  0.635010  0.199910  1.0  -0.0459
  C  C296  1  0.135010  0.135010  0.699910  1.0  -0.0459
  C  C297  1  0.364990  0.635010  0.300090  1.0  -0.0452
  C  C298  1  0.364990  0.135010  0.800090  1.0  -0.0452
  C  C299  1  0.864990  0.635010  0.800090  1.0  -0.0452
  C  C300  1  0.864990  0.135010  0.300090  1.0  -0.0452
  C  C301  1  0.635010  0.364990  0.300090  1.0  -0.0461
  C  C302  1  0.635010  0.864990  0.800090  1.0  -0.0461
  C  C303  1  0.135010  0.364990  0.800090  1.0  -0.0461
  C  C304  1  0.135010  0.864990  0.300090  1.0  -0.0461
  C  C305  1  0.364990  0.300090  0.635010  1.0  -0.0441
  C  C306  1  0.364990  0.800090  0.135010  1.0  -0.0441
  C  C307  1  0.864990  0.300090  0.135010  1.0  -0.0441
  C  C308  1  0.864990  0.800090  0.635010  1.0  -0.0441
  C  C309  1  0.635010  0.300090  0.364990  1.0  -0.045
  C  C310  1  0.635010  0.800090  0.864990  1.0  -0.045
  C  C311  1  0.135010  0.300090  0.864990  1.0  -0.045
  C  C312  1  0.135010  0.800090  0.364990  1.0  -0.045
  C  C313  1  0.635010  0.699910  0.635010  1.0  -0.0454
  C  C314  1  0.635010  0.199910  0.135010  1.0  -0.0454
  C  C315  1  0.135010  0.699910  0.135010  1.0  -0.0454
  C  C316  1  0.135010  0.199910  0.635010  1.0  -0.0454
  C  C317  1  0.364990  0.699910  0.364990  1.0  -0.0443
  C  C318  1  0.364990  0.199910  0.864990  1.0  -0.0443
  C  C319  1  0.864990  0.699910  0.864990  1.0  -0.0443
  C  C320  1  0.864990  0.199910  0.364990  1.0  -0.0443
  C  C321  1  0.300090  0.364990  0.635010  1.0  -0.045
  C  C322  1  0.300090  0.864990  0.135010  1.0  -0.045
  C  C323  1  0.800090  0.364990  0.135010  1.0  -0.045
  C  C324  1  0.800090  0.864990  0.635010  1.0  -0.045
  C  C325  1  0.300090  0.635010  0.364990  1.0  -0.0444
  C  C326  1  0.300090  0.135010  0.864990  1.0  -0.0444
  C  C327  1  0.800090  0.635010  0.864990  1.0  -0.0444
  C  C328  1  0.800090  0.135010  0.364990  1.0  -0.0444
  C  C329  1  0.699910  0.364990  0.364990  1.0  -0.0441
  C  C330  1  0.699910  0.864990  0.864990  1.0  -0.0441
  C  C331  1  0.199910  0.364990  0.864990  1.0  -0.0441
  C  C332  1  0.199910  0.864990  0.364990  1.0  -0.0441
  C  C333  1  0.699910  0.635010  0.635010  1.0  -0.0446
  C  C334  1  0.699910  0.135010  0.135010  1.0  -0.0446
  C  C335  1  0.199910  0.635010  0.135010  1.0  -0.0446
  C  C336  1  0.199910  0.135010  0.635010  1.0  -0.0446
  C  C337  1  0.204350  0.931910  0.295650  1.0  0.6538
  C  C338  1  0.204350  0.431910  0.795650  1.0  0.6538
  C  C339  1  0.795650  0.068090  0.295650  1.0  0.6542
  C  C340  1  0.795650  0.568090  0.795650  1.0  0.6542
  C  C341  1  0.295650  0.568090  0.295650  1.0  0.6542
  C  C342  1  0.795650  0.931910  0.704350  1.0  0.655
  C  C343  1  0.795650  0.431910  0.204350  1.0  0.655
  C  C344  1  0.295650  0.931910  0.204350  1.0  0.655
  C  C345  1  0.204350  0.068090  0.704350  1.0  0.6545
  C  C346  1  0.204350  0.568090  0.204350  1.0  0.6545
  C  C347  1  0.295650  0.204350  0.931910  1.0  0.6552
  C  C348  1  0.295650  0.704350  0.431910  1.0  0.6552
  C  C349  1  0.295650  0.795650  0.068090  1.0  0.6551
  C  C350  1  0.295650  0.295650  0.568090  1.0  0.6551
  C  C351  1  0.704350  0.795650  0.931910  1.0  0.6551
  C  C352  1  0.704350  0.295650  0.431910  1.0  0.6551
  C  C353  1  0.204350  0.295650  0.931910  1.0  0.6551
  C  C354  1  0.704350  0.204350  0.068090  1.0  0.6544
  C  C355  1  0.704350  0.704350  0.568090  1.0  0.6544
  C  C356  1  0.204350  0.204350  0.568090  1.0  0.6544
  C  C357  1  0.931910  0.295650  0.204350  1.0  0.6543
  C  C358  1  0.431910  0.295650  0.704350  1.0  0.6543
  C  C359  1  0.068090  0.295650  0.795650  1.0  0.6531
  C  C360  1  0.568090  0.295650  0.295650  1.0  0.6531
  C  C361  1  0.931910  0.704350  0.795650  1.0  0.6532
  C  C362  1  0.931910  0.204350  0.295650  1.0  0.6532
  C  C363  1  0.431910  0.704350  0.295650  1.0  0.6532
  C  C364  1  0.068090  0.704350  0.204350  1.0  0.6533
  C  C365  1  0.568090  0.704350  0.704350  1.0  0.6533
  C  C366  1  0.568090  0.204350  0.204350  1.0  0.6533
  C  C367  1  0.931910  0.204350  0.704350  1.0  0.6538
  C  C368  1  0.431910  0.204350  0.204350  1.0  0.6538
  C  C369  1  0.068090  0.795650  0.704350  1.0  0.6539
  C  C370  1  0.068090  0.295650  0.204350  1.0  0.6539
  C  C371  1  0.568090  0.795650  0.204350  1.0  0.6539
  C  C372  1  0.931910  0.795650  0.295650  1.0  0.6537
  C  C373  1  0.431910  0.795650  0.795650  1.0  0.6537
  C  C374  1  0.431910  0.295650  0.295650  1.0  0.6537
  C  C375  1  0.068090  0.204350  0.295650  1.0  0.6525
  C  C376  1  0.568090  0.204350  0.795650  1.0  0.6525
  C  C377  1  0.204350  0.295650  0.068090  1.0  0.6547
  C  C378  1  0.204350  0.795650  0.568090  1.0  0.6547
  C  C379  1  0.795650  0.295650  0.931910  1.0  0.6557
  C  C380  1  0.795650  0.795650  0.431910  1.0  0.6557
  C  C381  1  0.295650  0.295650  0.431910  1.0  0.6557
  C  C382  1  0.795650  0.704350  0.068090  1.0  0.6549
  C  C383  1  0.795650  0.204350  0.568090  1.0  0.6549
  C  C384  1  0.295650  0.204350  0.068090  1.0  0.6549
  C  C385  1  0.204350  0.704350  0.931910  1.0  0.6546
  C  C386  1  0.204350  0.204350  0.431910  1.0  0.6546
  C  C387  1  0.295650  0.931910  0.795650  1.0  0.654
  C  C388  1  0.295650  0.431910  0.295650  1.0  0.654
  C  C389  1  0.295650  0.068090  0.204350  1.0  0.6552
  C  C390  1  0.295650  0.568090  0.704350  1.0  0.6552
  C  C391  1  0.704350  0.931910  0.204350  1.0  0.6544
  C  C392  1  0.704350  0.431910  0.704350  1.0  0.6544
  C  C393  1  0.204350  0.431910  0.204350  1.0  0.6544
  C  C394  1  0.704350  0.068090  0.795650  1.0  0.6538
  C  C395  1  0.704350  0.568090  0.295650  1.0  0.6538
  C  C396  1  0.204350  0.068090  0.295650  1.0  0.6538
  C  C397  1  0.795650  0.068090  0.704350  1.0  0.6552
  C  C398  1  0.795650  0.568090  0.204350  1.0  0.6552
  C  C399  1  0.204350  0.931910  0.704350  1.0  0.6544
  C  C400  1  0.204350  0.568090  0.795650  1.0  0.6538
  C  C401  1  0.795650  0.931910  0.295650  1.0  0.654
  C  C402  1  0.795650  0.431910  0.795650  1.0  0.654
  C  C403  1  0.704350  0.795650  0.068090  1.0  0.6547
  C  C404  1  0.704350  0.295650  0.568090  1.0  0.6547
  C  C405  1  0.704350  0.204350  0.931910  1.0  0.6546
  C  C406  1  0.704350  0.704350  0.431910  1.0  0.6546
  C  C407  1  0.295650  0.704350  0.568090  1.0  0.6549
  C  C408  1  0.295650  0.795650  0.931910  1.0  0.6557
  C  C409  1  0.068090  0.704350  0.795650  1.0  0.6525
  C  C410  1  0.568090  0.704350  0.295650  1.0  0.6525
  C  C411  1  0.931910  0.704350  0.204350  1.0  0.6538
  C  C412  1  0.431910  0.704350  0.704350  1.0  0.6538
  C  C413  1  0.568090  0.295650  0.704350  1.0  0.6539
  C  C414  1  0.931910  0.295650  0.795650  1.0  0.6537
  C  C415  1  0.068090  0.795650  0.295650  1.0  0.6531
  C  C416  1  0.568090  0.795650  0.795650  1.0  0.6531
  C  C417  1  0.431910  0.204350  0.795650  1.0  0.6532
  C  C418  1  0.068090  0.204350  0.704350  1.0  0.6533
  C  C419  1  0.931910  0.795650  0.704350  1.0  0.6543
  C  C420  1  0.431910  0.795650  0.204350  1.0  0.6543
  C  C421  1  0.795650  0.704350  0.931910  1.0  0.6552
  C  C422  1  0.795650  0.204350  0.431910  1.0  0.6552
  C  C423  1  0.204350  0.704350  0.068090  1.0  0.6544
  C  C424  1  0.204350  0.795650  0.431910  1.0  0.6551
  C  C425  1  0.795650  0.295650  0.068090  1.0  0.6551
  C  C426  1  0.795650  0.795650  0.568090  1.0  0.6551
  C  C427  1  0.704350  0.068090  0.204350  1.0  0.6545
  C  C428  1  0.704350  0.568090  0.704350  1.0  0.6545
  C  C429  1  0.704350  0.931910  0.795650  1.0  0.6538
  C  C430  1  0.704350  0.431910  0.295650  1.0  0.6538
  C  C431  1  0.295650  0.068090  0.795650  1.0  0.6542
  C  C432  1  0.295650  0.431910  0.704350  1.0  0.655
  O  O433  1  0.186670  0.950450  0.255030  1.0  -0.5721
  O  O434  1  0.186670  0.450450  0.755030  1.0  -0.5721
  O  O435  1  0.686670  0.950450  0.755030  1.0  -0.5721
  O  O436  1  0.686670  0.450450  0.255030  1.0  -0.5721
  O  O437  1  0.813330  0.049550  0.255030  1.0  -0.5723
  O  O438  1  0.813330  0.549550  0.755030  1.0  -0.5721
  O  O439  1  0.313330  0.049550  0.755030  1.0  -0.5721
  O  O440  1  0.313330  0.549550  0.255030  1.0  -0.5723
  O  O441  1  0.813330  0.950450  0.744970  1.0  -0.5718
  O  O442  1  0.813330  0.450450  0.244970  1.0  -0.5718
  O  O443  1  0.313330  0.950450  0.244970  1.0  -0.5721
  O  O444  1  0.313330  0.450450  0.744970  1.0  -0.5718
  O  O445  1  0.186670  0.049550  0.744970  1.0  -0.5717
  O  O446  1  0.186670  0.549550  0.244970  1.0  -0.5717
  O  O447  1  0.686670  0.049550  0.244970  1.0  -0.5717
  O  O448  1  0.686670  0.549550  0.744970  1.0  -0.5717
  O  O449  1  0.255030  0.186670  0.950450  1.0  -0.5743
  O  O450  1  0.255030  0.686670  0.450450  1.0  -0.5743
  O  O451  1  0.755030  0.186670  0.450450  1.0  -0.5743
  O  O452  1  0.755030  0.686670  0.950450  1.0  -0.5743
  O  O453  1  0.255030  0.813330  0.049550  1.0  -0.5743
  O  O454  1  0.255030  0.313330  0.549550  1.0  -0.5743
  O  O455  1  0.755030  0.813330  0.549550  1.0  -0.5743
  O  O456  1  0.755030  0.313330  0.049550  1.0  -0.5743
  O  O457  1  0.744970  0.813330  0.950450  1.0  -0.5756
  O  O458  1  0.744970  0.313330  0.450450  1.0  -0.5756
  O  O459  1  0.244970  0.813330  0.450450  1.0  -0.5756
  O  O460  1  0.244970  0.313330  0.950450  1.0  -0.5756
  O  O461  1  0.744970  0.186670  0.049550  1.0  -0.5749
  O  O462  1  0.744970  0.686670  0.549550  1.0  -0.5749
  O  O463  1  0.244970  0.186670  0.549550  1.0  -0.5749
  O  O464  1  0.244970  0.686670  0.049550  1.0  -0.5749
  O  O465  1  0.950450  0.255030  0.186670  1.0  -0.5747
  O  O466  1  0.950450  0.755030  0.686670  1.0  -0.5747
  O  O467  1  0.450450  0.255030  0.686670  1.0  -0.5748
  O  O468  1  0.450450  0.755030  0.186670  1.0  -0.5747
  O  O469  1  0.049550  0.255030  0.813330  1.0  -0.5757
  O  O470  1  0.049550  0.755030  0.313330  1.0  -0.5757
  O  O471  1  0.549550  0.255030  0.313330  1.0  -0.5757
  O  O472  1  0.549550  0.755030  0.813330  1.0  -0.5757
  O  O473  1  0.950450  0.744970  0.813330  1.0  -0.5752
  O  O474  1  0.950450  0.244970  0.313330  1.0  -0.5752
  O  O475  1  0.450450  0.744970  0.313330  1.0  -0.5752
  O  O476  1  0.450450  0.244970  0.813330  1.0  -0.5751
  O  O477  1  0.049550  0.744970  0.186670  1.0  -0.5768
  O  O478  1  0.049550  0.244970  0.686670  1.0  -0.5768
  O  O479  1  0.549550  0.744970  0.686670  1.0  -0.5766
  O  O480  1  0.549550  0.244970  0.186670  1.0  -0.5766
  O  O481  1  0.950450  0.186670  0.744970  1.0  -0.5733
  O  O482  1  0.950450  0.686670  0.244970  1.0  -0.5733
  O  O483  1  0.450450  0.186670  0.244970  1.0  -0.5733
  O  O484  1  0.450450  0.686670  0.744970  1.0  -0.5733
  O  O485  1  0.049550  0.813330  0.744970  1.0  -0.5745
  O  O486  1  0.049550  0.313330  0.244970  1.0  -0.5746
  O  O487  1  0.549550  0.813330  0.244970  1.0  -0.5745
  O  O488  1  0.549550  0.313330  0.744970  1.0  -0.5745
  O  O489  1  0.950450  0.813330  0.255030  1.0  -0.5747
  O  O490  1  0.950450  0.313330  0.755030  1.0  -0.5746
  O  O491  1  0.450450  0.813330  0.755030  1.0  -0.5746
  O  O492  1  0.450450  0.313330  0.255030  1.0  -0.5747
  O  O493  1  0.049550  0.186670  0.255030  1.0  -0.5749
  O  O494  1  0.049550  0.686670  0.755030  1.0  -0.5749
  O  O495  1  0.549550  0.186670  0.755030  1.0  -0.5749
  O  O496  1  0.549550  0.686670  0.255030  1.0  -0.5749
  O  O497  1  0.186670  0.255030  0.049550  1.0  -0.5724
  O  O498  1  0.186670  0.755030  0.549550  1.0  -0.5725
  O  O499  1  0.686670  0.255030  0.549550  1.0  -0.5725
  O  O500  1  0.686670  0.755030  0.049550  1.0  -0.5725
  O  O501  1  0.813330  0.255030  0.950450  1.0  -0.5738
  O  O502  1  0.813330  0.755030  0.450450  1.0  -0.5738
  O  O503  1  0.313330  0.255030  0.450450  1.0  -0.5739
  O  O504  1  0.313330  0.755030  0.950450  1.0  -0.5738
  O  O505  1  0.813330  0.744970  0.049550  1.0  -0.5744
  O  O506  1  0.813330  0.244970  0.549550  1.0  -0.5744
  O  O507  1  0.313330  0.744970  0.549550  1.0  -0.5744
  O  O508  1  0.313330  0.244970  0.049550  1.0  -0.5744
  O  O509  1  0.186670  0.744970  0.950450  1.0  -0.5736
  O  O510  1  0.186670  0.244970  0.450450  1.0  -0.5737
  O  O511  1  0.686670  0.744970  0.450450  1.0  -0.5737
  O  O512  1  0.686670  0.244970  0.950450  1.0  -0.5737
  O  O513  1  0.255030  0.950450  0.813330  1.0  -0.5733
  O  O514  1  0.255030  0.450450  0.313330  1.0  -0.5734
  O  O515  1  0.755030  0.950450  0.313330  1.0  -0.5733
  O  O516  1  0.755030  0.450450  0.813330  1.0  -0.5733
  O  O517  1  0.255030  0.049550  0.186670  1.0  -0.5739
  O  O518  1  0.255030  0.549550  0.686670  1.0  -0.5738
  O  O519  1  0.755030  0.049550  0.686670  1.0  -0.5739
  O  O520  1  0.755030  0.549550  0.186670  1.0  -0.5739
  O  O521  1  0.744970  0.950450  0.186670  1.0  -0.5752
  O  O522  1  0.744970  0.450450  0.686670  1.0  -0.5753
  O  O523  1  0.244970  0.950450  0.686670  1.0  -0.5753
  O  O524  1  0.244970  0.450450  0.186670  1.0  -0.5751
  O  O525  1  0.744970  0.049550  0.813330  1.0  -0.5748
  O  O526  1  0.744970  0.549550  0.313330  1.0  -0.5748
  O  O527  1  0.244970  0.049550  0.313330  1.0  -0.5748
  O  O528  1  0.244970  0.549550  0.813330  1.0  -0.5749
  O  O529  1  0.813330  0.049550  0.744970  1.0  -0.5721
  O  O530  1  0.813330  0.549550  0.244970  1.0  -0.5721
  O  O531  1  0.313330  0.049550  0.244970  1.0  -0.5721
  O  O532  1  0.313330  0.549550  0.744970  1.0  -0.5721
  O  O533  1  0.186670  0.950450  0.744970  1.0  -0.5715
  O  O534  1  0.186670  0.450450  0.244970  1.0  -0.5715
  O  O535  1  0.686670  0.950450  0.244970  1.0  -0.5715
  O  O536  1  0.686670  0.450450  0.744970  1.0  -0.5715
  O  O537  1  0.186670  0.049550  0.255030  1.0  -0.5723
  O  O538  1  0.186670  0.549550  0.755030  1.0  -0.5725
  O  O539  1  0.686670  0.049550  0.755030  1.0  -0.5723
  O  O540  1  0.686670  0.549550  0.255030  1.0  -0.5723
  O  O541  1  0.813330  0.950450  0.255030  1.0  -0.572
  O  O542  1  0.813330  0.450450  0.755030  1.0  -0.572
  O  O543  1  0.313330  0.950450  0.755030  1.0  -0.5721
  O  O544  1  0.313330  0.450450  0.255030  1.0  -0.5721
  O  O545  1  0.744970  0.813330  0.049550  1.0  -0.5757
  O  O546  1  0.744970  0.313330  0.549550  1.0  -0.5757
  O  O547  1  0.244970  0.813330  0.549550  1.0  -0.5757
  O  O548  1  0.244970  0.313330  0.049550  1.0  -0.5757
  O  O549  1  0.744970  0.186670  0.950450  1.0  -0.5753
  O  O550  1  0.744970  0.686670  0.450450  1.0  -0.5753
  O  O551  1  0.244970  0.186670  0.450450  1.0  -0.5753
  O  O552  1  0.244970  0.686670  0.950450  1.0  -0.5753
  O  O553  1  0.255030  0.186670  0.049550  1.0  -0.5737
  O  O554  1  0.255030  0.686670  0.549550  1.0  -0.5736
  O  O555  1  0.755030  0.186670  0.549550  1.0  -0.5736
  O  O556  1  0.755030  0.686670  0.049550  1.0  -0.5737
  O  O557  1  0.255030  0.813330  0.950450  1.0  -0.5746
  O  O558  1  0.255030  0.313330  0.450450  1.0  -0.5746
  O  O559  1  0.755030  0.813330  0.450450  1.0  -0.5746
  O  O560  1  0.755030  0.313330  0.950450  1.0  -0.5746
  O  O561  1  0.049550  0.744970  0.813330  1.0  -0.5757
  O  O562  1  0.049550  0.244970  0.313330  1.0  -0.5757
  O  O563  1  0.549550  0.744970  0.313330  1.0  -0.5757
  O  O564  1  0.549550  0.244970  0.813330  1.0  -0.5757
  O  O565  1  0.950450  0.744970  0.186670  1.0  -0.576
  O  O566  1  0.950450  0.244970  0.686670  1.0  -0.576
  O  O567  1  0.450450  0.744970  0.686670  1.0  -0.576
  O  O568  1  0.450450  0.244970  0.186670  1.0  -0.5758
  O  O569  1  0.049550  0.255030  0.186670  1.0  -0.5758
  O  O570  1  0.049550  0.755030  0.686670  1.0  -0.5758
  O  O571  1  0.549550  0.255030  0.686670  1.0  -0.5758
  O  O572  1  0.549550  0.755030  0.186670  1.0  -0.5758
  O  O573  1  0.950450  0.255030  0.813330  1.0  -0.575
  O  O574  1  0.950450  0.755030  0.313330  1.0  -0.575
  O  O575  1  0.450450  0.255030  0.313330  1.0  -0.575
  O  O576  1  0.450450  0.755030  0.813330  1.0  -0.575
  O  O577  1  0.049550  0.813330  0.255030  1.0  -0.575
  O  O578  1  0.049550  0.313330  0.755030  1.0  -0.575
  O  O579  1  0.549550  0.813330  0.755030  1.0  -0.575
  O  O580  1  0.549550  0.313330  0.255030  1.0  -0.5749
  O  O581  1  0.950450  0.186670  0.255030  1.0  -0.5744
  O  O582  1  0.950450  0.686670  0.755030  1.0  -0.5744
  O  O583  1  0.450450  0.186670  0.755030  1.0  -0.5744
  O  O584  1  0.450450  0.686670  0.255030  1.0  -0.5744
  O  O585  1  0.049550  0.186670  0.744970  1.0  -0.574
  O  O586  1  0.049550  0.686670  0.244970  1.0  -0.574
  O  O587  1  0.549550  0.186670  0.244970  1.0  -0.574
  O  O588  1  0.549550  0.686670  0.744970  1.0  -0.574
  O  O589  1  0.950450  0.813330  0.744970  1.0  -0.574
  O  O590  1  0.950450  0.313330  0.244970  1.0  -0.574
  O  O591  1  0.450450  0.813330  0.244970  1.0  -0.574
  O  O592  1  0.450450  0.313330  0.744970  1.0  -0.574
  O  O593  1  0.813330  0.744970  0.950450  1.0  -0.5748
  O  O594  1  0.813330  0.244970  0.450450  1.0  -0.5748
  O  O595  1  0.313330  0.744970  0.450450  1.0  -0.5748
  O  O596  1  0.313330  0.244970  0.950450  1.0  -0.5748
  O  O597  1  0.186670  0.744970  0.049550  1.0  -0.5737
  O  O598  1  0.186670  0.244970  0.549550  1.0  -0.5736
  O  O599  1  0.686670  0.744970  0.549550  1.0  -0.5735
  O  O600  1  0.686670  0.244970  0.049550  1.0  -0.5736
  O  O601  1  0.186670  0.255030  0.950450  1.0  -0.5729
  O  O602  1  0.186670  0.755030  0.450450  1.0  -0.5729
  O  O603  1  0.686670  0.255030  0.450450  1.0  -0.5729
  O  O604  1  0.686670  0.755030  0.950450  1.0  -0.5729
  O  O605  1  0.813330  0.255030  0.049550  1.0  -0.5734
  O  O606  1  0.813330  0.755030  0.549550  1.0  -0.5734
  O  O607  1  0.313330  0.255030  0.549550  1.0  -0.5734
  O  O608  1  0.313330  0.755030  0.049550  1.0  -0.5734
  O  O609  1  0.744970  0.049550  0.186670  1.0  -0.5755
  O  O610  1  0.744970  0.549550  0.686670  1.0  -0.5755
  O  O611  1  0.244970  0.049550  0.686670  1.0  -0.5755
  O  O612  1  0.244970  0.549550  0.186670  1.0  -0.5756
  O  O613  1  0.744970  0.950450  0.813330  1.0  -0.5747
  O  O614  1  0.744970  0.450450  0.313330  1.0  -0.5747
  O  O615  1  0.244970  0.950450  0.313330  1.0  -0.5747
  O  O616  1  0.244970  0.450450  0.813330  1.0  -0.5745
  O  O617  1  0.255030  0.049550  0.813330  1.0  -0.5735
  O  O618  1  0.255030  0.549550  0.313330  1.0  -0.5733
  O  O619  1  0.755030  0.049550  0.313330  1.0  -0.5735
  O  O620  1  0.755030  0.549550  0.813330  1.0  -0.5735
  O  O621  1  0.255030  0.950450  0.186670  1.0  -0.5736
  O  O622  1  0.255030  0.450450  0.686670  1.0  -0.5737
  O  O623  1  0.755030  0.950450  0.686670  1.0  -0.5736
  O  O624  1  0.755030  0.450450  0.186670  1.0  -0.5737
