# generated using pymatgen
data_Zn2H27C34N6(O4F3)2
_symmetry_space_group_name_H-M   'P 1'
_cell_length_a   11.02100000
_cell_length_b   18.56100000
_cell_length_c   20.57100000
_cell_angle_alpha   90.00000000
_cell_angle_beta   90.00000000
_cell_angle_gamma   105.82200000
_symmetry_Int_Tables_number   1
_chemical_formula_structural   Zn2H27C34N6(O4F3)2
_chemical_formula_sum   'Zn8 H108 C136 N24 O32 F24'
_cell_volume   4048.59215467
_cell_formula_units_Z   4
loop_
 _symmetry_equiv_pos_site_id
 _symmetry_equiv_pos_as_xyz
  1  'x, y, z'
loop_
 _atom_site_type_symbol
 _atom_site_label
 _atom_site_symmetry_multiplicity
 _atom_site_fract_x
 _atom_site_fract_y
 _atom_site_fract_z
 _atom_site_occupancy
 _atom_site_charge
  Zn  Zn1  1  0.954600  0.577980  0.896010  1.0  0.9542
  Zn  Zn2  1  0.049490  0.166190  0.352270  1.0  0.8933
  Zn  Zn3  1  0.045400  0.922020  0.396010  1.0  0.9546
  Zn  Zn4  1  0.950510  0.333810  0.852270  1.0  0.8932
  Zn  Zn5  1  0.045400  0.422020  0.103990  1.0  0.9544
  Zn  Zn6  1  0.950510  0.833810  0.647730  1.0  0.8935
  Zn  Zn7  1  0.954600  0.077980  0.603990  1.0  0.954
  Zn  Zn8  1  0.049490  0.666190  0.147730  1.0  0.8936
  H  H9  1  0.928800  0.471900  0.771400  1.0  0.0747
  H  H10  1  0.086200  0.685400  0.786400  1.0  0.1178
  H  H11  1  0.092400  0.652500  0.671400  1.0  0.1224
  H  H12  1  0.007500  0.536400  0.604300  1.0  0.0755
  H  H13  1  0.900600  0.473700  0.637200  1.0  0.0678
  H  H14  1  0.047500  0.410900  0.670300  1.0  0.0858
  H  H15  1  0.158400  0.475500  0.641900  1.0  0.0769
  H  H16  1  0.962000  0.388100  0.562300  1.0  0.0715
  H  H17  1  0.082000  0.447500  0.536100  1.0  0.0671
  H  H18  1  0.074300  0.310000  0.590900  1.0  0.1066
  H  H19  1  0.202200  0.371700  0.580300  1.0  0.09
  H  H20  1  0.010100  0.220900  0.493900  1.0  0.1025
  H  H21  1  0.212200  0.337100  0.353200  1.0  0.1174
  H  H22  1  0.235000  0.419300  0.448400  1.0  0.1338
  H  H23  1  0.843900  0.046000  0.422600  1.0  0.1058
  H  H24  1  0.785900  0.175700  0.282100  1.0  0.1058
  H  H25  1  0.581100  0.097900  0.316200  1.0  0.1374
  H  H26  1  0.613000  0.953000  0.428600  1.0  0.0938
  H  H27  1  0.506900  0.979300  0.392700  1.0  0.103
  H  H28  1  0.520800  0.072900  0.472100  1.0  0.0714
  H  H29  1  0.626200  0.045900  0.508200  1.0  0.0837
  H  H30  1  0.636100  0.361200  0.856200  1.0  0.118
  H  H31  1  0.467500  0.260600  0.878400  1.0  0.0979
  H  H32  1  0.592000  0.253300  0.059000  1.0  0.1055
  H  H33  1  0.369000  0.094600  0.103700  1.0  0.1142
  H  H34  1  0.275400  0.113300  0.199400  1.0  0.1007
  H  H35  1  0.315300  0.285600  0.035200  1.0  0.1055
  H  H36  1  0.071200  0.028100  0.271400  1.0  0.074
  H  H37  1  0.913800  0.814600  0.286400  1.0  0.1177
  H  H38  1  0.907600  0.847500  0.171400  1.0  0.1222
  H  H39  1  0.992500  0.963600  0.104300  1.0  0.0754
  H  H40  1  0.099400  0.026300  0.137200  1.0  0.0717
  H  H41  1  0.952500  0.089100  0.170300  1.0  0.0846
  H  H42  1  0.841600  0.024500  0.141900  1.0  0.0784
  H  H43  1  0.038000  0.111900  0.062300  1.0  0.0722
  H  H44  1  0.918000  0.052500  0.036100  1.0  0.0679
  H  H45  1  0.925700  0.190000  0.090900  1.0  0.1052
  H  H46  1  0.797800  0.128300  0.080300  1.0  0.0908
  H  H47  1  0.989900  0.279100  0.993900  1.0  0.1026
  H  H48  1  0.787800  0.162900  0.853200  1.0  0.1171
  H  H49  1  0.765000  0.080700  0.948400  1.0  0.1331
  H  H50  1  0.156100  0.454000  0.922600  1.0  0.1054
  H  H51  1  0.214100  0.324300  0.782100  1.0  0.1057
  H  H52  1  0.418900  0.402100  0.816200  1.0  0.1378
  H  H53  1  0.387000  0.547000  0.928600  1.0  0.0947
  H  H54  1  0.493100  0.520700  0.892700  1.0  0.103
  H  H55  1  0.479200  0.427100  0.972100  1.0  0.0712
  H  H56  1  0.373800  0.454100  0.008200  1.0  0.0842
  H  H57  1  0.363900  0.138800  0.356200  1.0  0.1178
  H  H58  1  0.532500  0.239400  0.378400  1.0  0.0981
  H  H59  1  0.408000  0.246700  0.559000  1.0  0.1052
  H  H60  1  0.631000  0.405400  0.603700  1.0  0.1132
  H  H61  1  0.724600  0.386700  0.699400  1.0  0.1001
  H  H62  1  0.684700  0.214400  0.535200  1.0  0.1048
  H  H63  1  0.071200  0.528100  0.228600  1.0  0.0745
  H  H64  1  0.913800  0.314600  0.213600  1.0  0.1153
  H  H65  1  0.907600  0.347500  0.328600  1.0  0.1219
  H  H66  1  0.992500  0.463600  0.395700  1.0  0.0756
  H  H67  1  0.099400  0.526300  0.362800  1.0  0.0705
  H  H68  1  0.952500  0.589100  0.329700  1.0  0.0857
  H  H69  1  0.841600  0.524500  0.358100  1.0  0.0772
  H  H70  1  0.038000  0.611900  0.437700  1.0  0.0722
  H  H71  1  0.918000  0.552500  0.463900  1.0  0.0686
  H  H72  1  0.925700  0.690000  0.409100  1.0  0.1063
  H  H73  1  0.797800  0.628300  0.419700  1.0  0.0898
  H  H74  1  0.989900  0.779100  0.506100  1.0  0.1026
  H  H75  1  0.787800  0.662900  0.646800  1.0  0.1176
  H  H76  1  0.765000  0.580700  0.551600  1.0  0.1332
  H  H77  1  0.156100  0.954000  0.577400  1.0  0.1059
  H  H78  1  0.214100  0.824300  0.717900  1.0  0.1062
  H  H79  1  0.418900  0.902100  0.683800  1.0  0.1379
  H  H80  1  0.387000  0.047000  0.571400  1.0  0.0942
  H  H81  1  0.493100  0.020700  0.607300  1.0  0.1033
  H  H82  1  0.479200  0.927100  0.527900  1.0  0.0715
  H  H83  1  0.373800  0.954100  0.491800  1.0  0.0842
  H  H84  1  0.363900  0.638800  0.143800  1.0  0.1168
  H  H85  1  0.532500  0.739400  0.121600  1.0  0.0974
  H  H86  1  0.408000  0.746700  0.941000  1.0  0.1053
  H  H87  1  0.631000  0.905400  0.896300  1.0  0.1134
  H  H88  1  0.724600  0.886700  0.800600  1.0  0.0999
  H  H89  1  0.684700  0.714400  0.964800  1.0  0.1052
  H  H90  1  0.928800  0.971900  0.728600  1.0  0.074
  H  H91  1  0.086200  0.185400  0.713600  1.0  0.116
  H  H92  1  0.092400  0.152500  0.828600  1.0  0.1218
  H  H93  1  0.007500  0.036400  0.895700  1.0  0.0755
  H  H94  1  0.900600  0.973700  0.862800  1.0  0.0676
  H  H95  1  0.047500  0.910900  0.829700  1.0  0.0859
  H  H96  1  0.158400  0.975500  0.858100  1.0  0.0779
  H  H97  1  0.962000  0.888100  0.937700  1.0  0.0719
  H  H98  1  0.082000  0.947500  0.963900  1.0  0.0667
  H  H99  1  0.074300  0.810000  0.909100  1.0  0.1061
  H  H100  1  0.202200  0.871700  0.919700  1.0  0.0896
  H  H101  1  0.010100  0.720900  0.006100  1.0  0.1023
  H  H102  1  0.212200  0.837100  0.146800  1.0  0.1171
  H  H103  1  0.235000  0.919300  0.051600  1.0  0.1334
  H  H104  1  0.843900  0.546000  0.077400  1.0  0.1055
  H  H105  1  0.785900  0.675700  0.217900  1.0  0.1065
  H  H106  1  0.581100  0.597900  0.183800  1.0  0.1378
  H  H107  1  0.613000  0.453000  0.071400  1.0  0.0942
  H  H108  1  0.506900  0.479300  0.107300  1.0  0.1038
  H  H109  1  0.520800  0.572900  0.027900  1.0  0.0714
  H  H110  1  0.626200  0.545900  0.991800  1.0  0.0837
  H  H111  1  0.636100  0.861200  0.643800  1.0  0.117
  H  H112  1  0.467500  0.760600  0.621600  1.0  0.0976
  H  H113  1  0.592000  0.753300  0.441000  1.0  0.1056
  H  H114  1  0.369000  0.594600  0.396300  1.0  0.1138
  H  H115  1  0.275400  0.613300  0.300600  1.0  0.1006
  H  H116  1  0.315300  0.785600  0.464800  1.0  0.1051
  C  C117  1  0.970500  0.521300  0.761400  1.0  0.1866
  C  C118  1  0.056100  0.637800  0.768500  1.0  0.0283
  C  C119  1  0.059400  0.619800  0.705200  1.0  -0.1629
  C  C120  1  0.988400  0.502100  0.640700  1.0  -0.014
  C  C121  1  0.070400  0.448300  0.636200  1.0  -0.1591
  C  C122  1  0.051400  0.410100  0.569500  1.0  -0.14
  C  C123  1  0.116700  0.352600  0.564200  1.0  -0.0202
  C  C124  1  0.063500  0.259700  0.470500  1.0  0.1612
  C  C125  1  0.174000  0.324100  0.393500  1.0  0.0329
  C  C126  1  0.188100  0.369400  0.446100  1.0  -0.1557
  C  C127  1  0.804500  0.068400  0.391700  1.0  0.156
  C  C128  1  0.771800  0.139600  0.314600  1.0  0.0241
  C  C129  1  0.658900  0.096900  0.333200  1.0  -0.1572
  C  C130  1  0.582500  0.996200  0.418900  1.0  -0.0239
  C  C131  1  0.551100  0.029600  0.481600  1.0  -0.1469
  C  C132  1  0.826100  0.433300  0.925700  1.0  0.69
  C  C133  1  0.719600  0.367900  0.944500  1.0  -0.0769
  C  C134  1  0.628200  0.339400  0.897200  1.0  -0.0756
  C  C135  1  0.526600  0.279400  0.910700  1.0  -0.1294
  C  C136  1  0.510800  0.246800  0.971400  1.0  0.0487
  C  C137  1  0.601600  0.274600  0.017800  1.0  -0.0812
  C  C138  1  0.707600  0.333900  0.004800  1.0  -0.1144
  C  C139  1  0.809200  0.354000  0.055000  1.0  0.6531
  C  C140  1  0.401300  0.177600  0.989700  1.0  -0.2914
  C  C141  1  0.289900  0.164200  0.941600  1.0  0.693
  C  C142  1  0.457400  0.109100  0.987000  1.0  0.6949
  C  C143  1  0.348500  0.187500  0.057600  1.0  0.0726
  C  C144  1  0.337600  0.136000  0.108400  1.0  -0.1747
  C  C145  1  0.280200  0.147100  0.165400  1.0  -0.0405
  C  C146  1  0.229300  0.207000  0.174000  1.0  -0.1377
  C  C147  1  0.150900  0.208600  0.234800  1.0  0.6798
  C  C148  1  0.242400  0.260000  0.124600  1.0  -0.0155
  C  C149  1  0.199500  0.330000  0.130100  1.0  0.6823
  C  C150  1  0.303800  0.249500  0.067700  1.0  -0.1392
  C  C151  1  0.029500  0.978700  0.261400  1.0  0.1876
  C  C152  1  0.943900  0.862200  0.268500  1.0  0.0296
  C  C153  1  0.940600  0.880200  0.205200  1.0  -0.1631
  C  C154  1  0.011600  0.997900  0.140700  1.0  -0.0142
  C  C155  1  0.929600  0.051700  0.136200  1.0  -0.1596
  C  C156  1  0.948600  0.089900  0.069500  1.0  -0.1401
  C  C157  1  0.883300  0.147400  0.064200  1.0  -0.0198
  C  C158  1  0.936500  0.240300  0.970500  1.0  0.1601
  C  C159  1  0.826000  0.175900  0.893500  1.0  0.0344
  C  C160  1  0.811900  0.130600  0.946100  1.0  -0.1565
  C  C161  1  0.195500  0.431600  0.891700  1.0  0.1566
  C  C162  1  0.228200  0.360400  0.814600  1.0  0.0228
  C  C163  1  0.341100  0.403100  0.833200  1.0  -0.1569
  C  C164  1  0.417500  0.503800  0.918900  1.0  -0.0237
  C  C165  1  0.448900  0.470400  0.981600  1.0  -0.1466
  C  C166  1  0.173900  0.066700  0.425700  1.0  0.6899
  C  C167  1  0.280400  0.132100  0.444500  1.0  -0.0779
  C  C168  1  0.371800  0.160600  0.397200  1.0  -0.0759
  C  C169  1  0.473400  0.220600  0.410700  1.0  -0.1306
  C  C170  1  0.489200  0.253200  0.471400  1.0  0.0494
  C  C171  1  0.398400  0.225400  0.517800  1.0  -0.0826
  C  C172  1  0.292400  0.166100  0.504800  1.0  -0.1139
  C  C173  1  0.190800  0.146000  0.555000  1.0  0.6471
  C  C174  1  0.598700  0.322400  0.489700  1.0  -0.2918
  C  C175  1  0.710100  0.335800  0.441600  1.0  0.693
  C  C176  1  0.542600  0.390900  0.487000  1.0  0.6955
  C  C177  1  0.651500  0.312500  0.557600  1.0  0.0704
  C  C178  1  0.662400  0.364000  0.608400  1.0  -0.1747
  C  C179  1  0.719800  0.352900  0.665400  1.0  -0.0392
  C  C180  1  0.770700  0.293000  0.674000  1.0  -0.1369
  C  C181  1  0.849100  0.291400  0.734800  1.0  0.681
  C  C182  1  0.757600  0.240000  0.624600  1.0  -0.0156
  C  C183  1  0.800500  0.170000  0.630100  1.0  0.6834
  C  C184  1  0.696200  0.250500  0.567700  1.0  -0.1401
  C  C185  1  0.029500  0.478700  0.238600  1.0  0.186
  C  C186  1  0.943900  0.362200  0.231500  1.0  0.0281
  C  C187  1  0.940600  0.380200  0.294800  1.0  -0.1621
  C  C188  1  0.011600  0.497900  0.359300  1.0  -0.0148
  C  C189  1  0.929600  0.551700  0.363800  1.0  -0.1591
  C  C190  1  0.948600  0.589900  0.430500  1.0  -0.1413
  C  C191  1  0.883300  0.647400  0.435800  1.0  -0.0188
  C  C192  1  0.936500  0.740300  0.529500  1.0  0.1598
  C  C193  1  0.826000  0.675900  0.606500  1.0  0.0339
  C  C194  1  0.811900  0.630600  0.553900  1.0  -0.1557
  C  C195  1  0.195500  0.931600  0.608300  1.0  0.157
  C  C196  1  0.228200  0.860400  0.685400  1.0  0.024
  C  C197  1  0.341100  0.903100  0.666800  1.0  -0.1566
  C  C198  1  0.417500  0.003800  0.581100  1.0  -0.0247
  C  C199  1  0.448900  0.970400  0.518400  1.0  -0.1458
  C  C200  1  0.173900  0.566700  0.074300  1.0  0.6901
  C  C201  1  0.280400  0.632100  0.055500  1.0  -0.077
  C  C202  1  0.371800  0.660600  0.102800  1.0  -0.0749
  C  C203  1  0.473400  0.720600  0.089300  1.0  -0.1308
  C  C204  1  0.489200  0.753200  0.028600  1.0  0.0493
  C  C205  1  0.398400  0.725400  0.982200  1.0  -0.0802
  C  C206  1  0.292400  0.666100  0.995200  1.0  -0.1148
  C  C207  1  0.190800  0.646000  0.945000  1.0  0.6466
  C  C208  1  0.598700  0.822400  0.010300  1.0  -0.2916
  C  C209  1  0.710100  0.835800  0.058400  1.0  0.6929
  C  C210  1  0.542600  0.890900  0.013000  1.0  0.6955
  C  C211  1  0.651500  0.812500  0.942400  1.0  0.0705
  C  C212  1  0.662400  0.864000  0.891600  1.0  -0.1751
  C  C213  1  0.719800  0.852900  0.834600  1.0  -0.0388
  C  C214  1  0.770700  0.793000  0.826000  1.0  -0.1371
  C  C215  1  0.849100  0.791400  0.765200  1.0  0.6803
  C  C216  1  0.757600  0.740000  0.875400  1.0  -0.0171
  C  C217  1  0.800500  0.670000  0.869900  1.0  0.6829
  C  C218  1  0.696200  0.750500  0.932300  1.0  -0.1404
  C  C219  1  0.970500  0.021300  0.738600  1.0  0.1853
  C  C220  1  0.056100  0.137800  0.731500  1.0  0.0277
  C  C221  1  0.059400  0.119800  0.794800  1.0  -0.1623
  C  C222  1  0.988400  0.002100  0.859300  1.0  -0.0143
  C  C223  1  0.070400  0.948300  0.863800  1.0  -0.1589
  C  C224  1  0.051400  0.910100  0.930500  1.0  -0.1411
  C  C225  1  0.116700  0.852600  0.935800  1.0  -0.0199
  C  C226  1  0.063500  0.759700  0.029500  1.0  0.1608
  C  C227  1  0.174000  0.824100  0.106500  1.0  0.0337
  C  C228  1  0.188100  0.869400  0.053900  1.0  -0.155
  C  C229  1  0.804500  0.568400  0.108300  1.0  0.1564
  C  C230  1  0.771800  0.639600  0.185400  1.0  0.0233
  C  C231  1  0.658900  0.596900  0.166800  1.0  -0.1577
  C  C232  1  0.582500  0.496200  0.081100  1.0  -0.0253
  C  C233  1  0.551100  0.529600  0.018400  1.0  -0.1457
  C  C234  1  0.826100  0.933300  0.574300  1.0  0.6902
  C  C235  1  0.719600  0.867900  0.555500  1.0  -0.0763
  C  C236  1  0.628200  0.839400  0.602800  1.0  -0.074
  C  C237  1  0.526600  0.779400  0.589300  1.0  -0.1302
  C  C238  1  0.510800  0.746800  0.528600  1.0  0.0487
  C  C239  1  0.601600  0.774600  0.482200  1.0  -0.0803
  C  C240  1  0.707600  0.833900  0.495200  1.0  -0.1149
  C  C241  1  0.809200  0.854000  0.445000  1.0  0.6524
  C  C242  1  0.401300  0.677600  0.510300  1.0  -0.2911
  C  C243  1  0.289900  0.664200  0.558400  1.0  0.6923
  C  C244  1  0.457400  0.609100  0.513000  1.0  0.6952
  C  C245  1  0.348500  0.687500  0.442400  1.0  0.0724
  C  C246  1  0.337600  0.636000  0.391600  1.0  -0.1746
  C  C247  1  0.280200  0.647100  0.334600  1.0  -0.0388
  C  C248  1  0.229300  0.707000  0.326000  1.0  -0.1362
  C  C249  1  0.150900  0.708600  0.265200  1.0  0.6803
  C  C250  1  0.242400  0.760000  0.375400  1.0  -0.0159
  C  C251  1  0.199500  0.830000  0.369900  1.0  0.6821
  C  C252  1  0.303800  0.749500  0.432300  1.0  -0.1396
  N  N253  1  0.998400  0.571000  0.803000  1.0  -0.3948
  N  N254  1  0.005300  0.544500  0.699800  1.0  0.0208
  N  N255  1  0.120100  0.327700  0.494900  1.0  0.0444
  N  N256  1  0.093800  0.255300  0.409400  1.0  -0.4025
  N  N257  1  0.863500  0.121700  0.350900  1.0  -0.393
  N  N258  1  0.679300  0.051500  0.381900  1.0  0.0457
  N  N259  1  0.001600  0.929000  0.303000  1.0  -0.3948
  N  N260  1  0.994700  0.955500  0.199800  1.0  0.0207
  N  N261  1  0.879900  0.172300  0.994900  1.0  0.0444
  N  N262  1  0.906200  0.244700  0.909400  1.0  -0.4028
  N  N263  1  0.136500  0.378300  0.850900  1.0  -0.3932
  N  N264  1  0.320700  0.448500  0.881900  1.0  0.0464
  N  N265  1  0.001600  0.429000  0.197000  1.0  -0.3936
  N  N266  1  0.994700  0.455500  0.300200  1.0  0.0202
  N  N267  1  0.879900  0.672300  0.505100  1.0  0.0443
  N  N268  1  0.906200  0.744700  0.590600  1.0  -0.4011
  N  N269  1  0.136500  0.878300  0.649100  1.0  -0.3934
  N  N270  1  0.320700  0.948500  0.618100  1.0  0.0468
  N  N271  1  0.998400  0.071000  0.697000  1.0  -0.393
  N  N272  1  0.005300  0.044500  0.800200  1.0  0.0206
  N  N273  1  0.120100  0.827700  0.005100  1.0  0.044
  N  N274  1  0.093800  0.755300  0.090600  1.0  -0.4011
  N  N275  1  0.863500  0.621700  0.149100  1.0  -0.393
  N  N276  1  0.679300  0.551500  0.118100  1.0  0.0483
  O  O277  1  0.919500  0.423800  0.895680  1.0  -0.5963
  O  O278  1  0.815600  0.497800  0.936930  1.0  -0.5696
  O  O279  1  0.903800  0.406900  0.042620  1.0  -0.5945
  O  O280  1  0.802700  0.312100  0.102400  1.0  -0.5811
  O  O281  1  0.161300  0.167000  0.279300  1.0  -0.6084
  O  O282  1  0.068500  0.238900  0.235100  1.0  -0.5807
  O  O283  1  0.256800  0.380200  0.164300  1.0  -0.5944
  O  O284  1  0.106800  0.331900  0.094300  1.0  -0.6332
  O  O285  1  0.080500  0.076200  0.395680  1.0  -0.5962
  O  O286  1  0.184400  0.002200  0.436930  1.0  -0.5703
  O  O287  1  0.096200  0.093100  0.542620  1.0  -0.5931
  O  O288  1  0.197300  0.187900  0.602400  1.0  -0.5806
  O  O289  1  0.838700  0.333000  0.779300  1.0  -0.6086
  O  O290  1  0.931500  0.261100  0.735100  1.0  -0.58
  O  O291  1  0.743200  0.119800  0.664300  1.0  -0.5926
  O  O292  1  0.893200  0.168100  0.594300  1.0  -0.6331
  O  O293  1  0.080500  0.576200  0.104320  1.0  -0.5962
  O  O294  1  0.184400  0.502200  0.063070  1.0  -0.5702
  O  O295  1  0.096200  0.593100  0.957380  1.0  -0.5935
  O  O296  1  0.197300  0.687900  0.897600  1.0  -0.5838
  O  O297  1  0.838700  0.833000  0.720700  1.0  -0.608
  O  O298  1  0.931500  0.761100  0.764900  1.0  -0.5798
  O  O299  1  0.743200  0.619800  0.835700  1.0  -0.5929
  O  O300  1  0.893200  0.668100  0.905700  1.0  -0.633
  O  O301  1  0.919500  0.923800  0.604320  1.0  -0.5965
  O  O302  1  0.815600  0.997800  0.563070  1.0  -0.5696
  O  O303  1  0.903800  0.906900  0.457380  1.0  -0.5948
  O  O304  1  0.802700  0.812100  0.397600  1.0  -0.5839
  O  O305  1  0.161300  0.667000  0.220700  1.0  -0.608
  O  O306  1  0.068500  0.738900  0.264900  1.0  -0.5807
  O  O307  1  0.256800  0.880200  0.335700  1.0  -0.5922
  O  O308  1  0.106800  0.831900  0.405700  1.0  -0.6334
  F  F309  1  0.252700  0.224900  0.931140  1.0  -0.1818
  F  F310  1  0.189900  0.111600  0.964800  1.0  -0.2122
  F  F311  1  0.315800  0.138900  0.883390  1.0  -0.2061
  F  F312  1  0.511000  0.105000  0.928800  1.0  -0.22
  F  F313  1  0.367600  0.044100  0.993200  1.0  -0.2179
  F  F314  1  0.541900  0.111300  0.031300  1.0  -0.173
  F  F315  1  0.747300  0.275100  0.431140  1.0  -0.1821
  F  F316  1  0.810100  0.388400  0.464800  1.0  -0.2117
  F  F317  1  0.684200  0.361100  0.383390  1.0  -0.2058
  F  F318  1  0.489000  0.395000  0.428800  1.0  -0.2192
  F  F319  1  0.632400  0.455900  0.493200  1.0  -0.218
  F  F320  1  0.458100  0.388700  0.531300  1.0  -0.1725
  F  F321  1  0.747300  0.775100  0.068860  1.0  -0.1817
  F  F322  1  0.810100  0.888400  0.035200  1.0  -0.2111
  F  F323  1  0.684200  0.861100  0.116610  1.0  -0.2045
  F  F324  1  0.489000  0.895000  0.071200  1.0  -0.2184
  F  F325  1  0.632400  0.955900  0.006800  1.0  -0.218
  F  F326  1  0.458100  0.888700  0.968700  1.0  -0.1728
  F  F327  1  0.252700  0.724900  0.568860  1.0  -0.1818
  F  F328  1  0.189900  0.611600  0.535200  1.0  -0.2118
  F  F329  1  0.315800  0.638900  0.616610  1.0  -0.2052
  F  F330  1  0.511000  0.605000  0.571200  1.0  -0.2189
  F  F331  1  0.367600  0.544100  0.506800  1.0  -0.2179
  F  F332  1  0.541900  0.611300  0.468700  1.0  -0.1733
