# generated using pymatgen
data_Cu5H18C26I5N4
_symmetry_space_group_name_H-M   'P 1'
_cell_length_a   10.16520000
_cell_length_b   14.63420000
_cell_length_c   15.28290000
_cell_angle_alpha   117.53800000
_cell_angle_beta   96.14100000
_cell_angle_gamma   104.33800000
_symmetry_Int_Tables_number   1
_chemical_formula_structural   Cu5H18C26I5N4
_chemical_formula_sum   'Cu10 H36 C52 I10 N8'
_cell_volume   1887.09386041
_cell_formula_units_Z   2
loop_
 _symmetry_equiv_pos_site_id
 _symmetry_equiv_pos_as_xyz
  1  'x, y, z'
loop_
 _atom_site_type_symbol
 _atom_site_label
 _atom_site_symmetry_multiplicity
 _atom_site_fract_x
 _atom_site_fract_y
 _atom_site_fract_z
 _atom_site_occupancy
 _atom_site_charge
  Cu  Cu1  1  0.939900  0.575470  0.533690  1.0  0.1361
  Cu  Cu2  1  0.941590  0.616510  0.745240  1.0  0.0868
  Cu  Cu3  1  0.735690  0.726460  0.781850  1.0  0.1295
  Cu  Cu4  1  0.672060  0.510810  0.754300  1.0  0.1286
  Cu  Cu5  1  0.847930  0.685520  0.914570  1.0  0.1387
  Cu  Cu6  1  0.060100  0.424530  0.466310  1.0  0.1353
  Cu  Cu7  1  0.058410  0.383490  0.254760  1.0  0.0862
  Cu  Cu8  1  0.264310  0.273540  0.218150  1.0  0.1319
  Cu  Cu9  1  0.327940  0.489190  0.245700  1.0  0.1293
  Cu  Cu10  1  0.152070  0.314480  0.085430  1.0  0.1384
  H  H11  1  0.112400  0.813700  0.673400  1.0  0.0808
  H  H12  1  0.297400  0.935900  0.670700  1.0  0.1332
  H  H13  1  0.187200  0.751900  0.365800  1.0  0.1084
  H  H14  1  0.003100  0.634400  0.376600  1.0  0.0772
  H  H15  1  0.275400  0.942300  0.402100  1.0  0.1032
  H  H16  1  0.432500  0.756900  0.530500  1.0  0.1056
  H  H17  1  0.511700  0.677900  0.615500  1.0  0.0721
  H  H18  1  0.778100  0.959300  0.826400  1.0  0.0824
  H  H19  1  0.707000  0.044600  0.748000  1.0  0.1261
  H  H20  1  0.090900  0.092700  0.915900  1.0  0.0663
  H  H21  1  0.062400  0.996000  0.744700  1.0  0.1281
  H  H22  1  0.084800  0.270200  0.738900  1.0  0.128
  H  H23  1  0.109600  0.357200  0.912100  1.0  0.0767
  H  H24  1  0.882100  0.934500  0.590100  1.0  0.1068
  H  H25  1  0.196500  0.271500  0.528800  1.0  0.1279
  H  H26  1  0.402800  0.415700  0.603300  1.0  0.0642
  H  H27  1  0.552900  0.299300  0.755600  1.0  0.0753
  H  H28  1  0.350100  0.157000  0.693500  1.0  0.1288
  H  H29  1  0.887600  0.186300  0.326600  1.0  0.0764
  H  H30  1  0.702600  0.064100  0.329300  1.0  0.1343
  H  H31  1  0.812800  0.248100  0.634200  1.0  0.1083
  H  H32  1  0.996900  0.365600  0.623400  1.0  0.0721
  H  H33  1  0.724600  0.057700  0.597900  1.0  0.1034
  H  H34  1  0.567500  0.243100  0.469500  1.0  0.1053
  H  H35  1  0.488300  0.322100  0.384500  1.0  0.0705
  H  H36  1  0.221900  0.040700  0.173600  1.0  0.0821
  H  H37  1  0.293000  0.955400  0.252000  1.0  0.1274
  H  H38  1  0.909100  0.907300  0.084100  1.0  0.0654
  H  H39  1  0.937600  0.004000  0.255300  1.0  0.1285
  H  H40  1  0.915200  0.729800  0.261100  1.0  0.129
  H  H41  1  0.890400  0.642800  0.087900  1.0  0.0791
  H  H42  1  0.117900  0.065500  0.409900  1.0  0.1056
  H  H43  1  0.803500  0.728500  0.471200  1.0  0.1272
  H  H44  1  0.597200  0.584300  0.396700  1.0  0.0644
  H  H45  1  0.447100  0.700700  0.244400  1.0  0.0752
  H  H46  1  0.649900  0.843000  0.306500  1.0  0.1285
  C  C47  1  0.128900  0.800400  0.610600  1.0  0.175
  C  C48  1  0.239800  0.874600  0.609800  1.0  -0.2088
  C  C49  1  0.266100  0.857100  0.515700  1.0  0.1123
  C  C50  1  0.174700  0.766000  0.429700  1.0  -0.1898
  C  C51  1  0.064400  0.694800  0.436500  1.0  0.1604
  C  C52  1  0.389500  0.928900  0.508900  1.0  0.0083
  C  C53  1  0.365700  0.966600  0.442400  1.0  -0.1336
  C  C54  1  0.525000  0.959700  0.565000  1.0  -0.0026
  C  C55  1  0.564000  0.910400  0.627000  1.0  0.0921
  C  C56  1  0.504900  0.800000  0.590100  1.0  -0.188
  C  C57  1  0.553000  0.752600  0.641500  1.0  0.1589
  C  C58  1  0.709000  0.917400  0.764900  1.0  0.1614
  C  C59  1  0.666500  0.969200  0.718100  1.0  -0.213
  C  C60  1  0.089000  0.129000  0.879600  1.0  0.1643
  C  C61  1  0.071500  0.069800  0.776600  1.0  -0.231
  C  C62  1  0.067700  0.121600  0.720800  1.0  0.0999
  C  C63  1  0.084400  0.231700  0.773200  1.0  -0.2056
  C  C64  1  0.100400  0.283400  0.877600  1.0  0.1608
  C  C65  1  0.040400  0.058500  0.606100  1.0  0.0028
  C  C66  1  0.929100  0.961500  0.553400  1.0  -0.1326
  C  C67  1  0.115500  0.097200  0.552100  1.0  0.0209
  C  C68  1  0.247500  0.196000  0.603000  1.0  0.1012
  C  C69  1  0.266900  0.275800  0.576300  1.0  -0.2215
  C  C70  1  0.392100  0.361900  0.621000  1.0  0.1583
  C  C71  1  0.479200  0.295000  0.710500  1.0  0.1676
  C  C72  1  0.358100  0.208000  0.672500  1.0  -0.2045
  C  C73  1  0.871100  0.199600  0.389400  1.0  0.1771
  C  C74  1  0.760200  0.125400  0.390200  1.0  -0.2121
  C  C75  1  0.733900  0.142900  0.484300  1.0  0.1113
  C  C76  1  0.825300  0.234000  0.570300  1.0  -0.1847
  C  C77  1  0.935600  0.305200  0.563500  1.0  0.1613
  C  C78  1  0.610500  0.071100  0.491100  1.0  0.007
  C  C79  1  0.634300  0.033400  0.557600  1.0  -0.1325
  C  C80  1  0.475000  0.040300  0.435000  1.0  -0.002
  C  C81  1  0.436000  0.089600  0.373000  1.0  0.0942
  C  C82  1  0.495100  0.200000  0.409900  1.0  -0.1817
  C  C83  1  0.447000  0.247400  0.358500  1.0  0.1544
  C  C84  1  0.291000  0.082600  0.235100  1.0  0.1659
  C  C85  1  0.333500  0.030800  0.281900  1.0  -0.2134
  C  C86  1  0.911000  0.871000  0.120400  1.0  0.1657
  C  C87  1  0.928500  0.930200  0.223400  1.0  -0.2281
  C  C88  1  0.932300  0.878400  0.279200  1.0  0.0993
  C  C89  1  0.915600  0.768300  0.226800  1.0  -0.2048
  C  C90  1  0.899600  0.716600  0.122400  1.0  0.1587
  C  C91  1  0.959600  0.941500  0.393900  1.0  0.0032
  C  C92  1  0.070900  0.038500  0.446600  1.0  -0.1337
  C  C93  1  0.884500  0.902800  0.447900  1.0  0.0195
  C  C94  1  0.752500  0.804000  0.397000  1.0  0.1008
  C  C95  1  0.733100  0.724200  0.423700  1.0  -0.2126
  C  C96  1  0.607900  0.638100  0.379000  1.0  0.1566
  C  C97  1  0.520800  0.705000  0.289500  1.0  0.1678
  C  C98  1  0.641900  0.792000  0.327500  1.0  -0.2032
  I  I99  1  0.709640  0.538560  0.591010  1.0  -0.1825
  I  I100  1  0.154710  0.587630  0.664580  1.0  -0.2228
  I  I101  1  0.005170  0.832810  0.871580  1.0  -0.2609
  I  I102  1  0.897340  0.497910  0.842730  1.0  -0.2615
  I  I103  1  0.568250  0.662190  0.874070  1.0  -0.268
  I  I104  1  0.290360  0.461440  0.408990  1.0  -0.1834
  I  I105  1  0.845290  0.412370  0.335420  1.0  -0.222
  I  I106  1  0.994830  0.167190  0.128420  1.0  -0.2595
  I  I107  1  0.102660  0.502090  0.157270  1.0  -0.2615
  I  I108  1  0.431750  0.337810  0.125930  1.0  -0.2662
  N  N109  1  0.042300  0.709500  0.526500  1.0  -0.2636
  N  N110  1  0.656600  0.810800  0.727000  1.0  -0.2986
  N  N111  1  0.103300  0.233700  0.931700  1.0  -0.2302
  N  N112  1  0.499100  0.372800  0.688200  1.0  -0.2384
  N  N113  1  0.957700  0.290500  0.473500  1.0  -0.2608
  N  N114  1  0.343400  0.189200  0.273000  1.0  -0.3043
  N  N115  1  0.896700  0.766300  0.068300  1.0  -0.2327
  N  N116  1  0.500900  0.627200  0.311800  1.0  -0.2451
