# generated using pymatgen
data_Cd3H30C50(N2O7)2
_symmetry_space_group_name_H-M   'P 1'
_cell_length_a   13.86200000
_cell_length_b   14.47700000
_cell_length_c   14.66400000
_cell_angle_alpha   95.33100000
_cell_angle_beta   106.02100000
_cell_angle_gamma   118.08400000
_symmetry_Int_Tables_number   1
_chemical_formula_structural   Cd3H30C50(N2O7)2
_chemical_formula_sum   'Cd6 H60 C100 N8 O28'
_cell_volume   2407.74789124
_cell_formula_units_Z   2
loop_
 _symmetry_equiv_pos_site_id
 _symmetry_equiv_pos_as_xyz
  1  'x, y, z'
loop_
 _atom_site_type_symbol
 _atom_site_label
 _atom_site_symmetry_multiplicity
 _atom_site_fract_x
 _atom_site_fract_y
 _atom_site_fract_z
 _atom_site_occupancy
 _atom_site_charge
  Cd  Cd1  1  0.621510  0.713560  0.418560  1.0  1.0092
  Cd  Cd2  1  0.526450  0.724880  0.169230  1.0  1.0348
  Cd  Cd3  1  0.283560  0.793850  0.136610  1.0  1.033
  Cd  Cd4  1  0.378490  0.286440  0.581440  1.0  1.0097
  Cd  Cd5  1  0.473550  0.275120  0.830770  1.0  1.0349
  Cd  Cd6  1  0.716440  0.206150  0.863390  1.0  1.0325
  H  H7  1  0.608700  0.165900  0.246000  1.0  0.0994
  H  H8  1  0.782900  0.308900  0.356400  1.0  0.1028
  H  H9  1  0.920900  0.280600  0.458100  1.0  0.1291
  H  H10  1  0.798000  0.118900  0.576900  1.0  0.1185
  H  H11  1  0.012700  0.123900  0.827500  1.0  0.1068
  H  H12  1  0.124500  0.104800  0.745400  1.0  0.1036
  H  H13  1  0.075400  0.095400  0.579000  1.0  0.1246
  H  H14  1  0.306900  0.338000  0.258600  1.0  0.0947
  H  H15  1  0.163100  0.198400  0.123100  1.0  0.1053
  H  H16  1  0.073000  0.232600  0.985300  1.0  0.118
  H  H17  1  0.259600  0.392400  0.918500  1.0  0.1135
  H  H18  1  0.155400  0.396400  0.637700  1.0  0.1061
  H  H19  1  0.002800  0.414800  0.657100  1.0  0.109
  H  H20  1  0.978500  0.418100  0.805800  1.0  0.1196
  H  H21  1  0.450500  0.583600  0.525700  1.0  0.0755
  H  H22  1  0.431900  0.588800  0.672800  1.0  0.1151
  H  H23  1  0.645500  0.911800  0.748900  1.0  0.1276
  H  H24  1  0.658200  0.895800  0.597900  1.0  0.069
  H  H25  1  0.392200  0.613500  0.799300  1.0  0.096
  H  H26  1  0.384200  0.627200  0.953200  1.0  0.0776
  H  H27  1  0.669300  0.890600  0.053600  1.0  0.0633
  H  H28  1  0.672800  0.897600  0.902300  1.0  0.097
  H  H29  1  0.288300  0.914300  0.966300  1.0  0.075
  H  H30  1  0.164400  0.907700  0.822000  1.0  0.1225
  H  H31  1  0.955800  0.592200  0.795900  1.0  0.1213
  H  H32  1  0.085000  0.612000  0.940600  1.0  0.0637
  H  H33  1  0.996200  0.895700  0.738700  1.0  0.119
  H  H34  1  0.851000  0.881700  0.608400  1.0  0.0689
  H  H35  1  0.744200  0.580200  0.502000  1.0  0.073
  H  H36  1  0.881200  0.584900  0.631500  1.0  0.1366
  H  H37  1  0.391300  0.834100  0.754000  1.0  0.0992
  H  H38  1  0.217100  0.691100  0.643600  1.0  0.1022
  H  H39  1  0.079100  0.719400  0.541900  1.0  0.1282
  H  H40  1  0.202000  0.881100  0.423100  1.0  0.1197
  H  H41  1  0.987300  0.876100  0.172500  1.0  0.1071
  H  H42  1  0.875500  0.895200  0.254600  1.0  0.1042
  H  H43  1  0.924600  0.904600  0.421000  1.0  0.1248
  H  H44  1  0.693100  0.662000  0.741400  1.0  0.0941
  H  H45  1  0.836900  0.801600  0.876900  1.0  0.1057
  H  H46  1  0.927000  0.767400  0.014700  1.0  0.1188
  H  H47  1  0.740400  0.607600  0.081500  1.0  0.1132
  H  H48  1  0.844600  0.603600  0.362300  1.0  0.106
  H  H49  1  0.997200  0.585200  0.342900  1.0  0.1093
  H  H50  1  0.021500  0.581900  0.194200  1.0  0.1202
  H  H51  1  0.549500  0.416400  0.474300  1.0  0.0757
  H  H52  1  0.568100  0.411200  0.327200  1.0  0.1143
  H  H53  1  0.354500  0.088200  0.251100  1.0  0.1279
  H  H54  1  0.341800  0.104200  0.402100  1.0  0.0691
  H  H55  1  0.607800  0.386500  0.200700  1.0  0.0963
  H  H56  1  0.615800  0.372800  0.046800  1.0  0.0773
  H  H57  1  0.330700  0.109400  0.946400  1.0  0.063
  H  H58  1  0.327200  0.102400  0.097700  1.0  0.0961
  H  H59  1  0.711700  0.085700  0.033700  1.0  0.0745
  H  H60  1  0.835600  0.092300  0.178000  1.0  0.1229
  H  H61  1  0.044200  0.407800  0.204100  1.0  0.1222
  H  H62  1  0.915000  0.388000  0.059400  1.0  0.0634
  H  H63  1  0.003800  0.104300  0.261300  1.0  0.1191
  H  H64  1  0.149000  0.118300  0.391600  1.0  0.0687
  H  H65  1  0.255800  0.419800  0.498000  1.0  0.073
  H  H66  1  0.118800  0.415100  0.368500  1.0  0.1364
  C  C67  1  0.823500  0.117300  0.410200  1.0  0.2816
  C  C68  1  0.718800  0.029900  0.348700  1.0  -0.0601
  C  C69  1  0.696600  0.917700  0.350200  1.0  0.6994
  C  C70  1  0.633900  0.044700  0.285100  1.0  -0.1291
  C  C71  1  0.513100  0.953900  0.220700  1.0  0.6918
  C  C72  1  0.661900  0.152900  0.288300  1.0  -0.0639
  C  C73  1  0.767000  0.238500  0.353500  1.0  -0.0786
  C  C74  1  0.849500  0.222100  0.414700  1.0  -0.2489
  C  C75  1  0.934000  0.107800  0.564100  1.0  0.2895
  C  C76  1  0.863900  0.117000  0.611600  1.0  -0.0729
  C  C77  1  0.893100  0.123200  0.711700  1.0  -0.1663
  C  C78  1  0.825900  0.141400  0.764900  1.0  0.6693
  C  C79  1  0.991800  0.119200  0.760500  1.0  -0.0544
  C  C80  1  0.059300  0.108300  0.711600  1.0  -0.1058
  C  C81  1  0.030200  0.102600  0.612400  1.0  -0.1992
  C  C82  1  0.158900  0.394200  0.041400  1.0  0.2583
  C  C83  1  0.242900  0.480000  0.123600  1.0  -0.0869
  C  C84  1  0.259100  0.590000  0.120900  1.0  0.6605
  C  C85  1  0.301600  0.457500  0.203900  1.0  -0.1513
  C  C86  1  0.404000  0.548000  0.288900  1.0  0.6889
  C  C87  1  0.270200  0.353000  0.203700  1.0  -0.0533
  C  C88  1  0.184200  0.269400  0.122300  1.0  -0.0697
  C  C89  1  0.129400  0.289300  0.040700  1.0  -0.2403
  C  C90  1  0.118600  0.410000  0.877000  1.0  0.2986
  C  C91  1  0.208300  0.397200  0.865600  1.0  -0.1016
  C  C92  1  0.220600  0.391800  0.776800  1.0  -0.1257
  C  C93  1  0.316400  0.373700  0.762900  1.0  0.6971
  C  C94  1  0.145700  0.398900  0.698000  1.0  -0.0216
  C  C95  1  0.054300  0.409900  0.709800  1.0  -0.0879
  C  C96  1  0.040800  0.413400  0.798700  1.0  -0.2115
  C  C97  1  0.491300  0.650500  0.571500  1.0  0.1997
  C  C98  1  0.479700  0.653000  0.659600  1.0  -0.2135
  C  C99  1  0.538000  0.750000  0.730700  1.0  0.094
  C  C100  1  0.605900  0.843800  0.704900  1.0  -0.2237
  C  C101  1  0.612400  0.832900  0.614000  1.0  0.1835
  C  C102  1  0.537500  0.752800  0.831000  1.0  0.2005
  C  C103  1  0.452400  0.673800  0.850200  1.0  -0.1676
  C  C104  1  0.451300  0.679300  0.945200  1.0  0.1962
  C  C105  1  0.611400  0.830300  0.001800  1.0  0.2063
  C  C106  1  0.614600  0.834900  0.909800  1.0  -0.2159
  C  C107  1  0.218400  0.848900  0.932500  1.0  0.1986
  C  C108  1  0.145200  0.845900  0.845000  1.0  -0.218
  C  C109  1  0.042800  0.748500  0.792600  1.0  0.082
  C  C110  1  0.022200  0.660000  0.830000  1.0  -0.2
  C  C111  1  0.100400  0.673200  0.917300  1.0  0.1916
  C  C112  1  0.954600  0.741200  0.702300  1.0  0.0769
  C  C113  1  0.943900  0.829500  0.691800  1.0  -0.1861
  C  C114  1  0.856900  0.820800  0.612900  1.0  0.1919
  C  C115  1  0.794400  0.644500  0.551500  1.0  0.1812
  C  C116  1  0.876900  0.646800  0.628500  1.0  -0.2146
  C  C117  1  0.176500  0.882700  0.589800  1.0  0.2818
  C  C118  1  0.281200  0.970100  0.651300  1.0  -0.0606
  C  C119  1  0.303400  0.082300  0.649800  1.0  0.6997
  C  C120  1  0.366100  0.955300  0.714900  1.0  -0.1277
  C  C121  1  0.486900  0.046100  0.779300  1.0  0.6904
  C  C122  1  0.338100  0.847100  0.711700  1.0  -0.0651
  C  C123  1  0.233000  0.761500  0.646500  1.0  -0.0788
  C  C124  1  0.150500  0.777900  0.585300  1.0  -0.2486
  C  C125  1  0.066000  0.892200  0.435900  1.0  0.2884
  C  C126  1  0.136100  0.883000  0.388400  1.0  -0.0736
  C  C127  1  0.106900  0.876800  0.288300  1.0  -0.1651
  C  C128  1  0.174100  0.858600  0.235100  1.0  0.6692
  C  C129  1  0.008200  0.880800  0.239500  1.0  -0.0529
  C  C130  1  0.940700  0.891700  0.288400  1.0  -0.1083
  C  C131  1  0.969800  0.897400  0.387600  1.0  -0.2002
  C  C132  1  0.841100  0.605800  0.958600  1.0  0.2584
  C  C133  1  0.757100  0.520000  0.876400  1.0  -0.0883
  C  C134  1  0.740900  0.410000  0.879100  1.0  0.6601
  C  C135  1  0.698400  0.542500  0.796100  1.0  -0.1516
  C  C136  1  0.596000  0.452000  0.711100  1.0  0.6891
  C  C137  1  0.729800  0.647000  0.796300  1.0  -0.0515
  C  C138  1  0.815800  0.730600  0.877700  1.0  -0.068
  C  C139  1  0.870600  0.710700  0.959300  1.0  -0.2378
  C  C140  1  0.881400  0.590000  0.123000  1.0  0.2989
  C  C141  1  0.791700  0.602800  0.134400  1.0  -0.1008
  C  C142  1  0.779400  0.608200  0.223200  1.0  -0.1259
  C  C143  1  0.683600  0.626300  0.237100  1.0  0.6981
  C  C144  1  0.854300  0.601100  0.302000  1.0  -0.0236
  C  C145  1  0.945700  0.590100  0.290200  1.0  -0.0882
  C  C146  1  0.959200  0.586600  0.201300  1.0  -0.2113
  C  C147  1  0.508700  0.349500  0.428500  1.0  0.1989
  C  C148  1  0.520300  0.347000  0.340400  1.0  -0.2151
  C  C149  1  0.462000  0.250000  0.269300  1.0  0.0946
  C  C150  1  0.394100  0.156200  0.295100  1.0  -0.2204
  C  C151  1  0.387600  0.167100  0.386000  1.0  0.1832
  C  C152  1  0.462500  0.247200  0.169000  1.0  0.1998
  C  C153  1  0.547600  0.326200  0.149800  1.0  -0.168
  C  C154  1  0.548700  0.320700  0.054800  1.0  0.1956
  C  C155  1  0.388600  0.169700  0.998200  1.0  0.2066
  C  C156  1  0.385400  0.165100  0.090200  1.0  -0.2124
  C  C157  1  0.781600  0.151100  0.067500  1.0  0.1977
  C  C158  1  0.854800  0.154100  0.155000  1.0  -0.2167
  C  C159  1  0.957200  0.251500  0.207400  1.0  0.0824
  C  C160  1  0.977800  0.340000  0.170000  1.0  -0.1995
  C  C161  1  0.899600  0.326800  0.082700  1.0  0.1904
  C  C162  1  0.045400  0.258800  0.297700  1.0  0.0765
  C  C163  1  0.056100  0.170500  0.308200  1.0  -0.186
  C  C164  1  0.143100  0.179200  0.387100  1.0  0.1919
  C  C165  1  0.205600  0.355500  0.448500  1.0  0.1818
  C  C166  1  0.123100  0.353200  0.371500  1.0  -0.2171
  N  N167  1  0.557700  0.738200  0.545800  1.0  -0.3691
  N  N168  1  0.536400  0.751300  0.022300  1.0  -0.2697
  N  N169  1  0.196800  0.766200  0.972000  1.0  -0.3353
  N  N170  1  0.780100  0.728800  0.541900  1.0  -0.3583
  N  N171  1  0.442300  0.261800  0.454200  1.0  -0.371
  N  N172  1  0.463600  0.248700  0.977700  1.0  -0.2742
  N  N173  1  0.803200  0.233800  0.028000  1.0  -0.337
  N  N174  1  0.219900  0.271200  0.458100  1.0  -0.3582
  O  O175  1  0.444900  0.974400  0.163100  1.0  -0.585
  O  O176  1  0.482600  0.858900  0.228200  1.0  -0.6676
  O  O177  1  0.685600  0.888100  0.424800  1.0  -0.5552
  O  O178  1  0.695900  0.863500  0.277700  1.0  -0.6373
  O  O179  1  0.910900  0.100700  0.464700  1.0  -0.2491
  O  O180  1  0.848800  0.141700  0.853200  1.0  -0.6355
  O  O181  1  0.747700  0.163100  0.722900  1.0  -0.6137
  O  O182  1  0.449400  0.529300  0.364800  1.0  -0.6294
  O  O183  1  0.449800  0.646600  0.279600  1.0  -0.6998
  O  O184  1  0.199500  0.616900  0.153000  1.0  -0.6129
  O  O185  1  0.328800  0.647900  0.081200  1.0  -0.6642
  O  O186  1  0.098400  0.417300  0.963700  1.0  -0.2534
  O  O187  1  0.320800  0.365900  0.679900  1.0  -0.6616
  O  O188  1  0.384100  0.367700  0.835400  1.0  -0.5997
  O  O189  1  0.555100  0.025600  0.836900  1.0  -0.583
  O  O190  1  0.517400  0.141100  0.771800  1.0  -0.6668
  O  O191  1  0.314400  0.111900  0.575200  1.0  -0.555
  O  O192  1  0.304100  0.136500  0.722300  1.0  -0.6373
  O  O193  1  0.089100  0.899300  0.535300  1.0  -0.2481
  O  O194  1  0.151200  0.858300  0.146800  1.0  -0.6355
  O  O195  1  0.252300  0.836900  0.277100  1.0  -0.6149
  O  O196  1  0.550600  0.470700  0.635200  1.0  -0.6288
  O  O197  1  0.550200  0.353400  0.720400  1.0  -0.698
  O  O198  1  0.800500  0.383100  0.847000  1.0  -0.6143
  O  O199  1  0.671200  0.352100  0.918800  1.0  -0.663
  O  O200  1  0.901600  0.582700  0.036300  1.0  -0.2542
  O  O201  1  0.679200  0.634100  0.320100  1.0  -0.6616
  O  O202  1  0.615900  0.632300  0.164600  1.0  -0.6005
