# generated using pymatgen
data_Zn12H95C144(IN2)24
_symmetry_space_group_name_H-M   'P 1'
_cell_length_a   32.80720000
_cell_length_b   14.91230000
_cell_length_c   34.90620000
_cell_angle_alpha   90.00000000
_cell_angle_beta   105.82200000
_cell_angle_gamma   90.00000000
_symmetry_Int_Tables_number   1
_chemical_formula_structural   Zn12H95C144(IN2)24
_chemical_formula_sum   'Zn24 H190 C288 I48 N96'
_cell_volume   16430.19140620
_cell_formula_units_Z   2
loop_
 _symmetry_equiv_pos_site_id
 _symmetry_equiv_pos_as_xyz
  1  'x, y, z'
loop_
 _atom_site_type_symbol
 _atom_site_label
 _atom_site_symmetry_multiplicity
 _atom_site_fract_x
 _atom_site_fract_y
 _atom_site_fract_z
 _atom_site_occupancy
 _atom_site_charge
  Zn  Zn1  1  0.980810  0.314350  0.080950  1.0  0.8808
  Zn  Zn2  1  0.671210  0.793350  0.152060  1.0  0.8629
  Zn  Zn3  1  0.819490  0.052580  0.362220  1.0  0.8264
  Zn  Zn4  1  0.989810  0.773960  0.587660  1.0  0.8844
  Zn  Zn5  1  0.174710  0.033920  0.655420  1.0  0.8653
  Zn  Zn6  1  0.677390  0.266470  0.620280  1.0  0.8424
  Zn  Zn7  1  0.307620  0.237710  0.367960  1.0  0.8755
  Zn  Zn8  1  0.480920  0.505210  0.586520  1.0  0.9203
  Zn  Zn9  1  0.306280  0.766910  0.868620  1.0  0.8605
  Zn  Zn10  1  0.175000  0.554090  0.119520  1.0  0.8543
  Zn  Zn11  1  0.490220  0.044340  0.083880  1.0  0.8707
  Zn  Zn12  1  0.800150  0.587650  0.871010  1.0  0.8724
  Zn  Zn13  1  0.019190  0.814350  0.919050  1.0  0.8799
  Zn  Zn14  1  0.328790  0.293350  0.847940  1.0  0.8626
  Zn  Zn15  1  0.180510  0.552580  0.637780  1.0  0.8253
  Zn  Zn16  1  0.010190  0.273960  0.412340  1.0  0.8852
  Zn  Zn17  1  0.825290  0.533920  0.344580  1.0  0.8652
  Zn  Zn18  1  0.322610  0.766470  0.379720  1.0  0.8419
  Zn  Zn19  1  0.692380  0.737710  0.632040  1.0  0.8751
  Zn  Zn20  1  0.519080  0.005210  0.413480  1.0  0.9218
  Zn  Zn21  1  0.693720  0.266910  0.131380  1.0  0.8591
  Zn  Zn22  1  0.825000  0.054090  0.880480  1.0  0.8545
  Zn  Zn23  1  0.509780  0.544340  0.916120  1.0  0.8716
  Zn  Zn24  1  0.199850  0.087650  0.128990  1.0  0.8709
  H  H25  1  0.936200  0.468600  0.107000  1.0  0.0856
  H  H26  1  0.887400  0.497900  0.142500  1.0  0.12
  H  H27  1  0.884200  0.230500  0.164300  1.0  0.121
  H  H28  1  0.932700  0.210300  0.127500  1.0  0.0874
  H  H29  1  0.728300  0.688700  0.116400  1.0  0.0867
  H  H30  1  0.773400  0.565000  0.128300  1.0  0.1171
  H  H31  1  0.747500  0.533700  0.234800  1.0  0.1196
  H  H32  1  0.703400  0.658600  0.219700  1.0  0.0901
  H  H33  1  0.861200  0.086300  0.299000  1.0  0.086
  H  H34  1  0.860700  0.182300  0.246900  1.0  0.1241
  H  H35  1  0.763500  0.316400  0.271900  1.0  0.1171
  H  H36  1  0.765100  0.211500  0.322100  1.0  0.0889
  H  H37  1  0.894300  0.006500  0.430000  1.0  0.0874
  H  H38  1  0.942400  0.073200  0.483800  1.0  0.1164
  H  H39  1  0.885700  0.312000  0.450100  1.0  0.1199
  H  H40  1  0.839600  0.238700  0.396000  1.0  0.085
  H  H41  1  0.936400  0.651500  0.523000  1.0  0.0879
  H  H42  1  0.930600  0.500400  0.506800  1.0  0.1084
  H  H43  1  0.025800  0.450300  0.606200  1.0  0.1196
  H  H44  1  0.028500  0.602000  0.619700  1.0  0.0766
  H  H45  1  0.090200  0.983300  0.599100  1.0  0.0851
  H  H46  1  0.028600  0.053700  0.562600  1.0  0.1273
  H  H47  1  0.090600  0.291200  0.584100  1.0  0.1203
  H  H48  1  0.151000  0.214000  0.617800  1.0  0.0825
  H  H49  1  0.942000  0.923200  0.608000  1.0  0.0965
  H  H50  1  0.891700  0.956700  0.641000  1.0  0.1145
  H  H51  1  0.886600  0.693000  0.666667  1.0  0.1278
  H  H52  1  0.935700  0.666300  0.631300  1.0  0.0934
  H  H53  1  0.740400  0.151600  0.595400  1.0  0.0887
  H  H54  1  0.784600  0.031000  0.617300  1.0  0.1198
  H  H55  1  0.748400  0.033100  0.719800  1.0  0.1226
  H  H56  1  0.706900  0.157800  0.695700  1.0  0.0935
  H  H57  1  0.861900  0.624600  0.826000  1.0  0.085
  H  H58  1  0.870400  0.705500  0.771800  1.0  0.1153
  H  H59  1  0.750200  0.796100  0.753700  1.0  0.1151
  H  H60  1  0.745300  0.712500  0.808200  1.0  0.0879
  H  H61  1  0.582700  0.300300  0.593200  1.0  0.0848
  H  H62  1  0.520600  0.223500  0.563000  1.0  0.1257
  H  H63  1  0.588800  0.992500  0.576600  1.0  0.1158
  H  H64  1  0.649000  0.076300  0.604800  1.0  0.0834
  H  H65  1  0.379700  0.279000  0.438800  1.0  0.0905
  H  H66  1  0.431600  0.208100  0.488300  1.0  0.1195
  H  H67  1  0.384500  0.968200  0.441500  1.0  0.1104
  H  H68  1  0.334000  0.046600  0.392500  1.0  0.0846
  H  H69  1  0.531500  0.669700  0.606000  1.0  0.0846
  H  H70  1  0.532300  0.819000  0.588700  1.0  0.1232
  H  H71  1  0.422300  0.778900  0.503600  1.0  0.1125
  H  H72  1  0.440600  0.364200  0.620500  1.0  0.1012
  H  H73  1  0.391100  0.341800  0.656100  1.0  0.1125
  H  H74  1  0.379500  0.610200  0.663100  1.0  0.1169
  H  H75  1  0.428100  0.626600  0.626700  1.0  0.0979
  H  H76  1  0.252200  0.617000  0.819800  1.0  0.0748
  H  H77  1  0.252100  0.522000  0.767200  1.0  0.1214
  H  H78  1  0.359400  0.644700  0.758900  1.0  0.1195
  H  H79  1  0.356700  0.734300  0.811900  1.0  0.0866
  H  H80  1  0.196600  0.182800  0.716700  1.0  0.0944
  H  H81  1  0.237600  0.312800  0.730200  1.0  0.1133
  H  H82  1  0.284400  0.252700  0.637100  1.0  0.1194
  H  H83  1  0.242600  0.124600  0.626200  1.0  0.082
  H  H84  1  0.381900  0.817800  0.936500  1.0  0.0849
  H  H85  1  0.433200  0.751400  0.987900  1.0  0.1176
  H  H86  1  0.380100  0.510100  0.951800  1.0  0.1169
  H  H87  1  0.331300  0.583800  0.900000  1.0  0.077
  H  H88  1  0.429500  0.171200  0.026100  1.0  0.0776
  H  H89  1  0.420800  0.322800  0.011900  1.0  0.1177
  H  H90  1  0.529000  0.367800  0.095600  1.0  0.1193
  H  H91  1  0.534300  0.215800  0.108500  1.0  0.0801
  H  H92  1  0.642100  0.610600  0.126900  1.0  0.0878
  H  H93  1  0.580400  0.533200  0.096000  1.0  0.1108
  H  H94  1  0.523800  0.770200  0.060300  1.0  0.1189
  H  H95  1  0.587400  0.840900  0.091800  1.0  0.0758
  H  H96  1  0.249600  0.113200  0.305200  1.0  0.0895
  H  H97  1  0.254100  0.023200  0.252600  1.0  0.1174
  H  H98  1  0.375700  0.104200  0.270500  1.0  0.1217
  H  H99  1  0.368400  0.189100  0.324000  1.0  0.0811
  H  H100  1  0.205600  0.663300  0.195800  1.0  0.0951
  H  H101  1  0.251000  0.783200  0.220000  1.0  0.1109
  H  H102  1  0.286800  0.779900  0.118100  1.0  0.119
  H  H103  1  0.240500  0.660500  0.096200  1.0  0.098
  H  H104  1  0.452400  0.135200  0.144100  1.0  0.0889
  H  H105  1  0.403300  0.107100  0.179900  1.0  0.1169
  H  H106  1  0.379200  0.868000  0.123400  1.0  0.1239
  H  H107  1  0.428200  0.903500  0.089500  1.0  0.0827
  H  H108  1  0.081500  0.515500  0.093400  1.0  0.0829
  H  H109  1  0.018300  0.589500  0.064500  1.0  0.1198
  H  H110  1  0.081400  0.825200  0.089900  1.0  0.1172
  H  H111  1  0.143800  0.743800  0.115100  1.0  0.092
  H  H112  1  0.883700  0.540800  0.929800  1.0  0.0838
  H  H113  1  0.937200  0.608700  0.979300  1.0  0.1102
  H  H114  1  0.874000  0.845200  0.953100  1.0  0.1231
  H  H115  1  0.822200  0.770100  0.905200  1.0  0.0795
  H  H116  1  0.013600  0.141700  0.117900  1.0  0.086
  H  H117  1  0.012600  0.989000  0.105600  1.0  0.1238
  H  H118  1  0.923800  0.034200  0.001400  1.0  0.1123
  H  H119  1  0.929700  0.187000  0.015600  1.0  0.0774
  H  H120  1  0.063800  0.968600  0.893000  1.0  0.0866
  H  H121  1  0.112600  0.997900  0.857500  1.0  0.1208
  H  H122  1  0.115800  0.730500  0.835700  1.0  0.1213
  H  H123  1  0.067300  0.710300  0.872500  1.0  0.0875
  H  H124  1  0.271700  0.188700  0.883600  1.0  0.0872
  H  H125  1  0.226600  0.065000  0.871700  1.0  0.1169
  H  H126  1  0.252500  0.033700  0.765200  1.0  0.1197
  H  H127  1  0.296600  0.158600  0.780300  1.0  0.0904
  H  H128  1  0.138800  0.586300  0.701000  1.0  0.0875
  H  H129  1  0.139300  0.682300  0.753100  1.0  0.1239
  H  H130  1  0.236500  0.816400  0.728100  1.0  0.117
  H  H131  1  0.234900  0.711500  0.677900  1.0  0.0886
  H  H132  1  0.105700  0.506500  0.570000  1.0  0.0862
  H  H133  1  0.057600  0.573200  0.516200  1.0  0.1167
  H  H134  1  0.114300  0.812000  0.549900  1.0  0.1191
  H  H135  1  0.160400  0.738700  0.604000  1.0  0.0844
  H  H136  1  0.063600  0.151500  0.477000  1.0  0.0873
  H  H137  1  0.069400  0.000400  0.493200  1.0  0.1089
  H  H138  1  0.974200  0.950300  0.393800  1.0  0.1197
  H  H139  1  0.971500  0.102000  0.380300  1.0  0.0759
  H  H140  1  0.909800  0.483300  0.400900  1.0  0.0851
  H  H141  1  0.971400  0.553700  0.437400  1.0  0.1273
  H  H142  1  0.909400  0.791200  0.415900  1.0  0.1199
  H  H143  1  0.849000  0.714000  0.382200  1.0  0.0826
  H  H144  1  0.058000  0.423200  0.392000  1.0  0.0972
  H  H145  1  0.108300  0.456700  0.359000  1.0  0.1146
  H  H146  1  0.113400  0.193000  0.333333  1.0  0.128
  H  H147  1  0.064300  0.166300  0.368700  1.0  0.0929
  H  H148  1  0.259600  0.651600  0.404600  1.0  0.0883
  H  H149  1  0.215400  0.531000  0.382700  1.0  0.1201
  H  H150  1  0.251600  0.533100  0.280200  1.0  0.1223
  H  H151  1  0.293100  0.657800  0.304300  1.0  0.0929
  H  H152  1  0.138100  0.124600  0.174000  1.0  0.0861
  H  H153  1  0.129600  0.205500  0.228200  1.0  0.1151
  H  H154  1  0.249800  0.296100  0.246300  1.0  0.115
  H  H155  1  0.254700  0.212500  0.191800  1.0  0.0884
  H  H156  1  0.417300  0.800300  0.406800  1.0  0.0848
  H  H157  1  0.479400  0.723500  0.437000  1.0  0.1261
  H  H158  1  0.411200  0.492500  0.423400  1.0  0.1161
  H  H159  1  0.351000  0.576300  0.395200  1.0  0.0838
  H  H160  1  0.620300  0.779000  0.561200  1.0  0.0896
  H  H161  1  0.568400  0.708100  0.511700  1.0  0.1198
  H  H162  1  0.615500  0.468200  0.558500  1.0  0.1106
  H  H163  1  0.666000  0.546600  0.607500  1.0  0.0839
  H  H164  1  0.468500  0.169700  0.394000  1.0  0.0837
  H  H165  1  0.467700  0.319000  0.411300  1.0  0.123
  H  H166  1  0.577700  0.278900  0.496400  1.0  0.1136
  H  H167  1  0.559400  0.864200  0.379500  1.0  0.101
  H  H168  1  0.608900  0.841800  0.343900  1.0  0.1125
  H  H169  1  0.620500  0.110200  0.336900  1.0  0.1168
  H  H170  1  0.571900  0.126600  0.373300  1.0  0.0986
  H  H171  1  0.747800  0.117000  0.180200  1.0  0.0746
  H  H172  1  0.747900  0.022000  0.232800  1.0  0.1219
  H  H173  1  0.640600  0.144700  0.241100  1.0  0.119
  H  H174  1  0.643300  0.234300  0.188100  1.0  0.0869
  H  H175  1  0.803400  0.682800  0.283300  1.0  0.0922
  H  H176  1  0.762400  0.812800  0.269800  1.0  0.1134
  H  H177  1  0.715600  0.752700  0.362900  1.0  0.1198
  H  H178  1  0.757400  0.624600  0.373800  1.0  0.0824
  H  H179  1  0.618100  0.317800  0.063500  1.0  0.0827
  H  H180  1  0.566800  0.251400  0.012100  1.0  0.1178
  H  H181  1  0.619900  0.010100  0.048200  1.0  0.117
  H  H182  1  0.668700  0.083800  0.100000  1.0  0.0766
  H  H183  1  0.570500  0.671200  0.973900  1.0  0.0772
  H  H184  1  0.579200  0.822800  0.988100  1.0  0.1179
  H  H185  1  0.471000  0.867800  0.904400  1.0  0.1193
  H  H186  1  0.465700  0.715800  0.891500  1.0  0.0803
  H  H187  1  0.357900  0.110600  0.873100  1.0  0.0881
  H  H188  1  0.419600  0.033200  0.904000  1.0  0.1107
  H  H189  1  0.476200  0.270200  0.939700  1.0  0.1192
  H  H190  1  0.412600  0.340900  0.908200  1.0  0.0759
  H  H191  1  0.750400  0.613200  0.694800  1.0  0.089
  H  H192  1  0.745900  0.523200  0.747400  1.0  0.1172
  H  H193  1  0.624300  0.604200  0.729500  1.0  0.1219
  H  H194  1  0.631600  0.689100  0.676000  1.0  0.0828
  H  H195  1  0.794400  0.163300  0.804200  1.0  0.0948
  H  H196  1  0.749000  0.283200  0.780000  1.0  0.1112
  H  H197  1  0.713200  0.279900  0.881900  1.0  0.1195
  H  H198  1  0.759500  0.160500  0.903800  1.0  0.0965
  H  H199  1  0.547600  0.635200  0.855900  1.0  0.0891
  H  H200  1  0.596700  0.607100  0.820100  1.0  0.1164
  H  H201  1  0.620800  0.368000  0.876600  1.0  0.1242
  H  H202  1  0.571800  0.403500  0.910500  1.0  0.0843
  H  H203  1  0.918500  0.015500  0.906600  1.0  0.0825
  H  H204  1  0.981700  0.089500  0.935500  1.0  0.119
  H  H205  1  0.918600  0.325200  0.910100  1.0  0.1172
  H  H206  1  0.856200  0.243800  0.884900  1.0  0.0917
  H  H207  1  0.116300  0.040800  0.070200  1.0  0.0812
  H  H208  1  0.062800  0.108700  0.020700  1.0  0.1112
  H  H209  1  0.126000  0.345200  0.046900  1.0  0.1226
  H  H210  1  0.177800  0.270100  0.094800  1.0  0.0775
  H  H211  1  0.986400  0.641700  0.882100  1.0  0.0854
  H  H212  1  0.987400  0.489000  0.894400  1.0  0.1229
  H  H213  1  0.076200  0.534200  0.998600  1.0  0.1132
  H  H214  1  0.070300  0.687000  0.984400  1.0  0.0771
  C  C215  1  0.925200  0.420100  0.118700  1.0  0.1234
  C  C216  1  0.896200  0.438100  0.139900  1.0  -0.1569
  C  C217  1  0.880190  0.367300  0.157380  1.0  -0.1282
  C  C218  1  0.894300  0.280500  0.152700  1.0  -0.1526
  C  C219  1  0.923200  0.269300  0.130700  1.0  0.1659
  C  C220  1  0.732500  0.656600  0.140600  1.0  0.1476
  C  C221  1  0.759300  0.583000  0.147500  1.0  -0.1083
  C  C222  1  0.765240  0.536300  0.182880  1.0  -0.1109
  C  C223  1  0.744100  0.564600  0.210330  1.0  -0.1706
  C  C224  1  0.717910  0.638900  0.201070  1.0  0.1478
  C  C225  1  0.840900  0.133200  0.293000  1.0  0.1251
  C  C226  1  0.841300  0.190800  0.262400  1.0  -0.1574
  C  C227  1  0.812630  0.261900  0.254650  1.0  -0.1004
  C  C228  1  0.783800  0.269400  0.276930  1.0  -0.1474
  C  C229  1  0.785000  0.206700  0.306860  1.0  0.1484
  C  C230  1  0.847960  0.379900  0.179440  1.0  0.4104
  C  C231  1  0.793050  0.456100  0.190230  1.0  0.4066
  C  C232  1  0.814750  0.327200  0.223310  1.0  0.3642
  C  C233  1  0.892800  0.069300  0.434000  1.0  0.1386
  C  C234  1  0.921400  0.108500  0.466100  1.0  -0.1182
  C  C235  1  0.919020  0.199300  0.472150  1.0  -0.1288
  C  C236  1  0.888200  0.249400  0.446300  1.0  -0.1321
  C  C237  1  0.860800  0.204900  0.414230  1.0  0.157
  C  C238  1  0.954800  0.609900  0.539870  1.0  0.1485
  C  C239  1  0.951300  0.519800  0.530000  1.0  -0.1117
  C  C240  1  0.978140  0.457600  0.554140  1.0  -0.1136
  C  C241  1  0.007200  0.490300  0.588480  1.0  -0.1375
  C  C242  1  0.008700  0.580700  0.596300  1.0  0.1395
  C  C243  1  0.090100  0.046600  0.595920  1.0  0.1464
  C  C244  1  0.053100  0.088000  0.574670  1.0  -0.1426
  C  C245  1  0.052620  0.180400  0.571420  1.0  -0.0986
  C  C246  1  0.089800  0.227900  0.587130  1.0  -0.1707
  C  C247  1  0.125500  0.181400  0.607180  1.0  0.1591
  C  C248  1  0.951380  0.242600  0.505490  1.0  0.3882
  C  C249  1  0.977880  0.361600  0.543820  1.0  0.2198
  C  C250  1  0.013460  0.230900  0.551830  1.0  0.374
  C  C251  1  0.930400  0.876100  0.620100  1.0  0.1329
  C  C252  1  0.900800  0.896500  0.639800  1.0  -0.1424
  C  C253  1  0.884120  0.828900  0.658020  1.0  -0.1366
  C  C254  1  0.897500  0.741300  0.654800  1.0  -0.1512
  C  C255  1  0.927000  0.726200  0.634000  1.0  0.1517
  C  C256  1  0.742310  0.127100  0.620910  1.0  0.1487
  C  C257  1  0.768410  0.055300  0.633630  1.0  -0.1248
  C  C258  1  0.770860  0.018400  0.670850  1.0  -0.1124
  C  C259  1  0.747320  0.056900  0.694300  1.0  -0.1424
  C  C260  1  0.722420  0.130100  0.679620  1.0  0.1408
  C  C261  1  0.839100  0.660200  0.811000  1.0  0.143
  C  C262  1  0.844400  0.708300  0.778800  1.0  -0.1399
  C  C263  1  0.811170  0.760800  0.756780  1.0  -0.0732
  C  C264  1  0.773700  0.761500  0.768170  1.0  -0.1663
  C  C265  1  0.771000  0.711600  0.800660  1.0  0.1354
  C  C266  1  0.851830  0.850300  0.678920  1.0  0.43
  C  C267  1  0.798240  0.938800  0.684760  1.0  0.3986
  C  C268  1  0.816790  0.817000  0.724050  1.0  0.394
  C  C269  1  0.583800  0.237400  0.589300  1.0  0.1334
  C  C270  1  0.546660  0.192100  0.571700  1.0  -0.1333
  C  C271  1  0.548290  0.099300  0.566980  1.0  -0.1252
  C  C272  1  0.586900  0.055600  0.579500  1.0  -0.1438
  C  C273  1  0.622500  0.106100  0.596300  1.0  0.1628
  C  C274  1  0.381000  0.215300  0.439200  1.0  0.139
  C  C275  1  0.412000  0.173700  0.468800  1.0  -0.1155
  C  C276  1  0.413790  0.080100  0.469660  1.0  -0.1449
  C  C277  1  0.384310  0.031900  0.441250  1.0  -0.1171
  C  C278  1  0.354200  0.079300  0.412150  1.0  0.1595
  C  C279  1  0.509000  0.692300  0.584900  1.0  0.125
  C  C280  1  0.509500  0.781600  0.575000  1.0  -0.132
  C  C281  1  0.476600  0.816400  0.545000  1.0  -0.1322
  C  C282  1  0.445000  0.758000  0.524900  1.0  -0.0106
  C  C283  1  0.447000  0.668700  0.536400  1.0  0.1764
  C  C284  1  0.510150  0.046600  0.546990  1.0  0.3761
  C  C285  1  0.447460  0.034900  0.500710  1.0  0.3793
  C  C286  1  0.476530  0.913000  0.535140  1.0  0.4116
  C  C287  1  0.427550  0.414600  0.628900  1.0  0.1148
  C  C288  1  0.398100  0.401000  0.650120  1.0  -0.1248
  C  C289  1  0.379010  0.473800  0.662630  1.0  -0.1107
  C  C290  1  0.391200  0.558700  0.654100  1.0  -0.131
  C  C291  1  0.420300  0.568000  0.632700  1.0  0.143
  C  C292  1  0.274400  0.622000  0.807200  1.0  0.1526
  C  C293  1  0.274100  0.565000  0.776000  1.0  -0.1786
  C  C294  1  0.306500  0.571900  0.757680  1.0  -0.0858
  C  C295  1  0.337200  0.637200  0.771300  1.0  -0.1458
  C  C296  1  0.335200  0.690700  0.802600  1.0  0.1375
  C  C297  1  0.214700  0.197400  0.700420  1.0  0.1446
  C  C298  1  0.239100  0.275100  0.708660  1.0  -0.1338
  C  C299  1  0.265740  0.297200  0.685180  1.0  -0.0851
  C  C300  1  0.266700  0.239700  0.653800  1.0  -0.1184
  C  C301  1  0.241600  0.163400  0.647500  1.0  0.1368
  C  C302  1  0.346080  0.460600  0.683810  1.0  0.4067
  C  C303  1  0.310190  0.509100  0.725640  1.0  0.3486
  C  C304  1  0.292040  0.379400  0.693150  1.0  0.4045
  C  C305  1  0.382000  0.754500  0.939400  1.0  0.1249
  C  C306  1  0.412300  0.715600  0.970300  1.0  -0.1396
  C  C307  1  0.411710  0.623500  0.975200  1.0  -0.1267
  C  C308  1  0.381300  0.573400  0.949000  1.0  -0.1376
  C  C309  1  0.352300  0.618200  0.918300  1.0  0.1648
  C  C310  1  0.449900  0.212000  0.041100  1.0  0.1392
  C  C311  1  0.444500  0.302400  0.032300  1.0  -0.1373
  C  C312  1  0.473800  0.361600  0.053200  1.0  -0.0359
  C  C313  1  0.507500  0.328500  0.081200  1.0  -0.1462
  C  C314  1  0.510500  0.237600  0.088600  1.0  0.126
  C  C315  1  0.617500  0.643400  0.113500  1.0  0.1585
  C  C316  1  0.580800  0.596900  0.095100  1.0  -0.1126
  C  C317  1  0.545200  0.643100  0.075500  1.0  -0.0816
  C  C318  1  0.547700  0.735800  0.074100  1.0  -0.1568
  C  C319  1  0.585700  0.777400  0.093200  1.0  0.1311
  C  C320  1  0.444690  0.581000  0.008000  1.0  0.3793
  C  C321  1  0.472400  0.460600  0.044900  1.0  0.2292
  C  C322  1  0.506400  0.592300  0.055600  1.0  0.3611
  C  C323  1  0.275600  0.110300  0.298280  1.0  0.1282
  C  C324  1  0.277900  0.057300  0.266780  1.0  -0.1703
  C  C325  1  0.315300  0.054200  0.255910  1.0  -0.0877
  C  C326  1  0.349700  0.104600  0.277400  1.0  -0.1519
  C  C327  1  0.345000  0.155100  0.309100  1.0  0.1432
  C  C328  1  0.221900  0.688200  0.179700  1.0  0.1454
  C  C329  1  0.248900  0.759600  0.194290  1.0  -0.111
  C  C330  1  0.272820  0.795800  0.171100  1.0  -0.1239
  C  C331  1  0.270000  0.757700  0.134300  1.0  -0.1025
  C  C332  1  0.242400  0.686600  0.121400  1.0  0.1312
  C  C333  1  0.437200  0.080300  0.139900  1.0  0.1412
  C  C334  1  0.407700  0.064400  0.161300  1.0  -0.147
  C  C335  1  0.385100  0.985200  0.154700  1.0  -0.1179
  C  C336  1  0.393600  0.923900  0.128000  1.0  -0.1381
  C  C337  1  0.423000  0.945300  0.108200  1.0  0.1586
  C  C338  1  0.320300  0.996000  0.223070  1.0  0.3855
  C  C339  1  0.300240  0.875900  0.183790  1.0  0.3879
  C  C340  1  0.353600  0.963300  0.176750  1.0  0.4136
  C  C341  1  0.081500  0.579200  0.091900  1.0  0.1426
  C  C342  1  0.043660  0.622700  0.074900  1.0  -0.1501
  C  C343  1  0.043320  0.715500  0.073350  1.0  -0.1139
  C  C344  1  0.080900  0.761600  0.089500  1.0  -0.137
  C  C345  1  0.117800  0.712600  0.105100  1.0  0.1599
  C  C346  1  0.881800  0.603000  0.934890  1.0  0.1476
  C  C347  1  0.913700  0.642900  0.964400  1.0  -0.102
  C  C348  1  0.910830  0.733600  0.971910  1.0  -0.1232
  C  C349  1  0.876400  0.782600  0.949090  1.0  -0.1407
  C  C350  1  0.845900  0.737300  0.920490  1.0  0.1575
  C  C351  1  0.995800  0.119400  0.093500  1.0  0.1404
  C  C352  1  0.995200  0.028300  0.086600  1.0  -0.1264
  C  C353  1  0.968540  0.994800  0.051270  1.0  -0.103
  C  C354  1  0.943200  0.054800  0.025180  1.0  -0.1303
  C  C355  1  0.946600  0.145900  0.034100  1.0  0.1429
  C  C356  1  0.005000  0.766900  0.052980  1.0  0.4065
  C  C357  1  0.943710  0.777400  0.004370  1.0  0.3987
  C  C358  1  0.969580  0.897900  0.042080  1.0  0.3982
  C  C359  1  0.074800  0.920100  0.881300  1.0  0.123
  C  C360  1  0.103800  0.938100  0.860100  1.0  -0.1552
  C  C361  1  0.119810  0.867300  0.842620  1.0  -0.1279
  C  C362  1  0.105700  0.780500  0.847300  1.0  -0.1489
  C  C363  1  0.076800  0.769300  0.869300  1.0  0.1593
  C  C364  1  0.267500  0.156600  0.859400  1.0  0.1464
  C  C365  1  0.240700  0.083000  0.852500  1.0  -0.1101
  C  C366  1  0.234760  0.036300  0.817120  1.0  -0.111
  C  C367  1  0.255900  0.064600  0.789670  1.0  -0.1711
  C  C368  1  0.282090  0.138900  0.798930  1.0  0.1481
  C  C369  1  0.159100  0.633200  0.707000  1.0  0.1341
  C  C370  1  0.158700  0.690800  0.737600  1.0  -0.1603
  C  C371  1  0.187370  0.761900  0.745350  1.0  -0.0996
  C  C372  1  0.216200  0.769400  0.723070  1.0  -0.1486
  C  C373  1  0.215000  0.706700  0.693140  1.0  0.1453
  C  C374  1  0.152040  0.879900  0.820560  1.0  0.4101
  C  C375  1  0.206950  0.956100  0.809770  1.0  0.406
  C  C376  1  0.185250  0.827200  0.776690  1.0  0.3641
  C  C377  1  0.107200  0.569300  0.566000  1.0  0.1464
  C  C378  1  0.078600  0.608500  0.533900  1.0  -0.1176
  C  C379  1  0.080980  0.699300  0.527850  1.0  -0.1287
  C  C380  1  0.111800  0.749400  0.553700  1.0  -0.1337
  C  C381  1  0.139200  0.704900  0.585770  1.0  0.153
  C  C382  1  0.045200  0.109900  0.460130  1.0  0.1429
  C  C383  1  0.048700  0.019800  0.470000  1.0  -0.1101
  C  C384  1  0.021860  0.957600  0.445860  1.0  -0.113
  C  C385  1  0.992800  0.990300  0.411520  1.0  -0.1362
  C  C386  1  0.991300  0.080700  0.403700  1.0  0.1411
  C  C387  1  0.909900  0.546600  0.404080  1.0  0.1421
  C  C388  1  0.946900  0.588000  0.425330  1.0  -0.1437
  C  C389  1  0.947380  0.680400  0.428580  1.0  -0.0975
  C  C390  1  0.910200  0.727900  0.412870  1.0  -0.1745
  C  C391  1  0.874500  0.681400  0.392820  1.0  0.1592
  C  C392  1  0.048620  0.742600  0.494510  1.0  0.3858
  C  C393  1  0.022120  0.861600  0.456180  1.0  0.219
  C  C394  1  0.986540  0.730900  0.448170  1.0  0.374
  C  C395  1  0.069600  0.376100  0.379900  1.0  0.1309
  C  C396  1  0.099200  0.396500  0.360200  1.0  -0.1381
  C  C397  1  0.115880  0.328900  0.341980  1.0  -0.1355
  C  C398  1  0.102500  0.241300  0.345200  1.0  -0.149
  C  C399  1  0.073000  0.226200  0.366000  1.0  0.1428
  C  C400  1  0.257690  0.627100  0.379090  1.0  0.1486
  C  C401  1  0.231590  0.555300  0.366370  1.0  -0.1254
  C  C402  1  0.229140  0.518400  0.329150  1.0  -0.1122
  C  C403  1  0.252680  0.556900  0.305700  1.0  -0.1419
  C  C404  1  0.277580  0.630100  0.320380  1.0  0.1459
  C  C405  1  0.160900  0.160200  0.189000  1.0  0.1499
  C  C406  1  0.155600  0.208300  0.221200  1.0  -0.1426
  C  C407  1  0.188830  0.260800  0.243220  1.0  -0.073
  C  C408  1  0.226300  0.261500  0.231830  1.0  -0.1677
  C  C409  1  0.229000  0.211600  0.199340  1.0  0.1305
  C  C410  1  0.148170  0.350300  0.321080  1.0  0.43
  C  C411  1  0.201760  0.438800  0.315240  1.0  0.3988
  C  C412  1  0.183210  0.317000  0.275950  1.0  0.3936
  C  C413  1  0.416200  0.737400  0.410700  1.0  0.1244
  C  C414  1  0.453340  0.692100  0.428300  1.0  -0.1324
  C  C415  1  0.451710  0.599300  0.433020  1.0  -0.124
  C  C416  1  0.413100  0.555600  0.420500  1.0  -0.1449
  C  C417  1  0.377500  0.606100  0.403700  1.0  0.1638
  C  C418  1  0.619000  0.715300  0.560800  1.0  0.1419
  C  C419  1  0.588000  0.673700  0.531200  1.0  -0.1146
  C  C420  1  0.586210  0.580100  0.530340  1.0  -0.1454
  C  C421  1  0.615690  0.531900  0.558750  1.0  -0.118
  C  C422  1  0.645800  0.579300  0.587850  1.0  0.1603
  C  C423  1  0.491000  0.192300  0.415100  1.0  0.1291
  C  C424  1  0.490500  0.281600  0.425000  1.0  -0.1312
  C  C425  1  0.523400  0.316400  0.455000  1.0  -0.1317
  C  C426  1  0.555000  0.258000  0.475100  1.0  -0.0125
  C  C427  1  0.553000  0.168700  0.463600  1.0  0.1765
  C  C428  1  0.489850  0.546600  0.453010  1.0  0.377
  C  C429  1  0.552540  0.534900  0.499290  1.0  0.3778
  C  C430  1  0.523470  0.413000  0.464860  1.0  0.4117
  C  C431  1  0.572450  0.914600  0.371100  1.0  0.1148
  C  C432  1  0.601900  0.901000  0.349880  1.0  -0.1239
  C  C433  1  0.620990  0.973800  0.337370  1.0  -0.1087
  C  C434  1  0.608800  0.058700  0.345900  1.0  -0.129
  C  C435  1  0.579700  0.068000  0.367300  1.0  0.1391
  C  C436  1  0.725600  0.122000  0.192800  1.0  0.1481
  C  C437  1  0.725900  0.065000  0.224000  1.0  -0.1755
  C  C438  1  0.693500  0.071900  0.242320  1.0  -0.0848
  C  C439  1  0.662800  0.137200  0.228700  1.0  -0.1499
  C  C440  1  0.664800  0.190700  0.197400  1.0  0.145
  C  C441  1  0.785300  0.697400  0.299580  1.0  0.1453
  C  C442  1  0.760900  0.775100  0.291340  1.0  -0.1348
  C  C443  1  0.734260  0.797200  0.314820  1.0  -0.0853
  C  C444  1  0.733300  0.739700  0.346200  1.0  -0.1233
  C  C445  1  0.758400  0.663400  0.352500  1.0  0.136
  C  C446  1  0.653920  0.960600  0.316190  1.0  0.4056
  C  C447  1  0.689810  0.009100  0.274360  1.0  0.3489
  C  C448  1  0.707960  0.879400  0.306850  1.0  0.4041
  C  C449  1  0.618000  0.254500  0.060600  1.0  0.1322
  C  C450  1  0.587700  0.215600  0.029700  1.0  -0.1372
  C  C451  1  0.588290  0.123500  0.024800  1.0  -0.1261
  C  C452  1  0.618700  0.073400  0.051000  1.0  -0.137
  C  C453  1  0.647700  0.118200  0.081700  1.0  0.1645
  C  C454  1  0.550100  0.712000  0.958900  1.0  0.1352
  C  C455  1  0.555500  0.802400  0.967700  1.0  -0.1357
  C  C456  1  0.526200  0.861600  0.946800  1.0  -0.036
  C  C457  1  0.492500  0.828500  0.918800  1.0  -0.1466
  C  C458  1  0.489500  0.737600  0.911400  1.0  0.1264
  C  C459  1  0.382500  0.143400  0.886500  1.0  0.1583
  C  C460  1  0.419200  0.096900  0.904900  1.0  -0.1117
  C  C461  1  0.454800  0.143100  0.924500  1.0  -0.0818
  C  C462  1  0.452300  0.235800  0.925900  1.0  -0.1552
  C  C463  1  0.414300  0.277400  0.906800  1.0  0.1255
  C  C464  1  0.555310  0.081000  0.992000  1.0  0.3777
  C  C465  1  0.527600  0.960600  0.955100  1.0  0.2287
  C  C466  1  0.493600  0.092300  0.944400  1.0  0.3615
  C  C467  1  0.724400  0.610300  0.701720  1.0  0.1272
  C  C468  1  0.722100  0.557300  0.733220  1.0  -0.1675
  C  C469  1  0.684700  0.554200  0.744090  1.0  -0.0876
  C  C470  1  0.650300  0.604600  0.722600  1.0  -0.1528
  C  C471  1  0.655000  0.655100  0.690900  1.0  0.1487
  C  C472  1  0.778100  0.188200  0.820300  1.0  0.1439
  C  C473  1  0.751100  0.259600  0.805710  1.0  -0.1101
  C  C474  1  0.727180  0.295800  0.828900  1.0  -0.1234
  C  C475  1  0.730000  0.257700  0.865700  1.0  -0.1022
  C  C476  1  0.757600  0.186600  0.878600  1.0  0.132
  C  C477  1  0.562800  0.580300  0.860100  1.0  0.148
  C  C478  1  0.592300  0.564400  0.838700  1.0  -0.1461
  C  C479  1  0.614900  0.485200  0.845300  1.0  -0.1174
  C  C480  1  0.606400  0.423900  0.872000  1.0  -0.1353
  C  C481  1  0.577000  0.445300  0.891800  1.0  0.1545
  C  C482  1  0.679700  0.496000  0.776930  1.0  0.386
  C  C483  1  0.699760  0.375900  0.816210  1.0  0.3884
  C  C484  1  0.646400  0.463300  0.823250  1.0  0.4143
  C  C485  1  0.918500  0.079200  0.908100  1.0  0.1325
  C  C486  1  0.956340  0.122700  0.925100  1.0  -0.1494
  C  C487  1  0.956680  0.215500  0.926650  1.0  -0.1127
  C  C488  1  0.919100  0.261600  0.910500  1.0  -0.1359
  C  C489  1  0.882200  0.212600  0.894900  1.0  0.1605
  C  C490  1  0.118200  0.103000  0.065110  1.0  0.1561
  C  C491  1  0.086300  0.142900  0.035600  1.0  -0.1027
  C  C492  1  0.089170  0.233600  0.028090  1.0  -0.1235
  C  C493  1  0.123600  0.282600  0.050910  1.0  -0.1413
  C  C494  1  0.154100  0.237300  0.079510  1.0  0.1528
  C  C495  1  0.004200  0.619400  0.906500  1.0  0.1397
  C  C496  1  0.004800  0.528300  0.913400  1.0  -0.1263
  C  C497  1  0.031460  0.494800  0.948730  1.0  -0.102
  C  C498  1  0.056800  0.554800  0.974820  1.0  -0.1288
  C  C499  1  0.053400  0.645900  0.965900  1.0  0.1379
  C  C500  1  0.995000  0.266900  0.947020  1.0  0.4063
  C  C501  1  0.056290  0.277400  0.995630  1.0  0.3977
  C  C502  1  0.030420  0.397900  0.957920  1.0  0.3988
  I  I503  1  0.955450  0.406800  0.017400  1.0  -0.407
  I  I504  1  0.055630  0.329890  0.126250  1.0  -0.4066
  I  I505  1  0.707510  0.900290  0.114920  1.0  -0.3524
  I  I506  1  0.640770  0.823070  0.210310  1.0  -0.4125
  I  I507  1  0.752730  0.045860  0.384680  1.0  -0.2925
  I  I508  1  0.857120  0.913240  0.345600  1.0  -0.4559
  I  I509  1  0.059910  0.803750  0.639060  1.0  -0.4056
  I  I510  1  0.964160  0.877200  0.527370  1.0  -0.4056
  I  I511  1  0.138930  0.011010  0.710870  1.0  -0.4056
  I  I512  1  0.211470  0.915480  0.624460  1.0  -0.3421
  I  I513  1  0.691500  0.324970  0.556070  1.0  -0.3203
  I  I514  1  0.674840  0.373220  0.675000  1.0  -0.3911
  I  I515  1  0.237920  0.228310  0.385310  1.0  -0.3541
  I  I516  1  0.341300  0.384640  0.354870  1.0  -0.4353
  I  I517  1  0.452320  0.398260  0.528030  1.0  -0.4919
  I  I518  1  0.553520  0.476460  0.634740  1.0  -0.4055
  I  I519  1  0.340160  0.913210  0.854420  1.0  -0.4376
  I  I520  1  0.237440  0.752980  0.887760  1.0  -0.3696
  I  I521  1  0.180920  0.516690  0.049420  1.0  -0.349
  I  I522  1  0.177720  0.435660  0.170800  1.0  -0.3362
  I  I523  1  0.464680  0.950030  0.020950  1.0  -0.4299
  I  I524  1  0.562530  0.025920  0.133250  1.0  -0.4088
  I  I525  1  0.729380  0.612500  0.884990  1.0  -0.3649
  I  I526  1  0.828260  0.433900  0.858560  1.0  -0.4782
  I  I527  1  0.044550  0.906800  0.982600  1.0  -0.4064
  I  I528  1  0.944370  0.829890  0.873750  1.0  -0.4096
  I  I529  1  0.292490  0.400290  0.885080  1.0  -0.3536
  I  I530  1  0.359230  0.323070  0.789690  1.0  -0.4131
  I  I531  1  0.247270  0.545860  0.615320  1.0  -0.2915
  I  I532  1  0.142880  0.413240  0.654400  1.0  -0.4551
  I  I533  1  0.940090  0.303750  0.360940  1.0  -0.4067
  I  I534  1  0.035840  0.377200  0.472630  1.0  -0.4072
  I  I535  1  0.861070  0.511010  0.289130  1.0  -0.4071
  I  I536  1  0.788530  0.415480  0.375540  1.0  -0.3455
  I  I537  1  0.308500  0.824970  0.443930  1.0  -0.3228
  I  I538  1  0.325160  0.873220  0.325000  1.0  -0.391
  I  I539  1  0.762080  0.728310  0.614690  1.0  -0.3533
  I  I540  1  0.658700  0.884640  0.645130  1.0  -0.4331
  I  I541  1  0.547680  0.898260  0.471970  1.0  -0.4902
  I  I542  1  0.446480  0.976460  0.365260  1.0  -0.4023
  I  I543  1  0.659840  0.413210  0.145580  1.0  -0.4381
  I  I544  1  0.762560  0.252980  0.112240  1.0  -0.3698
  I  I545  1  0.819080  0.016690  0.950580  1.0  -0.3476
  I  I546  1  0.822280  0.935660  0.829200  1.0  -0.3363
  I  I547  1  0.535320  0.450030  0.979050  1.0  -0.4304
  I  I548  1  0.437470  0.525920  0.866750  1.0  -0.4097
  I  I549  1  0.270620  0.112500  0.115010  1.0  -0.364
  I  I550  1  0.171740  0.933900  0.141440  1.0  -0.4786
  N  N551  1  0.938390  0.336300  0.113940  1.0  -0.2806
  N  N552  1  0.712370  0.683900  0.166860  1.0  -0.2945
  N  N553  1  0.813390  0.140100  0.314720  1.0  -0.304
  N  N554  1  0.823670  0.453500  0.171690  1.0  -0.4062
  N  N555  1  0.786120  0.394700  0.215820  1.0  -0.4141
  N  N556  1  0.845530  0.316500  0.205700  1.0  -0.397
  N  N557  1  0.863000  0.117200  0.408110  1.0  -0.2942
  N  N558  1  0.983440  0.640200  0.572460  1.0  -0.3182
  N  N559  1  0.126080  0.092900  0.612380  1.0  -0.3152
  N  N560  1  0.946280  0.328500  0.514550  1.0  -0.4066
  N  N561  1  0.011950  0.315600  0.563960  1.0  -0.4325
  N  N562  1  0.984360  0.190700  0.523270  1.0  -0.3986
  N  N563  1  0.943760  0.791800  0.617360  1.0  -0.3188
  N  N564  1  0.719370  0.164100  0.642940  1.0  -0.3182
  N  N565  1  0.803280  0.662000  0.821880  1.0  -0.3027
  N  N566  1  0.828970  0.924200  0.667060  1.0  -0.4518
  N  N567  1  0.790430  0.887500  0.713340  1.0  -0.4076
  N  N568  1  0.847700  0.795700  0.707880  1.0  -0.3522
  N  N569  1  0.621430  0.195300  0.601090  1.0  -0.3467
  N  N570  1  0.352880  0.169000  0.410980  1.0  -0.3265
  N  N571  1  0.478320  0.636000  0.566250  1.0  -0.3213
  N  N572  1  0.479360  0.088600  0.519980  1.0  -0.3994
  N  N573  1  0.444340  0.947100  0.506470  1.0  -0.3501
  N  N574  1  0.509920  0.960000  0.556390  1.0  -0.4309
  N  N575  1  0.438150  0.497300  0.619870  1.0  -0.3431
  N  N576  1  0.304370  0.683900  0.820650  1.0  -0.3148
  N  N577  1  0.215900  0.142300  0.670150  1.0  -0.3049
  N  N578  1  0.341230  0.523600  0.708860  1.0  -0.408
  N  N579  1  0.283110  0.439600  0.717830  1.0  -0.4777
  N  N580  1  0.323830  0.383900  0.675980  1.0  -0.4606
  N  N581  1  0.352510  0.706100  0.913230  1.0  -0.3029
  N  N582  1  0.481800  0.179500  0.069400  1.0  -0.3036
  N  N583  1  0.619440  0.732600  0.113060  1.0  -0.2875
  N  N584  1  0.440520  0.493200  0.015200  1.0  -0.3999
  N  N585  1  0.504890  0.507600  0.066610  1.0  -0.3995
  N  N586  1  0.477070  0.633400  0.026440  1.0  -0.4224
  N  N587  1  0.308680  0.158200  0.319650  1.0  -0.3114
  N  N588  1  0.218110  0.653600  0.143500  1.0  -0.31
  N  N589  1  0.444980  0.022100  0.113980  1.0  -0.3139
  N  N590  1  0.293300  0.927000  0.212780  1.0  -0.403
  N  N591  1  0.329240  0.891100  0.164450  1.0  -0.4946
  N  N592  1  0.351060  0.016400  0.206400  1.0  -0.3777
  N  N593  1  0.117890  0.623100  0.106370  1.0  -0.3261
  N  N594  1  0.848070  0.649400  0.913220  1.0  -0.3513
  N  N595  1  0.972590  0.177500  0.067560  1.0  -0.3025
  N  N596  1  0.976310  0.725900  0.023570  1.0  -0.4472
  N  N597  1  0.938950  0.864000  0.012010  1.0  -0.4384
  N  N598  1  0.002610  0.851900  0.064300  1.0  -0.443
  N  N599  1  0.061610  0.836300  0.886060  1.0  -0.2816
  N  N600  1  0.287630  0.183900  0.833140  1.0  -0.2941
  N  N601  1  0.186610  0.640100  0.685280  1.0  -0.3073
  N  N602  1  0.176330  0.953500  0.828310  1.0  -0.406
  N  N603  1  0.213880  0.894700  0.784180  1.0  -0.4123
  N  N604  1  0.154470  0.816500  0.794300  1.0  -0.4053
  N  N605  1  0.137000  0.617200  0.591890  1.0  -0.2925
  N  N606  1  0.016560  0.140200  0.427540  1.0  -0.3182
  N  N607  1  0.873920  0.592900  0.387620  1.0  -0.3159
  N  N608  1  0.053720  0.828500  0.485450  1.0  -0.4107
  N  N609  1  0.988050  0.815600  0.436040  1.0  -0.4437
  N  N610  1  0.015640  0.690700  0.476730  1.0  -0.3986
  N  N611  1  0.056240  0.291800  0.382640  1.0  -0.322
  N  N612  1  0.280630  0.664100  0.357060  1.0  -0.3183
  N  N613  1  0.196720  0.162000  0.178120  1.0  -0.3046
  N  N614  1  0.171030  0.424200  0.332940  1.0  -0.4402
  N  N615  1  0.209570  0.387500  0.286660  1.0  -0.4066
  N  N616  1  0.152300  0.295700  0.292120  1.0  -0.352
  N  N617  1  0.378570  0.695300  0.398910  1.0  -0.3457
  N  N618  1  0.647120  0.669000  0.589020  1.0  -0.3299
  N  N619  1  0.521680  0.136000  0.433750  1.0  -0.3214
  N  N620  1  0.520640  0.588600  0.480020  1.0  -0.3987
  N  N621  1  0.555660  0.447100  0.493530  1.0  -0.3519
  N  N622  1  0.490080  0.460000  0.443610  1.0  -0.4484
  N  N623  1  0.561850  0.997300  0.380130  1.0  -0.341
  N  N624  1  0.695630  0.183900  0.179350  1.0  -0.314
  N  N625  1  0.784100  0.642300  0.329850  1.0  -0.3016
  N  N626  1  0.658770  0.023600  0.291140  1.0  -0.4085
  N  N627  1  0.716890  0.939600  0.282170  1.0  -0.4691
  N  N628  1  0.676170  0.883900  0.324020  1.0  -0.4595
  N  N629  1  0.647490  0.206100  0.086770  1.0  -0.3065
  N  N630  1  0.518200  0.679500  0.930600  1.0  -0.3023
  N  N631  1  0.380560  0.232600  0.886940  1.0  -0.2891
  N  N632  1  0.559480  0.993200  0.984800  1.0  -0.4031
  N  N633  1  0.495110  0.007600  0.933390  1.0  -0.4116
  N  N634  1  0.522930  0.133400  0.973560  1.0  -0.4231
  N  N635  1  0.691320  0.658200  0.680350  1.0  -0.3105
  N  N636  1  0.781890  0.153600  0.856500  1.0  -0.3111
  N  N637  1  0.555020  0.522100  0.886020  1.0  -0.3137
  N  N638  1  0.706700  0.427000  0.787220  1.0  -0.4023
  N  N639  1  0.670760  0.391100  0.835550  1.0  -0.4958
  N  N640  1  0.648940  0.516400  0.793600  1.0  -0.3849
  N  N641  1  0.882110  0.123100  0.893630  1.0  -0.3272
  N  N642  1  0.151930  0.149400  0.086780  1.0  -0.3532
  N  N643  1  0.027410  0.677500  0.932440  1.0  -0.3015
  N  N644  1  0.023690  0.225900  0.976430  1.0  -0.4466
  N  N645  1  0.061050  0.364000  0.987990  1.0  -0.4425
  N  N646  1  0.997390  0.351900  0.935700  1.0  -0.4564
