# generated using pymatgen
data_ZnH8C12(IN2)2
_symmetry_space_group_name_H-M   'P 1'
_cell_length_a   34.14140000
_cell_length_b   14.56410000
_cell_length_c   34.95970000
_cell_angle_alpha   90.00000000
_cell_angle_beta   108.63300000
_cell_angle_gamma   90.00000000
_symmetry_Int_Tables_number   1
_chemical_formula_structural   ZnH8C12(IN2)2
_chemical_formula_sum   'Zn24 H192 C288 I48 N96'
_cell_volume   16472.16349362
_cell_formula_units_Z   24
loop_
 _symmetry_equiv_pos_site_id
 _symmetry_equiv_pos_as_xyz
  1  'x, y, z'
loop_
 _atom_site_type_symbol
 _atom_site_label
 _atom_site_symmetry_multiplicity
 _atom_site_fract_x
 _atom_site_fract_y
 _atom_site_fract_z
 _atom_site_occupancy
 _atom_site_charge
  Zn  Zn1  1  0.113010  0.073830  0.054830  1.0  0.8424
  Zn  Zn2  1  0.349600  0.112680  0.425560  1.0  0.8346
  Zn  Zn3  1  0.337890  0.346110  0.237540  1.0  0.8931
  Zn  Zn4  1  0.613010  0.573830  0.054830  1.0  0.8424
  Zn  Zn5  1  0.849600  0.612680  0.425560  1.0  0.8346
  Zn  Zn6  1  0.837890  0.846110  0.237540  1.0  0.8931
  Zn  Zn7  1  0.113010  0.926170  0.554830  1.0  0.8426
  Zn  Zn8  1  0.349600  0.887320  0.925560  1.0  0.8351
  Zn  Zn9  1  0.337890  0.653890  0.737540  1.0  0.8932
  Zn  Zn10  1  0.613010  0.426170  0.554830  1.0  0.8426
  Zn  Zn11  1  0.849600  0.387320  0.925560  1.0  0.8351
  Zn  Zn12  1  0.837890  0.153890  0.737540  1.0  0.8932
  Zn  Zn13  1  0.886990  0.073830  0.445170  1.0  0.8434
  Zn  Zn14  1  0.650400  0.112680  0.074440  1.0  0.8339
  Zn  Zn15  1  0.662110  0.346110  0.262460  1.0  0.8925
  Zn  Zn16  1  0.386990  0.573830  0.445170  1.0  0.8434
  Zn  Zn17  1  0.150400  0.612680  0.074440  1.0  0.8339
  Zn  Zn18  1  0.162110  0.846110  0.262460  1.0  0.8925
  Zn  Zn19  1  0.886990  0.926170  0.945170  1.0  0.8439
  Zn  Zn20  1  0.650400  0.887320  0.574440  1.0  0.8337
  Zn  Zn21  1  0.662110  0.653890  0.762460  1.0  0.8921
  Zn  Zn22  1  0.386990  0.426170  0.945170  1.0  0.8439
  Zn  Zn23  1  0.150400  0.387320  0.574440  1.0  0.8337
  Zn  Zn24  1  0.162110  0.153890  0.762460  1.0  0.8921
  H  H25  1  0.170600  0.123600  0.137500  1.0  0.0944
  H  H26  1  0.222600  0.056600  0.190600  1.0  0.1032
  H  H27  1  0.212400  0.825900  0.124000  1.0  0.1219
  H  H28  1  0.161900  0.899800  0.072000  1.0  0.0786
  H  H29  1  0.352300  0.920400  0.395500  1.0  0.0816
  H  H30  1  0.332600  0.839500  0.335000  1.0  0.1142
  H  H31  1  0.305800  0.082000  0.276100  1.0  0.1113
  H  H32  1  0.328500  0.157900  0.338200  1.0  0.0959
  H  H33  1  0.361900  0.515900  0.285000  1.0  0.0791
  H  H34  1  0.346500  0.671500  0.283100  1.0  0.1188
  H  H35  1  0.264700  0.633000  0.170700  1.0  0.1184
  H  H36  1  0.282300  0.479700  0.176100  1.0  0.0759
  H  H37  1  0.327500  0.997900  0.488000  1.0  0.0913
  H  H38  1  0.355600  0.887700  0.535400  1.0  0.1183
  H  H39  1  0.456900  0.886100  0.499900  1.0  0.119
  H  H40  1  0.426800  0.002100  0.454900  1.0  0.0814
  H  H41  1  0.384200  0.540700  0.692000  1.0  0.1024
  H  H42  1  0.418200  0.563800  0.644600  1.0  0.1171
  H  H43  1  0.395200  0.835000  0.647000  1.0  0.1115
  H  H44  1  0.362100  0.807200  0.694800  1.0  0.1033
  H  H45  1  0.575700  0.484400  0.617300  1.0  0.0779
  H  H46  1  0.524200  0.574100  0.625800  1.0  0.1187
  H  H47  1  0.493100  0.647600  0.508400  1.0  0.1202
  H  H48  1  0.546700  0.556600  0.503200  1.0  0.0776
  H  H49  1  0.670600  0.623600  0.137500  1.0  0.0944
  H  H50  1  0.722600  0.556600  0.190600  1.0  0.1032
  H  H51  1  0.712400  0.325900  0.124000  1.0  0.1219
  H  H52  1  0.661900  0.399800  0.072000  1.0  0.0786
  H  H53  1  0.852300  0.420400  0.395500  1.0  0.0816
  H  H54  1  0.832600  0.339500  0.335000  1.0  0.1142
  H  H55  1  0.805800  0.582000  0.276100  1.0  0.1113
  H  H56  1  0.828500  0.657900  0.338200  1.0  0.0959
  H  H57  1  0.861900  0.015900  0.285000  1.0  0.0791
  H  H58  1  0.846500  0.171500  0.283100  1.0  0.12
  H  H59  1  0.764700  0.133000  0.170700  1.0  0.1184
  H  H60  1  0.782300  0.979700  0.176100  1.0  0.0759
  H  H61  1  0.827500  0.497900  0.488000  1.0  0.0913
  H  H62  1  0.855600  0.387700  0.535400  1.0  0.1183
  H  H63  1  0.956900  0.386100  0.499900  1.0  0.119
  H  H64  1  0.926800  0.502100  0.454900  1.0  0.0814
  H  H65  1  0.884200  0.040700  0.692000  1.0  0.1025
  H  H66  1  0.918200  0.063800  0.644600  1.0  0.117
  H  H67  1  0.895200  0.335000  0.647000  1.0  0.111
  H  H68  1  0.862100  0.307200  0.694800  1.0  0.1033
  H  H69  1  0.075700  0.984400  0.617300  1.0  0.0779
  H  H70  1  0.024200  0.074100  0.625800  1.0  0.1187
  H  H71  1  0.993100  0.147600  0.508400  1.0  0.1202
  H  H72  1  0.046700  0.056600  0.503200  1.0  0.0776
  H  H73  1  0.170600  0.876400  0.637500  1.0  0.0941
  H  H74  1  0.222600  0.943400  0.690600  1.0  0.1035
  H  H75  1  0.212400  0.174100  0.624000  1.0  0.1215
  H  H76  1  0.161900  0.100200  0.572000  1.0  0.0788
  H  H77  1  0.352300  0.079600  0.895500  1.0  0.0813
  H  H78  1  0.332600  0.160500  0.835000  1.0  0.114
  H  H79  1  0.305800  0.918000  0.776100  1.0  0.1113
  H  H80  1  0.328500  0.842100  0.838200  1.0  0.0971
  H  H81  1  0.361900  0.484100  0.785000  1.0  0.0786
  H  H82  1  0.346500  0.328500  0.783100  1.0  0.119
  H  H83  1  0.264700  0.367000  0.670700  1.0  0.1182
  H  H84  1  0.282300  0.520300  0.676100  1.0  0.0763
  H  H85  1  0.327500  0.002100  0.988000  1.0  0.0918
  H  H86  1  0.355600  0.112300  0.035400  1.0  0.1189
  H  H87  1  0.456900  0.113900  0.999900  1.0  0.119
  H  H88  1  0.426800  0.997900  0.954900  1.0  0.0814
  H  H89  1  0.384200  0.459300  0.192000  1.0  0.1023
  H  H90  1  0.418200  0.436200  0.144600  1.0  0.1171
  H  H91  1  0.395200  0.165000  0.147000  1.0  0.11
  H  H92  1  0.362100  0.192800  0.194800  1.0  0.1031
  H  H93  1  0.575700  0.515600  0.117300  1.0  0.0775
  H  H94  1  0.524200  0.425900  0.125800  1.0  0.1187
  H  H95  1  0.493100  0.352400  0.008400  1.0  0.12
  H  H96  1  0.546700  0.443400  0.003200  1.0  0.0778
  H  H97  1  0.670600  0.376400  0.637500  1.0  0.0941
  H  H98  1  0.722600  0.443400  0.690600  1.0  0.1035
  H  H99  1  0.712400  0.674100  0.624000  1.0  0.1215
  H  H100  1  0.661900  0.600200  0.572000  1.0  0.0788
  H  H101  1  0.852300  0.579600  0.895500  1.0  0.0813
  H  H102  1  0.832600  0.660500  0.835000  1.0  0.114
  H  H103  1  0.805800  0.418000  0.776100  1.0  0.1113
  H  H104  1  0.828500  0.342100  0.838200  1.0  0.0971
  H  H105  1  0.861900  0.984100  0.785000  1.0  0.0786
  H  H106  1  0.846500  0.828500  0.783100  1.0  0.119
  H  H107  1  0.764700  0.867000  0.670700  1.0  0.1182
  H  H108  1  0.782300  0.020300  0.676100  1.0  0.0763
  H  H109  1  0.827500  0.502100  0.988000  1.0  0.0918
  H  H110  1  0.855600  0.612300  0.035400  1.0  0.1182
  H  H111  1  0.956900  0.613900  0.999900  1.0  0.119
  H  H112  1  0.926800  0.497900  0.954900  1.0  0.0814
  H  H113  1  0.884200  0.959300  0.192000  1.0  0.1026
  H  H114  1  0.918200  0.936200  0.144600  1.0  0.1171
  H  H115  1  0.895200  0.665000  0.147000  1.0  0.1113
  H  H116  1  0.862100  0.692800  0.194800  1.0  0.1031
  H  H117  1  0.075700  0.015600  0.117300  1.0  0.0775
  H  H118  1  0.024200  0.925900  0.125800  1.0  0.1187
  H  H119  1  0.993100  0.852400  0.008400  1.0  0.12
  H  H120  1  0.046700  0.943400  0.003200  1.0  0.0778
  H  H121  1  0.829400  0.123600  0.362500  1.0  0.0949
  H  H122  1  0.777400  0.056600  0.309400  1.0  0.1047
  H  H123  1  0.787600  0.825900  0.376000  1.0  0.1215
  H  H124  1  0.838100  0.899800  0.428000  1.0  0.0784
  H  H125  1  0.647700  0.920400  0.104500  1.0  0.0829
  H  H126  1  0.667400  0.839500  0.165000  1.0  0.1141
  H  H127  1  0.694200  0.082000  0.223900  1.0  0.1106
  H  H128  1  0.671500  0.157900  0.161800  1.0  0.0957
  H  H129  1  0.638100  0.515900  0.215000  1.0  0.0789
  H  H130  1  0.653500  0.671500  0.216900  1.0  0.1192
  H  H131  1  0.735300  0.633000  0.329300  1.0  0.1189
  H  H132  1  0.717700  0.479700  0.323900  1.0  0.0762
  H  H133  1  0.672500  0.997900  0.012000  1.0  0.0919
  H  H134  1  0.644400  0.887700  0.964600  1.0  0.1187
  H  H135  1  0.543100  0.886100  0.000100  1.0  0.1192
  H  H136  1  0.573200  0.002100  0.045100  1.0  0.0818
  H  H137  1  0.615800  0.540700  0.808000  1.0  0.1018
  H  H138  1  0.581800  0.563800  0.855400  1.0  0.1173
  H  H139  1  0.604800  0.835000  0.853000  1.0  0.1109
  H  H140  1  0.637900  0.807200  0.805200  1.0  0.1037
  H  H141  1  0.424300  0.484400  0.882700  1.0  0.0772
  H  H142  1  0.475800  0.574100  0.874200  1.0  0.1187
  H  H143  1  0.506900  0.647600  0.991600  1.0  0.1201
  H  H144  1  0.453300  0.556600  0.996800  1.0  0.0779
  H  H145  1  0.329400  0.623600  0.362500  1.0  0.0949
  H  H146  1  0.277400  0.556600  0.309400  1.0  0.1047
  H  H147  1  0.287600  0.325900  0.376000  1.0  0.1215
  H  H148  1  0.338100  0.399800  0.428000  1.0  0.0784
  H  H149  1  0.147700  0.420400  0.104500  1.0  0.0829
  H  H150  1  0.167400  0.339500  0.165000  1.0  0.1141
  H  H151  1  0.194200  0.582000  0.223900  1.0  0.1106
  H  H152  1  0.171500  0.657900  0.161800  1.0  0.0957
  H  H153  1  0.138100  0.015900  0.215000  1.0  0.0789
  H  H154  1  0.153500  0.171500  0.216900  1.0  0.1192
  H  H155  1  0.235300  0.133000  0.329300  1.0  0.1189
  H  H156  1  0.217700  0.979700  0.323900  1.0  0.0762
  H  H157  1  0.172500  0.497900  0.012000  1.0  0.0919
  H  H158  1  0.144400  0.387700  0.964600  1.0  0.118
  H  H159  1  0.043100  0.386100  0.000100  1.0  0.1192
  H  H160  1  0.073200  0.502100  0.045100  1.0  0.0818
  H  H161  1  0.115800  0.040700  0.808000  1.0  0.1018
  H  H162  1  0.081800  0.063800  0.855400  1.0  0.1174
  H  H163  1  0.104800  0.335000  0.853000  1.0  0.1118
  H  H164  1  0.137900  0.307200  0.805200  1.0  0.1037
  H  H165  1  0.924300  0.984400  0.882700  1.0  0.0772
  H  H166  1  0.975800  0.074100  0.874200  1.0  0.1187
  H  H167  1  0.006900  0.147600  0.991600  1.0  0.1201
  H  H168  1  0.953300  0.056600  0.996800  1.0  0.0779
  H  H169  1  0.829400  0.876400  0.862500  1.0  0.0947
  H  H170  1  0.777400  0.943400  0.809400  1.0  0.1047
  H  H171  1  0.787600  0.174100  0.876000  1.0  0.1219
  H  H172  1  0.838100  0.100200  0.928000  1.0  0.078
  H  H173  1  0.647700  0.079600  0.604500  1.0  0.083
  H  H174  1  0.667400  0.160500  0.665000  1.0  0.1144
  H  H175  1  0.694200  0.918000  0.723900  1.0  0.111
  H  H176  1  0.671500  0.842100  0.661800  1.0  0.0967
  H  H177  1  0.638100  0.484100  0.715000  1.0  0.0787
  H  H178  1  0.653500  0.328500  0.716900  1.0  0.1187
  H  H179  1  0.735300  0.367000  0.829300  1.0  0.1192
  H  H180  1  0.717700  0.520300  0.823900  1.0  0.0759
  H  H181  1  0.672500  0.002100  0.512000  1.0  0.0916
  H  H182  1  0.644400  0.112300  0.464600  1.0  0.118
  H  H183  1  0.543100  0.113900  0.500100  1.0  0.1192
  H  H184  1  0.573200  0.997900  0.545100  1.0  0.082
  H  H185  1  0.615800  0.459300  0.308000  1.0  0.1017
  H  H186  1  0.581800  0.436200  0.355400  1.0  0.1172
  H  H187  1  0.604800  0.165000  0.353000  1.0  0.1107
  H  H188  1  0.637900  0.192800  0.305200  1.0  0.1031
  H  H189  1  0.424300  0.515600  0.382700  1.0  0.0774
  H  H190  1  0.475800  0.425900  0.374200  1.0  0.1184
  H  H191  1  0.506900  0.352400  0.491600  1.0  0.1204
  H  H192  1  0.453300  0.443400  0.496800  1.0  0.0779
  H  H193  1  0.329400  0.376400  0.862500  1.0  0.0947
  H  H194  1  0.277400  0.443400  0.809400  1.0  0.1047
  H  H195  1  0.287600  0.674100  0.876000  1.0  0.1219
  H  H196  1  0.338100  0.600200  0.928000  1.0  0.078
  H  H197  1  0.147700  0.579600  0.604500  1.0  0.083
  H  H198  1  0.167400  0.660500  0.665000  1.0  0.1144
  H  H199  1  0.194200  0.418000  0.723900  1.0  0.111
  H  H200  1  0.171500  0.342100  0.661800  1.0  0.0967
  H  H201  1  0.138100  0.984100  0.715000  1.0  0.0787
  H  H202  1  0.153500  0.828500  0.716900  1.0  0.1201
  H  H203  1  0.235300  0.867000  0.829300  1.0  0.1192
  H  H204  1  0.217700  0.020300  0.823900  1.0  0.0759
  H  H205  1  0.172500  0.502100  0.512000  1.0  0.0916
  H  H206  1  0.144400  0.612300  0.464600  1.0  0.118
  H  H207  1  0.043100  0.613900  0.500100  1.0  0.1192
  H  H208  1  0.073200  0.497900  0.545100  1.0  0.082
  H  H209  1  0.115800  0.959300  0.308000  1.0  0.102
  H  H210  1  0.081800  0.936200  0.355400  1.0  0.1173
  H  H211  1  0.104800  0.665000  0.353000  1.0  0.1103
  H  H212  1  0.137900  0.692800  0.305200  1.0  0.1031
  H  H213  1  0.924300  0.015600  0.382700  1.0  0.0774
  H  H214  1  0.975800  0.925900  0.374200  1.0  0.1184
  H  H215  1  0.006900  0.852400  0.491600  1.0  0.1204
  H  H216  1  0.953300  0.943400  0.496800  1.0  0.0779
  C  C217  1  0.179500  0.062800  0.134700  1.0  0.1497
  C  C218  1  0.210300  0.022900  0.166500  1.0  -0.078
  C  C219  1  0.222800  0.934700  0.163100  1.0  -0.121
  C  C220  1  0.204500  0.887200  0.127300  1.0  -0.1529
  C  C221  1  0.174300  0.931800  0.096600  1.0  0.141
  C  C222  1  0.343000  0.953400  0.370800  1.0  0.1651
  C  C223  1  0.330600  0.904500  0.335000  1.0  -0.1395
  C  C224  1  0.315400  0.952700  0.299200  1.0  -0.1332
  C  C225  1  0.315200  0.047700  0.300400  1.0  -0.0806
  C  C226  1  0.328800  0.092700  0.337400  1.0  0.127
  C  C227  1  0.341900  0.540300  0.261700  1.0  0.1358
  C  C228  1  0.332800  0.633100  0.260900  1.0  -0.1302
  C  C229  1  0.303100  0.669300  0.226900  1.0  -0.1081
  C  C230  1  0.284500  0.610300  0.194600  1.0  -0.1513
  C  C231  1  0.295300  0.519300  0.198000  1.0  0.1345
  C  C232  1  0.254200  0.890700  0.197500  1.0  0.3901
  C  C233  1  0.298700  0.899100  0.260800  1.0  0.3762
  C  C234  1  0.291500  0.767500  0.226600  1.0  0.3777
  C  C235  1  0.354600  0.976400  0.491200  1.0  0.1401
  C  C236  1  0.370800  0.910300  0.519000  1.0  -0.1348
  C  C237  1  0.410200  0.875500  0.523300  1.0  -0.0634
  C  C238  1  0.430600  0.909400  0.498600  1.0  -0.1559
  C  C239  1  0.412100  0.978300  0.471600  1.0  0.1537
  C  C240  1  0.386800  0.601100  0.683000  1.0  0.1414
  C  C241  1  0.406300  0.614400  0.654100  1.0  -0.1104
  C  C242  1  0.408500  0.702300  0.639400  1.0  -0.089
  C  C243  1  0.392900  0.773900  0.655600  1.0  -0.1367
  C  C244  1  0.373800  0.757400  0.684500  1.0  0.1205
  C  C245  1  0.558600  0.518000  0.594800  1.0  0.14
  C  C246  1  0.528300  0.571100  0.600200  1.0  -0.1432
  C  C247  1  0.503100  0.621200  0.567800  1.0  -0.0472
  C  C248  1  0.509900  0.614800  0.531200  1.0  -0.2013
  C  C249  1  0.541700  0.559700  0.528400  1.0  0.1383
  C  C250  1  0.426300  0.801600  0.552400  1.0  0.39
  C  C251  1  0.427100  0.718400  0.606900  1.0  0.4228
  C  C252  1  0.469900  0.680400  0.573300  1.0  0.3602
  C  C253  1  0.679500  0.562800  0.134700  1.0  0.1497
  C  C254  1  0.710300  0.522900  0.166500  1.0  -0.078
  C  C255  1  0.722800  0.434700  0.163100  1.0  -0.121
  C  C256  1  0.704500  0.387200  0.127300  1.0  -0.1529
  C  C257  1  0.674300  0.431800  0.096600  1.0  0.141
  C  C258  1  0.843000  0.453400  0.370800  1.0  0.1651
  C  C259  1  0.830600  0.404500  0.335000  1.0  -0.1395
  C  C260  1  0.815400  0.452700  0.299200  1.0  -0.1332
  C  C261  1  0.815200  0.547700  0.300400  1.0  -0.0806
  C  C262  1  0.828800  0.592700  0.337400  1.0  0.127
  C  C263  1  0.841900  0.040300  0.261700  1.0  0.1358
  C  C264  1  0.832800  0.133100  0.260900  1.0  -0.1302
  C  C265  1  0.803100  0.169300  0.226900  1.0  -0.1081
  C  C266  1  0.784500  0.110300  0.194600  1.0  -0.1513
  C  C267  1  0.795300  0.019300  0.198000  1.0  0.1345
  C  C268  1  0.754200  0.390700  0.197500  1.0  0.3901
  C  C269  1  0.798700  0.399100  0.260800  1.0  0.3762
  C  C270  1  0.791500  0.267500  0.226600  1.0  0.3777
  C  C271  1  0.854600  0.476400  0.491200  1.0  0.1401
  C  C272  1  0.870800  0.410300  0.519000  1.0  -0.1348
  C  C273  1  0.910200  0.375500  0.523300  1.0  -0.0634
  C  C274  1  0.930600  0.409400  0.498600  1.0  -0.1559
  C  C275  1  0.912100  0.478300  0.471600  1.0  0.1537
  C  C276  1  0.886800  0.101100  0.683000  1.0  0.1414
  C  C277  1  0.906300  0.114400  0.654100  1.0  -0.1104
  C  C278  1  0.908500  0.202300  0.639400  1.0  -0.089
  C  C279  1  0.892900  0.273900  0.655600  1.0  -0.1367
  C  C280  1  0.873800  0.257400  0.684500  1.0  0.1205
  C  C281  1  0.058600  0.018000  0.594800  1.0  0.14
  C  C282  1  0.028300  0.071100  0.600200  1.0  -0.1432
  C  C283  1  0.003100  0.121200  0.567800  1.0  -0.0472
  C  C284  1  0.009900  0.114800  0.531200  1.0  -0.2013
  C  C285  1  0.041700  0.059700  0.528400  1.0  0.1383
  C  C286  1  0.926300  0.301600  0.552400  1.0  0.39
  C  C287  1  0.927100  0.218400  0.606900  1.0  0.4228
  C  C288  1  0.969900  0.180400  0.573300  1.0  0.3602
  C  C289  1  0.179500  0.937200  0.634700  1.0  0.1475
  C  C290  1  0.210300  0.977100  0.666500  1.0  -0.0775
  C  C291  1  0.222800  0.065300  0.663100  1.0  -0.1209
  C  C292  1  0.204500  0.112800  0.627300  1.0  -0.1535
  C  C293  1  0.174300  0.068200  0.596600  1.0  0.1402
  C  C294  1  0.343000  0.046600  0.870800  1.0  0.1643
  C  C295  1  0.330600  0.095500  0.835000  1.0  -0.1415
  C  C296  1  0.315400  0.047300  0.799200  1.0  -0.1323
  C  C297  1  0.315200  0.952300  0.800400  1.0  -0.0808
  C  C298  1  0.328800  0.907300  0.837400  1.0  0.1281
  C  C299  1  0.341900  0.459700  0.761700  1.0  0.1356
  C  C300  1  0.332800  0.366900  0.760900  1.0  -0.13
  C  C301  1  0.303100  0.330700  0.726900  1.0  -0.1105
  C  C302  1  0.284500  0.389700  0.694600  1.0  -0.1512
  C  C303  1  0.295300  0.480700  0.698000  1.0  0.1353
  C  C304  1  0.254200  0.109300  0.697500  1.0  0.3899
  C  C305  1  0.298700  0.100900  0.760800  1.0  0.3761
  C  C306  1  0.291500  0.232500  0.726600  1.0  0.3775
  C  C307  1  0.354600  0.023600  0.991200  1.0  0.1406
  C  C308  1  0.370800  0.089700  0.019000  1.0  -0.1328
  C  C309  1  0.410200  0.124500  0.023300  1.0  -0.0635
  C  C310  1  0.430600  0.090600  0.998600  1.0  -0.156
  C  C311  1  0.412100  0.021700  0.971600  1.0  0.1535
  C  C312  1  0.386800  0.398900  0.183000  1.0  0.1402
  C  C313  1  0.406300  0.385600  0.154100  1.0  -0.1109
  C  C314  1  0.408500  0.297700  0.139400  1.0  -0.0889
  C  C315  1  0.392900  0.226100  0.155600  1.0  -0.1356
  C  C316  1  0.373800  0.242600  0.184500  1.0  0.1216
  C  C317  1  0.558600  0.482000  0.094800  1.0  0.1393
  C  C318  1  0.528300  0.428900  0.100200  1.0  -0.1434
  C  C319  1  0.503100  0.378800  0.067800  1.0  -0.0472
  C  C320  1  0.509900  0.385200  0.031200  1.0  -0.2013
  C  C321  1  0.541700  0.440300  0.028400  1.0  0.1385
  C  C322  1  0.426300  0.198400  0.052400  1.0  0.3901
  C  C323  1  0.427100  0.281600  0.106900  1.0  0.4226
  C  C324  1  0.469900  0.319600  0.073300  1.0  0.3603
  C  C325  1  0.679500  0.437200  0.634700  1.0  0.1475
  C  C326  1  0.710300  0.477100  0.666500  1.0  -0.0775
  C  C327  1  0.722800  0.565300  0.663100  1.0  -0.1209
  C  C328  1  0.704500  0.612800  0.627300  1.0  -0.1535
  C  C329  1  0.674300  0.568200  0.596600  1.0  0.1402
  C  C330  1  0.843000  0.546600  0.870800  1.0  0.1643
  C  C331  1  0.830600  0.595500  0.835000  1.0  -0.1415
  C  C332  1  0.815400  0.547300  0.799200  1.0  -0.1323
  C  C333  1  0.815200  0.452300  0.800400  1.0  -0.0808
  C  C334  1  0.828800  0.407300  0.837400  1.0  0.1281
  C  C335  1  0.841900  0.959700  0.761700  1.0  0.1356
  C  C336  1  0.832800  0.866900  0.760900  1.0  -0.13
  C  C337  1  0.803100  0.830700  0.726900  1.0  -0.1105
  C  C338  1  0.784500  0.889700  0.694600  1.0  -0.1512
  C  C339  1  0.795300  0.980700  0.698000  1.0  0.1353
  C  C340  1  0.754200  0.609300  0.697500  1.0  0.3899
  C  C341  1  0.798700  0.600900  0.760800  1.0  0.3761
  C  C342  1  0.791500  0.732500  0.726600  1.0  0.3775
  C  C343  1  0.854600  0.523600  0.991200  1.0  0.1406
  C  C344  1  0.870800  0.589700  0.019000  1.0  -0.1348
  C  C345  1  0.910200  0.624500  0.023300  1.0  -0.0635
  C  C346  1  0.930600  0.590600  0.998600  1.0  -0.156
  C  C347  1  0.912100  0.521700  0.971600  1.0  0.1535
  C  C348  1  0.886800  0.898900  0.183000  1.0  0.1402
  C  C349  1  0.906300  0.885600  0.154100  1.0  -0.1109
  C  C350  1  0.908500  0.797700  0.139400  1.0  -0.0889
  C  C351  1  0.892900  0.726100  0.155600  1.0  -0.1356
  C  C352  1  0.873800  0.742600  0.184500  1.0  0.1216
  C  C353  1  0.058600  0.982000  0.094800  1.0  0.1393
  C  C354  1  0.028300  0.928900  0.100200  1.0  -0.1434
  C  C355  1  0.003100  0.878800  0.067800  1.0  -0.0472
  C  C356  1  0.009900  0.885200  0.031200  1.0  -0.2013
  C  C357  1  0.041700  0.940300  0.028400  1.0  0.1385
  C  C358  1  0.926300  0.698400  0.052400  1.0  0.3901
  C  C359  1  0.927100  0.781600  0.106900  1.0  0.4226
  C  C360  1  0.969900  0.819600  0.073300  1.0  0.3603
  C  C361  1  0.820500  0.062800  0.365300  1.0  0.1502
  C  C362  1  0.789700  0.022900  0.333500  1.0  -0.0773
  C  C363  1  0.777200  0.934700  0.336900  1.0  -0.121
  C  C364  1  0.795500  0.887200  0.372700  1.0  -0.1543
  C  C365  1  0.825700  0.931800  0.403400  1.0  0.1433
  C  C366  1  0.657000  0.953400  0.129200  1.0  0.1647
  C  C367  1  0.669400  0.904500  0.165000  1.0  -0.1392
  C  C368  1  0.684600  0.952700  0.200800  1.0  -0.1332
  C  C369  1  0.684800  0.047700  0.199600  1.0  -0.0813
  C  C370  1  0.671200  0.092700  0.162600  1.0  0.1292
  C  C371  1  0.658100  0.540300  0.238300  1.0  0.135
  C  C372  1  0.667200  0.633100  0.239100  1.0  -0.1313
  C  C373  1  0.696900  0.669300  0.273100  1.0  -0.1084
  C  C374  1  0.715500  0.610300  0.305400  1.0  -0.1516
  C  C375  1  0.704700  0.519300  0.302000  1.0  0.1356
  C  C376  1  0.745800  0.890700  0.302500  1.0  0.3907
  C  C377  1  0.701300  0.899100  0.239200  1.0  0.3764
  C  C378  1  0.708500  0.767500  0.273400  1.0  0.379
  C  C379  1  0.645400  0.976400  0.008800  1.0  0.1377
  C  C380  1  0.629200  0.910300  0.981000  1.0  -0.1333
  C  C381  1  0.589800  0.875500  0.976700  1.0  -0.0636
  C  C382  1  0.569400  0.909400  0.001400  1.0  -0.1561
  C  C383  1  0.587900  0.978300  0.028400  1.0  0.1527
  C  C384  1  0.613200  0.601100  0.817000  1.0  0.1418
  C  C385  1  0.593700  0.614400  0.845900  1.0  -0.1104
  C  C386  1  0.591500  0.702300  0.860600  1.0  -0.0884
  C  C387  1  0.607100  0.773900  0.844400  1.0  -0.1369
  C  C388  1  0.626200  0.757400  0.815500  1.0  0.1221
  C  C389  1  0.441400  0.518000  0.905200  1.0  0.1398
  C  C390  1  0.471700  0.571100  0.899800  1.0  -0.1421
  C  C391  1  0.496900  0.621200  0.932200  1.0  -0.0476
  C  C392  1  0.490100  0.614800  0.968800  1.0  -0.2016
  C  C393  1  0.458300  0.559700  0.971600  1.0  0.1376
  C  C394  1  0.573700  0.801600  0.947600  1.0  0.3906
  C  C395  1  0.572900  0.718400  0.893100  1.0  0.4227
  C  C396  1  0.530100  0.680400  0.926700  1.0  0.3608
  C  C397  1  0.320500  0.562800  0.365300  1.0  0.1502
  C  C398  1  0.289700  0.522900  0.333500  1.0  -0.0773
  C  C399  1  0.277200  0.434700  0.336900  1.0  -0.121
  C  C400  1  0.295500  0.387200  0.372700  1.0  -0.1543
  C  C401  1  0.325700  0.431800  0.403400  1.0  0.1433
  C  C402  1  0.157000  0.453400  0.129200  1.0  0.1647
  C  C403  1  0.169400  0.404500  0.165000  1.0  -0.1392
  C  C404  1  0.184600  0.452700  0.200800  1.0  -0.1332
  C  C405  1  0.184800  0.547700  0.199600  1.0  -0.0813
  C  C406  1  0.171200  0.592700  0.162600  1.0  0.1292
  C  C407  1  0.158100  0.040300  0.238300  1.0  0.135
  C  C408  1  0.167200  0.133100  0.239100  1.0  -0.1313
  C  C409  1  0.196900  0.169300  0.273100  1.0  -0.1084
  C  C410  1  0.215500  0.110300  0.305400  1.0  -0.1516
  C  C411  1  0.204700  0.019300  0.302000  1.0  0.1356
  C  C412  1  0.245800  0.390700  0.302500  1.0  0.3907
  C  C413  1  0.201300  0.399100  0.239200  1.0  0.3764
  C  C414  1  0.208500  0.267500  0.273400  1.0  0.379
  C  C415  1  0.145400  0.476400  0.008800  1.0  0.1377
  C  C416  1  0.129200  0.410300  0.981000  1.0  -0.1347
  C  C417  1  0.089800  0.375500  0.976700  1.0  -0.0636
  C  C418  1  0.069400  0.409400  0.001400  1.0  -0.1561
  C  C419  1  0.087900  0.478300  0.028400  1.0  0.1527
  C  C420  1  0.113200  0.101100  0.817000  1.0  0.1418
  C  C421  1  0.093700  0.114400  0.845900  1.0  -0.1104
  C  C422  1  0.091500  0.202300  0.860600  1.0  -0.0884
  C  C423  1  0.107100  0.273900  0.844400  1.0  -0.1369
  C  C424  1  0.126200  0.257400  0.815500  1.0  0.1221
  C  C425  1  0.941400  0.018000  0.905200  1.0  0.1398
  C  C426  1  0.971700  0.071100  0.899800  1.0  -0.1421
  C  C427  1  0.996900  0.121200  0.932200  1.0  -0.0476
  C  C428  1  0.990100  0.114800  0.968800  1.0  -0.2016
  C  C429  1  0.958300  0.059700  0.971600  1.0  0.1376
  C  C430  1  0.073700  0.301600  0.947600  1.0  0.3906
  C  C431  1  0.072900  0.218400  0.893100  1.0  0.4227
  C  C432  1  0.030100  0.180400  0.926700  1.0  0.3608
  C  C433  1  0.820500  0.937200  0.865300  1.0  0.148
  C  C434  1  0.789700  0.977100  0.833500  1.0  -0.0775
  C  C435  1  0.777200  0.065300  0.836900  1.0  -0.1214
  C  C436  1  0.795500  0.112800  0.872700  1.0  -0.1553
  C  C437  1  0.825700  0.068200  0.903400  1.0  0.1416
  C  C438  1  0.657000  0.046600  0.629200  1.0  0.165
  C  C439  1  0.669400  0.095500  0.665000  1.0  -0.1403
  C  C440  1  0.684600  0.047300  0.700800  1.0  -0.1332
  C  C441  1  0.684800  0.952300  0.699600  1.0  -0.0804
  C  C442  1  0.671200  0.907300  0.662600  1.0  0.1287
  C  C443  1  0.658100  0.459700  0.738300  1.0  0.1353
  C  C444  1  0.667200  0.366900  0.739100  1.0  -0.131
  C  C445  1  0.696900  0.330700  0.773100  1.0  -0.1111
  C  C446  1  0.715500  0.389700  0.805400  1.0  -0.1517
  C  C447  1  0.704700  0.480700  0.802000  1.0  0.1351
  C  C448  1  0.745800  0.109300  0.802500  1.0  0.3906
  C  C449  1  0.701300  0.100900  0.739200  1.0  0.3764
  C  C450  1  0.708500  0.232500  0.773400  1.0  0.3785
  C  C451  1  0.645400  0.023600  0.508800  1.0  0.1381
  C  C452  1  0.629200  0.089700  0.481000  1.0  -0.1348
  C  C453  1  0.589800  0.124500  0.476700  1.0  -0.0636
  C  C454  1  0.569400  0.090600  0.501400  1.0  -0.1559
  C  C455  1  0.587900  0.021700  0.528400  1.0  0.1533
  C  C456  1  0.613200  0.398900  0.317000  1.0  0.1416
  C  C457  1  0.593700  0.385600  0.345900  1.0  -0.1116
  C  C458  1  0.591500  0.297700  0.360600  1.0  -0.0884
  C  C459  1  0.607100  0.226100  0.344400  1.0  -0.1364
  C  C460  1  0.626200  0.242600  0.315500  1.0  0.1224
  C  C461  1  0.441400  0.482000  0.405200  1.0  0.1401
  C  C462  1  0.471700  0.428900  0.399800  1.0  -0.1426
  C  C463  1  0.496900  0.378800  0.432200  1.0  -0.0472
  C  C464  1  0.490100  0.385200  0.468800  1.0  -0.2009
  C  C465  1  0.458300  0.440300  0.471600  1.0  0.138
  C  C466  1  0.573700  0.198400  0.447600  1.0  0.3904
  C  C467  1  0.572900  0.281600  0.393100  1.0  0.4225
  C  C468  1  0.530100  0.319600  0.426700  1.0  0.3608
  C  C469  1  0.320500  0.437200  0.865300  1.0  0.148
  C  C470  1  0.289700  0.477100  0.833500  1.0  -0.0775
  C  C471  1  0.277200  0.565300  0.836900  1.0  -0.1214
  C  C472  1  0.295500  0.612800  0.872700  1.0  -0.1553
  C  C473  1  0.325700  0.568200  0.903400  1.0  0.1416
  C  C474  1  0.157000  0.546600  0.629200  1.0  0.165
  C  C475  1  0.169400  0.595500  0.665000  1.0  -0.1403
  C  C476  1  0.184600  0.547300  0.700800  1.0  -0.1332
  C  C477  1  0.184800  0.452300  0.699600  1.0  -0.0804
  C  C478  1  0.171200  0.407300  0.662600  1.0  0.1287
  C  C479  1  0.158100  0.959700  0.738300  1.0  0.1353
  C  C480  1  0.167200  0.866900  0.739100  1.0  -0.131
  C  C481  1  0.196900  0.830700  0.773100  1.0  -0.1111
  C  C482  1  0.215500  0.889700  0.805400  1.0  -0.1517
  C  C483  1  0.204700  0.980700  0.802000  1.0  0.1351
  C  C484  1  0.245800  0.609300  0.802500  1.0  0.3906
  C  C485  1  0.201300  0.600900  0.739200  1.0  0.3764
  C  C486  1  0.208500  0.732500  0.773400  1.0  0.3785
  C  C487  1  0.145400  0.523600  0.508800  1.0  0.1381
  C  C488  1  0.129200  0.589700  0.481000  1.0  -0.1348
  C  C489  1  0.089800  0.624500  0.476700  1.0  -0.0636
  C  C490  1  0.069400  0.590600  0.501400  1.0  -0.1559
  C  C491  1  0.087900  0.521700  0.528400  1.0  0.1533
  C  C492  1  0.113200  0.898900  0.317000  1.0  0.1416
  C  C493  1  0.093700  0.885600  0.345900  1.0  -0.1116
  C  C494  1  0.091500  0.797700  0.360600  1.0  -0.0884
  C  C495  1  0.107100  0.726100  0.344400  1.0  -0.1364
  C  C496  1  0.126200  0.742600  0.315500  1.0  0.1224
  C  C497  1  0.941400  0.982000  0.405200  1.0  0.1401
  C  C498  1  0.971700  0.928900  0.399800  1.0  -0.1426
  C  C499  1  0.996900  0.878800  0.432200  1.0  -0.0472
  C  C500  1  0.990100  0.885200  0.468800  1.0  -0.2009
  C  C501  1  0.958300  0.940300  0.471600  1.0  0.138
  C  C502  1  0.073700  0.698400  0.447600  1.0  0.3904
  C  C503  1  0.072900  0.781600  0.393100  1.0  0.4225
  C  C504  1  0.030100  0.819600  0.426700  1.0  0.3608
  I  I505  1  0.096200  0.228800  0.080150  1.0  -0.4097
  I  I506  1  0.124000  0.052690  0.987220  1.0  -0.3203
  I  I507  1  0.275860  0.146050  0.423620  1.0  -0.3629
  I  I508  1  0.403310  0.237220  0.438390  1.0  -0.4593
  I  I509  1  0.381480  0.316630  0.310100  1.0  -0.4269
  I  I510  1  0.273410  0.247530  0.207640  1.0  -0.428
  I  I511  1  0.596200  0.728800  0.080150  1.0  -0.4097
  I  I512  1  0.624000  0.552690  0.987220  1.0  -0.3203
  I  I513  1  0.775860  0.646050  0.423620  1.0  -0.3629
  I  I514  1  0.903310  0.737220  0.438390  1.0  -0.4593
  I  I515  1  0.881480  0.816630  0.310100  1.0  -0.4269
  I  I516  1  0.773410  0.747530  0.207640  1.0  -0.428
  I  I517  1  0.096200  0.771200  0.580150  1.0  -0.41
  I  I518  1  0.124000  0.947310  0.487220  1.0  -0.32
  I  I519  1  0.275860  0.853950  0.923620  1.0  -0.3629
  I  I520  1  0.403310  0.762780  0.938390  1.0  -0.4589
  I  I521  1  0.381480  0.683370  0.810100  1.0  -0.4269
  I  I522  1  0.273410  0.752470  0.707640  1.0  -0.4281
  I  I523  1  0.596200  0.271200  0.580150  1.0  -0.41
  I  I524  1  0.624000  0.447310  0.487220  1.0  -0.32
  I  I525  1  0.775860  0.353950  0.923620  1.0  -0.3629
  I  I526  1  0.903310  0.262780  0.938390  1.0  -0.4589
  I  I527  1  0.881480  0.183370  0.810100  1.0  -0.4269
  I  I528  1  0.773410  0.252470  0.707640  1.0  -0.4281
  I  I529  1  0.903800  0.228800  0.419850  1.0  -0.4096
  I  I530  1  0.876000  0.052690  0.512780  1.0  -0.3198
  I  I531  1  0.724140  0.146050  0.076380  1.0  -0.3621
  I  I532  1  0.596690  0.237220  0.061610  1.0  -0.4567
  I  I533  1  0.618520  0.316630  0.189900  1.0  -0.4276
  I  I534  1  0.726590  0.247530  0.292360  1.0  -0.4259
  I  I535  1  0.403800  0.728800  0.419850  1.0  -0.4096
  I  I536  1  0.376000  0.552690  0.512780  1.0  -0.3198
  I  I537  1  0.224140  0.646050  0.076380  1.0  -0.3621
  I  I538  1  0.096690  0.737220  0.061610  1.0  -0.4567
  I  I539  1  0.118520  0.816630  0.189900  1.0  -0.4276
  I  I540  1  0.226590  0.747530  0.292360  1.0  -0.4259
  I  I541  1  0.903800  0.771200  0.919850  1.0  -0.4098
  I  I542  1  0.876000  0.947310  0.012780  1.0  -0.3201
  I  I543  1  0.724140  0.853950  0.576380  1.0  -0.3616
  I  I544  1  0.596690  0.762780  0.561610  1.0  -0.4561
  I  I545  1  0.618520  0.683370  0.689900  1.0  -0.4273
  I  I546  1  0.726590  0.752470  0.792360  1.0  -0.4254
  I  I547  1  0.403800  0.271200  0.919850  1.0  -0.4098
  I  I548  1  0.376000  0.447310  0.012780  1.0  -0.3201
  I  I549  1  0.224140  0.353950  0.576380  1.0  -0.3616
  I  I550  1  0.096690  0.262780  0.561610  1.0  -0.4561
  I  I551  1  0.118520  0.183370  0.689900  1.0  -0.4273
  I  I552  1  0.226590  0.252470  0.792360  1.0  -0.4254
  N  N553  1  0.161900  0.017100  0.099800  1.0  -0.3296
  N  N554  1  0.342500  0.044400  0.372100  1.0  -0.3302
  N  N555  1  0.323500  0.483000  0.231000  1.0  -0.3166
  N  N556  1  0.270400  0.942600  0.230300  1.0  -0.44
  N  N557  1  0.310900  0.814000  0.260400  1.0  -0.4019
  N  N558  1  0.263200  0.801600  0.194200  1.0  -0.4719
  N  N559  1  0.375300  0.013100  0.467700  1.0  -0.3132
  N  N560  1  0.371500  0.671700  0.698200  1.0  -0.322
  N  N561  1  0.565900  0.510600  0.558900  1.0  -0.3095
  N  N562  1  0.410600  0.789100  0.582500  1.0  -0.3603
  N  N563  1  0.455600  0.663000  0.603900  1.0  -0.3978
  N  N564  1  0.456700  0.750500  0.546800  1.0  -0.4331
  N  N565  1  0.661900  0.517100  0.099800  1.0  -0.3296
  N  N566  1  0.842500  0.544400  0.372100  1.0  -0.3302
  N  N567  1  0.823500  0.983000  0.231000  1.0  -0.3166
  N  N568  1  0.770400  0.442600  0.230300  1.0  -0.44
  N  N569  1  0.810900  0.314000  0.260400  1.0  -0.4019
  N  N570  1  0.763200  0.301600  0.194200  1.0  -0.4719
  N  N571  1  0.875300  0.513100  0.467700  1.0  -0.3132
  N  N572  1  0.871500  0.171700  0.698200  1.0  -0.322
  N  N573  1  0.065900  0.010600  0.558900  1.0  -0.3095
  N  N574  1  0.910600  0.289100  0.582500  1.0  -0.3603
  N  N575  1  0.955600  0.163000  0.603900  1.0  -0.3978
  N  N576  1  0.956700  0.250500  0.546800  1.0  -0.4331
  N  N577  1  0.161900  0.982900  0.599800  1.0  -0.3295
  N  N578  1  0.342500  0.955600  0.872100  1.0  -0.3292
  N  N579  1  0.323500  0.517000  0.731000  1.0  -0.3175
  N  N580  1  0.270400  0.057400  0.730300  1.0  -0.4403
  N  N581  1  0.310900  0.186000  0.760400  1.0  -0.4018
  N  N582  1  0.263200  0.198400  0.694200  1.0  -0.4711
  N  N583  1  0.375300  0.986900  0.967700  1.0  -0.3123
  N  N584  1  0.371500  0.328300  0.198200  1.0  -0.3217
  N  N585  1  0.565900  0.489400  0.058900  1.0  -0.3092
  N  N586  1  0.410600  0.210900  0.082500  1.0  -0.36
  N  N587  1  0.455600  0.337000  0.103900  1.0  -0.3975
  N  N588  1  0.456700  0.249500  0.046800  1.0  -0.4338
  N  N589  1  0.661900  0.482900  0.599800  1.0  -0.3295
  N  N590  1  0.842500  0.455600  0.872100  1.0  -0.3292
  N  N591  1  0.823500  0.017000  0.731000  1.0  -0.3175
  N  N592  1  0.770400  0.557400  0.730300  1.0  -0.4403
  N  N593  1  0.810900  0.686000  0.760400  1.0  -0.4018
  N  N594  1  0.763200  0.698400  0.694200  1.0  -0.4711
  N  N595  1  0.875300  0.486900  0.967700  1.0  -0.3123
  N  N596  1  0.871500  0.828300  0.198200  1.0  -0.3217
  N  N597  1  0.065900  0.989400  0.058900  1.0  -0.3092
  N  N598  1  0.910600  0.710900  0.082500  1.0  -0.36
  N  N599  1  0.955600  0.837000  0.103900  1.0  -0.3975
  N  N600  1  0.956700  0.749500  0.046800  1.0  -0.4338
  N  N601  1  0.838100  0.017100  0.400200  1.0  -0.3288
  N  N602  1  0.657500  0.044400  0.127900  1.0  -0.3284
  N  N603  1  0.676500  0.483000  0.269000  1.0  -0.3167
  N  N604  1  0.729600  0.942600  0.269700  1.0  -0.4405
  N  N605  1  0.689100  0.814000  0.239600  1.0  -0.4025
  N  N606  1  0.736800  0.801600  0.305800  1.0  -0.4703
  N  N607  1  0.624700  0.013100  0.032300  1.0  -0.3135
  N  N608  1  0.628500  0.671700  0.801800  1.0  -0.3246
  N  N609  1  0.434100  0.510600  0.941100  1.0  -0.3113
  N  N610  1  0.589400  0.789100  0.917500  1.0  -0.3599
  N  N611  1  0.544400  0.663000  0.896100  1.0  -0.3995
  N  N612  1  0.543300  0.750500  0.953200  1.0  -0.4335
  N  N613  1  0.338100  0.517100  0.400200  1.0  -0.3288
  N  N614  1  0.157500  0.544400  0.127900  1.0  -0.3284
  N  N615  1  0.176500  0.983000  0.269000  1.0  -0.3167
  N  N616  1  0.229600  0.442600  0.269700  1.0  -0.4405
  N  N617  1  0.189100  0.314000  0.239600  1.0  -0.4025
  N  N618  1  0.236800  0.301600  0.305800  1.0  -0.4703
  N  N619  1  0.124700  0.513100  0.032300  1.0  -0.3135
  N  N620  1  0.128500  0.171700  0.801800  1.0  -0.3246
  N  N621  1  0.934100  0.010600  0.941100  1.0  -0.3113
  N  N622  1  0.089400  0.289100  0.917500  1.0  -0.3599
  N  N623  1  0.044400  0.163000  0.896100  1.0  -0.3995
  N  N624  1  0.043300  0.250500  0.953200  1.0  -0.4335
  N  N625  1  0.838100  0.982900  0.900200  1.0  -0.3275
  N  N626  1  0.657500  0.955600  0.627900  1.0  -0.3293
  N  N627  1  0.676500  0.517000  0.769000  1.0  -0.316
  N  N628  1  0.729600  0.057400  0.769700  1.0  -0.4407
  N  N629  1  0.689100  0.186000  0.739600  1.0  -0.4021
  N  N630  1  0.736800  0.198400  0.805800  1.0  -0.4709
  N  N631  1  0.624700  0.986900  0.532300  1.0  -0.3114
  N  N632  1  0.628500  0.328300  0.301800  1.0  -0.3237
  N  N633  1  0.434100  0.489400  0.441100  1.0  -0.3107
  N  N634  1  0.589400  0.210900  0.417500  1.0  -0.3594
  N  N635  1  0.544400  0.337000  0.396100  1.0  -0.3985
  N  N636  1  0.543300  0.249500  0.453200  1.0  -0.4337
  N  N637  1  0.338100  0.482900  0.900200  1.0  -0.3275
  N  N638  1  0.157500  0.455600  0.627900  1.0  -0.3293
  N  N639  1  0.176500  0.017000  0.769000  1.0  -0.316
  N  N640  1  0.229600  0.557400  0.769700  1.0  -0.4407
  N  N641  1  0.189100  0.686000  0.739600  1.0  -0.4021
  N  N642  1  0.236800  0.698400  0.805800  1.0  -0.4709
  N  N643  1  0.124700  0.486900  0.532300  1.0  -0.3114
  N  N644  1  0.128500  0.828300  0.301800  1.0  -0.3237
  N  N645  1  0.934100  0.989400  0.441100  1.0  -0.3107
  N  N646  1  0.089400  0.710900  0.417500  1.0  -0.3594
  N  N647  1  0.044400  0.837000  0.396100  1.0  -0.3985
  N  N648  1  0.043300  0.749500  0.453200  1.0  -0.4337
