# generated using pymatgen
data_Nd2P3H30C27(NO5)3
_symmetry_space_group_name_H-M   'P 1'
_cell_length_a   7.13100000
_cell_length_b   20.89100000
_cell_length_c   27.84500000
_cell_angle_alpha   107.85300000
_cell_angle_beta   90.00000000
_cell_angle_gamma   90.00000000
_symmetry_Int_Tables_number   1
_chemical_formula_structural   Nd2P3H30C27(NO5)3
_chemical_formula_sum   'Nd8 P12 H120 C108 N12 O60'
_cell_volume   3948.42299623
_cell_formula_units_Z   4
loop_
 _symmetry_equiv_pos_site_id
 _symmetry_equiv_pos_as_xyz
  1  'x, y, z'
loop_
 _atom_site_type_symbol
 _atom_site_label
 _atom_site_symmetry_multiplicity
 _atom_site_fract_x
 _atom_site_fract_y
 _atom_site_fract_z
 _atom_site_occupancy
 _atom_site_charge
  Nd  Nd1  1  0.875790  0.909400  0.660260  1.0  2.3887
  Nd  Nd2  1  0.082190  0.745380  0.204760  1.0  2.3132
  Nd  Nd3  1  0.375790  0.090600  0.839740  1.0  2.3914
  Nd  Nd4  1  0.582190  0.254620  0.295240  1.0  2.3076
  Nd  Nd5  1  0.124210  0.090600  0.339740  1.0  2.3912
  Nd  Nd6  1  0.917810  0.254620  0.795240  1.0  2.3192
  Nd  Nd7  1  0.624210  0.909400  0.160260  1.0  2.3896
  Nd  Nd8  1  0.417810  0.745380  0.704760  1.0  2.3085
  P  P9  1  0.955100  0.917730  0.272210  1.0  1.721
  P  P10  1  0.918900  0.748320  0.677410  1.0  1.5536
  P  P11  1  0.380400  0.862600  0.624610  1.0  1.6773
  P  P12  1  0.455100  0.082270  0.227790  1.0  1.7205
  P  P13  1  0.418900  0.251680  0.822590  1.0  1.5547
  P  P14  1  0.880400  0.137400  0.875390  1.0  1.679
  P  P15  1  0.044900  0.082270  0.727790  1.0  1.7197
  P  P16  1  0.081100  0.251680  0.322590  1.0  1.5559
  P  P17  1  0.619600  0.137400  0.375390  1.0  1.6749
  P  P18  1  0.544900  0.917730  0.772210  1.0  1.7208
  P  P19  1  0.581100  0.748320  0.177410  1.0  1.5548
  P  P20  1  0.119600  0.862600  0.124610  1.0  1.673
  H  H21  1  0.646500  0.987300  0.323300  1.0  0.2679
  H  H22  1  0.818100  0.619300  0.685500  1.0  0.2803
  H  H23  1  0.022000  0.618400  0.686800  1.0  0.2892
  H  H24  1  0.077200  0.793000  0.547700  1.0  0.2821
  H  H25  1  0.163600  0.764600  0.583800  1.0  0.2554
  H  H26  1  0.877600  0.901300  0.348700  1.0  0.1446
  H  H27  1  0.746600  0.857300  0.305900  1.0  0.1381
  H  H28  1  0.432200  0.981200  0.382500  1.0  0.1103
  H  H29  1  0.443200  0.903300  0.356400  1.0  0.0902
  H  H30  1  0.554200  0.836000  0.403400  1.0  0.0883
  H  H31  1  0.684000  0.823100  0.476500  1.0  0.0796
  H  H32  1  0.819400  0.017900  0.522300  1.0  0.0927
  H  H33  1  0.691900  0.030600  0.449500  1.0  0.1056
  H  H34  1  0.823500  0.653200  0.614200  1.0  0.1421
  H  H35  1  0.042800  0.654800  0.617900  1.0  0.1404
  H  H36  1  0.031600  0.532900  0.610700  1.0  0.0835
  H  H37  1  0.811500  0.533100  0.610700  1.0  0.0849
  H  H38  1  0.641400  0.492700  0.673100  1.0  0.1082
  H  H39  1  0.640000  0.429300  0.728000  1.0  0.096
  H  H40  1  0.198300  0.406500  0.711700  1.0  0.0981
  H  H41  1  0.197800  0.473000  0.659200  1.0  0.1049
  H  H42  1  0.993800  0.762900  0.379100  1.0  0.1121
  H  H43  1  0.959200  0.748100  0.457800  1.0  0.1006
  H  H44  1  0.299500  0.680500  0.521400  1.0  0.0781
  H  H45  1  0.081100  0.679500  0.514400  1.0  0.0854
  H  H46  1  0.455700  0.791000  0.543900  1.0  0.153
  H  H47  1  0.321700  0.848500  0.539000  1.0  0.1734
  H  H48  1  0.480700  0.677900  0.450300  1.0  0.1043
  H  H49  1  0.522100  0.696400  0.372800  1.0  0.106
  H  H50  1  0.452200  0.748300  0.274800  1.0  0.4278
  H  H51  1  0.146500  0.012700  0.176700  1.0  0.2663
  H  H52  1  0.318100  0.380700  0.814500  1.0  0.2801
  H  H53  1  0.522000  0.381600  0.813200  1.0  0.2897
  H  H54  1  0.577200  0.207000  0.952300  1.0  0.2809
  H  H55  1  0.663600  0.235400  0.916200  1.0  0.2549
  H  H56  1  0.377600  0.098700  0.151300  1.0  0.1443
  H  H57  1  0.246600  0.142700  0.194100  1.0  0.1377
  H  H58  1  0.932200  0.018800  0.117500  1.0  0.1091
  H  H59  1  0.943200  0.096700  0.143600  1.0  0.0914
  H  H60  1  0.054200  0.164000  0.096600  1.0  0.0884
  H  H61  1  0.184000  0.176900  0.023500  1.0  0.0796
  H  H62  1  0.319400  0.982100  0.977700  1.0  0.0921
  H  H63  1  0.191900  0.969400  0.050500  1.0  0.1054
  H  H64  1  0.323500  0.346800  0.885800  1.0  0.1432
  H  H65  1  0.542800  0.345200  0.882100  1.0  0.1398
  H  H66  1  0.531600  0.467100  0.889300  1.0  0.0829
  H  H67  1  0.311500  0.466900  0.889300  1.0  0.0847
  H  H68  1  0.141400  0.507300  0.826900  1.0  0.1086
  H  H69  1  0.140000  0.570700  0.772000  1.0  0.0966
  H  H70  1  0.698300  0.593500  0.788300  1.0  0.0982
  H  H71  1  0.697800  0.527000  0.840800  1.0  0.1047
  H  H72  1  0.493800  0.237100  0.120900  1.0  0.1119
  H  H73  1  0.459200  0.251900  0.042200  1.0  0.1008
  H  H74  1  0.799500  0.319500  0.978600  1.0  0.0792
  H  H75  1  0.581100  0.320500  0.985600  1.0  0.0847
  H  H76  1  0.955700  0.209000  0.956100  1.0  0.1523
  H  H77  1  0.821700  0.151500  0.961000  1.0  0.1736
  H  H78  1  0.980700  0.322100  0.049700  1.0  0.1044
  H  H79  1  0.022100  0.303600  0.127200  1.0  0.1062
  H  H80  1  0.952200  0.251700  0.225200  1.0  0.4286
  H  H81  1  0.353500  0.012700  0.676700  1.0  0.2664
  H  H82  1  0.181900  0.380700  0.314500  1.0  0.2802
  H  H83  1  0.978000  0.381600  0.313200  1.0  0.2886
  H  H84  1  0.922800  0.207000  0.452300  1.0  0.2847
  H  H85  1  0.836400  0.235400  0.416200  1.0  0.2544
  H  H86  1  0.122400  0.098700  0.651300  1.0  0.1452
  H  H87  1  0.253400  0.142700  0.694100  1.0  0.1377
  H  H88  1  0.567800  0.018800  0.617500  1.0  0.1089
  H  H89  1  0.556800  0.096700  0.643600  1.0  0.0894
  H  H90  1  0.445800  0.164000  0.596600  1.0  0.0883
  H  H91  1  0.316000  0.176900  0.523500  1.0  0.0794
  H  H92  1  0.180600  0.982100  0.477700  1.0  0.0919
  H  H93  1  0.308100  0.969400  0.550500  1.0  0.1055
  H  H94  1  0.176500  0.346800  0.385800  1.0  0.1433
  H  H95  1  0.957200  0.345200  0.382100  1.0  0.1399
  H  H96  1  0.968400  0.467100  0.389300  1.0  0.0838
  H  H97  1  0.188500  0.466900  0.389300  1.0  0.0836
  H  H98  1  0.358600  0.507300  0.326900  1.0  0.108
  H  H99  1  0.360000  0.570700  0.272000  1.0  0.0963
  H  H100  1  0.801700  0.593500  0.288300  1.0  0.0979
  H  H101  1  0.802200  0.527000  0.340800  1.0  0.1059
  H  H102  1  0.006200  0.237100  0.620900  1.0  0.1125
  H  H103  1  0.040800  0.251900  0.542200  1.0  0.1013
  H  H104  1  0.700500  0.319500  0.478600  1.0  0.0786
  H  H105  1  0.918900  0.320500  0.485600  1.0  0.0838
  H  H106  1  0.544300  0.209000  0.456100  1.0  0.1518
  H  H107  1  0.678300  0.151500  0.461000  1.0  0.1732
  H  H108  1  0.519300  0.322100  0.549700  1.0  0.1045
  H  H109  1  0.477900  0.303600  0.627200  1.0  0.1058
  H  H110  1  0.547800  0.251700  0.725200  1.0  0.428
  H  H111  1  0.853500  0.987300  0.823300  1.0  0.2679
  H  H112  1  0.681900  0.619300  0.185500  1.0  0.2799
  H  H113  1  0.478000  0.618400  0.186800  1.0  0.2882
  H  H114  1  0.422800  0.793000  0.047700  1.0  0.284
  H  H115  1  0.336400  0.764600  0.083800  1.0  0.2554
  H  H116  1  0.622400  0.901300  0.848700  1.0  0.1447
  H  H117  1  0.753400  0.857300  0.805900  1.0  0.1384
  H  H118  1  0.067800  0.981200  0.882500  1.0  0.1085
  H  H119  1  0.056800  0.903300  0.856400  1.0  0.0897
  H  H120  1  0.945800  0.836000  0.903400  1.0  0.0883
  H  H121  1  0.816000  0.823100  0.976500  1.0  0.0795
  H  H122  1  0.680600  0.017900  0.022300  1.0  0.0925
  H  H123  1  0.808100  0.030600  0.949500  1.0  0.1057
  H  H124  1  0.676500  0.653200  0.114200  1.0  0.1426
  H  H125  1  0.457200  0.654800  0.117900  1.0  0.1381
  H  H126  1  0.468400  0.532900  0.110700  1.0  0.083
  H  H127  1  0.688500  0.533100  0.110700  1.0  0.0842
  H  H128  1  0.858600  0.492700  0.173100  1.0  0.108
  H  H129  1  0.860000  0.429300  0.228000  1.0  0.0962
  H  H130  1  0.301700  0.406500  0.211700  1.0  0.0977
  H  H131  1  0.302200  0.473000  0.159200  1.0  0.1047
  H  H132  1  0.506200  0.762900  0.879100  1.0  0.1123
  H  H133  1  0.540800  0.748100  0.957800  1.0  0.1013
  H  H134  1  0.200500  0.680500  0.021400  1.0  0.0789
  H  H135  1  0.418900  0.679500  0.014400  1.0  0.0837
  H  H136  1  0.044300  0.791000  0.043900  1.0  0.151
  H  H137  1  0.178300  0.848500  0.039000  1.0  0.1727
  H  H138  1  0.019300  0.677900  0.950300  1.0  0.1053
  H  H139  1  0.977900  0.696400  0.872800  1.0  0.1058
  H  H140  1  0.047800  0.748300  0.774800  1.0  0.4273
  C  C141  1  0.803700  0.901300  0.319500  1.0  -0.4758
  C  C142  1  0.517100  0.943100  0.372500  1.0  -0.0265
  C  C143  1  0.609900  0.934800  0.419400  1.0  0.0778
  C  C144  1  0.607800  0.872700  0.427300  1.0  -0.1587
  C  C145  1  0.686100  0.864900  0.471200  1.0  -0.0555
  C  C146  1  0.766500  0.919300  0.506800  1.0  -0.1421
  C  C147  1  0.766800  0.981000  0.498400  1.0  -0.0308
  C  C148  1  0.689600  0.988700  0.454800  1.0  -0.1094
  C  C149  1  0.848100  0.911200  0.555100  1.0  0.6772
  C  C150  1  0.928200  0.661600  0.637600  1.0  -0.5081
  C  C151  1  0.921400  0.540600  0.632200  1.0  -0.0444
  C  C152  1  0.920600  0.491500  0.662600  1.0  -0.0063
  C  C153  1  0.753800  0.476900  0.682100  1.0  -0.1431
  C  C154  1  0.752900  0.439000  0.715000  1.0  -0.0304
  C  C155  1  0.921200  0.415200  0.728700  1.0  -0.144
  C  C156  1  0.086900  0.425800  0.705500  1.0  -0.0368
  C  C157  1  0.086100  0.464700  0.673500  1.0  -0.1501
  C  C158  1  0.923800  0.378500  0.766900  1.0  0.6637
  C  C159  1  0.281900  0.743800  0.319200  1.0  0.6763
  C  C160  1  0.262400  0.732300  0.369400  1.0  -0.1581
  C  C161  1  0.093200  0.747000  0.393800  1.0  -0.0013
  C  C162  1  0.072700  0.737800  0.440800  1.0  -0.1412
  C  C163  1  0.219400  0.713600  0.462300  1.0  0.0384
  C  C164  1  0.194000  0.705300  0.514100  1.0  -0.0604
  C  C165  1  0.345000  0.817100  0.557700  1.0  -0.494
  C  C166  1  0.384000  0.696500  0.436500  1.0  -0.155
  C  C167  1  0.408600  0.706700  0.389800  1.0  -0.0319
  C  C168  1  0.303700  0.098700  0.180500  1.0  -0.4755
  C  C169  1  0.017100  0.056900  0.127500  1.0  -0.0264
  C  C170  1  0.109900  0.065200  0.080600  1.0  0.0777
  C  C171  1  0.107800  0.127300  0.072700  1.0  -0.1607
  C  C172  1  0.186100  0.135100  0.028800  1.0  -0.0549
  C  C173  1  0.266500  0.080700  0.993200  1.0  -0.1417
  C  C174  1  0.266800  0.019000  0.001600  1.0  -0.0309
  C  C175  1  0.189600  0.011300  0.045200  1.0  -0.1096
  C  C176  1  0.348100  0.088800  0.944900  1.0  0.6772
  C  C177  1  0.428200  0.338400  0.862400  1.0  -0.5049
  C  C178  1  0.421400  0.459400  0.867800  1.0  -0.0459
  C  C179  1  0.420600  0.508500  0.837400  1.0  -0.0017
  C  C180  1  0.253800  0.523100  0.817900  1.0  -0.1429
  C  C181  1  0.252900  0.561000  0.785000  1.0  -0.0308
  C  C182  1  0.421200  0.584800  0.771300  1.0  -0.144
  C  C183  1  0.586900  0.574200  0.794500  1.0  -0.0363
  C  C184  1  0.586100  0.535300  0.826500  1.0  -0.1468
  C  C185  1  0.423800  0.621500  0.733100  1.0  0.6627
  C  C186  1  0.781900  0.256200  0.180800  1.0  0.6763
  C  C187  1  0.762400  0.267700  0.130600  1.0  -0.1577
  C  C188  1  0.593200  0.253000  0.106200  1.0  -0.0007
  C  C189  1  0.572700  0.262200  0.059200  1.0  -0.1401
  C  C190  1  0.719400  0.286400  0.037700  1.0  0.0369
  C  C191  1  0.694000  0.294700  0.985900  1.0  -0.0601
  C  C192  1  0.845000  0.182900  0.942300  1.0  -0.5043
  C  C193  1  0.884000  0.303500  0.063500  1.0  -0.1548
  C  C194  1  0.908600  0.293300  0.110200  1.0  -0.0314
  C  C195  1  0.196300  0.098700  0.680500  1.0  -0.4753
  C  C196  1  0.482900  0.056900  0.627500  1.0  -0.0271
  C  C197  1  0.390100  0.065200  0.580600  1.0  0.0773
  C  C198  1  0.392200  0.127300  0.572700  1.0  -0.1606
  C  C199  1  0.313900  0.135100  0.528800  1.0  -0.055
  C  C200  1  0.233500  0.080700  0.493200  1.0  -0.1423
  C  C201  1  0.233200  0.019000  0.501600  1.0  -0.0295
  C  C202  1  0.310400  0.011300  0.545200  1.0  -0.1097
  C  C203  1  0.151900  0.088800  0.444900  1.0  0.6771
  C  C204  1  0.071800  0.338400  0.362400  1.0  -0.5029
  C  C205  1  0.078600  0.459400  0.367800  1.0  -0.0457
  C  C206  1  0.079400  0.508500  0.337400  1.0  -0.0013
  C  C207  1  0.246200  0.523100  0.317900  1.0  -0.1443
  C  C208  1  0.247100  0.561000  0.285000  1.0  -0.0318
  C  C209  1  0.078800  0.584800  0.271300  1.0  -0.1444
  C  C210  1  0.913100  0.574200  0.294500  1.0  -0.0353
  C  C211  1  0.913900  0.535300  0.326500  1.0  -0.1463
  C  C212  1  0.076200  0.621500  0.233100  1.0  0.6625
  C  C213  1  0.718100  0.256200  0.680800  1.0  0.6765
  C  C214  1  0.737600  0.267700  0.630600  1.0  -0.1577
  C  C215  1  0.906800  0.253000  0.606200  1.0  -0.0015
  C  C216  1  0.927300  0.262200  0.559200  1.0  -0.142
  C  C217  1  0.780600  0.286400  0.537700  1.0  0.0365
  C  C218  1  0.806000  0.294700  0.485900  1.0  -0.06
  C  C219  1  0.655000  0.182900  0.442300  1.0  -0.5016
  C  C220  1  0.616000  0.303500  0.563500  1.0  -0.1556
  C  C221  1  0.591400  0.293300  0.610200  1.0  -0.0301
  C  C222  1  0.696300  0.901300  0.819500  1.0  -0.4757
  C  C223  1  0.982900  0.943100  0.872500  1.0  -0.027
  C  C224  1  0.890100  0.934800  0.919400  1.0  0.0774
  C  C225  1  0.892200  0.872700  0.927300  1.0  -0.1585
  C  C226  1  0.813900  0.864900  0.971200  1.0  -0.0556
  C  C227  1  0.733500  0.919300  0.006800  1.0  -0.1421
  C  C228  1  0.733200  0.981000  0.998400  1.0  -0.0286
  C  C229  1  0.810400  0.988700  0.954800  1.0  -0.1092
  C  C230  1  0.651900  0.911200  0.055100  1.0  0.6767
  C  C231  1  0.571800  0.661600  0.137600  1.0  -0.5076
  C  C232  1  0.578600  0.540600  0.132200  1.0  -0.0445
  C  C233  1  0.579400  0.491500  0.162600  1.0  -0.0061
  C  C234  1  0.746200  0.476900  0.182100  1.0  -0.1444
  C  C235  1  0.747100  0.439000  0.215000  1.0  -0.0319
  C  C236  1  0.578800  0.415200  0.228700  1.0  -0.1443
  C  C237  1  0.413100  0.425800  0.205500  1.0  -0.0351
  C  C238  1  0.413900  0.464700  0.173500  1.0  -0.1473
  C  C239  1  0.576200  0.378500  0.266900  1.0  0.6633
  C  C240  1  0.218100  0.743800  0.819200  1.0  0.6763
  C  C241  1  0.237600  0.732300  0.869400  1.0  -0.158
  C  C242  1  0.406800  0.747000  0.893800  1.0  -0.0022
  C  C243  1  0.427300  0.737800  0.940800  1.0  -0.1431
  C  C244  1  0.280600  0.713600  0.962300  1.0  0.0379
  C  C245  1  0.306000  0.705300  0.014100  1.0  -0.0605
  C  C246  1  0.155000  0.817100  0.057700  1.0  -0.4986
  C  C247  1  0.116000  0.696500  0.936500  1.0  -0.1551
  C  C248  1  0.091400  0.706700  0.889800  1.0  -0.0302
  N  N249  1  0.653500  0.953700  0.335050  1.0  -0.2317
  N  N250  1  0.921900  0.612100  0.666200  1.0  -0.0479
  N  N251  1  0.180000  0.771700  0.553830  1.0  -0.0285
  N  N252  1  0.153500  0.046300  0.164950  1.0  -0.232
  N  N253  1  0.421900  0.387900  0.833800  1.0  -0.0488
  N  N254  1  0.680000  0.228300  0.946170  1.0  -0.0285
  N  N255  1  0.346500  0.046300  0.664950  1.0  -0.232
  N  N256  1  0.078100  0.387900  0.333800  1.0  -0.0494
  N  N257  1  0.820000  0.228300  0.446170  1.0  -0.0278
  N  N258  1  0.846500  0.953700  0.835050  1.0  -0.2319
  N  N259  1  0.578100  0.612100  0.166200  1.0  -0.0483
  N  N260  1  0.320000  0.771700  0.053830  1.0  -0.0274
  O  O261  1  0.876200  0.963200  0.591260  1.0  -0.6375
  O  O262  1  0.873800  0.852500  0.557280  1.0  -0.7272
  O  O263  1  0.067900  0.979700  0.298630  1.0  -0.9821
  O  O264  1  0.081800  0.857200  0.255010  1.0  -0.955
  O  O265  1  0.826000  0.929600  0.232700  1.0  -1.0265
  O  O266  1  0.934900  0.789800  0.641710  1.0  -0.9626
  O  O267  1  0.737200  0.758000  0.706150  1.0  -0.96
  O  O268  1  0.085100  0.756900  0.713470  1.0  -0.9502
  O  O269  1  0.771200  0.366200  0.785490  1.0  -0.7776
  O  O270  1  0.077200  0.357400  0.778700  1.0  -0.7262
  O  O271  1  0.453200  0.743800  0.303100  1.0  -0.506
  O  O272  1  0.141900  0.752800  0.296330  1.0  -0.583
  O  O273  1  0.561200  0.900700  0.628300  1.0  -0.9402
  O  O274  1  0.212700  0.909000  0.640290  1.0  -0.974
  O  O275  1  0.384300  0.805700  0.647550  1.0  -1.0892
  O  O276  1  0.376200  0.036800  0.908740  1.0  -0.6367
  O  O277  1  0.373800  0.147500  0.942720  1.0  -0.725
  O  O278  1  0.567900  0.020300  0.201370  1.0  -0.9806
  O  O279  1  0.581800  0.142800  0.244990  1.0  -0.955
  O  O280  1  0.326000  0.070400  0.267300  1.0  -1.0291
  O  O281  1  0.434900  0.210200  0.858290  1.0  -0.9611
  O  O282  1  0.237200  0.242000  0.793850  1.0  -0.9578
  O  O283  1  0.585100  0.243100  0.786530  1.0  -0.9503
  O  O284  1  0.271200  0.633800  0.714510  1.0  -0.7779
  O  O285  1  0.577200  0.642600  0.721300  1.0  -0.728
  O  O286  1  0.953200  0.256200  0.196900  1.0  -0.5062
  O  O287  1  0.641900  0.247200  0.203670  1.0  -0.5824
  O  O288  1  0.061200  0.099300  0.871700  1.0  -0.9384
  O  O289  1  0.712700  0.091000  0.859710  1.0  -0.9743
  O  O290  1  0.884300  0.194300  0.852450  1.0  -1.0855
  O  O291  1  0.123800  0.036800  0.408740  1.0  -0.6367
  O  O292  1  0.126200  0.147500  0.442720  1.0  -0.7247
  O  O293  1  0.932100  0.020300  0.701370  1.0  -0.9799
  O  O294  1  0.918200  0.142800  0.744990  1.0  -0.9544
  O  O295  1  0.174000  0.070400  0.767300  1.0  -1.0296
  O  O296  1  0.065100  0.210200  0.358290  1.0  -0.9616
  O  O297  1  0.262800  0.242000  0.293850  1.0  -0.9578
  O  O298  1  0.914900  0.243100  0.286530  1.0  -0.9504
  O  O299  1  0.228800  0.633800  0.214510  1.0  -0.7781
  O  O300  1  0.922800  0.642600  0.221300  1.0  -0.7278
  O  O301  1  0.546800  0.256200  0.696900  1.0  -0.5062
  O  O302  1  0.858100  0.247200  0.703670  1.0  -0.5835
  O  O303  1  0.438800  0.099300  0.371700  1.0  -0.9377
  O  O304  1  0.787300  0.091000  0.359710  1.0  -0.9753
  O  O305  1  0.615700  0.194300  0.352450  1.0  -1.0844
  O  O306  1  0.623800  0.963200  0.091260  1.0  -0.6374
  O  O307  1  0.626200  0.852500  0.057280  1.0  -0.7272
  O  O308  1  0.432100  0.979700  0.798630  1.0  -0.9822
  O  O309  1  0.418200  0.857200  0.755010  1.0  -0.9544
  O  O310  1  0.674000  0.929600  0.732700  1.0  -1.0271
  O  O311  1  0.565100  0.789800  0.141710  1.0  -0.9627
  O  O312  1  0.762800  0.758000  0.206150  1.0  -0.9606
  O  O313  1  0.414900  0.756900  0.213470  1.0  -0.9505
  O  O314  1  0.728800  0.366200  0.285490  1.0  -0.7774
  O  O315  1  0.422800  0.357400  0.278700  1.0  -0.7259
  O  O316  1  0.046800  0.743800  0.803100  1.0  -0.5063
  O  O317  1  0.358100  0.752800  0.796330  1.0  -0.5839
  O  O318  1  0.938800  0.900700  0.128300  1.0  -0.9393
  O  O319  1  0.287300  0.909000  0.140290  1.0  -0.9745
  O  O320  1  0.115700  0.805700  0.147550  1.0  -1.0892
