# generated using pymatgen
data_Sm2P3H30C27(NO5)3
_symmetry_space_group_name_H-M   'P 1'
_cell_length_a   7.09000000
_cell_length_b   20.91000000
_cell_length_c   27.82300000
_cell_angle_alpha   107.61100000
_cell_angle_beta   90.00000000
_cell_angle_gamma   90.00000000
_symmetry_Int_Tables_number   1
_chemical_formula_structural   Sm2P3H30C27(NO5)3
_chemical_formula_sum   'Sm8 P12 H120 C108 N12 O60'
_cell_volume   3931.49336843
_cell_formula_units_Z   4
loop_
 _symmetry_equiv_pos_site_id
 _symmetry_equiv_pos_as_xyz
  1  'x, y, z'
loop_
 _atom_site_type_symbol
 _atom_site_label
 _atom_site_symmetry_multiplicity
 _atom_site_fract_x
 _atom_site_fract_y
 _atom_site_fract_z
 _atom_site_occupancy
 _atom_site_charge
  Sm  Sm1  1  0.872770  0.910350  0.661490  1.0  2.3977
  Sm  Sm2  1  0.086650  0.746950  0.206750  1.0  2.3121
  Sm  Sm3  1  0.372770  0.089650  0.838510  1.0  2.401
  Sm  Sm4  1  0.586650  0.253050  0.293250  1.0  2.3053
  Sm  Sm5  1  0.127230  0.089650  0.338510  1.0  2.3998
  Sm  Sm6  1  0.913350  0.253050  0.793250  1.0  2.313
  Sm  Sm7  1  0.627230  0.910350  0.161490  1.0  2.3976
  Sm  Sm8  1  0.413350  0.746950  0.706750  1.0  2.3064
  P  P9  1  0.959370  0.917790  0.272720  1.0  1.7293
  P  P10  1  0.913640  0.750470  0.679510  1.0  1.5622
  P  P11  1  0.377530  0.863320  0.626310  1.0  1.6852
  P  P12  1  0.459370  0.082210  0.227280  1.0  1.7291
  P  P13  1  0.413640  0.249530  0.820490  1.0  1.5626
  P  P14  1  0.877530  0.136680  0.873690  1.0  1.6876
  P  P15  1  0.040630  0.082210  0.727280  1.0  1.7285
  P  P16  1  0.086360  0.249530  0.320490  1.0  1.5638
  P  P17  1  0.622470  0.136680  0.373690  1.0  1.6847
  P  P18  1  0.540630  0.917790  0.772720  1.0  1.7293
  P  P19  1  0.586360  0.750470  0.179510  1.0  1.5632
  P  P20  1  0.122470  0.863320  0.126310  1.0  1.6814
  H  H21  1  0.650100  0.987500  0.323300  1.0  0.2893
  H  H22  1  0.812000  0.620700  0.686200  1.0  0.282
  H  H23  1  0.017000  0.619600  0.688100  1.0  0.2867
  H  H24  1  0.160500  0.765200  0.585500  1.0  0.2551
  H  H25  1  0.073900  0.793900  0.549600  1.0  0.2674
  H  H26  1  0.883400  0.903100  0.350200  1.0  0.1422
  H  H27  1  0.752000  0.857900  0.308000  1.0  0.1376
  H  H28  1  0.432000  0.980600  0.382600  1.0  0.1128
  H  H29  1  0.445000  0.903000  0.356700  1.0  0.0935
  H  H30  1  0.551500  0.837000  0.405000  1.0  0.0825
  H  H31  1  0.683900  0.823900  0.477900  1.0  0.0798
  H  H32  1  0.818200  0.018200  0.523200  1.0  0.0929
  H  H33  1  0.698700  0.030300  0.449400  1.0  0.1034
  H  H34  1  0.822300  0.656000  0.614900  1.0  0.1454
  H  H35  1  0.042700  0.657900  0.619700  1.0  0.1386
  H  H36  1  0.029300  0.535000  0.611300  1.0  0.0809
  H  H37  1  0.807700  0.535500  0.610500  1.0  0.0862
  H  H38  1  0.633600  0.493300  0.673600  1.0  0.11
  H  H39  1  0.636200  0.428500  0.727400  1.0  0.0922
  H  H40  1  0.193100  0.407700  0.711700  1.0  0.0971
  H  H41  1  0.191800  0.473100  0.658200  1.0  0.1047
  H  H42  1  0.991400  0.765800  0.381800  1.0  0.1106
  H  H43  1  0.953700  0.748500  0.459600  1.0  0.1051
  H  H44  1  0.293900  0.680800  0.523200  1.0  0.0748
  H  H45  1  0.074300  0.680900  0.516200  1.0  0.0844
  H  H46  1  0.453700  0.791200  0.546000  1.0  0.1492
  H  H47  1  0.319600  0.848600  0.540500  1.0  0.1736
  H  H48  1  0.480000  0.680400  0.452900  1.0  0.099
  H  H49  1  0.519800  0.696600  0.374700  1.0  0.1036
  H  H50  1  0.454400  0.749900  0.276900  1.0  0.4313
  H  H51  1  0.150100  0.012500  0.176700  1.0  0.2887
  H  H52  1  0.312000  0.379300  0.813800  1.0  0.2819
  H  H53  1  0.517000  0.380400  0.811900  1.0  0.2875
  H  H54  1  0.660500  0.234800  0.914500  1.0  0.2552
  H  H55  1  0.573900  0.206100  0.950400  1.0  0.2644
  H  H56  1  0.383400  0.096900  0.149800  1.0  0.1422
  H  H57  1  0.252000  0.142100  0.192000  1.0  0.1372
  H  H58  1  0.932000  0.019400  0.117400  1.0  0.1117
  H  H59  1  0.945000  0.097000  0.143300  1.0  0.0952
  H  H60  1  0.051500  0.163000  0.095000  1.0  0.0824
  H  H61  1  0.183900  0.176100  0.022100  1.0  0.0799
  H  H62  1  0.318200  0.981800  0.976800  1.0  0.0923
  H  H63  1  0.198700  0.969700  0.050600  1.0  0.1035
  H  H64  1  0.322300  0.344000  0.885100  1.0  0.1464
  H  H65  1  0.542700  0.342100  0.880300  1.0  0.1369
  H  H66  1  0.529300  0.465000  0.888700  1.0  0.0814
  H  H67  1  0.307700  0.464500  0.889500  1.0  0.0865
  H  H68  1  0.133600  0.506700  0.826400  1.0  0.1098
  H  H69  1  0.136200  0.571500  0.772600  1.0  0.0925
  H  H70  1  0.693100  0.592300  0.788300  1.0  0.0974
  H  H71  1  0.691800  0.526900  0.841800  1.0  0.1049
  H  H72  1  0.491400  0.234200  0.118200  1.0  0.1103
  H  H73  1  0.453700  0.251500  0.040400  1.0  0.1053
  H  H74  1  0.793900  0.319200  0.976800  1.0  0.0752
  H  H75  1  0.574300  0.319100  0.983800  1.0  0.0836
  H  H76  1  0.953700  0.208800  0.954000  1.0  0.1483
  H  H77  1  0.819600  0.151400  0.959500  1.0  0.1731
  H  H78  1  0.980000  0.319600  0.047100  1.0  0.0992
  H  H79  1  0.019800  0.303400  0.125300  1.0  0.1038
  H  H80  1  0.954400  0.250100  0.223100  1.0  0.4319
  H  H81  1  0.349900  0.012500  0.676700  1.0  0.2887
  H  H82  1  0.188000  0.379300  0.313800  1.0  0.2817
  H  H83  1  0.983000  0.380400  0.311900  1.0  0.2862
  H  H84  1  0.839500  0.234800  0.414500  1.0  0.2549
  H  H85  1  0.926100  0.206100  0.450400  1.0  0.2712
  H  H86  1  0.116600  0.096900  0.649800  1.0  0.1429
  H  H87  1  0.248000  0.142100  0.692000  1.0  0.1371
  H  H88  1  0.568000  0.019400  0.617400  1.0  0.112
  H  H89  1  0.555000  0.097000  0.643300  1.0  0.0925
  H  H90  1  0.448500  0.163000  0.595000  1.0  0.0824
  H  H91  1  0.316100  0.176100  0.522100  1.0  0.0794
  H  H92  1  0.181800  0.981800  0.476800  1.0  0.0921
  H  H93  1  0.301300  0.969700  0.550600  1.0  0.1036
  H  H94  1  0.177700  0.344000  0.385100  1.0  0.1464
  H  H95  1  0.957300  0.342100  0.380300  1.0  0.1366
  H  H96  1  0.970700  0.465000  0.388700  1.0  0.0829
  H  H97  1  0.192300  0.464500  0.389500  1.0  0.0849
  H  H98  1  0.366400  0.506700  0.326400  1.0  0.1094
  H  H99  1  0.363800  0.571500  0.272600  1.0  0.0923
  H  H100  1  0.806900  0.592300  0.288300  1.0  0.0973
  H  H101  1  0.808200  0.526900  0.341800  1.0  0.1062
  H  H102  1  0.008600  0.234200  0.618200  1.0  0.1106
  H  H103  1  0.046300  0.251500  0.540400  1.0  0.1057
  H  H104  1  0.706100  0.319200  0.476800  1.0  0.0753
  H  H105  1  0.925700  0.319100  0.483800  1.0  0.0831
  H  H106  1  0.546300  0.208800  0.454000  1.0  0.1483
  H  H107  1  0.680400  0.151400  0.459500  1.0  0.1741
  H  H108  1  0.520000  0.319600  0.547100  1.0  0.0988
  H  H109  1  0.480200  0.303400  0.625300  1.0  0.103
  H  H110  1  0.545600  0.250100  0.723100  1.0  0.4313
  H  H111  1  0.849900  0.987500  0.823300  1.0  0.2892
  H  H112  1  0.688000  0.620700  0.186200  1.0  0.2819
  H  H113  1  0.483000  0.619600  0.188100  1.0  0.2854
  H  H114  1  0.339500  0.765200  0.085500  1.0  0.2551
  H  H115  1  0.426100  0.793900  0.049600  1.0  0.2722
  H  H116  1  0.616600  0.903100  0.850200  1.0  0.1422
  H  H117  1  0.748000  0.857900  0.808000  1.0  0.1377
  H  H118  1  0.068000  0.980600  0.882600  1.0  0.1116
  H  H119  1  0.055000  0.903000  0.856700  1.0  0.0925
  H  H120  1  0.948500  0.837000  0.905000  1.0  0.0826
  H  H121  1  0.816100  0.823900  0.977900  1.0  0.0794
  H  H122  1  0.681800  0.018200  0.023200  1.0  0.0927
  H  H123  1  0.801300  0.030300  0.949400  1.0  0.1035
  H  H124  1  0.677700  0.656000  0.114900  1.0  0.1463
  H  H125  1  0.457300  0.657900  0.119700  1.0  0.1364
  H  H126  1  0.470700  0.535000  0.111300  1.0  0.0814
  H  H127  1  0.692300  0.535500  0.110500  1.0  0.086
  H  H128  1  0.866400  0.493300  0.173600  1.0  0.1102
  H  H129  1  0.863800  0.428500  0.227400  1.0  0.0924
  H  H130  1  0.306900  0.407700  0.211700  1.0  0.0972
  H  H131  1  0.308200  0.473100  0.158200  1.0  0.1048
  H  H132  1  0.508600  0.765800  0.881800  1.0  0.1105
  H  H133  1  0.546300  0.748500  0.959600  1.0  0.1058
  H  H134  1  0.206100  0.680800  0.023200  1.0  0.0762
  H  H135  1  0.425700  0.680900  0.016200  1.0  0.0835
  H  H136  1  0.046300  0.791200  0.046000  1.0  0.1476
  H  H137  1  0.180400  0.848600  0.040500  1.0  0.1741
  H  H138  1  0.020000  0.680400  0.952900  1.0  0.0995
  H  H139  1  0.980200  0.696600  0.874700  1.0  0.1032
  H  H140  1  0.045600  0.749900  0.776900  1.0  0.4306
  C  C141  1  0.808600  0.902100  0.320800  1.0  -0.4775
  C  C142  1  0.518300  0.942900  0.372790  1.0  -0.0274
  C  C143  1  0.610000  0.934700  0.419460  1.0  0.0791
  C  C144  1  0.606900  0.873600  0.428400  1.0  -0.1664
  C  C145  1  0.686200  0.865700  0.472500  1.0  -0.0538
  C  C146  1  0.766900  0.919400  0.507810  1.0  -0.1446
  C  C147  1  0.767200  0.981200  0.499100  1.0  -0.0347
  C  C148  1  0.693000  0.988800  0.455100  1.0  -0.1126
  C  C149  1  0.844800  0.912200  0.556600  1.0  0.6825
  C  C150  1  0.926000  0.664100  0.638700  1.0  -0.4857
  C  C151  1  0.917300  0.542600  0.632400  1.0  -0.0485
  C  C152  1  0.913900  0.493600  0.663100  1.0  -0.0004
  C  C153  1  0.747500  0.477800  0.682300  1.0  -0.152
  C  C154  1  0.749500  0.438800  0.714600  1.0  -0.0288
  C  C155  1  0.915400  0.415000  0.728200  1.0  -0.1402
  C  C156  1  0.080600  0.426500  0.705300  1.0  -0.035
  C  C157  1  0.080000  0.465600  0.673200  1.0  -0.1486
  C  C158  1  0.918100  0.377000  0.765900  1.0  0.6574
  C  C159  1  0.278100  0.745100  0.320600  1.0  0.6802
  C  C160  1  0.259500  0.733500  0.371000  1.0  -0.1634
  C  C161  1  0.090600  0.748800  0.396100  1.0  0.0064
  C  C162  1  0.068400  0.738700  0.442800  1.0  -0.1494
  C  C163  1  0.215500  0.714300  0.464300  1.0  0.0356
  C  C164  1  0.188900  0.706100  0.515900  1.0  -0.0593
  C  C165  1  0.342300  0.817400  0.559510  1.0  -0.4905
  C  C166  1  0.381800  0.698100  0.438700  1.0  -0.1516
  C  C167  1  0.406000  0.707600  0.391800  1.0  -0.0285
  C  C168  1  0.308600  0.097900  0.179200  1.0  -0.477
  C  C169  1  0.018300  0.057100  0.127210  1.0  -0.0264
  C  C170  1  0.110000  0.065300  0.080540  1.0  0.0794
  C  C171  1  0.106900  0.126400  0.071600  1.0  -0.1683
  C  C172  1  0.186200  0.134300  0.027500  1.0  -0.0528
  C  C173  1  0.266900  0.080600  0.992190  1.0  -0.1439
  C  C174  1  0.267200  0.018800  0.000900  1.0  -0.0345
  C  C175  1  0.193000  0.011200  0.044900  1.0  -0.1133
  C  C176  1  0.344800  0.087800  0.943400  1.0  0.6825
  C  C177  1  0.426000  0.335900  0.861300  1.0  -0.4789
  C  C178  1  0.417300  0.457400  0.867600  1.0  -0.0507
  C  C179  1  0.413900  0.506400  0.836900  1.0  0.0038
  C  C180  1  0.247500  0.522200  0.817700  1.0  -0.1525
  C  C181  1  0.249500  0.561200  0.785400  1.0  -0.0302
  C  C182  1  0.415400  0.585000  0.771800  1.0  -0.1406
  C  C183  1  0.580600  0.573500  0.794700  1.0  -0.0347
  C  C184  1  0.580000  0.534400  0.826800  1.0  -0.1447
  C  C185  1  0.418100  0.623000  0.734100  1.0  0.6582
  C  C186  1  0.778100  0.254900  0.179400  1.0  0.6809
  C  C187  1  0.759500  0.266500  0.129000  1.0  -0.1627
  C  C188  1  0.590600  0.251200  0.103900  1.0  0.0066
  C  C189  1  0.568400  0.261300  0.057200  1.0  -0.148
  C  C190  1  0.715500  0.285700  0.035700  1.0  0.0342
  C  C191  1  0.688900  0.293900  0.984100  1.0  -0.0588
  C  C192  1  0.842300  0.182600  0.940490  1.0  -0.5026
  C  C193  1  0.881800  0.301900  0.061300  1.0  -0.1507
  C  C194  1  0.906000  0.292400  0.108200  1.0  -0.0274
  C  C195  1  0.191400  0.097900  0.679200  1.0  -0.4765
  C  C196  1  0.481700  0.057100  0.627210  1.0  -0.0261
  C  C197  1  0.390000  0.065300  0.580540  1.0  0.0789
  C  C198  1  0.393100  0.126400  0.571600  1.0  -0.169
  C  C199  1  0.313800  0.134300  0.527500  1.0  -0.054
  C  C200  1  0.233100  0.080600  0.492190  1.0  -0.144
  C  C201  1  0.232800  0.018800  0.500900  1.0  -0.0336
  C  C202  1  0.307000  0.011200  0.544900  1.0  -0.1135
  C  C203  1  0.155200  0.087800  0.443400  1.0  0.6826
  C  C204  1  0.074000  0.335900  0.361300  1.0  -0.476
  C  C205  1  0.082700  0.457400  0.367600  1.0  -0.0502
  C  C206  1  0.086100  0.506400  0.336900  1.0  0.0038
  C  C207  1  0.252500  0.522200  0.317700  1.0  -0.1538
  C  C208  1  0.250500  0.561200  0.285400  1.0  -0.0318
  C  C209  1  0.084600  0.585000  0.271800  1.0  -0.1411
  C  C210  1  0.919400  0.573500  0.294700  1.0  -0.0328
  C  C211  1  0.920000  0.534400  0.326800  1.0  -0.1464
  C  C212  1  0.081900  0.623000  0.234100  1.0  0.6584
  C  C213  1  0.721900  0.254900  0.679400  1.0  0.6808
  C  C214  1  0.740500  0.266500  0.629000  1.0  -0.1624
  C  C215  1  0.909400  0.251200  0.603900  1.0  0.0066
  C  C216  1  0.931600  0.261300  0.557200  1.0  -0.1504
  C  C217  1  0.784500  0.285700  0.535700  1.0  0.0343
  C  C218  1  0.811100  0.293900  0.484100  1.0  -0.0586
  C  C219  1  0.657700  0.182600  0.440490  1.0  -0.5022
  C  C220  1  0.618200  0.301900  0.561300  1.0  -0.1518
  C  C221  1  0.594000  0.292400  0.608200  1.0  -0.0269
  C  C222  1  0.691400  0.902100  0.820800  1.0  -0.4774
  C  C223  1  0.981700  0.942900  0.872790  1.0  -0.0262
  C  C224  1  0.890000  0.934700  0.919460  1.0  0.0788
  C  C225  1  0.893100  0.873600  0.928400  1.0  -0.167
  C  C226  1  0.813800  0.865700  0.972500  1.0  -0.0553
  C  C227  1  0.733100  0.919400  0.007810  1.0  -0.1442
  C  C228  1  0.732800  0.981200  0.999100  1.0  -0.0332
  C  C229  1  0.807000  0.988800  0.955100  1.0  -0.1129
  C  C230  1  0.655200  0.912200  0.056600  1.0  0.6822
  C  C231  1  0.574000  0.664100  0.138700  1.0  -0.4848
  C  C232  1  0.582700  0.542600  0.132400  1.0  -0.0484
  C  C233  1  0.586100  0.493600  0.163100  1.0  -0.0002
  C  C234  1  0.752500  0.477800  0.182300  1.0  -0.1532
  C  C235  1  0.750500  0.438800  0.214600  1.0  -0.0307
  C  C236  1  0.584600  0.415000  0.228200  1.0  -0.1409
  C  C237  1  0.419400  0.426500  0.205300  1.0  -0.0326
  C  C238  1  0.420000  0.465600  0.173200  1.0  -0.1481
  C  C239  1  0.581900  0.377000  0.265900  1.0  0.6574
  C  C240  1  0.221900  0.745100  0.820600  1.0  0.68
  C  C241  1  0.240500  0.733500  0.871000  1.0  -0.1632
  C  C242  1  0.409400  0.748800  0.896100  1.0  0.0066
  C  C243  1  0.431600  0.738700  0.942800  1.0  -0.1518
  C  C244  1  0.284500  0.714300  0.964300  1.0  0.0354
  C  C245  1  0.311100  0.706100  0.015900  1.0  -0.0595
  C  C246  1  0.157700  0.817400  0.059510  1.0  -0.4983
  C  C247  1  0.118200  0.698100  0.938700  1.0  -0.152
  C  C248  1  0.094000  0.707600  0.891800  1.0  -0.0282
  N  N249  1  0.657100  0.954200  0.335310  1.0  -0.235
  N  N250  1  0.917300  0.613800  0.667230  1.0  -0.0513
  N  N251  1  0.177000  0.772400  0.555550  1.0  -0.0261
  N  N252  1  0.157100  0.045800  0.164690  1.0  -0.2358
  N  N253  1  0.417300  0.386200  0.832770  1.0  -0.0517
  N  N254  1  0.677000  0.227600  0.944450  1.0  -0.0265
  N  N255  1  0.342900  0.045800  0.664690  1.0  -0.2356
  N  N256  1  0.082700  0.386200  0.332770  1.0  -0.0524
  N  N257  1  0.823000  0.227600  0.444450  1.0  -0.0262
  N  N258  1  0.842900  0.954200  0.835310  1.0  -0.2352
  N  N259  1  0.582700  0.613800  0.167230  1.0  -0.0519
  N  N260  1  0.323000  0.772400  0.055550  1.0  -0.0255
  O  O261  1  0.874900  0.963200  0.592350  1.0  -0.6285
  O  O262  1  0.869700  0.853200  0.559410  1.0  -0.7432
  O  O263  1  0.072100  0.979820  0.298310  1.0  -0.9922
  O  O264  1  0.087300  0.857110  0.256120  1.0  -0.9599
  O  O265  1  0.829300  0.928600  0.233160  1.0  -1.0339
  O  O266  1  0.927200  0.793010  0.644530  1.0  -0.9672
  O  O267  1  0.731700  0.759000  0.708660  1.0  -0.9609
  O  O268  1  0.081200  0.758910  0.715160  1.0  -0.9474
  O  O269  1  0.766100  0.363100  0.783550  1.0  -0.7683
  O  O270  1  0.072900  0.355200  0.777020  1.0  -0.7317
  O  O271  1  0.453400  0.745400  0.305180  1.0  -0.5119
  O  O272  1  0.141100  0.752700  0.296970  1.0  -0.574
  O  O273  1  0.560600  0.901500  0.630050  1.0  -0.9372
  O  O274  1  0.207600  0.909310  0.641700  1.0  -0.9775
  O  O275  1  0.380900  0.806150  0.649130  1.0  -1.0953
  O  O276  1  0.374900  0.036800  0.907650  1.0  -0.6285
  O  O277  1  0.369700  0.146800  0.940590  1.0  -0.7407
  O  O278  1  0.572100  0.020180  0.201690  1.0  -0.9909
  O  O279  1  0.587300  0.142890  0.243880  1.0  -0.9602
  O  O280  1  0.329300  0.071400  0.266840  1.0  -1.0361
  O  O281  1  0.427200  0.206990  0.855470  1.0  -0.9668
  O  O282  1  0.231700  0.241000  0.791340  1.0  -0.9587
  O  O283  1  0.581200  0.241090  0.784840  1.0  -0.9468
  O  O284  1  0.266100  0.636900  0.716450  1.0  -0.7689
  O  O285  1  0.572900  0.644800  0.722980  1.0  -0.7336
  O  O286  1  0.953400  0.254600  0.194820  1.0  -0.5123
  O  O287  1  0.641100  0.247300  0.203030  1.0  -0.5739
  O  O288  1  0.060600  0.098500  0.869950  1.0  -0.9361
  O  O289  1  0.707600  0.090690  0.858300  1.0  -0.9778
  O  O290  1  0.880900  0.193850  0.850870  1.0  -1.0921
  O  O291  1  0.125100  0.036800  0.407650  1.0  -0.6281
  O  O292  1  0.130300  0.146800  0.440590  1.0  -0.7402
  O  O293  1  0.927900  0.020180  0.701690  1.0  -0.9909
  O  O294  1  0.912700  0.142890  0.743880  1.0  -0.959
  O  O295  1  0.170700  0.071400  0.766840  1.0  -1.0363
  O  O296  1  0.072800  0.206990  0.355470  1.0  -0.9674
  O  O297  1  0.268300  0.241000  0.291340  1.0  -0.9571
  O  O298  1  0.918800  0.241090  0.284840  1.0  -0.947
  O  O299  1  0.233900  0.636900  0.216450  1.0  -0.7705
  O  O300  1  0.927100  0.644800  0.222980  1.0  -0.7325
  O  O301  1  0.546600  0.254600  0.694820  1.0  -0.5124
  O  O302  1  0.858900  0.247300  0.703030  1.0  -0.5747
  O  O303  1  0.439400  0.098500  0.369950  1.0  -0.9353
  O  O304  1  0.792400  0.090690  0.358300  1.0  -0.9743
  O  O305  1  0.619100  0.193850  0.350870  1.0  -1.0918
  O  O306  1  0.625100  0.963200  0.092350  1.0  -0.6281
  O  O307  1  0.630300  0.853200  0.059410  1.0  -0.7428
  O  O308  1  0.427900  0.979820  0.798310  1.0  -0.9925
  O  O309  1  0.412700  0.857110  0.756120  1.0  -0.959
  O  O310  1  0.670700  0.928600  0.733160  1.0  -1.0343
  O  O311  1  0.572800  0.793010  0.144530  1.0  -0.9674
  O  O312  1  0.768300  0.759000  0.208660  1.0  -0.9597
  O  O313  1  0.418800  0.758910  0.215160  1.0  -0.9476
  O  O314  1  0.733900  0.363100  0.283550  1.0  -0.7701
  O  O315  1  0.427100  0.355200  0.277020  1.0  -0.7305
  O  O316  1  0.046600  0.745400  0.805180  1.0  -0.5122
  O  O317  1  0.358900  0.752700  0.796970  1.0  -0.5753
  O  O318  1  0.939400  0.901500  0.130050  1.0  -0.9363
  O  O319  1  0.292400  0.909310  0.141700  1.0  -0.9735
  O  O320  1  0.119100  0.806150  0.149130  1.0  -1.0956
