# generated using pymatgen
data_Eu2P3H30C27(NO5)3
_symmetry_space_group_name_H-M   'P 1'
_cell_length_a   7.07700000
_cell_length_b   20.94300000
_cell_length_c   27.80900000
_cell_angle_alpha   107.30900000
_cell_angle_beta   90.00000000
_cell_angle_gamma   90.00000000
_symmetry_Int_Tables_number   1
_chemical_formula_structural   Eu2P3H30C27(NO5)3
_chemical_formula_sum   'Eu8 P12 H120 C108 N12 O60'
_cell_volume   3935.01857017
_cell_formula_units_Z   4
loop_
 _symmetry_equiv_pos_site_id
 _symmetry_equiv_pos_as_xyz
  1  'x, y, z'
loop_
 _atom_site_type_symbol
 _atom_site_label
 _atom_site_symmetry_multiplicity
 _atom_site_fract_x
 _atom_site_fract_y
 _atom_site_fract_z
 _atom_site_occupancy
 _atom_site_charge
  Eu  Eu1  1  0.872830  0.910840  0.662230  1.0  2.2245
  Eu  Eu2  1  0.086720  0.748000  0.208150  1.0  2.1651
  Eu  Eu3  1  0.372830  0.089160  0.837770  1.0  2.2272
  Eu  Eu4  1  0.586720  0.252000  0.291850  1.0  2.1614
  Eu  Eu5  1  0.127170  0.089160  0.337770  1.0  2.2266
  Eu  Eu6  1  0.913280  0.252000  0.791850  1.0  2.1668
  Eu  Eu7  1  0.627170  0.910840  0.162240  1.0  2.2249
  Eu  Eu8  1  0.413280  0.748000  0.708150  1.0  2.1608
  P  P9  1  0.959470  0.918170  0.273120  1.0  1.6955
  P  P10  1  0.913520  0.751990  0.681090  1.0  1.5527
  P  P11  1  0.377600  0.863500  0.627210  1.0  1.6458
  P  P12  1  0.459470  0.081830  0.226880  1.0  1.6956
  P  P13  1  0.413520  0.248010  0.818910  1.0  1.5531
  P  P14  1  0.877600  0.136500  0.872790  1.0  1.6466
  P  P15  1  0.040530  0.081830  0.726880  1.0  1.6949
  P  P16  1  0.086480  0.248010  0.318910  1.0  1.5546
  P  P17  1  0.622400  0.136500  0.372790  1.0  1.6444
  P  P18  1  0.540530  0.918170  0.773120  1.0  1.6954
  P  P19  1  0.586480  0.751990  0.181090  1.0  1.5541
  P  P20  1  0.122400  0.863500  0.127210  1.0  1.6429
  H  H21  1  0.650600  0.987800  0.323500  1.0  0.2734
  H  H22  1  0.810000  0.622100  0.687300  1.0  0.2685
  H  H23  1  0.015300  0.620200  0.689300  1.0  0.274
  H  H24  1  0.073200  0.794500  0.551100  1.0  0.2232
  H  H25  1  0.161100  0.765600  0.586800  1.0  0.252
  H  H26  1  0.883600  0.903900  0.350600  1.0  0.145
  H  H27  1  0.751600  0.859000  0.308600  1.0  0.1367
  H  H28  1  0.432300  0.981800  0.383000  1.0  0.114
  H  H29  1  0.442500  0.904400  0.357200  1.0  0.1
  H  H30  1  0.549200  0.837500  0.405600  1.0  0.0871
  H  H31  1  0.679100  0.824200  0.478500  1.0  0.083
  H  H32  1  0.820000  0.017100  0.523600  1.0  0.0919
  H  H33  1  0.700500  0.030300  0.450000  1.0  0.0966
  H  H34  1  0.824000  0.657900  0.616300  1.0  0.1398
  H  H35  1  0.044400  0.659600  0.621800  1.0  0.1505
  H  H36  1  0.025100  0.537100  0.612300  1.0  0.0769
  H  H37  1  0.803200  0.538000  0.612100  1.0  0.0842
  H  H38  1  0.630800  0.492800  0.672600  1.0  0.0997
  H  H39  1  0.630200  0.428600  0.727800  1.0  0.0996
  H  H40  1  0.192600  0.408500  0.711800  1.0  0.094
  H  H41  1  0.190500  0.473200  0.657600  1.0  0.1088
  H  H42  1  0.990300  0.767200  0.382700  1.0  0.1066
  H  H43  1  0.950500  0.749300  0.460900  1.0  0.105
  H  H44  1  0.294000  0.681900  0.524500  1.0  0.0714
  H  H45  1  0.074000  0.682000  0.517700  1.0  0.0807
  H  H46  1  0.454600  0.792400  0.547200  1.0  0.1296
  H  H47  1  0.319500  0.849600  0.541700  1.0  0.1663
  H  H48  1  0.480100  0.681600  0.455000  1.0  0.1036
  H  H49  1  0.518700  0.695500  0.375600  1.0  0.1045
  H  H50  1  0.452300  0.750400  0.278000  1.0  0.4272
  H  H51  1  0.150600  0.012200  0.176500  1.0  0.2722
  H  H52  1  0.310000  0.377900  0.812700  1.0  0.2687
  H  H53  1  0.515300  0.379800  0.810700  1.0  0.2757
  H  H54  1  0.573200  0.205500  0.948900  1.0  0.2212
  H  H55  1  0.661100  0.234400  0.913200  1.0  0.2527
  H  H56  1  0.383600  0.096100  0.149400  1.0  0.145
  H  H57  1  0.251600  0.141000  0.191400  1.0  0.1368
  H  H58  1  0.932300  0.018200  0.117000  1.0  0.1134
  H  H59  1  0.942500  0.095600  0.142800  1.0  0.1015
  H  H60  1  0.049200  0.162500  0.094400  1.0  0.0874
  H  H61  1  0.179100  0.175800  0.021500  1.0  0.0833
  H  H62  1  0.320000  0.982900  0.976400  1.0  0.0916
  H  H63  1  0.200500  0.969700  0.050000  1.0  0.0963
  H  H64  1  0.324000  0.342100  0.883700  1.0  0.1419
  H  H65  1  0.544400  0.340400  0.878200  1.0  0.1498
  H  H66  1  0.525100  0.462900  0.887700  1.0  0.0782
  H  H67  1  0.303200  0.462000  0.887900  1.0  0.0837
  H  H68  1  0.130800  0.507200  0.827400  1.0  0.0997
  H  H69  1  0.130200  0.571400  0.772200  1.0  0.0997
  H  H70  1  0.692600  0.591500  0.788200  1.0  0.0943
  H  H71  1  0.690500  0.526800  0.842400  1.0  0.1088
  H  H72  1  0.490300  0.232800  0.117300  1.0  0.1064
  H  H73  1  0.450500  0.250700  0.039100  1.0  0.1051
  H  H74  1  0.794000  0.318100  0.975500  1.0  0.0717
  H  H75  1  0.574000  0.318000  0.982300  1.0  0.0799
  H  H76  1  0.954600  0.207600  0.952800  1.0  0.1293
  H  H77  1  0.819500  0.150400  0.958300  1.0  0.1653
  H  H78  1  0.980100  0.318400  0.045000  1.0  0.104
  H  H79  1  0.018700  0.304500  0.124400  1.0  0.1046
  H  H80  1  0.952300  0.249600  0.222000  1.0  0.4285
  H  H81  1  0.349400  0.012200  0.676500  1.0  0.2725
  H  H82  1  0.190000  0.377900  0.312700  1.0  0.2682
  H  H83  1  0.984700  0.379800  0.310700  1.0  0.2753
  H  H84  1  0.926800  0.205500  0.448900  1.0  0.224
  H  H85  1  0.838900  0.234400  0.413200  1.0  0.2523
  H  H86  1  0.116400  0.096100  0.649400  1.0  0.1456
  H  H87  1  0.248400  0.141000  0.691400  1.0  0.1368
  H  H88  1  0.567700  0.018200  0.617000  1.0  0.1139
  H  H89  1  0.557500  0.095600  0.642800  1.0  0.0993
  H  H90  1  0.450800  0.162500  0.594400  1.0  0.0873
  H  H91  1  0.320900  0.175800  0.521500  1.0  0.0829
  H  H92  1  0.180000  0.982900  0.476400  1.0  0.0913
  H  H93  1  0.299500  0.969700  0.550000  1.0  0.0963
  H  H94  1  0.176000  0.342100  0.383700  1.0  0.1426
  H  H95  1  0.955600  0.340400  0.378200  1.0  0.1493
  H  H96  1  0.974900  0.462900  0.387700  1.0  0.0794
  H  H97  1  0.196800  0.462000  0.387900  1.0  0.0829
  H  H98  1  0.369200  0.507200  0.327400  1.0  0.1003
  H  H99  1  0.369800  0.571400  0.272200  1.0  0.0999
  H  H100  1  0.807400  0.591500  0.288200  1.0  0.0943
  H  H101  1  0.809500  0.526800  0.342400  1.0  0.1091
  H  H102  1  0.009700  0.232800  0.617300  1.0  0.1068
  H  H103  1  0.049500  0.250700  0.539100  1.0  0.1054
  H  H104  1  0.706000  0.318100  0.475500  1.0  0.0715
  H  H105  1  0.926000  0.318000  0.482300  1.0  0.079
  H  H106  1  0.545400  0.207600  0.452800  1.0  0.1331
  H  H107  1  0.680500  0.150400  0.458300  1.0  0.165
  H  H108  1  0.519900  0.318400  0.545000  1.0  0.1041
  H  H109  1  0.481300  0.304500  0.624400  1.0  0.1041
  H  H110  1  0.547700  0.249600  0.722000  1.0  0.4276
  H  H111  1  0.849400  0.987800  0.823500  1.0  0.2736
  H  H112  1  0.690000  0.622100  0.187300  1.0  0.2683
  H  H113  1  0.484700  0.620200  0.189300  1.0  0.2739
  H  H114  1  0.426800  0.794500  0.051100  1.0  0.2237
  H  H115  1  0.338900  0.765600  0.086800  1.0  0.252
  H  H116  1  0.616400  0.903900  0.850600  1.0  0.1451
  H  H117  1  0.748400  0.859000  0.808600  1.0  0.1368
  H  H118  1  0.067700  0.981800  0.883000  1.0  0.1129
  H  H119  1  0.057500  0.904400  0.857200  1.0  0.0997
  H  H120  1  0.950800  0.837500  0.905600  1.0  0.0872
  H  H121  1  0.820900  0.824200  0.978500  1.0  0.0827
  H  H122  1  0.680000  0.017100  0.023600  1.0  0.0917
  H  H123  1  0.799500  0.030300  0.950000  1.0  0.0965
  H  H124  1  0.676000  0.657900  0.116300  1.0  0.141
  H  H125  1  0.455600  0.659600  0.121800  1.0  0.1481
  H  H126  1  0.474900  0.537100  0.112300  1.0  0.077
  H  H127  1  0.696800  0.538000  0.112100  1.0  0.0836
  H  H128  1  0.869200  0.492800  0.172600  1.0  0.1006
  H  H129  1  0.869800  0.428600  0.227800  1.0  0.1001
  H  H130  1  0.307400  0.408500  0.211800  1.0  0.094
  H  H131  1  0.309500  0.473200  0.157600  1.0  0.1084
  H  H132  1  0.509700  0.767200  0.882700  1.0  0.1065
  H  H133  1  0.549500  0.749300  0.960900  1.0  0.1056
  H  H134  1  0.206000  0.681900  0.024500  1.0  0.0727
  H  H135  1  0.426000  0.682000  0.017700  1.0  0.0788
  H  H136  1  0.045400  0.792400  0.047200  1.0  0.1322
  H  H137  1  0.180500  0.849600  0.041700  1.0  0.1658
  H  H138  1  0.019900  0.681600  0.955000  1.0  0.1045
  H  H139  1  0.981300  0.695500  0.875600  1.0  0.1043
  H  H140  1  0.047700  0.750400  0.778000  1.0  0.4263
  C  C141  1  0.808500  0.903000  0.321200  1.0  -0.4592
  C  C142  1  0.517400  0.943800  0.373210  1.0  -0.0373
  C  C143  1  0.608900  0.935000  0.419760  1.0  0.0688
  C  C144  1  0.604800  0.874000  0.429000  1.0  -0.1365
  C  C145  1  0.682800  0.865900  0.473100  1.0  -0.056
  C  C146  1  0.764700  0.918800  0.508200  1.0  -0.1026
  C  C147  1  0.767600  0.980600  0.499600  1.0  -0.0452
  C  C148  1  0.693700  0.988700  0.455700  1.0  -0.0922
  C  C149  1  0.843000  0.911100  0.556700  1.0  0.6811
  C  C150  1  0.926600  0.665700  0.640450  1.0  -0.5033
  C  C151  1  0.913800  0.544500  0.633600  1.0  -0.0309
  C  C152  1  0.911200  0.495100  0.663500  1.0  0.0729
  C  C153  1  0.744800  0.477900  0.682000  1.0  -0.1114
  C  C154  1  0.743600  0.438600  0.714700  1.0  -0.0399
  C  C155  1  0.913900  0.414400  0.727400  1.0  -0.1478
  C  C156  1  0.079500  0.426800  0.705100  1.0  -0.0387
  C  C157  1  0.078900  0.466100  0.673000  1.0  -0.1331
  C  C158  1  0.916400  0.376100  0.764900  1.0  0.6504
  C  C159  1  0.278400  0.745400  0.321900  1.0  0.6701
  C  C160  1  0.259800  0.733800  0.372100  1.0  -0.1513
  C  C161  1  0.088700  0.749800  0.397100  1.0  -0.0412
  C  C162  1  0.065500  0.739600  0.444100  1.0  -0.0954
  C  C163  1  0.214300  0.715100  0.465600  1.0  0.0687
  C  C164  1  0.188700  0.707200  0.517200  1.0  -0.0521
  C  C165  1  0.342700  0.818300  0.560720  1.0  -0.4763
  C  C166  1  0.381600  0.698700  0.440400  1.0  -0.133
  C  C167  1  0.405500  0.707400  0.392900  1.0  -0.0338
  C  C168  1  0.308500  0.097000  0.178800  1.0  -0.4589
  C  C169  1  0.017400  0.056200  0.126790  1.0  -0.0357
  C  C170  1  0.108900  0.065000  0.080240  1.0  0.0687
  C  C171  1  0.104800  0.126000  0.071000  1.0  -0.1366
  C  C172  1  0.182800  0.134100  0.026900  1.0  -0.0554
  C  C173  1  0.264700  0.081200  0.991800  1.0  -0.1022
  C  C174  1  0.267600  0.019400  0.000400  1.0  -0.0442
  C  C175  1  0.193700  0.011300  0.044300  1.0  -0.0926
  C  C176  1  0.343000  0.088900  0.943300  1.0  0.681
  C  C177  1  0.426600  0.334300  0.859550  1.0  -0.4989
  C  C178  1  0.413800  0.455500  0.866400  1.0  -0.0329
  C  C179  1  0.411200  0.504900  0.836500  1.0  0.0777
  C  C180  1  0.244800  0.522100  0.818000  1.0  -0.1107
  C  C181  1  0.243600  0.561400  0.785300  1.0  -0.0398
  C  C182  1  0.413900  0.585600  0.772600  1.0  -0.147
  C  C183  1  0.579500  0.573200  0.794900  1.0  -0.0382
  C  C184  1  0.578900  0.533900  0.827000  1.0  -0.1309
  C  C185  1  0.416400  0.623900  0.735100  1.0  0.6503
  C  C186  1  0.778400  0.254600  0.178100  1.0  0.6709
  C  C187  1  0.759800  0.266200  0.127900  1.0  -0.1513
  C  C188  1  0.588700  0.250200  0.102900  1.0  -0.0406
  C  C189  1  0.565500  0.260400  0.055900  1.0  -0.0943
  C  C190  1  0.714300  0.284900  0.034400  1.0  0.0665
  C  C191  1  0.688700  0.292800  0.982800  1.0  -0.0515
  C  C192  1  0.842700  0.181700  0.939280  1.0  -0.4869
  C  C193  1  0.881600  0.301300  0.059600  1.0  -0.1332
  C  C194  1  0.905500  0.292600  0.107100  1.0  -0.0331
  C  C195  1  0.191500  0.097000  0.678800  1.0  -0.4585
  C  C196  1  0.482600  0.056200  0.626790  1.0  -0.0355
  C  C197  1  0.391100  0.065000  0.580240  1.0  0.0686
  C  C198  1  0.395200  0.126000  0.571000  1.0  -0.1371
  C  C199  1  0.317200  0.134100  0.526900  1.0  -0.0565
  C  C200  1  0.235300  0.081200  0.491800  1.0  -0.1022
  C  C201  1  0.232400  0.019400  0.500400  1.0  -0.0424
  C  C202  1  0.306300  0.011300  0.544300  1.0  -0.0936
  C  C203  1  0.157000  0.088900  0.443300  1.0  0.6814
  C  C204  1  0.073400  0.334300  0.359550  1.0  -0.497
  C  C205  1  0.086200  0.455500  0.366400  1.0  -0.0321
  C  C206  1  0.088800  0.504900  0.336500  1.0  0.0772
  C  C207  1  0.255200  0.522100  0.318000  1.0  -0.1102
  C  C208  1  0.256400  0.561400  0.285300  1.0  -0.0414
  C  C209  1  0.086100  0.585600  0.272600  1.0  -0.1467
  C  C210  1  0.920500  0.573200  0.294900  1.0  -0.0365
  C  C211  1  0.921100  0.533900  0.327000  1.0  -0.1312
  C  C212  1  0.083600  0.623900  0.235100  1.0  0.6502
  C  C213  1  0.721600  0.254600  0.678100  1.0  0.6721
  C  C214  1  0.740200  0.266200  0.627900  1.0  -0.1511
  C  C215  1  0.911300  0.250200  0.602900  1.0  -0.0415
  C  C216  1  0.934500  0.260400  0.555900  1.0  -0.0959
  C  C217  1  0.785700  0.284900  0.534400  1.0  0.0672
  C  C218  1  0.811300  0.292800  0.482800  1.0  -0.0514
  C  C219  1  0.657300  0.181700  0.439280  1.0  -0.4854
  C  C220  1  0.618400  0.301300  0.559600  1.0  -0.1342
  C  C221  1  0.594500  0.292600  0.607100  1.0  -0.0327
  C  C222  1  0.691500  0.903000  0.821200  1.0  -0.4591
  C  C223  1  0.982600  0.943800  0.873210  1.0  -0.0367
  C  C224  1  0.891100  0.935000  0.919760  1.0  0.0687
  C  C225  1  0.895200  0.874000  0.929000  1.0  -0.1369
  C  C226  1  0.817200  0.865900  0.973100  1.0  -0.0571
  C  C227  1  0.735300  0.918800  0.008200  1.0  -0.1022
  C  C228  1  0.732400  0.980600  0.999600  1.0  -0.0424
  C  C229  1  0.806300  0.988700  0.955700  1.0  -0.0929
  C  C230  1  0.657000  0.911100  0.056700  1.0  0.6809
  C  C231  1  0.573400  0.665700  0.140450  1.0  -0.5027
  C  C232  1  0.586200  0.544500  0.133600  1.0  -0.0305
  C  C233  1  0.588800  0.495100  0.163500  1.0  0.0723
  C  C234  1  0.755200  0.477900  0.182000  1.0  -0.1105
  C  C235  1  0.756400  0.438600  0.214700  1.0  -0.0418
  C  C236  1  0.586100  0.414400  0.227400  1.0  -0.1475
  C  C237  1  0.420500  0.426800  0.205100  1.0  -0.0367
  C  C238  1  0.421100  0.466100  0.173000  1.0  -0.1309
  C  C239  1  0.583600  0.376100  0.264900  1.0  0.6501
  C  C240  1  0.221600  0.745400  0.821900  1.0  0.6703
  C  C241  1  0.240200  0.733800  0.872100  1.0  -0.1511
  C  C242  1  0.411300  0.749800  0.897100  1.0  -0.0418
  C  C243  1  0.434500  0.739600  0.944100  1.0  -0.097
  C  C244  1  0.285700  0.715100  0.965600  1.0  0.069
  C  C245  1  0.311300  0.707200  0.017200  1.0  -0.0523
  C  C246  1  0.157300  0.818300  0.060720  1.0  -0.4823
  C  C247  1  0.118400  0.698700  0.940400  1.0  -0.133
  C  C248  1  0.094500  0.707400  0.892900  1.0  -0.0332
  N  N249  1  0.657400  0.954600  0.335650  1.0  -0.2471
  N  N250  1  0.915600  0.615000  0.668430  1.0  -0.0524
  N  N251  1  0.176900  0.773100  0.556870  1.0  -0.0363
  N  N252  1  0.157400  0.045400  0.164350  1.0  -0.2465
  N  N253  1  0.415600  0.385000  0.831570  1.0  -0.053
  N  N254  1  0.676900  0.226900  0.943130  1.0  -0.0368
  N  N255  1  0.342600  0.045400  0.664350  1.0  -0.2465
  N  N256  1  0.084400  0.385000  0.331570  1.0  -0.0537
  N  N257  1  0.823100  0.226900  0.443130  1.0  -0.0359
  N  N258  1  0.842600  0.954600  0.835650  1.0  -0.2473
  N  N259  1  0.584400  0.615000  0.168430  1.0  -0.053
  N  N260  1  0.323100  0.773100  0.056870  1.0  -0.0353
  O  O261  1  0.874400  0.962200  0.592960  1.0  -0.638
  O  O262  1  0.867700  0.852400  0.559830  1.0  -0.6967
  O  O263  1  0.072800  0.980200  0.298430  1.0  -0.9824
  O  O264  1  0.087600  0.857230  0.256710  1.0  -0.9543
  O  O265  1  0.828500  0.929200  0.233480  1.0  -1.0234
  O  O266  1  0.927100  0.794740  0.645960  1.0  -0.9217
  O  O267  1  0.731800  0.760370  0.710300  1.0  -0.9295
  O  O268  1  0.081900  0.760380  0.716630  1.0  -0.9067
  O  O269  1  0.764400  0.361630  0.782620  1.0  -0.7424
  O  O270  1  0.071600  0.354400  0.776060  1.0  -0.6978
  O  O271  1  0.452400  0.745900  0.306280  1.0  -0.5155
  O  O272  1  0.139500  0.753300  0.297940  1.0  -0.5894
  O  O273  1  0.560200  0.901800  0.630880  1.0  -0.9287
  O  O274  1  0.207300  0.909470  0.642630  1.0  -0.9478
  O  O275  1  0.380900  0.806340  0.650220  1.0  -1.0725
  O  O276  1  0.374400  0.037800  0.907040  1.0  -0.6378
  O  O277  1  0.367700  0.147600  0.940170  1.0  -0.695
  O  O278  1  0.572800  0.019800  0.201570  1.0  -0.9812
  O  O279  1  0.587600  0.142770  0.243290  1.0  -0.9543
  O  O280  1  0.328500  0.070800  0.266520  1.0  -1.0252
  O  O281  1  0.427100  0.205260  0.854040  1.0  -0.9213
  O  O282  1  0.231800  0.239630  0.789700  1.0  -0.9289
  O  O283  1  0.581900  0.239620  0.783370  1.0  -0.9056
  O  O284  1  0.264400  0.638370  0.717380  1.0  -0.7436
  O  O285  1  0.571600  0.645600  0.723940  1.0  -0.6982
  O  O286  1  0.952400  0.254100  0.193720  1.0  -0.5162
  O  O287  1  0.639500  0.246700  0.202060  1.0  -0.5893
  O  O288  1  0.060200  0.098200  0.869120  1.0  -0.9275
  O  O289  1  0.707300  0.090530  0.857370  1.0  -0.9478
  O  O290  1  0.880900  0.193660  0.849780  1.0  -1.0699
  O  O291  1  0.125600  0.037800  0.407040  1.0  -0.6382
  O  O292  1  0.132300  0.147600  0.440170  1.0  -0.6946
  O  O293  1  0.927200  0.019800  0.701570  1.0  -0.9798
  O  O294  1  0.912400  0.142770  0.743290  1.0  -0.9531
  O  O295  1  0.171500  0.070800  0.766520  1.0  -1.0255
  O  O296  1  0.072900  0.205260  0.354040  1.0  -0.9219
  O  O297  1  0.268200  0.239630  0.289700  1.0  -0.928
  O  O298  1  0.918100  0.239620  0.283370  1.0  -0.9051
  O  O299  1  0.235600  0.638370  0.217380  1.0  -0.7431
  O  O300  1  0.928400  0.645600  0.223940  1.0  -0.6955
  O  O301  1  0.547600  0.254100  0.693720  1.0  -0.5157
  O  O302  1  0.860500  0.246700  0.702060  1.0  -0.5905
  O  O303  1  0.439800  0.098200  0.369120  1.0  -0.9272
  O  O304  1  0.792700  0.090530  0.357370  1.0  -0.9468
  O  O305  1  0.619100  0.193660  0.349780  1.0  -1.0695
  O  O306  1  0.625600  0.962200  0.092960  1.0  -0.6385
  O  O307  1  0.632300  0.852400  0.059830  1.0  -0.6966
  O  O308  1  0.427200  0.980200  0.798430  1.0  -0.9813
  O  O309  1  0.412400  0.857230  0.756710  1.0  -0.9535
  O  O310  1  0.671500  0.929200  0.733480  1.0  -1.024
  O  O311  1  0.572900  0.794740  0.145960  1.0  -0.9223
  O  O312  1  0.768200  0.760370  0.210300  1.0  -0.929
  O  O313  1  0.418100  0.760380  0.216630  1.0  -0.9065
  O  O314  1  0.735600  0.361630  0.282620  1.0  -0.7417
  O  O315  1  0.428400  0.354400  0.276060  1.0  -0.6953
  O  O316  1  0.047600  0.745900  0.806280  1.0  -0.5154
  O  O317  1  0.360500  0.753300  0.797940  1.0  -0.5907
  O  O318  1  0.939800  0.901800  0.130880  1.0  -0.9283
  O  O319  1  0.292700  0.909470  0.142630  1.0  -0.9466
  O  O320  1  0.119100  0.806340  0.150220  1.0  -1.0723
