# generated using pymatgen
data_CaH8(C2O)8
_symmetry_space_group_name_H-M   'P 1'
_cell_length_a   10.14300000
_cell_length_b   12.70900000
_cell_length_c   16.79500000
_cell_angle_alpha   90.00000000
_cell_angle_beta   107.03600000
_cell_angle_gamma   90.00000000
_symmetry_Int_Tables_number   1
_chemical_formula_structural   CaH8(C2O)8
_chemical_formula_sum   'Ca4 H32 C64 O32'
_cell_volume   2070.00125573
_cell_formula_units_Z   4
loop_
 _symmetry_equiv_pos_site_id
 _symmetry_equiv_pos_as_xyz
  1  'x, y, z'
loop_
 _atom_site_type_symbol
 _atom_site_label
 _atom_site_symmetry_multiplicity
 _atom_site_fract_x
 _atom_site_fract_y
 _atom_site_fract_z
 _atom_site_occupancy
 _atom_site_charge
  Ca  Ca1  1  0.931380  0.232010  0.712810  1.0  1.6088
  Ca  Ca2  1  0.068620  0.732010  0.787190  1.0  1.6085
  Ca  Ca3  1  0.068620  0.767990  0.287190  1.0  1.6069
  Ca  Ca4  1  0.931380  0.267990  0.212810  1.0  1.6069
  H  H5  1  0.269100  0.325200  0.781100  1.0  0.097
  H  H6  1  0.457800  0.415500  0.766600  1.0  0.1115
  H  H7  1  0.666400  0.327300  0.785600  1.0  0.101
  H  H8  1  0.498300  0.064000  0.843600  1.0  0.1086
  H  H9  1  0.803800  0.641500  0.858300  1.0  0.0947
  H  H10  1  0.745700  0.478200  0.899000  1.0  0.1066
  H  H11  1  0.805600  0.434500  0.038000  1.0  0.0893
  H  H12  1  0.980200  0.716700  0.097900  1.0  0.0937
  H  H13  1  0.730900  0.825200  0.718900  1.0  0.0967
  H  H14  1  0.542200  0.915500  0.733400  1.0  0.1111
  H  H15  1  0.333600  0.827300  0.714400  1.0  0.1014
  H  H16  1  0.501700  0.564000  0.656400  1.0  0.1086
  H  H17  1  0.196200  0.141500  0.641700  1.0  0.0938
  H  H18  1  0.254300  0.978200  0.601000  1.0  0.1064
  H  H19  1  0.194400  0.934500  0.462000  1.0  0.0911
  H  H20  1  0.019800  0.216700  0.402100  1.0  0.0941
  H  H21  1  0.730900  0.674800  0.218900  1.0  0.0966
  H  H22  1  0.542200  0.584500  0.233400  1.0  0.1108
  H  H23  1  0.333600  0.672700  0.214400  1.0  0.1011
  H  H24  1  0.501700  0.936000  0.156400  1.0  0.1086
  H  H25  1  0.196200  0.358500  0.141700  1.0  0.0941
  H  H26  1  0.254300  0.521800  0.101000  1.0  0.1062
  H  H27  1  0.194400  0.565500  0.962000  1.0  0.0921
  H  H28  1  0.019800  0.283300  0.902100  1.0  0.0938
  H  H29  1  0.269100  0.174800  0.281100  1.0  0.0968
  H  H30  1  0.457800  0.084500  0.266600  1.0  0.1113
  H  H31  1  0.666400  0.172700  0.285600  1.0  0.1009
  H  H32  1  0.498300  0.436000  0.343600  1.0  0.1086
  H  H33  1  0.803800  0.858500  0.358300  1.0  0.0946
  H  H34  1  0.745700  0.021800  0.399000  1.0  0.1069
  H  H35  1  0.805600  0.065500  0.538000  1.0  0.0904
  H  H36  1  0.980200  0.783300  0.597900  1.0  0.0941
  C  C37  1  0.246800  0.129100  0.834100  1.0  0.6858
  C  C38  1  0.734900  0.128900  0.827600  1.0  0.6665
  C  C39  1  0.366500  0.186700  0.817600  1.0  -0.1693
  C  C40  1  0.353700  0.291300  0.791600  1.0  -0.0063
  C  C41  1  0.465400  0.344800  0.781300  1.0  -0.1013
  C  C42  1  0.590900  0.291700  0.793100  1.0  -0.0228
  C  C43  1  0.603200  0.187700  0.815600  1.0  -0.1722
  C  C44  1  0.490300  0.134500  0.828200  1.0  0.0296
  C  C45  1  0.943200  0.800800  0.947400  1.0  0.6649
  C  C46  1  0.945100  0.539300  0.173000  1.0  0.7652
  C  C47  1  0.899700  0.694800  0.973200  1.0  -0.1461
  C  C48  1  0.828600  0.623900  0.914500  1.0  -0.014
  C  C49  1  0.793700  0.526100  0.938800  1.0  -0.1054
  C  C50  1  0.830000  0.500000  0.021900  1.0  0.0031
  C  C51  1  0.902400  0.570100  0.081800  1.0  -0.1975
  C  C52  1  0.934900  0.668100  0.057800  1.0  0.0188
  C  C53  1  0.753200  0.629100  0.665900  1.0  0.684
  C  C54  1  0.265100  0.628900  0.672400  1.0  0.6655
  C  C55  1  0.633500  0.686700  0.682400  1.0  -0.17
  C  C56  1  0.646300  0.791300  0.708400  1.0  -0.0056
  C  C57  1  0.534600  0.844800  0.718700  1.0  -0.1017
  C  C58  1  0.409100  0.791700  0.706900  1.0  -0.0237
  C  C59  1  0.396800  0.687700  0.684400  1.0  -0.1715
  C  C60  1  0.509700  0.634500  0.671800  1.0  0.0306
  C  C61  1  0.056800  0.300800  0.552600  1.0  0.6653
  C  C62  1  0.054900  0.039300  0.327000  1.0  0.7663
  C  C63  1  0.100300  0.194800  0.526800  1.0  -0.1467
  C  C64  1  0.171400  0.123900  0.585500  1.0  -0.0149
  C  C65  1  0.206300  0.026100  0.561200  1.0  -0.1057
  C  C66  1  0.170000  0.000000  0.478100  1.0  0.0007
  C  C67  1  0.097600  0.070100  0.418200  1.0  -0.1964
  C  C68  1  0.065100  0.168100  0.442200  1.0  0.0188
  C  C69  1  0.753200  0.870900  0.165900  1.0  0.6858
  C  C70  1  0.265100  0.871100  0.172400  1.0  0.665
  C  C71  1  0.633500  0.813300  0.182400  1.0  -0.1684
  C  C72  1  0.646300  0.708700  0.208400  1.0  -0.0059
  C  C73  1  0.534600  0.655200  0.218700  1.0  -0.1009
  C  C74  1  0.409100  0.708300  0.206900  1.0  -0.0237
  C  C75  1  0.396800  0.812300  0.184400  1.0  -0.1715
  C  C76  1  0.509700  0.865500  0.171800  1.0  0.0296
  C  C77  1  0.056800  0.199200  0.052600  1.0  0.6659
  C  C78  1  0.054900  0.460700  0.827000  1.0  0.7669
  C  C79  1  0.100300  0.305200  0.026800  1.0  -0.1475
  C  C80  1  0.171400  0.376100  0.085500  1.0  -0.0148
  C  C81  1  0.206300  0.473900  0.061200  1.0  -0.1062
  C  C82  1  0.170000  0.500000  0.978100  1.0  -0.0028
  C  C83  1  0.097600  0.429900  0.918200  1.0  -0.1963
  C  C84  1  0.065100  0.331900  0.942200  1.0  0.0175
  C  C85  1  0.246800  0.370900  0.334100  1.0  0.6871
  C  C86  1  0.734900  0.371100  0.327600  1.0  0.6662
  C  C87  1  0.366500  0.313300  0.317600  1.0  -0.1688
  C  C88  1  0.353700  0.208700  0.291600  1.0  -0.0065
  C  C89  1  0.465400  0.155200  0.281300  1.0  -0.1008
  C  C90  1  0.590900  0.208300  0.293100  1.0  -0.0231
  C  C91  1  0.603200  0.312300  0.315600  1.0  -0.1723
  C  C92  1  0.490300  0.365500  0.328200  1.0  0.0278
  C  C93  1  0.943200  0.699200  0.447400  1.0  0.6657
  C  C94  1  0.945100  0.960700  0.673000  1.0  0.7659
  C  C95  1  0.899700  0.805200  0.473200  1.0  -0.1468
  C  C96  1  0.828600  0.876100  0.414500  1.0  -0.014
  C  C97  1  0.793700  0.973900  0.438800  1.0  -0.1061
  C  C98  1  0.830000  0.000000  0.521900  1.0  -0.0012
  C  C99  1  0.902400  0.929900  0.581800  1.0  -0.1978
  C  C100  1  0.934900  0.831900  0.557800  1.0  0.0175
  O  O101  1  0.269300  0.045500  0.873500  1.0  -0.3841
  O  O102  1  0.129300  0.169900  0.809200  1.0  -0.596
  O  O103  1  0.744900  0.035100  0.849400  1.0  -0.3855
  O  O104  1  0.836400  0.179200  0.815200  1.0  -0.6175
  O  O105  1  0.956500  0.804300  0.874900  1.0  -0.6664
  O  O106  1  0.965100  0.875900  0.996300  1.0  -0.2974
  O  O107  1  0.912300  0.449300  0.190800  1.0  -0.6943
  O  O108  1  0.011800  0.603500  0.226900  1.0  -0.6695
  O  O109  1  0.730700  0.545500  0.626500  1.0  -0.3897
  O  O110  1  0.870700  0.669900  0.690800  1.0  -0.5957
  O  O111  1  0.255100  0.535100  0.650600  1.0  -0.3917
  O  O112  1  0.163600  0.679200  0.684800  1.0  -0.6183
  O  O113  1  0.043500  0.304300  0.625100  1.0  -0.6624
  O  O114  1  0.034900  0.375900  0.503700  1.0  -0.301
  O  O115  1  0.087700  0.949300  0.309200  1.0  -0.6953
  O  O116  1  0.988200  0.103500  0.273100  1.0  -0.6738
  O  O117  1  0.730700  0.954500  0.126500  1.0  -0.3865
  O  O118  1  0.870700  0.830100  0.190800  1.0  -0.5944
  O  O119  1  0.255100  0.964900  0.150600  1.0  -0.3795
  O  O120  1  0.163600  0.820800  0.184800  1.0  -0.6169
  O  O121  1  0.043500  0.195700  0.125100  1.0  -0.6637
  O  O122  1  0.034900  0.124100  0.003700  1.0  -0.2868
  O  O123  1  0.087700  0.550700  0.809200  1.0  -0.6941
  O  O124  1  0.988200  0.396500  0.773100  1.0  -0.6741
  O  O125  1  0.269300  0.454500  0.373500  1.0  -0.3829
  O  O126  1  0.129300  0.330100  0.309200  1.0  -0.5953
  O  O127  1  0.744900  0.464900  0.349400  1.0  -0.3758
  O  O128  1  0.836400  0.320800  0.315200  1.0  -0.616
  O  O129  1  0.956500  0.695700  0.374900  1.0  -0.6688
  O  O130  1  0.965100  0.624100  0.496300  1.0  -0.284
  O  O131  1  0.912300  0.050700  0.690800  1.0  -0.6959
  O  O132  1  0.011800  0.896500  0.726900  1.0  -0.6697
