# generated using pymatgen
data_CaH8Pb(C8O5)2
_symmetry_space_group_name_H-M   'P 1'
_cell_length_a   9.40920000
_cell_length_b   15.65630000
_cell_length_c   15.65630000
_cell_angle_alpha   84.81940000
_cell_angle_beta   72.51270000
_cell_angle_gamma   72.51290000
_symmetry_Int_Tables_number   1
_chemical_formula_structural   CaH8Pb(C8O5)2
_chemical_formula_sum   'Ca4 H32 Pb4 C64 O40'
_cell_volume   2098.12389702
_cell_formula_units_Z   4
loop_
 _symmetry_equiv_pos_site_id
 _symmetry_equiv_pos_as_xyz
  1  'x, y, z'
loop_
 _atom_site_type_symbol
 _atom_site_label
 _atom_site_symmetry_multiplicity
 _atom_site_fract_x
 _atom_site_fract_y
 _atom_site_fract_z
 _atom_site_occupancy
 _atom_site_charge
  Ca  Ca1  1  0.625000  0.858100  0.641900  1.0  1.6721
  Ca  Ca2  1  0.125000  0.141900  0.358100  1.0  1.671
  Ca  Ca3  1  0.733100  0.641900  0.141900  1.0  1.6726
  Ca  Ca4  1  0.516900  0.358100  0.858100  1.0  1.6711
  H  H5  1  0.316500  0.725000  0.447000  1.0  0.4071
  H  H6  1  0.836100  0.698500  0.302100  1.0  0.0846
  H  H7  1  0.288400  0.591000  0.286000  1.0  0.1216
  H  H8  1  0.022300  0.792200  0.459600  1.0  0.1224
  H  H9  1  0.488500  0.275000  0.553000  1.0  0.4091
  H  H10  1  0.836700  0.301500  0.697900  1.0  0.0847
  H  H11  1  0.165400  0.409000  0.714000  1.0  0.12
  H  H12  1  0.274100  0.207800  0.540400  1.0  0.1225
  H  H13  1  0.236500  0.447000  0.275000  1.0  0.4075
  H  H14  1  0.861800  0.302100  0.301500  1.0  0.0826
  H  H15  1  0.425600  0.286000  0.409000  1.0  0.1219
  H  H16  1  0.518100  0.459600  0.207800  1.0  0.1226
  H  H17  1  0.958500  0.553000  0.725000  1.0  0.4062
  H  H18  1  0.465400  0.697900  0.698500  1.0  0.082
  H  H19  1  0.120600  0.714000  0.591000  1.0  0.1213
  H  H20  1  0.185500  0.540400  0.792200  1.0  0.1217
  H  H21  1  0.761500  0.947000  0.225000  1.0  0.4077
  H  H22  1  0.413300  0.802100  0.198500  1.0  0.0826
  H  H23  1  0.084600  0.786000  0.091000  1.0  0.1217
  H  H24  1  0.975900  0.959600  0.292200  1.0  0.1224
  H  H25  1  0.933500  0.053000  0.775000  1.0  0.4074
  H  H26  1  0.413900  0.197900  0.801500  1.0  0.0823
  H  H27  1  0.961600  0.214000  0.909000  1.0  0.1207
  H  H28  1  0.227700  0.040400  0.707800  1.0  0.1226
  H  H29  1  0.291500  0.775000  0.947000  1.0  0.4073
  H  H30  1  0.784600  0.801500  0.802100  1.0  0.085
  H  H31  1  0.129400  0.909000  0.786000  1.0  0.1212
  H  H32  1  0.064500  0.707800  0.959600  1.0  0.1226
  H  H33  1  0.013500  0.225000  0.053000  1.0  0.4074
  H  H34  1  0.388200  0.198500  0.197900  1.0  0.0846
  H  H35  1  0.824400  0.091000  0.214000  1.0  0.1215
  H  H36  1  0.731900  0.292200  0.040400  1.0  0.1215
  Pb  Pb37  1  0.429000  0.946000  0.446000  1.0  1.135
  Pb  Pb38  1  0.821000  0.054000  0.554000  1.0  1.1344
  Pb  Pb39  1  0.125000  0.446000  0.054000  1.0  1.1341
  Pb  Pb40  1  0.625000  0.554000  0.946000  1.0  1.1352
  C  C41  1  0.751970  0.820500  0.425960  1.0  0.6964
  C  C42  1  0.079360  0.577350  0.206450  1.0  0.7416
  C  C43  1  0.202500  0.887300  0.254420  1.0  -0.1267
  C  C44  1  0.921770  0.696580  0.320960  1.0  -0.0172
  C  C45  1  0.064090  0.636060  0.282580  1.0  -0.1518
  C  C46  1  0.192880  0.632620  0.310620  1.0  -0.1564
  C  C47  1  0.176480  0.692610  0.376230  1.0  0.3636
  C  C48  1  0.032870  0.753080  0.415280  1.0  -0.1815
  C  C49  1  0.998430  0.179500  0.574040  1.0  0.6975
  C  C50  1  0.863160  0.422650  0.793550  1.0  0.7342
  C  C51  1  0.344220  0.112700  0.745580  1.0  -0.1264
  C  C52  1  0.939310  0.303420  0.679040  1.0  -0.0201
  C  C53  1  0.982730  0.363940  0.717420  1.0  -0.1512
  C  C54  1  0.136120  0.367380  0.689380  1.0  -0.1564
  C  C55  1  0.245320  0.307390  0.623770  1.0  0.3623
  C  C56  1  0.201230  0.246920  0.584720  1.0  -0.1864
  C  C57  1  0.822070  0.425960  0.179500  1.0  0.6953
  C  C58  1  0.714190  0.206450  0.422650  1.0  0.734
  C  C59  1  0.543080  0.254420  0.112700  1.0  -0.1292
  C  C60  1  0.757270  0.320960  0.303420  1.0  -0.0163
  C  C61  1  0.653330  0.282580  0.363940  1.0  -0.1525
  C  C62  1  0.496500  0.310620  0.367380  1.0  -0.155
  C  C63  1  0.447290  0.376230  0.307390  1.0  0.361
  C  C64  1  0.551850  0.415280  0.246920  1.0  -0.185
  C  C65  1  0.427530  0.574040  0.820500  1.0  0.7011
  C  C66  1  0.343290  0.793550  0.577350  1.0  0.7329
  C  C67  1  0.910200  0.745580  0.887300  1.0  -0.1298
  C  C68  1  0.381650  0.679040  0.696580  1.0  -0.0161
  C  C69  1  0.299850  0.717420  0.636060  1.0  -0.15
  C  C70  1  0.174500  0.689380  0.632620  1.0  -0.156
  C  C71  1  0.130910  0.623770  0.692610  1.0  0.364
  C  C72  1  0.214050  0.584720  0.753080  1.0  -0.1876
  C  C73  1  0.251570  0.925960  0.320500  1.0  0.7029
  C  C74  1  0.386840  0.706450  0.077350  1.0  0.7323
  C  C75  1  0.905780  0.754420  0.387300  1.0  -0.13
  C  C76  1  0.310690  0.820960  0.196580  1.0  -0.0161
  C  C77  1  0.267270  0.782580  0.136060  1.0  -0.1496
  C  C78  1  0.113880  0.810620  0.132620  1.0  -0.1565
  C  C79  1  0.004680  0.876230  0.192610  1.0  0.356
  C  C80  1  0.048770  0.915280  0.253080  1.0  -0.1865
  C  C81  1  0.498030  0.074040  0.679500  1.0  0.6962
  C  C82  1  0.170640  0.293550  0.922650  1.0  0.7334
  C  C83  1  0.047500  0.245580  0.612700  1.0  -0.1303
  C  C84  1  0.328230  0.179040  0.803420  1.0  -0.0164
  C  C85  1  0.185910  0.217420  0.863940  1.0  -0.1533
  C  C86  1  0.057120  0.189380  0.867380  1.0  -0.1544
  C  C87  1  0.073520  0.123770  0.807390  1.0  0.3545
  C  C88  1  0.217130  0.084720  0.746920  1.0  -0.187
  C  C89  1  0.822470  0.679500  0.925960  1.0  0.6979
  C  C90  1  0.906710  0.922650  0.706450  1.0  0.7425
  C  C91  1  0.339800  0.612700  0.754420  1.0  -0.1271
  C  C92  1  0.868350  0.803420  0.820960  1.0  -0.0173
  C  C93  1  0.950150  0.863940  0.782580  1.0  -0.1515
  C  C94  1  0.075500  0.867380  0.810620  1.0  -0.1565
  C  C95  1  0.119090  0.807390  0.876230  1.0  0.3561
  C  C96  1  0.035950  0.746920  0.915280  1.0  -0.1811
  C  C97  1  0.427930  0.320500  0.074040  1.0  0.6993
  C  C98  1  0.535810  0.077350  0.293550  1.0  0.7352
  C  C99  1  0.706920  0.387300  0.245580  1.0  -0.1265
  C  C100  1  0.492730  0.196580  0.179040  1.0  -0.0198
  C  C101  1  0.596670  0.136060  0.217420  1.0  -0.1518
  C  C102  1  0.753500  0.132620  0.189380  1.0  -0.1565
  C  C103  1  0.802710  0.192610  0.123770  1.0  0.357
  C  C104  1  0.698150  0.253080  0.084720  1.0  -0.1864
  O  O105  1  0.735900  0.871020  0.489060  1.0  -0.7747
  O  O106  1  0.643650  0.823280  0.392780  1.0  -0.5505
  O  O107  1  0.971950  0.598380  0.169280  1.0  -0.8064
  O  O108  1  0.195660  0.510490  0.183010  1.0  -0.5867
  O  O109  1  0.305990  0.691270  0.398870  1.0  -0.5716
  O  O110  1  0.095980  0.128980  0.510940  1.0  -0.7754
  O  O111  1  0.859710  0.176720  0.607220  1.0  -0.5519
  O  O112  1  0.739610  0.401620  0.830720  1.0  -0.8056
  O  O113  1  0.889160  0.489510  0.816990  1.0  -0.5902
  O  O114  1  0.396130  0.308730  0.601130  1.0  -0.5719
  O  O115  1  0.775040  0.489060  0.128980  1.0  -0.7744
  O  O116  1  0.963570  0.392780  0.176720  1.0  -0.5512
  O  O117  1  0.858770  0.169280  0.401620  1.0  -0.8063
  O  O118  1  0.621330  0.183010  0.489510  1.0  -0.5872
  O  O119  1  0.295140  0.398870  0.308730  1.0  -0.5702
  O  O120  1  0.393080  0.510940  0.871020  1.0  -0.7741
  O  O121  1  0.533070  0.607220  0.823280  1.0  -0.5516
  O  O122  1  0.429670  0.830720  0.598380  1.0  -0.8085
  O  O123  1  0.293850  0.816990  0.510490  1.0  -0.59
  O  O124  1  0.002740  0.601130  0.691270  1.0  -0.5728
  O  O125  1  0.154020  0.989060  0.371020  1.0  -0.7749
  O  O126  1  0.390290  0.892780  0.323280  1.0  -0.5511
  O  O127  1  0.510390  0.669280  0.098380  1.0  -0.8074
  O  O128  1  0.360840  0.683010  0.010490  1.0  -0.5901
  O  O129  1  0.853870  0.898870  0.191270  1.0  -0.5715
  O  O130  1  0.514100  0.010940  0.628980  1.0  -0.7744
  O  O131  1  0.606350  0.107220  0.676720  1.0  -0.5516
  O  O132  1  0.278050  0.330720  0.901620  1.0  -0.8071
  O  O133  1  0.054340  0.316990  0.989510  1.0  -0.5883
  O  O134  1  0.944010  0.101130  0.808730  1.0  -0.5706
  O  O135  1  0.856920  0.628980  0.989060  1.0  -0.7742
  O  O136  1  0.716930  0.676720  0.892780  1.0  -0.5507
  O  O137  1  0.820330  0.901620  0.669280  1.0  -0.8065
  O  O138  1  0.956150  0.989510  0.683010  1.0  -0.586
  O  O139  1  0.247260  0.808730  0.898870  1.0  -0.5712
  O  O140  1  0.474960  0.371020  0.010940  1.0  -0.7755
  O  O141  1  0.286430  0.323280  0.107220  1.0  -0.5515
  O  O142  1  0.391230  0.098380  0.330720  1.0  -0.8056
  O  O143  1  0.628670  0.010490  0.316990  1.0  -0.5896
  O  O144  1  0.954860  0.191270  0.101130  1.0  -0.5741
