# generated using pymatgen
data_Zn7H28C44(N9O8)2
_symmetry_space_group_name_H-M   'P 1'
_cell_length_a   9.78100000
_cell_length_b   11.90500000
_cell_length_c   15.22000000
_cell_angle_alpha   96.50000000
_cell_angle_beta   99.07000000
_cell_angle_gamma   112.41000000
_symmetry_Int_Tables_number   1
_chemical_formula_structural   Zn7H28C44(N9O8)2
_chemical_formula_sum   'Zn7 H28 C44 N18 O16'
_cell_volume   1588.51225848
_cell_formula_units_Z   1
loop_
 _symmetry_equiv_pos_site_id
 _symmetry_equiv_pos_as_xyz
  1  'x, y, z'
loop_
 _atom_site_type_symbol
 _atom_site_label
 _atom_site_symmetry_multiplicity
 _atom_site_fract_x
 _atom_site_fract_y
 _atom_site_fract_z
 _atom_site_occupancy
 _atom_site_charge
  Zn  Zn1  1  0.988730  0.570290  0.294850  1.0  0.8639
  Zn  Zn2  1  0.890690  0.688270  0.670220  1.0  0.8363
  Zn  Zn3  1  0.439130  0.604840  0.070460  1.0  0.7991
  Zn  Zn4  1  0.011270  0.429710  0.705150  1.0  0.8639
  Zn  Zn5  1  0.109310  0.311730  0.329780  1.0  0.8357
  Zn  Zn6  1  0.560870  0.395160  0.929540  1.0  0.7994
  Zn  Zn7  1  0.500000  0.500000  0.500000  1.0  1.0366
  H  H8  1  0.308000  0.998700  0.823600  1.0  0.1038
  H  H9  1  0.723100  0.039600  0.942500  1.0  0.1045
  H  H10  1  0.656300  0.831800  0.895800  1.0  0.1108
  H  H11  1  0.420300  0.708100  0.805500  1.0  0.0946
  H  H12  1  0.804000  0.011400  0.665100  1.0  0.1089
  H  H13  1  0.460500  0.113900  0.600300  1.0  0.1101
  H  H14  1  0.291500  0.911100  0.577200  1.0  0.1013
  H  H15  1  0.377000  0.755600  0.589500  1.0  0.0954
  H  H16  1  0.172500  0.633100  0.146200  1.0  0.0852
  H  H17  1  0.348000  0.403000  0.203700  1.0  0.0767
  H  H18  1  0.071400  0.678400  0.514000  1.0  0.0929
  H  H19  1  0.687400  0.461900  0.357400  1.0  0.0816
  H  H20  1  0.708500  0.650400  0.235400  1.0  0.0912
  H  H21  1  0.828500  0.430500  0.091100  1.0  0.0865
  H  H22  1  0.692000  0.001300  0.176400  1.0  0.1044
  H  H23  1  0.276900  0.960400  0.057500  1.0  0.104
  H  H24  1  0.343700  0.168200  0.104200  1.0  0.1081
  H  H25  1  0.579700  0.291900  0.194500  1.0  0.0943
  H  H26  1  0.196000  0.988600  0.334900  1.0  0.1069
  H  H27  1  0.539500  0.886100  0.399700  1.0  0.1104
  H  H28  1  0.708500  0.088900  0.422800  1.0  0.1015
  H  H29  1  0.623000  0.244400  0.410500  1.0  0.096
  H  H30  1  0.827500  0.366900  0.853800  1.0  0.0861
  H  H31  1  0.652000  0.597000  0.796300  1.0  0.0765
  H  H32  1  0.928600  0.321600  0.486000  1.0  0.0932
  H  H33  1  0.312600  0.538100  0.642600  1.0  0.0824
  H  H34  1  0.291500  0.349600  0.764600  1.0  0.0916
  H  H35  1  0.171500  0.569500  0.908900  1.0  0.0867
  C  C36  1  0.339600  0.840700  0.806100  1.0  -0.1711
  C  C37  1  0.379000  0.965500  0.837100  1.0  0.0175
  C  C38  1  0.522000  0.040900  0.887700  1.0  -0.1682
  C  C39  1  0.626200  0.989700  0.908700  1.0  -0.0169
  C  C40  1  0.586900  0.865800  0.879800  1.0  -0.1017
  C  C41  1  0.444900  0.791300  0.826900  1.0  -0.027
  C  C42  1  0.187100  0.761000  0.747900  1.0  0.6707
  C  C43  1  0.564500  0.175400  0.916600  1.0  0.6684
  C  C44  1  0.600100  0.868500  0.628100  1.0  -0.1921
  C  C45  1  0.701100  0.991000  0.645400  1.0  0.0142
  C  C46  1  0.651500  0.084300  0.634100  1.0  -0.1632
  C  C47  1  0.495800  0.052600  0.607800  1.0  -0.0205
  C  C48  1  0.395000  0.931200  0.593000  1.0  -0.1033
  C  C49  1  0.445800  0.837900  0.601500  1.0  -0.0202
  C  C50  1  0.657500  0.769500  0.636900  1.0  0.7032
  C  C51  1  0.761600  0.215100  0.645900  1.0  0.6719
  C  C52  1  0.193100  0.572100  0.171200  1.0  0.2651
  C  C53  1  0.288100  0.447800  0.202400  1.0  0.263
  C  C54  1  0.968500  0.629900  0.492300  1.0  0.2567
  C  C55  1  0.760800  0.513400  0.407800  1.0  0.2691
  C  C56  1  0.711600  0.595900  0.187700  1.0  0.2487
  C  C57  1  0.776400  0.476600  0.109600  1.0  0.2577
  C  C58  1  0.660400  0.159300  0.193900  1.0  -0.1709
  C  C59  1  0.621000  0.034500  0.162900  1.0  0.0192
  C  C60  1  0.478000  0.959100  0.112300  1.0  -0.1697
  C  C61  1  0.373800  0.010300  0.091300  1.0  -0.0125
  C  C62  1  0.413100  0.134200  0.120200  1.0  -0.1054
  C  C63  1  0.555100  0.208700  0.173100  1.0  -0.0276
  C  C64  1  0.812900  0.239000  0.252100  1.0  0.6706
  C  C65  1  0.435500  0.824600  0.083400  1.0  0.6691
  C  C66  1  0.399900  0.131500  0.371900  1.0  -0.1922
  C  C67  1  0.298900  0.009000  0.354600  1.0  0.0148
  C  C68  1  0.348500  0.915700  0.365900  1.0  -0.1647
  C  C69  1  0.504200  0.947400  0.392200  1.0  -0.025
  C  C70  1  0.605000  0.068800  0.407000  1.0  -0.1029
  C  C71  1  0.554200  0.162100  0.398500  1.0  -0.0199
  C  C72  1  0.342500  0.230500  0.363100  1.0  0.7042
  C  C73  1  0.238400  0.784900  0.354100  1.0  0.6727
  C  C74  1  0.806900  0.427900  0.828800  1.0  0.2648
  C  C75  1  0.711900  0.552200  0.797600  1.0  0.2632
  C  C76  1  0.031500  0.370100  0.507700  1.0  0.2558
  C  C77  1  0.239200  0.486600  0.592200  1.0  0.2689
  C  C78  1  0.288400  0.404100  0.812300  1.0  0.2482
  C  C79  1  0.223600  0.523400  0.890400  1.0  0.2585
  N  N80  1  0.183400  0.432100  0.249700  1.0  -0.2641
  N  N81  1  0.121200  0.513900  0.228500  1.0  -0.2257
  N  N82  1  0.299900  0.534700  0.152100  1.0  -0.4332
  N  N83  1  0.866800  0.614700  0.541800  1.0  -0.2317
  N  N84  1  0.729900  0.539100  0.485700  1.0  -0.2914
  N  N85  1  0.907500  0.567700  0.407200  1.0  -0.4087
  N  N86  1  0.816100  0.549200  0.191100  1.0  -0.4047
  N  N87  1  0.655000  0.477700  0.058200  1.0  -0.2425
  N  N88  1  0.612100  0.555700  0.108400  1.0  -0.2762
  N  N89  1  0.816600  0.567900  0.750300  1.0  -0.2623
  N  N90  1  0.878800  0.486100  0.771500  1.0  -0.2249
  N  N91  1  0.700100  0.465300  0.847900  1.0  -0.4331
  N  N92  1  0.133200  0.385300  0.458200  1.0  -0.2308
  N  N93  1  0.270100  0.460900  0.514300  1.0  -0.2817
  N  N94  1  0.092500  0.432300  0.592800  1.0  -0.4083
  N  N95  1  0.183900  0.450800  0.808900  1.0  -0.4048
  N  N96  1  0.345000  0.522300  0.941800  1.0  -0.2418
  N  N97  1  0.387900  0.444300  0.891600  1.0  -0.2773
  O  O98  1  0.153800  0.651200  0.718200  1.0  -0.6447
  O  O99  1  0.094000  0.812000  0.730400  1.0  -0.5889
  O  O100  1  0.463100  0.215900  0.894300  1.0  -0.612
  O  O101  1  0.694100  0.245400  0.957400  1.0  -0.5985
  O  O102  1  0.570900  0.658200  0.614800  1.0  -0.6664
  O  O103  1  0.798500  0.807000  0.668700  1.0  -0.5797
  O  O104  1  0.893000  0.244900  0.695800  1.0  -0.6195
  O  O105  1  0.727600  0.290400  0.607900  1.0  -0.6003
  O  O106  1  0.846200  0.348800  0.281800  1.0  -0.6436
  O  O107  1  0.906000  0.188000  0.269600  1.0  -0.5889
  O  O108  1  0.536900  0.784100  0.105700  1.0  -0.6134
  O  O109  1  0.305900  0.754600  0.042600  1.0  -0.5989
  O  O110  1  0.429100  0.341800  0.385200  1.0  -0.6662
  O  O111  1  0.201500  0.193000  0.331300  1.0  -0.5784
  O  O112  1  0.107000  0.755100  0.304200  1.0  -0.6179
  O  O113  1  0.272400  0.709600  0.392100  1.0  -0.601
