# generated using pymatgen
data_ZnH7C9(N2O)2
_symmetry_space_group_name_H-M   'P 1'
_cell_length_a   18.11110000
_cell_length_b   18.11110000
_cell_length_c   11.25070000
_cell_angle_alpha   90.00000000
_cell_angle_beta   90.00000000
_cell_angle_gamma   90.00000000
_symmetry_Int_Tables_number   1
_chemical_formula_structural   ZnH7C9(N2O)2
_chemical_formula_sum   'Zn8 H56 C72 N32 O16'
_cell_volume   3690.36396947
_cell_formula_units_Z   8
loop_
 _symmetry_equiv_pos_site_id
 _symmetry_equiv_pos_as_xyz
  1  'x, y, z'
loop_
 _atom_site_type_symbol
 _atom_site_label
 _atom_site_symmetry_multiplicity
 _atom_site_fract_x
 _atom_site_fract_y
 _atom_site_fract_z
 _atom_site_occupancy
 _atom_site_charge
  Zn  Zn1  1  0.211450  0.423490  0.169770  1.0  0.8274
  Zn  Zn2  1  0.288550  0.076510  0.169770  1.0  0.825
  Zn  Zn3  1  0.576510  0.711450  0.669770  1.0  0.8281
  Zn  Zn4  1  0.923490  0.788550  0.669770  1.0  0.8279
  Zn  Zn5  1  0.788550  0.576510  0.830230  1.0  0.8241
  Zn  Zn6  1  0.711450  0.923490  0.830230  1.0  0.8259
  Zn  Zn7  1  0.423490  0.288550  0.330230  1.0  0.8265
  Zn  Zn8  1  0.076510  0.211450  0.330230  1.0  0.8272
  H  H9  1  0.187100  0.321700  0.459500  1.0  0.122
  H  H10  1  0.237600  0.369300  0.542100  1.0  0.1214
  H  H11  1  0.057900  0.548800  0.666500  1.0  0.0945
  H  H12  1  0.991300  0.646400  0.741800  1.0  0.0494
  H  H13  1  0.981300  0.738200  0.430900  1.0  0.0479
  H  H14  1  0.048900  0.645200  0.347000  1.0  0.0935
  H  H15  1  0.137200  0.465000  0.582000  1.0  0.2731
  H  H16  1  0.312900  0.178300  0.459500  1.0  0.1216
  H  H17  1  0.262400  0.130700  0.542100  1.0  0.1228
  H  H18  1  0.442100  0.951200  0.666500  1.0  0.0948
  H  H19  1  0.508700  0.853600  0.741800  1.0  0.0505
  H  H20  1  0.518700  0.761800  0.430900  1.0  0.0473
  H  H21  1  0.451100  0.854800  0.347000  1.0  0.0945
  H  H22  1  0.362800  0.035000  0.582000  1.0  0.2731
  H  H23  1  0.678300  0.687100  0.959500  1.0  0.1216
  H  H24  1  0.630700  0.737600  0.042100  1.0  0.1227
  H  H25  1  0.451200  0.557900  0.166500  1.0  0.0963
  H  H26  1  0.353600  0.491300  0.241800  1.0  0.0512
  H  H27  1  0.261800  0.481300  0.930900  1.0  0.048
  H  H28  1  0.354800  0.548900  0.847000  1.0  0.0935
  H  H29  1  0.535000  0.637200  0.082000  1.0  0.273
  H  H30  1  0.821700  0.812900  0.959500  1.0  0.1219
  H  H31  1  0.869300  0.762400  0.042100  1.0  0.1218
  H  H32  1  0.048800  0.942100  0.166500  1.0  0.0962
  H  H33  1  0.146400  0.008700  0.241800  1.0  0.052
  H  H34  1  0.238200  0.018700  0.930900  1.0  0.0484
  H  H35  1  0.145200  0.951100  0.847000  1.0  0.094
  H  H36  1  0.965000  0.862800  0.082000  1.0  0.2726
  H  H37  1  0.812900  0.678300  0.540500  1.0  0.1215
  H  H38  1  0.762400  0.630700  0.457900  1.0  0.1195
  H  H39  1  0.942100  0.451200  0.333500  1.0  0.0937
  H  H40  1  0.008700  0.353600  0.258200  1.0  0.0489
  H  H41  1  0.018700  0.261800  0.569100  1.0  0.048
  H  H42  1  0.951100  0.354800  0.653000  1.0  0.0948
  H  H43  1  0.862800  0.535000  0.418000  1.0  0.2747
  H  H44  1  0.687100  0.821700  0.540500  1.0  0.1217
  H  H45  1  0.737600  0.869300  0.457900  1.0  0.1214
  H  H46  1  0.557900  0.048800  0.333500  1.0  0.0944
  H  H47  1  0.491300  0.146400  0.258200  1.0  0.0502
  H  H48  1  0.481300  0.238200  0.569100  1.0  0.0479
  H  H49  1  0.548900  0.145200  0.653000  1.0  0.0936
  H  H50  1  0.637200  0.965000  0.418000  1.0  0.2753
  H  H51  1  0.321700  0.312900  0.040500  1.0  0.1214
  H  H52  1  0.369300  0.262400  0.957900  1.0  0.1206
  H  H53  1  0.548800  0.442100  0.833500  1.0  0.0951
  H  H54  1  0.646400  0.508700  0.758200  1.0  0.0515
  H  H55  1  0.738200  0.518700  0.069100  1.0  0.0489
  H  H56  1  0.645200  0.451100  0.153000  1.0  0.0936
  H  H57  1  0.465000  0.362800  0.918000  1.0  0.2744
  H  H58  1  0.178300  0.187100  0.040500  1.0  0.1215
  H  H59  1  0.130700  0.237600  0.957900  1.0  0.1206
  H  H60  1  0.951200  0.057900  0.833500  1.0  0.0949
  H  H61  1  0.853600  0.991300  0.758200  1.0  0.0505
  H  H62  1  0.761800  0.981300  0.069100  1.0  0.0486
  H  H63  1  0.854800  0.048900  0.153000  1.0  0.094
  H  H64  1  0.035000  0.137200  0.918000  1.0  0.2747
  C  C65  1  0.285800  0.346700  0.383400  1.0  0.7392
  C  C66  1  0.220200  0.363800  0.461000  1.0  -0.4283
  C  C67  1  0.176800  0.431200  0.429500  1.0  0.3489
  C  C68  1  0.108200  0.527600  0.445800  1.0  0.3187
  C  C69  1  0.063400  0.586800  0.497800  1.0  -0.0158
  C  C70  1  0.043900  0.587400  0.616900  1.0  -0.2202
  C  C71  1  0.003300  0.646100  0.661400  1.0  0.1364
  C  C72  1  0.997800  0.700000  0.479400  1.0  0.1368
  C  C73  1  0.038500  0.644200  0.427900  1.0  -0.1814
  C  C74  1  0.214200  0.153300  0.383400  1.0  0.7387
  C  C75  1  0.279800  0.136200  0.461000  1.0  -0.4259
  C  C76  1  0.323200  0.068800  0.429500  1.0  0.3481
  C  C77  1  0.391800  0.972400  0.445800  1.0  0.316
  C  C78  1  0.436600  0.913200  0.497800  1.0  -0.0179
  C  C79  1  0.456100  0.912600  0.616900  1.0  -0.2202
  C  C80  1  0.496700  0.853900  0.661400  1.0  0.1345
  C  C81  1  0.502200  0.800000  0.479400  1.0  0.1357
  C  C82  1  0.461500  0.855800  0.427900  1.0  -0.1764
  C  C83  1  0.653300  0.785800  0.883400  1.0  0.7414
  C  C84  1  0.636200  0.720200  0.961000  1.0  -0.4296
  C  C85  1  0.568800  0.676800  0.929500  1.0  0.3449
  C  C86  1  0.472400  0.608200  0.945800  1.0  0.3194
  C  C87  1  0.413200  0.563400  0.997800  1.0  -0.0175
  C  C88  1  0.412600  0.543900  0.116900  1.0  -0.2254
  C  C89  1  0.353900  0.503300  0.161400  1.0  0.1309
  C  C90  1  0.300000  0.497800  0.979400  1.0  0.138
  C  C91  1  0.355800  0.538500  0.927900  1.0  -0.1742
  C  C92  1  0.846700  0.714200  0.883400  1.0  0.7431
  C  C93  1  0.863800  0.779800  0.961000  1.0  -0.4264
  C  C94  1  0.931200  0.823200  0.929500  1.0  0.3473
  C  C95  1  0.027600  0.891800  0.945800  1.0  0.3186
  C  C96  1  0.086800  0.936600  0.997800  1.0  -0.0163
  C  C97  1  0.087400  0.956100  0.116900  1.0  -0.2253
  C  C98  1  0.146100  0.996700  0.161400  1.0  0.1306
  C  C99  1  0.200000  0.002200  0.979400  1.0  0.1377
  C  C100  1  0.144200  0.961500  0.927900  1.0  -0.1755
  C  C101  1  0.714200  0.653300  0.616600  1.0  0.7395
  C  C102  1  0.779800  0.636200  0.539000  1.0  -0.4295
  C  C103  1  0.823200  0.568800  0.570500  1.0  0.3485
  C  C104  1  0.891800  0.472400  0.554200  1.0  0.3168
  C  C105  1  0.936600  0.413200  0.502200  1.0  -0.0185
  C  C106  1  0.956100  0.412600  0.383100  1.0  -0.2209
  C  C107  1  0.996700  0.353900  0.338600  1.0  0.1332
  C  C108  1  0.002200  0.300000  0.520600  1.0  0.1376
  C  C109  1  0.961500  0.355800  0.572100  1.0  -0.1787
  C  C110  1  0.785800  0.846700  0.616600  1.0  0.7404
  C  C111  1  0.720200  0.863800  0.539000  1.0  -0.4296
  C  C112  1  0.676800  0.931200  0.570500  1.0  0.3492
  C  C113  1  0.608200  0.027600  0.554200  1.0  0.3184
  C  C114  1  0.563400  0.086800  0.502200  1.0  -0.0163
  C  C115  1  0.543900  0.087400  0.383100  1.0  -0.2205
  C  C116  1  0.503300  0.146100  0.338600  1.0  0.1371
  C  C117  1  0.497800  0.200000  0.520600  1.0  0.1374
  C  C118  1  0.538500  0.144200  0.572100  1.0  -0.1782
  C  C119  1  0.346700  0.214200  0.116600  1.0  0.7434
  C  C120  1  0.363800  0.279800  0.039000  1.0  -0.4291
  C  C121  1  0.431200  0.323200  0.070500  1.0  0.3469
  C  C122  1  0.527600  0.391800  0.054200  1.0  0.3186
  C  C123  1  0.586800  0.436600  0.002200  1.0  -0.0167
  C  C124  1  0.587400  0.456100  0.883100  1.0  -0.2257
  C  C125  1  0.646100  0.496700  0.838600  1.0  0.1308
  C  C126  1  0.700000  0.502200  0.020600  1.0  0.1392
  C  C127  1  0.644200  0.461500  0.072100  1.0  -0.1748
  C  C128  1  0.153300  0.285800  0.116600  1.0  0.7431
  C  C129  1  0.136200  0.220200  0.039000  1.0  -0.4287
  C  C130  1  0.068800  0.176800  0.070500  1.0  0.346
  C  C131  1  0.972400  0.108200  0.054200  1.0  0.3192
  C  C132  1  0.913200  0.063400  0.002200  1.0  -0.0183
  C  C133  1  0.912600  0.043900  0.883100  1.0  -0.2253
  C  C134  1  0.853900  0.003300  0.838600  1.0  0.1314
  C  C135  1  0.800000  0.997800  0.020600  1.0  0.1392
  C  C136  1  0.855800  0.038500  0.072100  1.0  -0.1726
  N  N137  1  0.167700  0.459900  0.323600  1.0  -0.2247
  N  N138  1  0.124000  0.522200  0.333200  1.0  -0.3587
  N  N139  1  0.139900  0.472200  0.506600  1.0  -0.2698
  N  N140  1  0.981300  0.702300  0.594200  1.0  -0.3607
  N  N141  1  0.332300  0.040100  0.323600  1.0  -0.2227
  N  N142  1  0.376000  0.977800  0.333200  1.0  -0.3579
  N  N143  1  0.360100  0.027800  0.506600  1.0  -0.2703
  N  N144  1  0.518700  0.797700  0.594200  1.0  -0.36
  N  N145  1  0.540100  0.667700  0.823600  1.0  -0.2219
  N  N146  1  0.477800  0.624000  0.833200  1.0  -0.357
  N  N147  1  0.527800  0.639900  0.006600  1.0  -0.2705
  N  N148  1  0.297700  0.481300  0.094200  1.0  -0.3653
  N  N149  1  0.959900  0.832300  0.823600  1.0  -0.2228
  N  N150  1  0.022200  0.876000  0.833200  1.0  -0.3574
  N  N151  1  0.972200  0.860100  0.006600  1.0  -0.272
  N  N152  1  0.202300  0.018700  0.094200  1.0  -0.3663
  N  N153  1  0.832300  0.540100  0.676400  1.0  -0.2228
  N  N154  1  0.876000  0.477800  0.666800  1.0  -0.3604
  N  N155  1  0.860100  0.527800  0.493400  1.0  -0.2692
  N  N156  1  0.018700  0.297700  0.405800  1.0  -0.3602
  N  N157  1  0.667700  0.959900  0.676400  1.0  -0.2228
  N  N158  1  0.624000  0.022200  0.666800  1.0  -0.3562
  N  N159  1  0.639900  0.972200  0.493400  1.0  -0.2685
  N  N160  1  0.481300  0.202300  0.405800  1.0  -0.3608
  N  N161  1  0.459900  0.332300  0.176400  1.0  -0.2199
  N  N162  1  0.522200  0.376000  0.166800  1.0  -0.3547
  N  N163  1  0.472200  0.360100  0.993400  1.0  -0.2691
  N  N164  1  0.702300  0.518700  0.905800  1.0  -0.3663
  N  N165  1  0.040100  0.167700  0.176400  1.0  -0.2211
  N  N166  1  0.977800  0.124000  0.166800  1.0  -0.3556
  N  N167  1  0.027800  0.139900  0.993400  1.0  -0.2699
  N  N168  1  0.797700  0.981300  0.905800  1.0  -0.365
  O  O169  1  0.289620  0.366570  0.278100  1.0  -0.6164
  O  O170  1  0.335780  0.308310  0.432400  1.0  -0.6355
  O  O171  1  0.210380  0.133430  0.278100  1.0  -0.6158
  O  O172  1  0.164220  0.191690  0.432400  1.0  -0.6336
  O  O173  1  0.633430  0.789620  0.778100  1.0  -0.6158
  O  O174  1  0.691690  0.835780  0.932400  1.0  -0.636
  O  O175  1  0.866570  0.710380  0.778100  1.0  -0.6155
  O  O176  1  0.808310  0.664220  0.932400  1.0  -0.6366
  O  O177  1  0.710380  0.633430  0.721900  1.0  -0.6152
  O  O178  1  0.664220  0.691690  0.567600  1.0  -0.6329
  O  O179  1  0.789620  0.866570  0.721900  1.0  -0.6165
  O  O180  1  0.835780  0.808310  0.567600  1.0  -0.6353
  O  O181  1  0.366570  0.210380  0.221900  1.0  -0.6154
  O  O182  1  0.308310  0.164220  0.067600  1.0  -0.6358
  O  O183  1  0.133430  0.289620  0.221900  1.0  -0.6155
  O  O184  1  0.191690  0.335780  0.067600  1.0  -0.636
