# generated using pymatgen
data_Na4CoH20C52(NO4)4
_symmetry_space_group_name_H-M   'P 1'
_cell_length_a   28.69100000
_cell_length_b   29.06100000
_cell_length_c   12.49180000
_cell_angle_alpha   90.00000000
_cell_angle_beta   90.00000000
_cell_angle_gamma   90.00000000
_symmetry_Int_Tables_number   1
_chemical_formula_structural   Na4CoH20C52(NO4)4
_chemical_formula_sum   'Na16 Co4 H80 C208 N16 O64'
_cell_volume   10415.52731646
_cell_formula_units_Z   4
loop_
 _symmetry_equiv_pos_site_id
 _symmetry_equiv_pos_as_xyz
  1  'x, y, z'
loop_
 _atom_site_type_symbol
 _atom_site_label
 _atom_site_symmetry_multiplicity
 _atom_site_fract_x
 _atom_site_fract_y
 _atom_site_fract_z
 _atom_site_occupancy
 _atom_site_charge
  Na  Na1  1  0.800720  0.500000  0.500000  1.0  0.9848
  Na  Na2  1  0.300720  0.000000  0.000000  1.0  0.9848
  Na  Na3  1  0.199280  0.000000  0.500000  1.0  0.9879
  Na  Na4  1  0.699280  0.500000  0.000000  1.0  0.9879
  Na  Na5  1  0.199280  0.500000  0.500000  1.0  0.9879
  Na  Na6  1  0.699280  0.000000  0.000000  1.0  0.9879
  Na  Na7  1  0.800720  0.000000  0.500000  1.0  0.9848
  Na  Na8  1  0.300720  0.500000  0.000000  1.0  0.9848
  Na  Na9  1  0.750000  0.542950  0.750000  1.0  0.9481
  Na  Na10  1  0.250000  0.957050  0.750000  1.0  0.95
  Na  Na11  1  0.250000  0.042950  0.250000  1.0  0.9481
  Na  Na12  1  0.750000  0.457050  0.250000  1.0  0.95
  Na  Na13  1  0.250000  0.457050  0.250000  1.0  0.9491
  Na  Na14  1  0.750000  0.042950  0.250000  1.0  0.9487
  Na  Na15  1  0.750000  0.957050  0.750000  1.0  0.9491
  Na  Na16  1  0.250000  0.542950  0.750000  1.0  0.9487
  Co  Co17  1  0.500000  0.250000  0.617960  1.0  0.7556
  Co  Co18  1  0.000000  0.750000  0.117960  1.0  0.7741
  Co  Co19  1  0.500000  0.750000  0.382040  1.0  0.7559
  Co  Co20  1  0.000000  0.250000  0.882040  1.0  0.7745
  H  H21  1  0.712400  0.460900  0.624500  1.0  0.1115
  H  H22  1  0.612600  0.387500  0.776000  1.0  0.13
  H  H23  1  0.641200  0.362500  0.465000  1.0  0.1318
  H  H24  1  0.672500  0.292500  0.619100  1.0  0.1372
  H  H25  1  0.543100  0.419900  0.620400  1.0  0.1366
  H  H26  1  0.212400  0.960900  0.124500  1.0  0.1115
  H  H27  1  0.112600  0.887500  0.276000  1.0  0.1294
  H  H28  1  0.141200  0.862500  0.965000  1.0  0.131
  H  H29  1  0.172500  0.792500  0.119100  1.0  0.1372
  H  H30  1  0.043100  0.919900  0.120400  1.0  0.1366
  H  H31  1  0.287600  0.039100  0.624500  1.0  0.1116
  H  H32  1  0.387400  0.112500  0.776000  1.0  0.1294
  H  H33  1  0.358800  0.137500  0.465000  1.0  0.1316
  H  H34  1  0.327500  0.207500  0.619100  1.0  0.1373
  H  H35  1  0.456900  0.080100  0.620400  1.0  0.1369
  H  H36  1  0.787600  0.539100  0.124500  1.0  0.1116
  H  H37  1  0.887400  0.612500  0.276000  1.0  0.129
  H  H38  1  0.858800  0.637500  0.965000  1.0  0.1303
  H  H39  1  0.827500  0.707500  0.119100  1.0  0.1373
  H  H40  1  0.956900  0.580100  0.120400  1.0  0.1369
  H  H41  1  0.287600  0.960900  0.375500  1.0  0.1118
  H  H42  1  0.387400  0.887500  0.224000  1.0  0.1297
  H  H43  1  0.358800  0.862500  0.535000  1.0  0.132
  H  H44  1  0.327500  0.792500  0.380900  1.0  0.1374
  H  H45  1  0.456900  0.919900  0.379600  1.0  0.1366
  H  H46  1  0.787600  0.460900  0.875500  1.0  0.1118
  H  H47  1  0.887400  0.387500  0.724000  1.0  0.1293
  H  H48  1  0.858800  0.362500  0.035000  1.0  0.1309
  H  H49  1  0.827500  0.292500  0.880900  1.0  0.1374
  H  H50  1  0.956900  0.419900  0.879600  1.0  0.1366
  H  H51  1  0.712400  0.539100  0.375500  1.0  0.1118
  H  H52  1  0.612600  0.612500  0.224000  1.0  0.13
  H  H53  1  0.641200  0.637500  0.535000  1.0  0.1323
  H  H54  1  0.672500  0.707500  0.380900  1.0  0.1375
  H  H55  1  0.543100  0.580100  0.379600  1.0  0.1371
  H  H56  1  0.212400  0.039100  0.875500  1.0  0.1118
  H  H57  1  0.112600  0.112500  0.724000  1.0  0.1293
  H  H58  1  0.141200  0.137500  0.035000  1.0  0.1308
  H  H59  1  0.172500  0.207500  0.880900  1.0  0.1375
  H  H60  1  0.043100  0.080100  0.879600  1.0  0.1371
  H  H61  1  0.287600  0.539100  0.375500  1.0  0.1117
  H  H62  1  0.387400  0.612500  0.224000  1.0  0.1296
  H  H63  1  0.358800  0.637500  0.535000  1.0  0.1321
  H  H64  1  0.327500  0.707500  0.380900  1.0  0.1373
  H  H65  1  0.456900  0.580100  0.379600  1.0  0.1369
  H  H66  1  0.787600  0.039100  0.875500  1.0  0.1117
  H  H67  1  0.887400  0.112500  0.724000  1.0  0.1293
  H  H68  1  0.858800  0.137500  0.035000  1.0  0.1306
  H  H69  1  0.827500  0.207500  0.880900  1.0  0.1373
  H  H70  1  0.956900  0.080100  0.879600  1.0  0.1369
  H  H71  1  0.712400  0.960900  0.375500  1.0  0.1117
  H  H72  1  0.612600  0.887500  0.224000  1.0  0.1299
  H  H73  1  0.641200  0.862500  0.535000  1.0  0.1323
  H  H74  1  0.672500  0.792500  0.380900  1.0  0.1374
  H  H75  1  0.543100  0.919900  0.379600  1.0  0.1367
  H  H76  1  0.212400  0.460900  0.875500  1.0  0.1117
  H  H77  1  0.112600  0.387500  0.724000  1.0  0.1292
  H  H78  1  0.141200  0.362500  0.035000  1.0  0.1312
  H  H79  1  0.172500  0.292500  0.880900  1.0  0.1374
  H  H80  1  0.043100  0.419900  0.879600  1.0  0.1367
  H  H81  1  0.712400  0.039100  0.624500  1.0  0.1117
  H  H82  1  0.612600  0.112500  0.776000  1.0  0.1301
  H  H83  1  0.641200  0.137500  0.465000  1.0  0.1316
  H  H84  1  0.672500  0.207500  0.619100  1.0  0.1373
  H  H85  1  0.543100  0.080100  0.620400  1.0  0.1371
  H  H86  1  0.212400  0.539100  0.124500  1.0  0.1117
  H  H87  1  0.112600  0.612500  0.276000  1.0  0.1294
  H  H88  1  0.141200  0.637500  0.965000  1.0  0.1305
  H  H89  1  0.172500  0.707500  0.119100  1.0  0.1373
  H  H90  1  0.043100  0.580100  0.120400  1.0  0.1371
  H  H91  1  0.287600  0.460900  0.624500  1.0  0.1117
  H  H92  1  0.387400  0.387500  0.776000  1.0  0.1294
  H  H93  1  0.358800  0.362500  0.465000  1.0  0.1317
  H  H94  1  0.327500  0.292500  0.619100  1.0  0.1374
  H  H95  1  0.456900  0.419900  0.620400  1.0  0.1366
  H  H96  1  0.787600  0.960900  0.124500  1.0  0.1117
  H  H97  1  0.887400  0.887500  0.276000  1.0  0.1292
  H  H98  1  0.858800  0.862500  0.965000  1.0  0.1307
  H  H99  1  0.827500  0.792500  0.119100  1.0  0.1374
  H  H100  1  0.956900  0.919900  0.120400  1.0  0.1366
  C  C101  1  0.663670  0.428360  0.714700  1.0  -0.1222
  C  C102  1  0.621140  0.369510  0.620460  1.0  0.1124
  C  C103  1  0.689210  0.437550  0.623500  1.0  0.0067
  C  C104  1  0.681260  0.413160  0.531690  1.0  -0.1181
  C  C105  1  0.537920  0.346780  0.619420  1.0  0.2112
  C  C106  1  0.598000  0.287540  0.616410  1.0  0.2297
  C  C107  1  0.584200  0.332900  0.618440  1.0  -0.1159
  C  C108  1  0.629890  0.394080  0.712960  1.0  -0.0636
  C  C109  1  0.646890  0.379070  0.529180  1.0  -0.0646
  C  C110  1  0.645880  0.273100  0.618140  1.0  -0.1502
  C  C111  1  0.523430  0.393670  0.620030  1.0  -0.1542
  C  C112  1  0.672190  0.455310  0.817130  1.0  0.7017
  C  C113  1  0.709400  0.423010  0.431970  1.0  0.7177
  C  C114  1  0.163670  0.928360  0.214700  1.0  -0.1222
  C  C115  1  0.121140  0.869510  0.120460  1.0  0.1124
  C  C116  1  0.189210  0.937550  0.123500  1.0  0.0067
  C  C117  1  0.181260  0.913160  0.031690  1.0  -0.1181
  C  C118  1  0.037920  0.846780  0.119420  1.0  0.2112
  C  C119  1  0.098000  0.787540  0.116410  1.0  0.2297
  C  C120  1  0.084200  0.832900  0.118440  1.0  -0.1159
  C  C121  1  0.129890  0.894080  0.212960  1.0  -0.0636
  C  C122  1  0.146890  0.879070  0.029180  1.0  -0.0646
  C  C123  1  0.145880  0.773100  0.118140  1.0  -0.1502
  C  C124  1  0.023430  0.893670  0.120030  1.0  -0.1542
  C  C125  1  0.172190  0.955310  0.317130  1.0  0.7017
  C  C126  1  0.209400  0.923010  0.931970  1.0  0.7177
  C  C127  1  0.336330  0.071640  0.714700  1.0  -0.1218
  C  C128  1  0.378860  0.130490  0.620460  1.0  0.1126
  C  C129  1  0.310790  0.062450  0.623500  1.0  0.0061
  C  C130  1  0.318740  0.086840  0.531690  1.0  -0.1192
  C  C131  1  0.462080  0.153220  0.619420  1.0  0.2117
  C  C132  1  0.402000  0.212460  0.616410  1.0  0.2292
  C  C133  1  0.415800  0.167100  0.618440  1.0  -0.1156
  C  C134  1  0.370110  0.105920  0.712960  1.0  -0.0616
  C  C135  1  0.353110  0.120930  0.529180  1.0  -0.0645
  C  C136  1  0.354120  0.226900  0.618140  1.0  -0.1511
  C  C137  1  0.476570  0.106330  0.620030  1.0  -0.1548
  C  C138  1  0.327810  0.044690  0.817130  1.0  0.7025
  C  C139  1  0.290600  0.076990  0.431970  1.0  0.7205
  C  C140  1  0.836330  0.571640  0.214700  1.0  -0.1218
  C  C141  1  0.878860  0.630490  0.120460  1.0  0.1126
  C  C142  1  0.810790  0.562450  0.123500  1.0  0.0061
  C  C143  1  0.818740  0.586840  0.031690  1.0  -0.1192
  C  C144  1  0.962080  0.653220  0.119420  1.0  0.2117
  C  C145  1  0.902000  0.712460  0.116410  1.0  0.2292
  C  C146  1  0.915800  0.667100  0.118440  1.0  -0.1156
  C  C147  1  0.870110  0.605920  0.212960  1.0  -0.0616
  C  C148  1  0.853110  0.620930  0.029180  1.0  -0.0645
  C  C149  1  0.854120  0.726900  0.118140  1.0  -0.1511
  C  C150  1  0.976570  0.606330  0.120030  1.0  -0.1548
  C  C151  1  0.827810  0.544690  0.317130  1.0  0.7025
  C  C152  1  0.790600  0.576990  0.931970  1.0  0.7205
  C  C153  1  0.336330  0.928360  0.285300  1.0  -0.1207
  C  C154  1  0.378860  0.869510  0.379540  1.0  0.1126
  C  C155  1  0.310790  0.937550  0.376500  1.0  0.0068
  C  C156  1  0.318740  0.913160  0.468310  1.0  -0.119
  C  C157  1  0.462080  0.846780  0.380580  1.0  0.211
  C  C158  1  0.402000  0.787540  0.383590  1.0  0.2302
  C  C159  1  0.415800  0.832900  0.381560  1.0  -0.1164
  C  C160  1  0.370110  0.894080  0.287040  1.0  -0.0609
  C  C161  1  0.353110  0.879070  0.470820  1.0  -0.0653
  C  C162  1  0.354120  0.773100  0.381860  1.0  -0.15
  C  C163  1  0.476570  0.893670  0.379970  1.0  -0.155
  C  C164  1  0.327810  0.955310  0.182870  1.0  0.7009
  C  C165  1  0.290600  0.923010  0.568030  1.0  0.7188
  C  C166  1  0.836330  0.428360  0.785300  1.0  -0.1207
  C  C167  1  0.878860  0.369510  0.879540  1.0  0.1126
  C  C168  1  0.810790  0.437550  0.876500  1.0  0.0068
  C  C169  1  0.818740  0.413160  0.968310  1.0  -0.119
  C  C170  1  0.962080  0.346780  0.880580  1.0  0.211
  C  C171  1  0.902000  0.287540  0.883590  1.0  0.2302
  C  C172  1  0.915800  0.332900  0.881560  1.0  -0.1164
  C  C173  1  0.870110  0.394080  0.787040  1.0  -0.0609
  C  C174  1  0.853110  0.379070  0.970820  1.0  -0.0653
  C  C175  1  0.854120  0.273100  0.881860  1.0  -0.15
  C  C176  1  0.976570  0.393670  0.879970  1.0  -0.155
  C  C177  1  0.827810  0.455310  0.682870  1.0  0.7009
  C  C178  1  0.790600  0.423010  0.068030  1.0  0.7188
  C  C179  1  0.663670  0.571640  0.285300  1.0  -0.1215
  C  C180  1  0.621140  0.630490  0.379540  1.0  0.1123
  C  C181  1  0.689210  0.562450  0.376500  1.0  0.0059
  C  C182  1  0.681260  0.586840  0.468310  1.0  -0.1182
  C  C183  1  0.537920  0.653220  0.380580  1.0  0.211
  C  C184  1  0.598000  0.712460  0.383590  1.0  0.2293
  C  C185  1  0.584200  0.667100  0.381560  1.0  -0.1152
  C  C186  1  0.629890  0.605920  0.287040  1.0  -0.0619
  C  C187  1  0.646890  0.620930  0.470820  1.0  -0.067
  C  C188  1  0.645880  0.726900  0.381860  1.0  -0.1508
  C  C189  1  0.523430  0.606330  0.379970  1.0  -0.1542
  C  C190  1  0.672190  0.544690  0.182870  1.0  0.7007
  C  C191  1  0.709400  0.576990  0.568030  1.0  0.7198
  C  C192  1  0.163670  0.071640  0.785300  1.0  -0.1215
  C  C193  1  0.121140  0.130490  0.879540  1.0  0.1123
  C  C194  1  0.189210  0.062450  0.876500  1.0  0.0059
  C  C195  1  0.181260  0.086840  0.968310  1.0  -0.1182
  C  C196  1  0.037920  0.153220  0.880580  1.0  0.211
  C  C197  1  0.098000  0.212460  0.883590  1.0  0.2293
  C  C198  1  0.084200  0.167100  0.881560  1.0  -0.1152
  C  C199  1  0.129890  0.105920  0.787040  1.0  -0.0619
  C  C200  1  0.146890  0.120930  0.970820  1.0  -0.067
  C  C201  1  0.145880  0.226900  0.881860  1.0  -0.1508
  C  C202  1  0.023430  0.106330  0.879970  1.0  -0.1542
  C  C203  1  0.172190  0.044690  0.682870  1.0  0.7007
  C  C204  1  0.209400  0.076990  0.068030  1.0  0.7198
  C  C205  1  0.336330  0.571640  0.285300  1.0  -0.1212
  C  C206  1  0.378860  0.630490  0.379540  1.0  0.1125
  C  C207  1  0.310790  0.562450  0.376500  1.0  0.0059
  C  C208  1  0.318740  0.586840  0.468310  1.0  -0.1186
  C  C209  1  0.462080  0.653220  0.380580  1.0  0.2099
  C  C210  1  0.402000  0.712460  0.383590  1.0  0.2295
  C  C211  1  0.415800  0.667100  0.381560  1.0  -0.1157
  C  C212  1  0.370110  0.605920  0.287040  1.0  -0.0609
  C  C213  1  0.353110  0.620930  0.470820  1.0  -0.0656
  C  C214  1  0.354120  0.726900  0.381860  1.0  -0.151
  C  C215  1  0.476570  0.606330  0.379970  1.0  -0.1552
  C  C216  1  0.327810  0.544690  0.182870  1.0  0.7008
  C  C217  1  0.290600  0.576990  0.568030  1.0  0.7201
  C  C218  1  0.836330  0.071640  0.785300  1.0  -0.1212
  C  C219  1  0.878860  0.130490  0.879540  1.0  0.1125
  C  C220  1  0.810790  0.062450  0.876500  1.0  0.0059
  C  C221  1  0.818740  0.086840  0.968310  1.0  -0.1186
  C  C222  1  0.962080  0.153220  0.880580  1.0  0.2099
  C  C223  1  0.902000  0.212460  0.883590  1.0  0.2295
  C  C224  1  0.915800  0.167100  0.881560  1.0  -0.1157
  C  C225  1  0.870110  0.105920  0.787040  1.0  -0.0609
  C  C226  1  0.853110  0.120930  0.970820  1.0  -0.0656
  C  C227  1  0.854120  0.226900  0.881860  1.0  -0.151
  C  C228  1  0.976570  0.106330  0.879970  1.0  -0.1552
  C  C229  1  0.827810  0.044690  0.682870  1.0  0.7008
  C  C230  1  0.790600  0.076990  0.068030  1.0  0.7201
  C  C231  1  0.663670  0.928360  0.285300  1.0  -0.1207
  C  C232  1  0.621140  0.869510  0.379540  1.0  0.1124
  C  C233  1  0.689210  0.937550  0.376500  1.0  0.0066
  C  C234  1  0.681260  0.913160  0.468310  1.0  -0.1183
  C  C235  1  0.537920  0.846780  0.380580  1.0  0.2094
  C  C236  1  0.598000  0.787540  0.383590  1.0  0.23
  C  C237  1  0.584200  0.832900  0.381560  1.0  -0.116
  C  C238  1  0.629890  0.894080  0.287040  1.0  -0.0617
  C  C239  1  0.646890  0.879070  0.470820  1.0  -0.0665
  C  C240  1  0.645880  0.773100  0.381860  1.0  -0.1503
  C  C241  1  0.523430  0.893670  0.379970  1.0  -0.1547
  C  C242  1  0.672190  0.955310  0.182870  1.0  0.701
  C  C243  1  0.709400  0.923010  0.568030  1.0  0.7189
  C  C244  1  0.163670  0.428360  0.785300  1.0  -0.1207
  C  C245  1  0.121140  0.369510  0.879540  1.0  0.1124
  C  C246  1  0.189210  0.437550  0.876500  1.0  0.0066
  C  C247  1  0.181260  0.413160  0.968310  1.0  -0.1183
  C  C248  1  0.037920  0.346780  0.880580  1.0  0.2094
  C  C249  1  0.098000  0.287540  0.883590  1.0  0.23
  C  C250  1  0.084200  0.332900  0.881560  1.0  -0.116
  C  C251  1  0.129890  0.394080  0.787040  1.0  -0.0617
  C  C252  1  0.146890  0.379070  0.970820  1.0  -0.0665
  C  C253  1  0.145880  0.273100  0.881860  1.0  -0.1503
  C  C254  1  0.023430  0.393670  0.879970  1.0  -0.1547
  C  C255  1  0.172190  0.455310  0.682870  1.0  0.701
  C  C256  1  0.209400  0.423010  0.068030  1.0  0.7189
  C  C257  1  0.663670  0.071640  0.714700  1.0  -0.1221
  C  C258  1  0.621140  0.130490  0.620460  1.0  0.1124
  C  C259  1  0.689210  0.062450  0.623500  1.0  0.0059
  C  C260  1  0.681260  0.086840  0.531690  1.0  -0.1185
  C  C261  1  0.537920  0.153220  0.619420  1.0  0.21
  C  C262  1  0.598000  0.212460  0.616410  1.0  0.2292
  C  C263  1  0.584200  0.167100  0.618440  1.0  -0.1151
  C  C264  1  0.629890  0.105920  0.712960  1.0  -0.0637
  C  C265  1  0.646890  0.120930  0.529180  1.0  -0.0649
  C  C266  1  0.645880  0.226900  0.618140  1.0  -0.1508
  C  C267  1  0.523430  0.106330  0.620030  1.0  -0.1538
  C  C268  1  0.672190  0.044690  0.817130  1.0  0.7014
  C  C269  1  0.709400  0.076990  0.431970  1.0  0.7189
  C  C270  1  0.163670  0.571640  0.214700  1.0  -0.1221
  C  C271  1  0.121140  0.630490  0.120460  1.0  0.1124
  C  C272  1  0.189210  0.562450  0.123500  1.0  0.0059
  C  C273  1  0.181260  0.586840  0.031690  1.0  -0.1185
  C  C274  1  0.037920  0.653220  0.119420  1.0  0.21
  C  C275  1  0.098000  0.712460  0.116410  1.0  0.2292
  C  C276  1  0.084200  0.667100  0.118440  1.0  -0.1151
  C  C277  1  0.129890  0.605920  0.212960  1.0  -0.0637
  C  C278  1  0.146890  0.620930  0.029180  1.0  -0.0649
  C  C279  1  0.145880  0.726900  0.118140  1.0  -0.1508
  C  C280  1  0.023430  0.606330  0.120030  1.0  -0.1538
  C  C281  1  0.172190  0.544690  0.317130  1.0  0.7014
  C  C282  1  0.209400  0.576990  0.931970  1.0  0.7189
  C  C283  1  0.336330  0.428360  0.714700  1.0  -0.1219
  C  C284  1  0.378860  0.369510  0.620460  1.0  0.1127
  C  C285  1  0.310790  0.437550  0.623500  1.0  0.007
  C  C286  1  0.318740  0.413160  0.531690  1.0  -0.1191
  C  C287  1  0.462080  0.346780  0.619420  1.0  0.21
  C  C288  1  0.402000  0.287540  0.616410  1.0  0.2302
  C  C289  1  0.415800  0.332900  0.618440  1.0  -0.1162
  C  C290  1  0.370110  0.394080  0.712960  1.0  -0.0615
  C  C291  1  0.353110  0.379070  0.529180  1.0  -0.0643
  C  C292  1  0.354120  0.273100  0.618140  1.0  -0.15
  C  C293  1  0.476570  0.393670  0.620030  1.0  -0.1548
  C  C294  1  0.327810  0.455310  0.817130  1.0  0.7024
  C  C295  1  0.290600  0.423010  0.431970  1.0  0.7189
  C  C296  1  0.836330  0.928360  0.214700  1.0  -0.1219
  C  C297  1  0.878860  0.869510  0.120460  1.0  0.1127
  C  C298  1  0.810790  0.937550  0.123500  1.0  0.007
  C  C299  1  0.818740  0.913160  0.031690  1.0  -0.1191
  C  C300  1  0.962080  0.846780  0.119420  1.0  0.21
  C  C301  1  0.902000  0.787540  0.116410  1.0  0.2302
  C  C302  1  0.915800  0.832900  0.118440  1.0  -0.1162
  C  C303  1  0.870110  0.894080  0.212960  1.0  -0.0615
  C  C304  1  0.853110  0.879070  0.029180  1.0  -0.0643
  C  C305  1  0.854120  0.773100  0.118140  1.0  -0.15
  C  C306  1  0.976570  0.893670  0.120030  1.0  -0.1548
  C  C307  1  0.827810  0.955310  0.317130  1.0  0.7024
  C  C308  1  0.790600  0.923010  0.931970  1.0  0.7189
  N  N309  1  0.500000  0.317950  0.620020  1.0  -0.3928
  N  N310  1  0.000000  0.817950  0.120020  1.0  -0.3919
  N  N311  1  0.500000  0.182050  0.620020  1.0  -0.3915
  N  N312  1  0.000000  0.682050  0.120020  1.0  -0.3909
  N  N313  1  0.500000  0.817950  0.379980  1.0  -0.3929
  N  N314  1  0.000000  0.317950  0.879980  1.0  -0.3921
  N  N315  1  0.500000  0.682050  0.379980  1.0  -0.3916
  N  N316  1  0.000000  0.182050  0.879980  1.0  -0.391
  N  N317  1  0.568910  0.250000  0.615720  1.0  -0.3657
  N  N318  1  0.068910  0.750000  0.115720  1.0  -0.3657
  N  N319  1  0.431090  0.250000  0.615720  1.0  -0.3672
  N  N320  1  0.931090  0.750000  0.115720  1.0  -0.3672
  N  N321  1  0.431090  0.750000  0.384280  1.0  -0.3673
  N  N322  1  0.931090  0.250000  0.884280  1.0  -0.3673
  N  N323  1  0.568910  0.750000  0.384280  1.0  -0.3657
  N  N324  1  0.068910  0.250000  0.884280  1.0  -0.3657
  O  O325  1  0.696170  0.490700  0.810620  1.0  -0.6716
  O  O326  1  0.745030  0.447080  0.441290  1.0  -0.7213
  O  O327  1  0.654720  0.441460  0.901300  1.0  -0.5822
  O  O328  1  0.696510  0.406370  0.345150  1.0  -0.6408
  O  O329  1  0.196170  0.990700  0.310620  1.0  -0.6716
  O  O330  1  0.245030  0.947080  0.941290  1.0  -0.7213
  O  O331  1  0.154720  0.941460  0.401300  1.0  -0.5822
  O  O332  1  0.196510  0.906370  0.845150  1.0  -0.6408
  O  O333  1  0.303830  0.009300  0.810620  1.0  -0.6699
  O  O334  1  0.254970  0.052920  0.441290  1.0  -0.7223
  O  O335  1  0.345280  0.058540  0.901300  1.0  -0.5862
  O  O336  1  0.303490  0.093630  0.345150  1.0  -0.642
  O  O337  1  0.803830  0.509300  0.310620  1.0  -0.6699
  O  O338  1  0.754970  0.552920  0.941290  1.0  -0.7223
  O  O339  1  0.845280  0.558540  0.401300  1.0  -0.5862
  O  O340  1  0.803490  0.593630  0.845150  1.0  -0.642
  O  O341  1  0.303830  0.990700  0.189380  1.0  -0.6701
  O  O342  1  0.254970  0.947080  0.558710  1.0  -0.7213
  O  O343  1  0.345280  0.941460  0.098700  1.0  -0.5849
  O  O344  1  0.303490  0.906370  0.654850  1.0  -0.6417
  O  O345  1  0.803830  0.490700  0.689380  1.0  -0.6701
  O  O346  1  0.754970  0.447080  0.058710  1.0  -0.7213
  O  O347  1  0.845280  0.441460  0.598700  1.0  -0.5849
  O  O348  1  0.803490  0.406370  0.154850  1.0  -0.6417
  O  O349  1  0.696170  0.509300  0.189380  1.0  -0.6707
  O  O350  1  0.745030  0.552920  0.558710  1.0  -0.7215
  O  O351  1  0.654720  0.558540  0.098700  1.0  -0.5834
  O  O352  1  0.696510  0.593630  0.654850  1.0  -0.6407
  O  O353  1  0.196170  0.009300  0.689380  1.0  -0.6707
  O  O354  1  0.245030  0.052920  0.058710  1.0  -0.7215
  O  O355  1  0.154720  0.058540  0.598700  1.0  -0.5834
  O  O356  1  0.196510  0.093630  0.154850  1.0  -0.6407
  O  O357  1  0.303830  0.509300  0.189380  1.0  -0.6703
  O  O358  1  0.254970  0.552920  0.558710  1.0  -0.7225
  O  O359  1  0.345280  0.558540  0.098700  1.0  -0.5851
  O  O360  1  0.303490  0.593630  0.654850  1.0  -0.6394
  O  O361  1  0.803830  0.009300  0.689380  1.0  -0.6703
  O  O362  1  0.754970  0.052920  0.058710  1.0  -0.7225
  O  O363  1  0.845280  0.058540  0.598700  1.0  -0.5851
  O  O364  1  0.803490  0.093630  0.154850  1.0  -0.6394
  O  O365  1  0.696170  0.990700  0.189380  1.0  -0.672
  O  O366  1  0.745030  0.947080  0.558710  1.0  -0.7212
  O  O367  1  0.654720  0.941460  0.098700  1.0  -0.5833
  O  O368  1  0.696510  0.906370  0.654850  1.0  -0.643
  O  O369  1  0.196170  0.490700  0.689380  1.0  -0.672
  O  O370  1  0.245030  0.447080  0.058710  1.0  -0.7212
  O  O371  1  0.154720  0.441460  0.598700  1.0  -0.5833
  O  O372  1  0.196510  0.406370  0.154850  1.0  -0.643
  O  O373  1  0.696170  0.009300  0.810620  1.0  -0.6704
  O  O374  1  0.745030  0.052920  0.441290  1.0  -0.7212
  O  O375  1  0.654720  0.058540  0.901300  1.0  -0.5825
  O  O376  1  0.696510  0.093630  0.345150  1.0  -0.6417
  O  O377  1  0.196170  0.509300  0.310620  1.0  -0.6704
  O  O378  1  0.245030  0.552920  0.941290  1.0  -0.7212
  O  O379  1  0.154720  0.558540  0.401300  1.0  -0.5825
  O  O380  1  0.196510  0.593630  0.845150  1.0  -0.6417
  O  O381  1  0.303830  0.490700  0.810620  1.0  -0.6698
  O  O382  1  0.254970  0.447080  0.441290  1.0  -0.7212
  O  O383  1  0.345280  0.441460  0.901300  1.0  -0.5865
  O  O384  1  0.303490  0.406370  0.345150  1.0  -0.6411
  O  O385  1  0.803830  0.990700  0.310620  1.0  -0.6698
  O  O386  1  0.754970  0.947080  0.941290  1.0  -0.7212
  O  O387  1  0.845280  0.941460  0.401300  1.0  -0.5865
  O  O388  1  0.803490  0.906370  0.845150  1.0  -0.6411
