# generated using pymatgen
data_Zn5H14C26(NO)12
_symmetry_space_group_name_H-M   'P 1'
_cell_length_a   12.83770000
_cell_length_b   12.83770000
_cell_length_c   19.04570000
_cell_angle_alpha   83.77660000
_cell_angle_beta   83.77660000
_cell_angle_gamma   68.74460000
_symmetry_Int_Tables_number   1
_chemical_formula_structural   Zn5H14C26(NO)12
_chemical_formula_sum   'Zn10 H28 C52 N24 O24'
_cell_volume   2899.99060318
_cell_formula_units_Z   2
loop_
 _symmetry_equiv_pos_site_id
 _symmetry_equiv_pos_as_xyz
  1  'x, y, z'
loop_
 _atom_site_type_symbol
 _atom_site_label
 _atom_site_symmetry_multiplicity
 _atom_site_fract_x
 _atom_site_fract_y
 _atom_site_fract_z
 _atom_site_occupancy
 _atom_site_charge
  Zn  Zn1  1  0.723820  0.935700  0.774430  1.0  0.8653
  Zn  Zn2  1  0.107910  0.712950  0.560220  1.0  0.9712
  Zn  Zn3  1  0.064300  0.276180  0.725570  1.0  0.8647
  Zn  Zn4  1  0.287050  0.892090  0.939780  1.0  0.9726
  Zn  Zn5  1  0.276180  0.064300  0.225570  1.0  0.8639
  Zn  Zn6  1  0.892090  0.287050  0.439780  1.0  0.972
  Zn  Zn7  1  0.935700  0.723820  0.274430  1.0  0.8661
  Zn  Zn8  1  0.712950  0.107910  0.060220  1.0  0.9715
  Zn  Zn9  1  0.893080  0.106920  0.750000  1.0  0.768
  Zn  Zn10  1  0.106920  0.893080  0.250000  1.0  0.7682
  H  H11  1  0.648300  0.320300  0.623000  1.0  0.0955
  H  H12  1  0.513000  0.467200  0.567000  1.0  0.1097
  H  H13  1  0.413400  0.199000  0.710800  1.0  0.1026
  H  H14  1  0.855400  0.147800  0.917400  1.0  0.0848
  H  H15  1  0.670100  0.964100  0.945300  1.0  0.0948
  H  H16  1  0.077800  0.927400  0.644200  1.0  0.088
  H  H17  1  0.880500  0.756500  0.662400  1.0  0.1024
  H  H18  1  0.679700  0.351700  0.877000  1.0  0.0965
  H  H19  1  0.532800  0.487000  0.933000  1.0  0.1101
  H  H20  1  0.801000  0.586600  0.789200  1.0  0.1031
  H  H21  1  0.852200  0.144600  0.582600  1.0  0.0837
  H  H22  1  0.035900  0.329900  0.554700  1.0  0.0953
  H  H23  1  0.072600  0.922200  0.855800  1.0  0.0894
  H  H24  1  0.243500  0.119500  0.837600  1.0  0.1026
  H  H25  1  0.351700  0.679700  0.377000  1.0  0.0958
  H  H26  1  0.487000  0.532800  0.433000  1.0  0.11
  H  H27  1  0.586600  0.801000  0.289200  1.0  0.103
  H  H28  1  0.144600  0.852200  0.082600  1.0  0.0832
  H  H29  1  0.329900  0.035900  0.054700  1.0  0.0955
  H  H30  1  0.922200  0.072600  0.355800  1.0  0.0874
  H  H31  1  0.119500  0.243500  0.337600  1.0  0.1037
  H  H32  1  0.320300  0.648300  0.123000  1.0  0.0963
  H  H33  1  0.467200  0.513000  0.067000  1.0  0.1101
  H  H34  1  0.199000  0.413400  0.210800  1.0  0.103
  H  H35  1  0.147800  0.855400  0.417400  1.0  0.0848
  H  H36  1  0.964100  0.670100  0.445300  1.0  0.0941
  H  H37  1  0.927400  0.077800  0.144200  1.0  0.0897
  H  H38  1  0.756500  0.880500  0.162400  1.0  0.1027
  C  C39  1  0.634180  0.145120  0.705300  1.0  0.6978
  C  C40  1  0.545020  0.243060  0.671600  1.0  -0.1798
  C  C41  1  0.573880  0.325080  0.629010  1.0  -0.0364
  C  C42  1  0.492750  0.413150  0.595720  1.0  -0.1024
  C  C43  1  0.380720  0.422060  0.604560  1.0  -0.0068
  C  C44  1  0.350440  0.342460  0.649020  1.0  -0.1404
  C  C45  1  0.433290  0.252870  0.681760  1.0  0.0075
  C  C46  1  0.295510  0.520930  0.567580  1.0  0.6874
  C  C47  1  0.231470  0.346410  0.660020  1.0  0.6922
  C  C48  1  0.817780  0.101020  0.909370  1.0  0.2664
  C  C49  1  0.717300  0.001160  0.924680  1.0  0.2929
  C  C50  1  0.018160  0.903160  0.658150  1.0  0.2473
  C  C51  1  0.911130  0.810290  0.667880  1.0  0.2843
  C  C52  1  0.854880  0.365820  0.794700  1.0  0.6954
  C  C53  1  0.756940  0.454980  0.828400  1.0  -0.1795
  C  C54  1  0.674920  0.426120  0.870990  1.0  -0.0367
  C  C55  1  0.586850  0.507250  0.904280  1.0  -0.1035
  C  C56  1  0.577940  0.619280  0.895440  1.0  -0.0072
  C  C57  1  0.657540  0.649560  0.850980  1.0  -0.14
  C  C58  1  0.747130  0.566710  0.818240  1.0  0.0069
  C  C59  1  0.479070  0.704490  0.932420  1.0  0.6878
  C  C60  1  0.653590  0.768530  0.839980  1.0  0.6932
  C  C61  1  0.898980  0.182220  0.590630  1.0  0.2657
  C  C62  1  0.998840  0.282700  0.575320  1.0  0.2938
  C  C63  1  0.096840  0.981840  0.841850  1.0  0.2464
  C  C64  1  0.189710  0.088870  0.832120  1.0  0.2828
  C  C65  1  0.365820  0.854880  0.294700  1.0  0.6969
  C  C66  1  0.454980  0.756940  0.328400  1.0  -0.1798
  C  C67  1  0.426120  0.674920  0.370990  1.0  -0.0379
  C  C68  1  0.507250  0.586850  0.404280  1.0  -0.1025
  C  C69  1  0.619280  0.577940  0.395440  1.0  -0.0077
  C  C70  1  0.649560  0.657540  0.350980  1.0  -0.1406
  C  C71  1  0.566710  0.747130  0.318240  1.0  0.008
  C  C72  1  0.704490  0.479070  0.432420  1.0  0.6879
  C  C73  1  0.768530  0.653590  0.339980  1.0  0.6931
  C  C74  1  0.182220  0.898980  0.090630  1.0  0.2664
  C  C75  1  0.282700  0.998840  0.075320  1.0  0.2937
  C  C76  1  0.981840  0.096840  0.341850  1.0  0.2481
  C  C77  1  0.088870  0.189710  0.332120  1.0  0.284
  C  C78  1  0.145120  0.634180  0.205300  1.0  0.6963
  C  C79  1  0.243060  0.545020  0.171600  1.0  -0.1791
  C  C80  1  0.325080  0.573880  0.129010  1.0  -0.0359
  C  C81  1  0.413150  0.492750  0.095720  1.0  -0.1038
  C  C82  1  0.422060  0.380720  0.104560  1.0  -0.0079
  C  C83  1  0.342460  0.350440  0.149020  1.0  -0.1399
  C  C84  1  0.252870  0.433290  0.181760  1.0  0.0071
  C  C85  1  0.520930  0.295510  0.067580  1.0  0.6876
  C  C86  1  0.346410  0.231470  0.160020  1.0  0.6941
  C  C87  1  0.101020  0.817780  0.409370  1.0  0.2656
  C  C88  1  0.001160  0.717300  0.424680  1.0  0.2938
  C  C89  1  0.903160  0.018160  0.158150  1.0  0.2474
  C  C90  1  0.810290  0.911130  0.167880  1.0  0.2836
  N  N91  1  0.820580  0.063520  0.847240  1.0  -0.2172
  N  N92  1  0.755230  0.997870  0.857750  1.0  -0.2568
  N  N93  1  0.754650  0.064490  0.959990  1.0  -0.5139
  N  N94  1  0.935790  0.952130  0.704700  1.0  -0.239
  N  N95  1  0.865860  0.891720  0.710850  1.0  -0.2465
  N  N96  1  0.006760  0.814020  0.632870  1.0  -0.4914
  N  N97  1  0.936480  0.179420  0.652760  1.0  -0.2182
  N  N98  1  0.002130  0.244770  0.642250  1.0  -0.2565
  N  N99  1  0.935510  0.245350  0.540010  1.0  -0.5134
  N  N100  1  0.047870  0.064210  0.795300  1.0  -0.2384
  N  N101  1  0.108280  0.134140  0.789150  1.0  -0.2468
  N  N102  1  0.185980  0.993240  0.867130  1.0  -0.4913
  N  N103  1  0.179420  0.936480  0.152760  1.0  -0.2175
  N  N104  1  0.244770  0.002130  0.142250  1.0  -0.2577
  N  N105  1  0.245350  0.935510  0.040010  1.0  -0.5135
  N  N106  1  0.064210  0.047870  0.295300  1.0  -0.2389
  N  N107  1  0.134140  0.108280  0.289150  1.0  -0.2463
  N  N108  1  0.993240  0.185980  0.367130  1.0  -0.4926
  N  N109  1  0.063520  0.820580  0.347240  1.0  -0.2203
  N  N110  1  0.997870  0.755230  0.357750  1.0  -0.2543
  N  N111  1  0.064490  0.754650  0.459990  1.0  -0.5141
  N  N112  1  0.952130  0.935790  0.204700  1.0  -0.2364
  N  N113  1  0.891720  0.865860  0.210850  1.0  -0.2441
  N  N114  1  0.814020  0.006760  0.132870  1.0  -0.4924
  O  O115  1  0.727400  0.151540  0.708860  1.0  -0.6189
  O  O116  1  0.606990  0.059970  0.727720  1.0  -0.6016
  O  O117  1  0.232860  0.596140  0.606410  1.0  -0.6297
  O  O118  1  0.293290  0.525130  0.502790  1.0  -0.574
  O  O119  1  0.165610  0.392670  0.614200  1.0  -0.5994
  O  O120  1  0.207210  0.296650  0.717220  1.0  -0.6237
  O  O121  1  0.848460  0.272600  0.791140  1.0  -0.6166
  O  O122  1  0.940030  0.393010  0.772280  1.0  -0.6028
  O  O123  1  0.403860  0.767140  0.893590  1.0  -0.6307
  O  O124  1  0.474870  0.706710  0.997210  1.0  -0.5743
  O  O125  1  0.607330  0.834390  0.885800  1.0  -0.5943
  O  O126  1  0.703350  0.792790  0.782780  1.0  -0.6233
  O  O127  1  0.272600  0.848460  0.291140  1.0  -0.6176
  O  O128  1  0.393010  0.940030  0.272280  1.0  -0.6018
  O  O129  1  0.767140  0.403860  0.393590  1.0  -0.6307
  O  O130  1  0.706710  0.474870  0.497210  1.0  -0.5743
  O  O131  1  0.834390  0.607330  0.385800  1.0  -0.5949
  O  O132  1  0.792790  0.703350  0.282780  1.0  -0.622
  O  O133  1  0.151540  0.727400  0.208860  1.0  -0.6175
  O  O134  1  0.059970  0.606990  0.227720  1.0  -0.6036
  O  O135  1  0.596140  0.232860  0.106410  1.0  -0.6308
  O  O136  1  0.525130  0.293290  0.002790  1.0  -0.5737
  O  O137  1  0.392670  0.165610  0.114200  1.0  -0.599
  O  O138  1  0.296650  0.207210  0.217220  1.0  -0.6222
