# generated using pymatgen
data_Zn4H15C26(N5O6)2
_symmetry_space_group_name_H-M   'P 1'
_cell_length_a   14.88580000
_cell_length_b   23.05500000
_cell_length_c   17.78340000
_cell_angle_alpha   90.00000000
_cell_angle_beta   108.90500000
_cell_angle_gamma   90.00000000
_symmetry_Int_Tables_number   1
_chemical_formula_structural   Zn4H15C26(N5O6)2
_chemical_formula_sum   'Zn16 H60 C104 N40 O48'
_cell_volume   5773.90251733
_cell_formula_units_Z   4
loop_
 _symmetry_equiv_pos_site_id
 _symmetry_equiv_pos_as_xyz
  1  'x, y, z'
loop_
 _atom_site_type_symbol
 _atom_site_label
 _atom_site_symmetry_multiplicity
 _atom_site_fract_x
 _atom_site_fract_y
 _atom_site_fract_z
 _atom_site_occupancy
 _atom_site_charge
  Zn  Zn1  1  0.554870  0.820180  0.847230  1.0  0.9431
  Zn  Zn2  1  0.810500  0.799390  0.192520  1.0  0.9881
  Zn  Zn3  1  0.633020  0.602350  0.688190  1.0  0.9351
  Zn  Zn4  1  0.001450  0.962770  0.700980  1.0  0.986
  Zn  Zn5  1  0.445130  0.320180  0.652770  1.0  0.9434
  Zn  Zn6  1  0.189500  0.299390  0.307480  1.0  0.9893
  Zn  Zn7  1  0.366980  0.102350  0.811810  1.0  0.9385
  Zn  Zn8  1  0.998550  0.462770  0.799020  1.0  0.9872
  Zn  Zn9  1  0.445130  0.179820  0.152770  1.0  0.9434
  Zn  Zn10  1  0.189500  0.200610  0.807480  1.0  0.9891
  Zn  Zn11  1  0.366980  0.397650  0.311810  1.0  0.9393
  Zn  Zn12  1  0.998550  0.037230  0.299020  1.0  0.9875
  Zn  Zn13  1  0.554870  0.679820  0.347230  1.0  0.9431
  Zn  Zn14  1  0.810500  0.700610  0.692520  1.0  0.9882
  Zn  Zn15  1  0.633020  0.897650  0.188190  1.0  0.9361
  Zn  Zn16  1  0.001450  0.537230  0.200980  1.0  0.9863
  H  H17  1  0.625800  0.119200  0.757700  1.0  0.1104
  H  H18  1  0.763100  0.100900  0.729200  1.0  0.095
  H  H19  1  0.747500  0.933300  0.783900  1.0  0.1143
  H  H20  1  0.542300  0.682900  0.798500  1.0  0.0845
  H  H21  1  0.776200  0.013500  0.243900  1.0  0.0914
  H  H22  1  0.975400  0.900000  0.267900  1.0  0.0895
  H  H23  1  0.239900  0.843400  0.764400  1.0  0.109
  H  H24  1  0.734500  0.795700  0.796000  1.0  0.0915
  H  H25  1  0.723400  0.776300  0.998900  1.0  0.0863
  H  H26  1  0.532000  0.891200  0.993200  1.0  0.0805
  H  H27  1  0.127800  0.665100  0.813200  1.0  0.1069
  H  H28  1  0.289300  0.682300  0.853200  1.0  0.1076
  H  H29  1  0.769200  0.969100  0.473800  1.0  0.1548
  H  H30  1  0.773100  0.901200  0.471500  1.0  0.1457
  H  H31  1  0.854000  0.938100  0.456300  1.0  0.1437
  H  H32  1  0.374200  0.619200  0.742300  1.0  0.1105
  H  H33  1  0.236900  0.600900  0.770800  1.0  0.0953
  H  H34  1  0.252500  0.433300  0.716100  1.0  0.1143
  H  H35  1  0.457700  0.182900  0.701500  1.0  0.0841
  H  H36  1  0.223800  0.513500  0.256100  1.0  0.0918
  H  H37  1  0.024600  0.400000  0.232100  1.0  0.0887
  H  H38  1  0.760100  0.343400  0.735600  1.0  0.109
  H  H39  1  0.265500  0.295700  0.704000  1.0  0.0912
  H  H40  1  0.276600  0.276300  0.501100  1.0  0.086
  H  H41  1  0.468000  0.391200  0.506800  1.0  0.0802
  H  H42  1  0.872200  0.165100  0.686800  1.0  0.1072
  H  H43  1  0.710700  0.182300  0.646800  1.0  0.1064
  H  H44  1  0.230800  0.469100  0.026200  1.0  0.1558
  H  H45  1  0.226900  0.401200  0.028500  1.0  0.1476
  H  H46  1  0.146000  0.438100  0.043700  1.0  0.1444
  H  H47  1  0.374200  0.880800  0.242300  1.0  0.1108
  H  H48  1  0.236900  0.899100  0.270800  1.0  0.0956
  H  H49  1  0.252500  0.066700  0.216100  1.0  0.1142
  H  H50  1  0.457700  0.317100  0.201500  1.0  0.0841
  H  H51  1  0.223800  0.986500  0.756100  1.0  0.0913
  H  H52  1  0.024600  0.100000  0.732100  1.0  0.0885
  H  H53  1  0.760100  0.156600  0.235600  1.0  0.1089
  H  H54  1  0.265500  0.204300  0.204000  1.0  0.0909
  H  H55  1  0.276600  0.223700  0.001100  1.0  0.0864
  H  H56  1  0.468000  0.108800  0.006800  1.0  0.0802
  H  H57  1  0.872200  0.334900  0.186800  1.0  0.107
  H  H58  1  0.710700  0.317700  0.146800  1.0  0.1068
  H  H59  1  0.230800  0.030900  0.526200  1.0  0.1575
  H  H60  1  0.226900  0.098800  0.528500  1.0  0.148
  H  H61  1  0.146000  0.061900  0.543700  1.0  0.1443
  H  H62  1  0.625800  0.380800  0.257700  1.0  0.1101
  H  H63  1  0.763100  0.399100  0.229200  1.0  0.0951
  H  H64  1  0.747500  0.566700  0.283900  1.0  0.1135
  H  H65  1  0.542300  0.817100  0.298500  1.0  0.0842
  H  H66  1  0.776200  0.486500  0.743900  1.0  0.0907
  H  H67  1  0.975400  0.600000  0.767900  1.0  0.0892
  H  H68  1  0.239900  0.656600  0.264400  1.0  0.1087
  H  H69  1  0.734500  0.704300  0.296000  1.0  0.0912
  H  H70  1  0.723400  0.723700  0.498900  1.0  0.0867
  H  H71  1  0.532000  0.608800  0.493200  1.0  0.0807
  H  H72  1  0.127800  0.834900  0.313200  1.0  0.1066
  H  H73  1  0.289300  0.817700  0.353200  1.0  0.1072
  H  H74  1  0.769200  0.530900  0.973800  1.0  0.1555
  H  H75  1  0.773100  0.598800  0.971500  1.0  0.1468
  H  H76  1  0.854000  0.561900  0.956300  1.0  0.1436
  C  C77  1  0.649800  0.081600  0.762200  1.0  -0.1114
  C  C78  1  0.857100  0.005400  0.731900  1.0  0.7024
  C  C79  1  0.770300  0.015100  0.754900  1.0  -0.1678
  C  C80  1  0.732400  0.070900  0.746000  1.0  -0.09
  C  C81  1  0.722400  0.970600  0.777900  1.0  0.0147
  C  C82  1  0.601400  0.036900  0.785200  1.0  -0.0081
  C  C83  1  0.637800  0.981000  0.792100  1.0  -0.1189
  C  C84  1  0.594300  0.700600  0.790000  1.0  0.2501
  C  C85  1  0.807900  0.978600  0.244400  1.0  0.2392
  C  C86  1  0.915800  0.917000  0.257100  1.0  0.2583
  C  C87  1  0.120700  0.798400  0.754100  1.0  -0.1158
  C  C88  1  0.217700  0.807500  0.774400  1.0  0.0076
  C  C89  1  0.698800  0.761900  0.788800  1.0  0.242
  C  C90  1  0.688400  0.804700  0.014000  1.0  0.2561
  C  C91  1  0.053100  0.847700  0.720600  1.0  0.7171
  C  C92  1  0.584500  0.866900  0.010900  1.0  0.2297
  C  C93  1  0.587000  0.931800  0.816200  1.0  0.6847
  C  C94  1  0.150300  0.701000  0.803600  1.0  -0.1743
  C  C95  1  0.281700  0.764400  0.809200  1.0  -0.1357
  C  C96  1  0.086700  0.744200  0.766500  1.0  -0.0147
  C  C97  1  0.247100  0.711000  0.826400  1.0  -0.0978
  C  C98  1  0.983400  0.729200  0.742900  1.0  0.6707
  C  C99  1  0.386500  0.772000  0.830300  1.0  0.7016
  C  C100  1  0.509600  0.052500  0.796300  1.0  0.6572
  C  C101  1  0.810300  0.936000  0.485800  1.0  -0.4151
  C  C102  1  0.856900  0.935100  0.560500  1.0  0.3326
  C  C103  1  0.350200  0.581600  0.737800  1.0  -0.1118
  C  C104  1  0.142900  0.505400  0.768100  1.0  0.7019
  C  C105  1  0.229700  0.515100  0.745100  1.0  -0.1684
  C  C106  1  0.267600  0.570900  0.754000  1.0  -0.0901
  C  C107  1  0.277600  0.470600  0.722100  1.0  0.0142
  C  C108  1  0.398600  0.536900  0.714800  1.0  -0.0081
  C  C109  1  0.362200  0.481000  0.707900  1.0  -0.1195
  C  C110  1  0.405700  0.200600  0.710000  1.0  0.2501
  C  C111  1  0.192100  0.478600  0.255600  1.0  0.2398
  C  C112  1  0.084200  0.417000  0.242900  1.0  0.2592
  C  C113  1  0.879300  0.298400  0.745900  1.0  -0.1157
  C  C114  1  0.782300  0.307500  0.725600  1.0  0.0078
  C  C115  1  0.301200  0.261900  0.711200  1.0  0.2421
  C  C116  1  0.311600  0.304700  0.486000  1.0  0.2569
  C  C117  1  0.946900  0.347700  0.779400  1.0  0.7178
  C  C118  1  0.415500  0.366900  0.489100  1.0  0.2303
  C  C119  1  0.413000  0.431800  0.683800  1.0  0.6836
  C  C120  1  0.849700  0.201000  0.696400  1.0  -0.1717
  C  C121  1  0.718300  0.264400  0.690800  1.0  -0.136
  C  C122  1  0.913300  0.244200  0.733500  1.0  -0.0142
  C  C123  1  0.752900  0.211000  0.673600  1.0  -0.0973
  C  C124  1  0.016600  0.229200  0.757100  1.0  0.6698
  C  C125  1  0.613500  0.272000  0.669700  1.0  0.7024
  C  C126  1  0.490400  0.552500  0.703700  1.0  0.6589
  C  C127  1  0.189700  0.436000  0.014200  1.0  -0.4128
  C  C128  1  0.143100  0.435100  0.939500  1.0  0.3304
  C  C129  1  0.350200  0.918400  0.237800  1.0  -0.1119
  C  C130  1  0.142900  0.994600  0.268100  1.0  0.7013
  C  C131  1  0.229700  0.984900  0.245100  1.0  -0.1677
  C  C132  1  0.267600  0.929100  0.254000  1.0  -0.09
  C  C133  1  0.277600  0.029400  0.222100  1.0  0.0139
  C  C134  1  0.398600  0.963100  0.214800  1.0  -0.0081
  C  C135  1  0.362200  0.019000  0.207900  1.0  -0.1191
  C  C136  1  0.405700  0.299400  0.210000  1.0  0.25
  C  C137  1  0.192100  0.021400  0.755600  1.0  0.2396
  C  C138  1  0.084200  0.083000  0.742900  1.0  0.2592
  C  C139  1  0.879300  0.201600  0.245900  1.0  -0.1153
  C  C140  1  0.782300  0.192500  0.225600  1.0  0.0083
  C  C141  1  0.301200  0.238100  0.211200  1.0  0.2424
  C  C142  1  0.311600  0.195300  0.986000  1.0  0.2565
  C  C143  1  0.946900  0.152300  0.279400  1.0  0.7182
  C  C144  1  0.415500  0.133100  0.989100  1.0  0.2304
  C  C145  1  0.413000  0.068200  0.183800  1.0  0.684
  C  C146  1  0.849700  0.299000  0.196400  1.0  -0.1733
  C  C147  1  0.718300  0.235600  0.190800  1.0  -0.137
  C  C148  1  0.913300  0.255800  0.233500  1.0  -0.0144
  C  C149  1  0.752900  0.289000  0.173600  1.0  -0.097
  C  C150  1  0.016600  0.270800  0.257100  1.0  0.6698
  C  C151  1  0.613500  0.228000  0.169700  1.0  0.7023
  C  C152  1  0.490400  0.947500  0.203700  1.0  0.6582
  C  C153  1  0.189700  0.064000  0.514200  1.0  -0.4125
  C  C154  1  0.143100  0.064900  0.439500  1.0  0.33
  C  C155  1  0.649800  0.418400  0.262200  1.0  -0.1123
  C  C156  1  0.857100  0.494600  0.231900  1.0  0.7021
  C  C157  1  0.770300  0.484900  0.254900  1.0  -0.1678
  C  C158  1  0.732400  0.429100  0.246000  1.0  -0.0895
  C  C159  1  0.722400  0.529400  0.277900  1.0  0.0137
  C  C160  1  0.601400  0.463100  0.285200  1.0  -0.008
  C  C161  1  0.637800  0.519000  0.292100  1.0  -0.1181
  C  C162  1  0.594300  0.799400  0.290000  1.0  0.2497
  C  C163  1  0.807900  0.521400  0.744400  1.0  0.2397
  C  C164  1  0.915800  0.583000  0.757100  1.0  0.259
  C  C165  1  0.120700  0.701600  0.254100  1.0  -0.1158
  C  C166  1  0.217700  0.692500  0.274400  1.0  0.0084
  C  C167  1  0.698800  0.738100  0.288800  1.0  0.2416
  C  C168  1  0.688400  0.695300  0.514000  1.0  0.2561
  C  C169  1  0.053100  0.652300  0.220600  1.0  0.7177
  C  C170  1  0.584500  0.633100  0.510900  1.0  0.23
  C  C171  1  0.587000  0.568200  0.316200  1.0  0.6848
  C  C172  1  0.150300  0.799000  0.303600  1.0  -0.1738
  C  C173  1  0.281700  0.735600  0.309200  1.0  -0.1357
  C  C174  1  0.086700  0.755800  0.266500  1.0  -0.0147
  C  C175  1  0.247100  0.789000  0.326400  1.0  -0.099
  C  C176  1  0.983400  0.770800  0.242900  1.0  0.6708
  C  C177  1  0.386500  0.728000  0.330300  1.0  0.7017
  C  C178  1  0.509600  0.447500  0.296300  1.0  0.6563
  C  C179  1  0.810300  0.564000  0.985800  1.0  -0.4148
  C  C180  1  0.856900  0.564900  0.060500  1.0  0.3325
  N  N181  1  0.836000  0.887880  0.232100  1.0  -0.3333
  N  N182  1  0.708600  0.824100  0.087200  1.0  -0.2509
  N  N183  1  0.647900  0.675030  0.754500  1.0  -0.2562
  N  N184  1  0.765600  0.929240  0.225200  1.0  -0.2395
  N  N185  1  0.622100  0.754940  0.812700  1.0  -0.4164
  N  N186  1  0.611500  0.830820  0.963400  1.0  -0.4226
  N  N187  1  0.717000  0.714960  0.754200  1.0  -0.2461
  N  N188  1  0.639600  0.864490  0.084400  1.0  -0.2271
  N  N189  1  0.902500  0.974040  0.265200  1.0  -0.4576
  N  N190  1  0.939400  0.958100  0.586200  1.0  -0.3655
  N  N191  1  0.164000  0.387880  0.267900  1.0  -0.3332
  N  N192  1  0.291400  0.324100  0.412800  1.0  -0.2514
  N  N193  1  0.352100  0.175030  0.745500  1.0  -0.2569
  N  N194  1  0.234400  0.429240  0.274800  1.0  -0.2398
  N  N195  1  0.377900  0.254940  0.687300  1.0  -0.4155
  N  N196  1  0.388500  0.330820  0.536600  1.0  -0.4217
  N  N197  1  0.283000  0.214960  0.745800  1.0  -0.2472
  N  N198  1  0.360400  0.364490  0.415600  1.0  -0.2268
  N  N199  1  0.097500  0.474040  0.234800  1.0  -0.4584
  N  N200  1  0.060600  0.458100  0.913800  1.0  -0.3633
  N  N201  1  0.164000  0.112120  0.767900  1.0  -0.3343
  N  N202  1  0.291400  0.175900  0.912800  1.0  -0.2515
  N  N203  1  0.352100  0.324970  0.245500  1.0  -0.2579
  N  N204  1  0.234400  0.070760  0.774800  1.0  -0.2392
  N  N205  1  0.377900  0.245060  0.187300  1.0  -0.4162
  N  N206  1  0.388500  0.169180  0.036600  1.0  -0.4216
  N  N207  1  0.283000  0.285040  0.245800  1.0  -0.2465
  N  N208  1  0.360400  0.135510  0.915600  1.0  -0.2257
  N  N209  1  0.097500  0.025960  0.734800  1.0  -0.4585
  N  N210  1  0.060600  0.041900  0.413800  1.0  -0.3629
  N  N211  1  0.836000  0.612120  0.732100  1.0  -0.3336
  N  N212  1  0.708600  0.675900  0.587200  1.0  -0.2514
  N  N213  1  0.647900  0.824970  0.254500  1.0  -0.257
  N  N214  1  0.765600  0.570760  0.725200  1.0  -0.2391
  N  N215  1  0.622100  0.745060  0.312700  1.0  -0.4165
  N  N216  1  0.611500  0.669180  0.463400  1.0  -0.4225
  N  N217  1  0.717000  0.785040  0.254200  1.0  -0.2451
  N  N218  1  0.639600  0.635510  0.584400  1.0  -0.2258
  N  N219  1  0.902500  0.525960  0.765200  1.0  -0.4568
  N  N220  1  0.939400  0.541900  0.086200  1.0  -0.3649
  O  O221  1  0.415800  0.820350  0.812100  1.0  -0.5941
  O  O222  1  0.968500  0.838530  0.688200  1.0  -0.4774
  O  O223  1  0.938100  0.739710  0.789100  1.0  -0.5469
  O  O224  1  0.946800  0.702810  0.678000  1.0  -0.5847
  O  O225  1  0.534800  0.941510  0.855800  1.0  -0.5205
  O  O226  1  0.510200  0.087300  0.850300  1.0  -0.5573
  O  O227  1  0.603800  0.881420  0.793100  1.0  -0.5939
  O  O228  1  0.900800  0.957200  0.751200  1.0  -0.5765
  O  O229  1  0.090900  0.897910  0.729600  1.0  -0.5807
  O  O230  1  0.883200  0.043090  0.694900  1.0  -0.6015
  O  O231  1  0.440900  0.732460  0.863300  1.0  -0.5668
  O  O232  1  0.432600  0.036240  0.747000  1.0  -0.5696
  O  O233  1  0.584200  0.320350  0.687900  1.0  -0.5922
  O  O234  1  0.031500  0.338530  0.811800  1.0  -0.4789
  O  O235  1  0.061900  0.239710  0.710900  1.0  -0.5466
  O  O236  1  0.053200  0.202810  0.822000  1.0  -0.5872
  O  O237  1  0.465200  0.441510  0.644200  1.0  -0.5223
  O  O238  1  0.489800  0.587300  0.649700  1.0  -0.5554
  O  O239  1  0.396200  0.381420  0.706900  1.0  -0.5942
  O  O240  1  0.099200  0.457200  0.748800  1.0  -0.576
  O  O241  1  0.909100  0.397910  0.770400  1.0  -0.5816
  O  O242  1  0.116800  0.543090  0.805100  1.0  -0.6009
  O  O243  1  0.559100  0.232460  0.636700  1.0  -0.5669
  O  O244  1  0.567400  0.536240  0.753000  1.0  -0.5695
  O  O245  1  0.584200  0.179650  0.187900  1.0  -0.5911
  O  O246  1  0.031500  0.161470  0.311800  1.0  -0.4794
  O  O247  1  0.061900  0.260290  0.210900  1.0  -0.5462
  O  O248  1  0.053200  0.297190  0.322000  1.0  -0.5875
  O  O249  1  0.465200  0.058490  0.144200  1.0  -0.5226
  O  O250  1  0.489800  0.912700  0.149700  1.0  -0.5551
  O  O251  1  0.396200  0.118580  0.206900  1.0  -0.5939
  O  O252  1  0.099200  0.042800  0.248800  1.0  -0.5781
  O  O253  1  0.909100  0.102090  0.270400  1.0  -0.5807
  O  O254  1  0.116800  0.956910  0.305100  1.0  -0.6007
  O  O255  1  0.559100  0.267540  0.136700  1.0  -0.5664
  O  O256  1  0.567400  0.963760  0.253000  1.0  -0.5707
  O  O257  1  0.415800  0.679650  0.312100  1.0  -0.5918
  O  O258  1  0.968500  0.661470  0.188200  1.0  -0.4777
  O  O259  1  0.938100  0.760290  0.289100  1.0  -0.5467
  O  O260  1  0.946800  0.797190  0.178000  1.0  -0.5847
  O  O261  1  0.534800  0.558490  0.355800  1.0  -0.5204
  O  O262  1  0.510200  0.412700  0.350300  1.0  -0.557
  O  O263  1  0.603800  0.618580  0.293100  1.0  -0.5955
  O  O264  1  0.900800  0.542800  0.251200  1.0  -0.5774
  O  O265  1  0.090900  0.602090  0.229600  1.0  -0.5798
  O  O266  1  0.883200  0.456910  0.194900  1.0  -0.6016
  O  O267  1  0.440900  0.767540  0.363300  1.0  -0.5661
  O  O268  1  0.432600  0.463760  0.247000  1.0  -0.5698
