# generated using pymatgen
data_Cd2H8C18NO13
_symmetry_space_group_name_H-M   'P 1'
_cell_length_a   9.30370000
_cell_length_b   9.57280000
_cell_length_c   18.66900000
_cell_angle_alpha   82.06100000
_cell_angle_beta   79.15300000
_cell_angle_gamma   72.69500000
_symmetry_Int_Tables_number   1
_chemical_formula_structural   Cd2H8C18NO13
_chemical_formula_sum   'Cd4 H16 C36 N2 O26'
_cell_volume   1553.08822768
_cell_formula_units_Z   2
loop_
 _symmetry_equiv_pos_site_id
 _symmetry_equiv_pos_as_xyz
  1  'x, y, z'
loop_
 _atom_site_type_symbol
 _atom_site_label
 _atom_site_symmetry_multiplicity
 _atom_site_fract_x
 _atom_site_fract_y
 _atom_site_fract_z
 _atom_site_occupancy
 _atom_site_charge
  Cd  Cd1  1  0.207500  0.820200  0.108070  1.0  1.0784
  Cd  Cd2  1  0.101070  0.764590  0.432710  1.0  1.0625
  Cd  Cd3  1  0.792500  0.179800  0.891930  1.0  1.0797
  Cd  Cd4  1  0.898930  0.235410  0.567290  1.0  1.0622
  H  H5  1  0.236000  0.311000  0.139000  1.0  0.1407
  H  H6  1  0.951000  0.381000  0.993000  1.0  0.1231
  H  H7  1  0.001000  0.428000  0.063000  1.0  0.1534
  H  H8  1  0.532600  0.863000  0.022300  1.0  0.1125
  H  H9  1  0.788600  0.751700  0.991900  1.0  0.1633
  H  H10  1  0.453000  0.494400  0.100700  1.0  0.1085
  H  H11  1  0.702700  0.369400  0.071400  1.0  0.169
  H  H12  1  0.227500  0.939900  0.491000  1.0  0.4552
  H  H13  1  0.764000  0.689000  0.861000  1.0  0.1408
  H  H14  1  0.049000  0.619000  0.007000  1.0  0.1229
  H  H15  1  0.999000  0.572000  0.937000  1.0  0.1536
  H  H16  1  0.467400  0.137000  0.977700  1.0  0.1124
  H  H17  1  0.211400  0.248300  0.008100  1.0  0.1625
  H  H18  1  0.547000  0.505600  0.899300  1.0  0.109
  H  H19  1  0.297300  0.630600  0.928600  1.0  0.1687
  H  H20  1  0.772500  0.060100  0.509000  1.0  0.4546
  C  C21  1  0.149700  0.154300  0.307500  1.0  -0.0454
  C  C22  1  0.185800  0.170900  0.230500  1.0  -0.0553
  C  C23  1  0.203100  0.303800  0.196500  1.0  -0.0345
  C  C24  1  0.185700  0.422400  0.236200  1.0  -0.0619
  C  C25  1  0.154000  0.405100  0.313100  1.0  -0.0463
  C  C26  1  0.133600  0.272900  0.348100  1.0  -0.0309
  C  C27  1  0.139600  0.530300  0.358500  1.0  0.6988
  C  C28  1  0.198900  0.566600  0.195000  1.0  0.7214
  C  C29  1  0.129100  0.011300  0.348000  1.0  0.6894
  C  C30  1  0.198500  0.049200  0.184000  1.0  0.7544
  C  C31  1  0.088300  0.255900  0.430500  1.0  0.7197
  C  C32  1  0.945400  0.458900  0.019200  1.0  -0.1209
  C  C33  1  0.779400  0.545100  0.031300  1.0  0.1491
  C  C34  1  0.567500  0.762100  0.033400  1.0  0.2268
  C  C35  1  0.723500  0.696100  0.014800  1.0  -0.2131
  C  C36  1  0.521200  0.547500  0.078800  1.0  0.2225
  C  C37  1  0.672400  0.471100  0.062000  1.0  -0.151
  C  C38  1  0.928500  0.993300  0.027200  1.0  0.6015
  C  C39  1  0.850300  0.845700  0.692500  1.0  -0.0459
  C  C40  1  0.814200  0.829100  0.769500  1.0  -0.0539
  C  C41  1  0.796900  0.696200  0.803500  1.0  -0.0373
  C  C42  1  0.814300  0.577600  0.763800  1.0  -0.0625
  C  C43  1  0.846000  0.594900  0.686900  1.0  -0.0458
  C  C44  1  0.866400  0.727100  0.651900  1.0  -0.0306
  C  C45  1  0.860400  0.469700  0.641500  1.0  0.7001
  C  C46  1  0.801100  0.433400  0.805000  1.0  0.7208
  C  C47  1  0.870900  0.988700  0.652000  1.0  0.69
  C  C48  1  0.801500  0.950800  0.816000  1.0  0.756
  C  C49  1  0.911700  0.744100  0.569500  1.0  0.7205
  C  C50  1  0.054600  0.541100  0.980800  1.0  -0.1233
  C  C51  1  0.220600  0.454900  0.968700  1.0  0.1458
  C  C52  1  0.432500  0.237900  0.966600  1.0  0.2268
  C  C53  1  0.276500  0.303900  0.985200  1.0  -0.2154
  C  C54  1  0.478800  0.452500  0.921200  1.0  0.2227
  C  C55  1  0.327600  0.528900  0.938000  1.0  -0.1518
  C  C56  1  0.071500  0.006700  0.972800  1.0  0.6007
  N  N57  1  0.465600  0.693700  0.065500  1.0  -0.3029
  N  N58  1  0.534400  0.306300  0.934500  1.0  -0.3022
  O  O59  1  0.227000  0.855600  0.506600  1.0  -0.6387
  O  O60  1  0.801200  0.067000  0.009500  1.0  -0.561
  O  O61  1  0.021600  0.636800  0.359300  1.0  -0.5169
  O  O62  1  0.243300  0.521000  0.394300  1.0  -0.5511
  O  O63  1  0.965300  0.345000  0.455600  1.0  -0.5378
  O  O64  1  0.152900  0.598800  0.134100  1.0  -0.5376
  O  O65  1  0.255900  0.645400  0.221700  1.0  -0.5733
  O  O66  1  0.001400  0.011300  0.386200  1.0  -0.5513
  O  O67  1  0.240300  0.899300  0.343700  1.0  -0.5669
  O  O68  1  0.099800  0.981900  0.198500  1.0  -0.5606
  O  O69  1  0.305100  0.023600  0.131200  1.0  -0.5714
  O  O70  1  0.948700  0.909200  0.083700  1.0  -0.5643
  O  O71  1  0.166900  0.157000  0.468500  1.0  -0.5567
  O  O72  1  0.773000  0.144400  0.493400  1.0  -0.6389
  O  O73  1  0.198800  0.933000  0.990500  1.0  -0.5603
  O  O74  1  0.978400  0.363200  0.640700  1.0  -0.5144
  O  O75  1  0.756700  0.479000  0.605700  1.0  -0.547
  O  O76  1  0.034700  0.655000  0.544400  1.0  -0.5373
  O  O77  1  0.847100  0.401200  0.865900  1.0  -0.5383
  O  O78  1  0.744100  0.354600  0.778300  1.0  -0.5718
  O  O79  1  0.998600  0.988700  0.613800  1.0  -0.5521
  O  O80  1  0.759700  0.100700  0.656300  1.0  -0.5654
  O  O81  1  0.900200  0.018100  0.801500  1.0  -0.5606
  O  O82  1  0.694900  0.976400  0.868800  1.0  -0.5751
  O  O83  1  0.051300  0.090800  0.916300  1.0  -0.564
  O  O84  1  0.833100  0.843000  0.531500  1.0  -0.5561
