# generated using pymatgen
data_Tb2H36(C17O4)3
_symmetry_space_group_name_H-M   'P 1'
_cell_length_a   11.46460000
_cell_length_b   13.62880000
_cell_length_c   23.79780000
_cell_angle_alpha   92.92900000
_cell_angle_beta   103.54800000
_cell_angle_gamma   112.49400000
_symmetry_Int_Tables_number   1
_chemical_formula_structural   Tb2H36(C17O4)3
_chemical_formula_sum   'Tb4 H72 C102 O24'
_cell_volume   3298.64056552
_cell_formula_units_Z   2
loop_
 _symmetry_equiv_pos_site_id
 _symmetry_equiv_pos_as_xyz
  1  'x, y, z'
loop_
 _atom_site_type_symbol
 _atom_site_label
 _atom_site_symmetry_multiplicity
 _atom_site_fract_x
 _atom_site_fract_y
 _atom_site_fract_z
 _atom_site_occupancy
 _atom_site_charge
  Tb  Tb1  1  0.378320  0.300860  0.517670  1.0  2.2802
  Tb  Tb2  1  0.641480  0.594720  0.961630  1.0  2.2623
  Tb  Tb3  1  0.621680  0.699140  0.482330  1.0  2.2828
  Tb  Tb4  1  0.358520  0.405280  0.038370  1.0  2.2644
  H  H5  1  0.632400  0.331600  0.132400  1.0  0.0907
  H  H6  1  0.753400  0.286100  0.211800  1.0  0.0968
  H  H7  1  0.934000  0.273700  0.304800  1.0  0.1089
  H  H8  1  0.109100  0.308000  0.385700  1.0  0.0941
  H  H9  1  0.321200  0.580800  0.334200  1.0  0.1161
  H  H10  1  0.216300  0.512800  0.184300  1.0  0.1238
  H  H11  1  0.311200  0.622400  0.224600  1.0  0.1224
  H  H12  1  0.208500  0.620300  0.167500  1.0  0.1127
  H  H13  1  0.125600  0.722100  0.229700  1.0  0.1129
  H  H14  1  0.230800  0.720200  0.284700  1.0  0.1105
  H  H15  1  0.082300  0.675200  0.283800  1.0  0.1236
  H  H16  1  0.952100  0.591300  0.133100  1.0  0.116
  H  H17  1  0.492000  0.639200  0.176300  1.0  0.0829
  H  H18  1  0.603700  0.729100  0.270600  1.0  0.1185
  H  H19  1  0.776200  0.855800  0.370400  1.0  0.1214
  H  H20  1  0.947100  0.985300  0.441400  1.0  0.0921
  H  H21  1  0.135400  0.106800  0.322400  1.0  0.1104
  H  H22  1  0.059900  0.877900  0.230700  1.0  0.1142
  H  H23  1  0.137600  0.997700  0.224400  1.0  0.1121
  H  H24  1  0.037200  0.915100  0.169400  1.0  0.1095
  H  H25  1  0.924700  0.046400  0.153500  1.0  0.1155
  H  H26  1  0.031200  0.121300  0.209600  1.0  0.1188
  H  H27  1  0.881600  0.084100  0.205500  1.0  0.1125
  H  H28  1  0.779800  0.834800  0.114900  1.0  0.116
  H  H29  1  0.538200  0.011600  0.550100  1.0  0.0962
  H  H30  1  0.589300  0.886900  0.600500  1.0  0.1119
  H  H31  1  0.629000  0.753500  0.677900  1.0  0.123
  H  H32  1  0.658500  0.669100  0.758000  1.0  0.0823
  H  H33  1  0.565300  0.865200  0.852100  1.0  0.107
  H  H34  1  0.620100  0.067000  0.848700  1.0  0.108
  H  H35  1  0.583400  0.142200  0.806800  1.0  0.1132
  H  H36  1  0.699400  0.110300  0.803300  1.0  0.1087
  H  H37  1  0.319800  0.889300  0.743400  1.0  0.1168
  H  H38  1  0.349100  0.010300  0.761800  1.0  0.1067
  H  H39  1  0.376400  0.941000  0.809700  1.0  0.1147
  H  H40  1  0.470200  0.131200  0.690700  1.0  0.1078
  H  H41  1  0.367600  0.668400  0.867600  1.0  0.0906
  H  H42  1  0.246600  0.713900  0.788200  1.0  0.0966
  H  H43  1  0.066000  0.726300  0.695200  1.0  0.1091
  H  H44  1  0.890900  0.692000  0.614300  1.0  0.0929
  H  H45  1  0.678800  0.419200  0.665800  1.0  0.1162
  H  H46  1  0.783700  0.487200  0.815700  1.0  0.1242
  H  H47  1  0.688800  0.377600  0.775400  1.0  0.1195
  H  H48  1  0.791500  0.379700  0.832500  1.0  0.1123
  H  H49  1  0.874400  0.277900  0.770300  1.0  0.1135
  H  H50  1  0.769200  0.279800  0.715300  1.0  0.1108
  H  H51  1  0.917700  0.324800  0.716200  1.0  0.1238
  H  H52  1  0.047900  0.408700  0.866900  1.0  0.116
  H  H53  1  0.508000  0.360800  0.823700  1.0  0.0829
  H  H54  1  0.396300  0.270900  0.729400  1.0  0.1194
  H  H55  1  0.223800  0.144200  0.629600  1.0  0.1211
  H  H56  1  0.052900  0.014700  0.558600  1.0  0.0925
  H  H57  1  0.864600  0.893200  0.677600  1.0  0.1104
  H  H58  1  0.940100  0.122100  0.769300  1.0  0.1148
  H  H59  1  0.862400  0.002300  0.775600  1.0  0.1129
  H  H60  1  0.962800  0.084900  0.830600  1.0  0.11
  H  H61  1  0.075300  0.953600  0.846500  1.0  0.1153
  H  H62  1  0.968800  0.878700  0.790400  1.0  0.1191
  H  H63  1  0.118400  0.915900  0.794500  1.0  0.1143
  H  H64  1  0.220200  0.165200  0.885100  1.0  0.1157
  H  H65  1  0.461800  0.988400  0.449900  1.0  0.0966
  H  H66  1  0.410700  0.113100  0.399500  1.0  0.1119
  H  H67  1  0.371000  0.246500  0.322100  1.0  0.1223
  H  H68  1  0.341500  0.330900  0.242000  1.0  0.0823
  H  H69  1  0.434700  0.134800  0.147900  1.0  0.1083
  H  H70  1  0.379900  0.933000  0.151300  1.0  0.1082
  H  H71  1  0.416600  0.857800  0.193200  1.0  0.1136
  H  H72  1  0.300600  0.889700  0.196700  1.0  0.1082
  H  H73  1  0.680200  0.110700  0.256600  1.0  0.1166
  H  H74  1  0.650900  0.989700  0.238200  1.0  0.1066
  H  H75  1  0.623600  0.059000  0.190300  1.0  0.1149
  H  H76  1  0.529800  0.868800  0.309300  1.0  0.1078
  C  C77  1  0.704000  0.494100  0.073000  1.0  0.7417
  C  C78  1  0.782000  0.465200  0.125700  1.0  -0.1344
  C  C79  1  0.721200  0.374700  0.148700  1.0  -0.0436
  C  C80  1  0.793000  0.348000  0.196500  1.0  -0.0955
  C  C81  1  0.924500  0.414800  0.221100  1.0  -0.0793
  C  C82  1  0.019900  0.410200  0.272800  1.0  -0.072
  C  C83  1  0.010200  0.336100  0.311300  1.0  -0.104
  C  C84  1  0.115300  0.356500  0.359200  1.0  -0.0342
  C  C85  1  0.231000  0.448900  0.368700  1.0  -0.1549
  C  C86  1  0.342500  0.471900  0.421600  1.0  0.7363
  C  C87  1  0.243000  0.520800  0.329000  1.0  -0.0669
  C  C88  1  0.136400  0.501400  0.281600  1.0  -0.0068
  C  C89  1  0.124200  0.571000  0.234100  1.0  -0.0194
  C  C90  1  0.224300  0.582500  0.199400  1.0  -0.3411
  C  C91  1  0.142300  0.682500  0.260500  1.0  -0.3336
  C  C92  1  0.983500  0.507600  0.198200  1.0  0.0047
  C  C93  1  0.912200  0.531200  0.149500  1.0  -0.07
  C  C94  1  0.555900  0.661600  0.077100  1.0  0.7373
  C  C95  1  0.624800  0.724400  0.137500  1.0  -0.1621
  C  C96  1  0.573600  0.696200  0.183200  1.0  0.0004
  C  C97  1  0.639500  0.749900  0.239700  1.0  -0.1299
  C  C98  1  0.761000  0.836100  0.249000  1.0  -0.0311
  C  C99  1  0.852200  0.907300  0.302700  1.0  -0.0612
  C  C100  1  0.846900  0.906500  0.360600  1.0  -0.1468
  C  C101  1  0.949800  0.983300  0.402600  1.0  -0.0206
  C  C102  1  0.057700  0.058000  0.389100  1.0  -0.1485
  C  C103  1  0.171300  0.140300  0.436300  1.0  0.6705
  C  C104  1  0.063300  0.057100  0.331700  1.0  -0.1127
  C  C105  1  0.960900  0.981700  0.288700  1.0  0.0029
  C  C106  1  0.945500  0.964600  0.223000  1.0  -0.0365
  C  C107  1  0.055300  0.936200  0.210700  1.0  -0.3358
  C  C108  1  0.946000  0.063300  0.195300  1.0  -0.3511
  C  C109  1  0.812300  0.868800  0.202500  1.0  0.0085
  C  C110  1  0.745600  0.813500  0.146200  1.0  -0.0578
  C  C111  1  0.463200  0.164000  0.581900  1.0  0.6673
  C  C112  1  0.498400  0.083400  0.615200  1.0  -0.1401
  C  C113  1  0.534500  0.009900  0.588700  1.0  -0.047
  C  C114  1  0.564700  0.935200  0.618500  1.0  -0.1082
  C  C115  1  0.557900  0.932800  0.676100  1.0  -0.0696
  C  C116  1  0.581300  0.862700  0.717800  1.0  -0.0334
  C  C117  1  0.616600  0.776400  0.712700  1.0  -0.1507
  C  C118  1  0.632800  0.725700  0.760900  1.0  -0.0286
  C  C119  1  0.613100  0.754100  0.812200  1.0  -0.1422
  C  C120  1  0.627400  0.699300  0.864400  1.0  0.6714
  C  C121  1  0.577100  0.842700  0.817100  1.0  -0.069
  C  C122  1  0.559800  0.894900  0.769800  1.0  0.0198
  C  C123  1  0.518200  0.987400  0.764500  1.0  0.0203
  C  C124  1  0.614300  0.085900  0.810100  1.0  -0.3491
  C  C125  1  0.377600  0.953800  0.770500  1.0  -0.3419
  C  C126  1  0.522700  0.006400  0.702900  1.0  -0.0045
  C  C127  1  0.493200  0.082000  0.672600  1.0  -0.0855
  C  C128  1  0.296000  0.505900  0.927000  1.0  0.7409
  C  C129  1  0.218000  0.534800  0.874300  1.0  -0.1346
  C  C130  1  0.278800  0.625300  0.851300  1.0  -0.0435
  C  C131  1  0.207000  0.652000  0.803500  1.0  -0.0948
  C  C132  1  0.075500  0.585200  0.778900  1.0  -0.0798
  C  C133  1  0.980100  0.589800  0.727200  1.0  -0.0717
  C  C134  1  0.989800  0.663900  0.688700  1.0  -0.1038
  C  C135  1  0.884700  0.643500  0.640800  1.0  -0.0367
  C  C136  1  0.769000  0.551100  0.631300  1.0  -0.1539
  C  C137  1  0.657500  0.528100  0.578400  1.0  0.7356
  C  C138  1  0.757000  0.479200  0.671000  1.0  -0.0647
  C  C139  1  0.863600  0.498600  0.718400  1.0  -0.0065
  C  C140  1  0.875800  0.429000  0.765900  1.0  -0.0202
  C  C141  1  0.775700  0.417500  0.800600  1.0  -0.3411
  C  C142  1  0.857700  0.317500  0.739500  1.0  -0.3346
  C  C143  1  0.016500  0.492400  0.801800  1.0  0.0039
  C  C144  1  0.087800  0.468800  0.850500  1.0  -0.0712
  C  C145  1  0.444100  0.338400  0.922900  1.0  0.7369
  C  C146  1  0.375200  0.275600  0.862500  1.0  -0.1619
  C  C147  1  0.426400  0.303800  0.816800  1.0  0.0018
  C  C148  1  0.360500  0.250100  0.760300  1.0  -0.1288
  C  C149  1  0.239000  0.163900  0.751000  1.0  -0.0307
  C  C150  1  0.147800  0.092700  0.697300  1.0  -0.0618
  C  C151  1  0.153100  0.093500  0.639400  1.0  -0.1462
  C  C152  1  0.050200  0.016700  0.597400  1.0  -0.024
  C  C153  1  0.942300  0.942000  0.610900  1.0  -0.1482
  C  C154  1  0.828700  0.859700  0.563700  1.0  0.6721
  C  C155  1  0.936700  0.942900  0.668300  1.0  -0.1114
  C  C156  1  0.039100  0.018300  0.711300  1.0  0.004
  C  C157  1  0.054500  0.035400  0.777000  1.0  -0.0342
  C  C158  1  0.944700  0.063800  0.789300  1.0  -0.3365
  C  C159  1  0.054000  0.936700  0.804700  1.0  -0.3513
  C  C160  1  0.187700  0.131200  0.797500  1.0  0.0074
  C  C161  1  0.254400  0.186500  0.853800  1.0  -0.0556
  C  C162  1  0.536800  0.836000  0.418100  1.0  0.6668
  C  C163  1  0.501600  0.916600  0.384800  1.0  -0.1413
  C  C164  1  0.465500  0.990100  0.411300  1.0  -0.0438
  C  C165  1  0.435300  0.064800  0.381500  1.0  -0.1089
  C  C166  1  0.442100  0.067200  0.323900  1.0  -0.0692
  C  C167  1  0.418700  0.137300  0.282200  1.0  -0.0343
  C  C168  1  0.383400  0.223600  0.287300  1.0  -0.1514
  C  C169  1  0.367200  0.274300  0.239100  1.0  -0.026
  C  C170  1  0.386900  0.245900  0.187800  1.0  -0.1423
  C  C171  1  0.372600  0.300700  0.135600  1.0  0.6732
  C  C172  1  0.422900  0.157300  0.182900  1.0  -0.0685
  C  C173  1  0.440200  0.105100  0.230200  1.0  0.0209
  C  C174  1  0.481800  0.012600  0.235500  1.0  0.0186
  C  C175  1  0.385700  0.914100  0.189900  1.0  -0.347
  C  C176  1  0.622400  0.046200  0.229500  1.0  -0.342
  C  C177  1  0.477300  0.993600  0.297100  1.0  -0.0047
  C  C178  1  0.506800  0.918000  0.327400  1.0  -0.0864
  O  O179  1  0.765900  0.551400  0.042200  1.0  -0.6663
  O  O180  1  0.581700  0.457500  0.063000  1.0  -0.7571
  O  O181  1  0.451400  0.544900  0.423400  1.0  -0.7447
  O  O182  1  0.320700  0.421100  0.463600  1.0  -0.7446
  O  O183  1  0.614200  0.686900  0.037600  1.0  -0.7116
  O  O184  1  0.443000  0.586500  0.070000  1.0  -0.7197
  O  O185  1  0.271700  0.198600  0.422300  1.0  -0.616
  O  O186  1  0.163400  0.150900  0.488200  1.0  -0.6016
  O  O187  1  0.460100  0.161000  0.528400  1.0  -0.6217
  O  O188  1  0.434300  0.231400  0.607200  1.0  -0.6503
  O  O189  1  0.631800  0.608900  0.858800  1.0  -0.6106
  O  O190  1  0.632000  0.742700  0.913800  1.0  -0.616
  O  O191  1  0.234100  0.448600  0.957800  1.0  -0.6679
  O  O192  1  0.418300  0.542500  0.937000  1.0  -0.757
  O  O193  1  0.548600  0.455100  0.576600  1.0  -0.7448
  O  O194  1  0.679300  0.578900  0.536400  1.0  -0.7435
  O  O195  1  0.385800  0.313100  0.962400  1.0  -0.7098
  O  O196  1  0.557000  0.413500  0.930000  1.0  -0.7204
  O  O197  1  0.728300  0.801400  0.577700  1.0  -0.6162
  O  O198  1  0.836600  0.849100  0.511800  1.0  -0.5993
  O  O199  1  0.539900  0.839000  0.471600  1.0  -0.6231
  O  O200  1  0.565700  0.768600  0.392800  1.0  -0.6513
  O  O201  1  0.368200  0.391100  0.141200  1.0  -0.6103
  O  O202  1  0.368000  0.257300  0.086200  1.0  -0.6159
