# generated using pymatgen
data_Gd2H36(C17O4)3
_symmetry_space_group_name_H-M   'P 1'
_cell_length_a   11.49570000
_cell_length_b   13.68040000
_cell_length_c   23.96930000
_cell_angle_alpha   76.32800000
_cell_angle_beta   76.21400000
_cell_angle_gamma   66.91700000
_symmetry_Int_Tables_number   1
_chemical_formula_structural   Gd2H36(C17O4)3
_chemical_formula_sum   'Gd4 H72 C102 O24'
_cell_volume   3324.47560397
_cell_formula_units_Z   2
loop_
 _symmetry_equiv_pos_site_id
 _symmetry_equiv_pos_as_xyz
  1  'x, y, z'
loop_
 _atom_site_type_symbol
 _atom_site_label
 _atom_site_symmetry_multiplicity
 _atom_site_fract_x
 _atom_site_fract_y
 _atom_site_fract_z
 _atom_site_occupancy
 _atom_site_charge
  Gd  Gd1  1  0.640660  0.298810  0.482700  1.0  2.2195
  Gd  Gd2  1  0.815960  0.598100  0.038270  1.0  2.2086
  Gd  Gd3  1  0.359340  0.701190  0.517300  1.0  2.2208
  Gd  Gd4  1  0.184040  0.401900  0.961730  1.0  2.2076
  H  H5  1  0.001700  0.337700  0.866500  1.0  0.0942
  H  H6  1  0.962200  0.290800  0.788100  1.0  0.1021
  H  H7  1  0.874600  0.276700  0.695100  1.0  0.117
  H  H8  1  0.775700  0.307300  0.615700  1.0  0.0921
  H  H9  1  0.513500  0.582100  0.664400  1.0  0.107
  H  H10  1  0.415700  0.625400  0.772100  1.0  0.1193
  H  H11  1  0.461400  0.629000  0.827900  1.0  0.1153
  H  H12  1  0.473200  0.518600  0.814300  1.0  0.1268
  H  H13  1  0.699200  0.679800  0.709800  1.0  0.1242
  H  H14  1  0.609300  0.727200  0.764800  1.0  0.1187
  H  H15  1  0.550100  0.727000  0.712300  1.0  0.1107
  H  H16  1  0.685800  0.601100  0.861000  1.0  0.1088
  H  H17  1  0.190000  0.636300  0.827300  1.0  0.092
  H  H18  1  0.172100  0.728300  0.733100  1.0  0.1096
  H  H19  1  0.097100  0.852000  0.633500  1.0  0.1189
  H  H20  1  0.000800  0.981300  0.561400  1.0  0.0944
  H  H21  1  0.689100  0.104400  0.678100  1.0  0.1135
  H  H22  1  0.674800  0.877900  0.766300  1.0  0.1139
  H  H23  1  0.588900  0.995600  0.776800  1.0  0.1173
  H  H24  1  0.639500  0.907100  0.829100  1.0  0.1085
  H  H25  1  0.735500  0.046000  0.845900  1.0  0.115
  H  H26  1  0.677100  0.119700  0.791100  1.0  0.1246
  H  H27  1  0.823600  0.085800  0.792200  1.0  0.1254
  H  H28  1  0.837500  0.832000  0.885700  1.0  0.1135
  H  H29  1  0.510400  0.013400  0.449100  1.0  0.0981
  H  H30  1  0.513000  0.885400  0.400400  1.0  0.1207
  H  H31  1  0.547100  0.755500  0.322300  1.0  0.1178
  H  H32  1  0.600900  0.667800  0.242700  1.0  0.0972
  H  H33  1  0.786100  0.861900  0.150500  1.0  0.1075
  H  H34  1  0.728500  0.066400  0.153800  1.0  0.1091
  H  H35  1  0.724800  0.139900  0.195900  1.0  0.1153
  H  H36  1  0.604300  0.111000  0.198600  1.0  0.1186
  H  H37  1  0.923300  0.884400  0.259200  1.0  0.1234
  H  H38  1  0.910400  0.005700  0.243400  1.0  0.108
  H  H39  1  0.932000  0.940000  0.194000  1.0  0.1114
  H  H40  1  0.719700  0.128300  0.310300  1.0  0.103
  H  H41  1  0.998300  0.662300  0.133500  1.0  0.094
  H  H42  1  0.037800  0.709200  0.211900  1.0  0.1015
  H  H43  1  0.125400  0.723300  0.304900  1.0  0.1175
  H  H44  1  0.224300  0.692700  0.384300  1.0  0.0919
  H  H45  1  0.486500  0.417900  0.335600  1.0  0.1071
  H  H46  1  0.584300  0.374600  0.227900  1.0  0.1206
  H  H47  1  0.538600  0.371000  0.172100  1.0  0.1155
  H  H48  1  0.526800  0.481400  0.185700  1.0  0.1284
  H  H49  1  0.300800  0.320200  0.290200  1.0  0.1237
  H  H50  1  0.390700  0.272800  0.235200  1.0  0.1186
  H  H51  1  0.449900  0.273000  0.287700  1.0  0.1094
  H  H52  1  0.314200  0.398900  0.139000  1.0  0.1093
  H  H53  1  0.810000  0.363700  0.172700  1.0  0.0922
  H  H54  1  0.827900  0.271700  0.266900  1.0  0.1103
  H  H55  1  0.902900  0.148000  0.366500  1.0  0.1192
  H  H56  1  0.999200  0.018700  0.438600  1.0  0.0947
  H  H57  1  0.310900  0.895600  0.321900  1.0  0.1139
  H  H58  1  0.325200  0.122100  0.233700  1.0  0.1143
  H  H59  1  0.411100  0.004400  0.223200  1.0  0.117
  H  H60  1  0.360500  0.092900  0.170900  1.0  0.1083
  H  H61  1  0.264500  0.954000  0.154100  1.0  0.113
  H  H62  1  0.322900  0.880300  0.208900  1.0  0.124
  H  H63  1  0.176400  0.914200  0.207800  1.0  0.1244
  H  H64  1  0.162500  0.168000  0.114300  1.0  0.1121
  H  H65  1  0.489600  0.986600  0.550900  1.0  0.0982
  H  H66  1  0.487000  0.114600  0.599600  1.0  0.1204
  H  H67  1  0.452900  0.244500  0.677700  1.0  0.1186
  H  H68  1  0.399100  0.332200  0.757300  1.0  0.097
  H  H69  1  0.213900  0.138100  0.849500  1.0  0.1075
  H  H70  1  0.271500  0.933600  0.846200  1.0  0.1091
  H  H71  1  0.275200  0.860100  0.804100  1.0  0.1145
  H  H72  1  0.395700  0.889000  0.801400  1.0  0.1154
  H  H73  1  0.076700  0.115600  0.740800  1.0  0.1236
  H  H74  1  0.089600  0.994300  0.756600  1.0  0.1082
  H  H75  1  0.068000  0.060000  0.806000  1.0  0.1107
  H  H76  1  0.280300  0.871700  0.689700  1.0  0.1033
  C  C77  1  0.874400  0.500600  0.923000  1.0  0.7428
  C  C78  1  0.848700  0.473000  0.871300  1.0  -0.1479
  C  C79  1  0.929900  0.381600  0.849500  1.0  -0.0301
  C  C80  1  0.906700  0.353500  0.802400  1.0  -0.1092
  C  C81  1  0.800300  0.419300  0.777000  1.0  -0.0967
  C  C82  1  0.754200  0.413200  0.726300  1.0  -0.0824
  C  C83  1  0.803200  0.338300  0.688600  1.0  -0.1034
  C  C84  1  0.743700  0.357100  0.641200  1.0  -0.0126
  C  C85  1  0.638200  0.447900  0.630900  1.0  -0.1635
  C  C86  1  0.579700  0.470900  0.578000  1.0  0.7319
  C  C87  1  0.586700  0.521900  0.670100  1.0  -0.0523
  C  C88  1  0.645000  0.504700  0.717000  1.0  0.0269
  C  C89  1  0.611100  0.575700  0.762600  1.0  -0.0308
  C  C90  1  0.478100  0.588200  0.797500  1.0  -0.3538
  C  C91  1  0.618100  0.688100  0.734700  1.0  -0.3528
  C  C92  1  0.716800  0.512800  0.799500  1.0  0.0251
  C  C93  1  0.741200  0.539000  0.846100  1.0  -0.0641
  C  C94  1  0.026200  0.661800  0.925800  1.0  0.761
  C  C95  1  0.015500  0.724700  0.865700  1.0  -0.1542
  C  C96  1  0.115300  0.694100  0.820100  1.0  -0.0061
  C  C97  1  0.104800  0.748900  0.763500  1.0  -0.0778
  C  C98  1  0.993700  0.833900  0.753000  1.0  -0.0027
  C  C99  1  0.953800  0.903800  0.699000  1.0  0.0123
  C  C100  1  0.016400  0.903300  0.642500  1.0  -0.0871
  C  C101  1  0.957800  0.979500  0.599600  1.0  -0.044
  C  C102  1  0.833100  0.055800  0.612100  1.0  -0.1352
  C  C103  1  0.767900  0.136900  0.565900  1.0  0.6848
  C  C104  1  0.770900  0.054800  0.669000  1.0  -0.1741
  C  C105  1  0.831400  0.979600  0.711900  1.0  -0.0138
  C  C106  1  0.779400  0.962500  0.777900  1.0  -0.0236
  C  C107  1  0.659500  0.933000  0.788500  1.0  -0.3387
  C  C108  1  0.751200  0.062900  0.804200  1.0  -0.3755
  C  C109  1  0.894100  0.866700  0.799000  1.0  -0.0039
  C  C110  1  0.904500  0.811200  0.855300  1.0  -0.0271
  C  C111  1  0.619000  0.161500  0.418500  1.0  0.6655
  C  C112  1  0.616700  0.082600  0.385000  1.0  -0.1498
  C  C113  1  0.553800  0.010100  0.411200  1.0  -0.043
  C  C114  1  0.554200  0.933800  0.382200  1.0  -0.1229
  C  C115  1  0.617800  0.931600  0.325200  1.0  -0.0741
  C  C116  1  0.636600  0.861200  0.283400  1.0  -0.0275
  C  C117  1  0.595500  0.776900  0.288000  1.0  -0.1078
  C  C118  1  0.628100  0.724600  0.240200  1.0  -0.0331
  C  C119  1  0.700400  0.755200  0.188800  1.0  -0.1553
  C  C120  1  0.736200  0.698200  0.137000  1.0  0.6881
  C  C121  1  0.739200  0.839800  0.185100  1.0  -0.0626
  C  C122  1  0.709000  0.892900  0.232300  1.0  -0.0023
  C  C123  1  0.746100  0.985100  0.237300  1.0  0.0169
  C  C124  1  0.696300  0.084900  0.192200  1.0  -0.3479
  C  C125  1  0.891500  0.950400  0.233200  1.0  -0.3447
  C  C126  1  0.680700  0.005000  0.298900  1.0  0.0182
  C  C127  1  0.678900  0.079600  0.328400  1.0  -0.1024
  C  C128  1  0.125600  0.499400  0.077000  1.0  0.7423
  C  C129  1  0.151300  0.527000  0.128700  1.0  -0.1475
  C  C130  1  0.070100  0.618400  0.150500  1.0  -0.031
  C  C131  1  0.093300  0.646500  0.197600  1.0  -0.1084
  C  C132  1  0.199700  0.580700  0.223000  1.0  -0.0966
  C  C133  1  0.245800  0.586800  0.273700  1.0  -0.0816
  C  C134  1  0.196800  0.661700  0.311400  1.0  -0.1029
  C  C135  1  0.256300  0.642900  0.358800  1.0  -0.0119
  C  C136  1  0.361800  0.552100  0.369100  1.0  -0.165
  C  C137  1  0.420300  0.529100  0.422000  1.0  0.7282
  C  C138  1  0.413300  0.478100  0.329900  1.0  -0.0528
  C  C139  1  0.355000  0.495300  0.283000  1.0  0.0265
  C  C140  1  0.388900  0.424300  0.237400  1.0  -0.0305
  C  C141  1  0.521900  0.411800  0.202500  1.0  -0.3538
  C  C142  1  0.381900  0.311900  0.265300  1.0  -0.3536
  C  C143  1  0.283200  0.487200  0.200500  1.0  0.0253
  C  C144  1  0.258800  0.461000  0.153900  1.0  -0.0626
  C  C145  1  0.973800  0.338200  0.074200  1.0  0.7572
  C  C146  1  0.984500  0.275300  0.134300  1.0  -0.1535
  C  C147  1  0.884700  0.305900  0.179900  1.0  -0.0055
  C  C148  1  0.895200  0.251100  0.236500  1.0  -0.0781
  C  C149  1  0.006300  0.166100  0.247000  1.0  -0.0028
  C  C150  1  0.046200  0.096200  0.301000  1.0  0.0148
  C  C151  1  0.983600  0.096700  0.357500  1.0  -0.0886
  C  C152  1  0.042200  0.020500  0.400400  1.0  -0.0413
  C  C153  1  0.166900  0.944200  0.387900  1.0  -0.1364
  C  C154  1  0.232100  0.863100  0.434100  1.0  0.6859
  C  C155  1  0.229100  0.945200  0.331000  1.0  -0.1733
  C  C156  1  0.168600  0.020400  0.288100  1.0  -0.0131
  C  C157  1  0.220600  0.037500  0.222100  1.0  -0.0245
  C  C158  1  0.340500  0.067000  0.211500  1.0  -0.3388
  C  C159  1  0.248800  0.937100  0.195800  1.0  -0.3743
  C  C160  1  0.105900  0.133300  0.201000  1.0  -0.0051
  C  C161  1  0.095500  0.188800  0.144700  1.0  -0.0269
  C  C162  1  0.381000  0.838500  0.581500  1.0  0.6663
  C  C163  1  0.383300  0.917400  0.615000  1.0  -0.1493
  C  C164  1  0.446200  0.989900  0.588800  1.0  -0.0434
  C  C165  1  0.445800  0.066200  0.617800  1.0  -0.12
  C  C166  1  0.382200  0.068400  0.674800  1.0  -0.0744
  C  C167  1  0.363400  0.138800  0.716600  1.0  -0.0284
  C  C168  1  0.404500  0.223100  0.712000  1.0  -0.1064
  C  C169  1  0.371900  0.275400  0.759800  1.0  -0.0327
  C  C170  1  0.299600  0.244800  0.811200  1.0  -0.1541
  C  C171  1  0.263800  0.301800  0.863000  1.0  0.6887
  C  C172  1  0.260800  0.160200  0.814900  1.0  -0.0627
  C  C173  1  0.291000  0.107100  0.767700  1.0  -0.0013
  C  C174  1  0.253900  0.014900  0.762700  1.0  0.0189
  C  C175  1  0.303700  0.915100  0.807800  1.0  -0.3482
  C  C176  1  0.108500  0.049600  0.766800  1.0  -0.3449
  C  C177  1  0.319300  0.995000  0.701100  1.0  0.0181
  C  C178  1  0.321100  0.920400  0.671600  1.0  -0.1027
  O  O179  1  0.779400  0.561900  0.952800  1.0  -0.6793
  O  O180  1  0.984900  0.463400  0.934600  1.0  -0.7749
  O  O181  1  0.468900  0.542700  0.575930  1.0  -0.7353
  O  O182  1  0.643200  0.419000  0.536890  1.0  -0.7569
  O  O183  1  0.928900  0.687800  0.964500  1.0  -0.7358
  O  O184  1  0.130900  0.586400  0.933400  1.0  -0.6983
  O  O185  1  0.653300  0.195400  0.578470  1.0  -0.6285
  O  O186  1  0.826400  0.147600  0.513900  1.0  -0.6402
  O  O187  1  0.569800  0.159200  0.471750  1.0  -0.6191
  O  O188  1  0.669700  0.230700  0.393300  1.0  -0.6768
  O  O189  1  0.721600  0.610900  0.142000  1.0  -0.601
  O  O190  1  0.784100  0.741700  0.088800  1.0  -0.631
  O  O191  1  0.220600  0.438100  0.047200  1.0  -0.6799
  O  O192  1  0.015100  0.536600  0.065400  1.0  -0.7754
  O  O193  1  0.531100  0.457300  0.424070  1.0  -0.7345
  O  O194  1  0.356800  0.581000  0.463110  1.0  -0.7557
  O  O195  1  0.071100  0.312200  0.035500  1.0  -0.7354
  O  O196  1  0.869100  0.413600  0.066600  1.0  -0.6993
  O  O197  1  0.346700  0.804600  0.421530  1.0  -0.629
  O  O198  1  0.173600  0.852400  0.486100  1.0  -0.6406
  O  O199  1  0.430200  0.840800  0.528250  1.0  -0.6207
  O  O200  1  0.330300  0.769300  0.606700  1.0  -0.6769
  O  O201  1  0.278400  0.389100  0.858000  1.0  -0.601
  O  O202  1  0.215900  0.258300  0.911200  1.0  -0.6314
