# generated using pymatgen
data_Sm2H36(C17O4)3
_symmetry_space_group_name_H-M   'P 1'
_cell_length_a   11.40870000
_cell_length_b   13.65840000
_cell_length_c   24.02300000
_cell_angle_alpha   93.17100000
_cell_angle_beta   103.62700000
_cell_angle_gamma   112.67100000
_symmetry_Int_Tables_number   1
_chemical_formula_structural   Sm2H36(C17O4)3
_chemical_formula_sum   'Sm4 H72 C102 O24'
_cell_volume   3312.03573158
_cell_formula_units_Z   2
loop_
 _symmetry_equiv_pos_site_id
 _symmetry_equiv_pos_as_xyz
  1  'x, y, z'
loop_
 _atom_site_type_symbol
 _atom_site_label
 _atom_site_symmetry_multiplicity
 _atom_site_fract_x
 _atom_site_fract_y
 _atom_site_fract_z
 _atom_site_occupancy
 _atom_site_charge
  Sm  Sm1  1  0.646980  0.597740  0.962060  1.0  2.2789
  Sm  Sm2  1  0.375730  0.298070  0.517710  1.0  2.3035
  Sm  Sm3  1  0.353020  0.402260  0.037940  1.0  2.2797
  Sm  Sm4  1  0.624270  0.701930  0.482290  1.0  2.3051
  H  H5  1  0.565000  0.865600  0.850100  1.0  0.1051
  H  H6  1  0.653300  0.665500  0.757800  1.0  0.0882
  H  H7  1  0.630900  0.753200  0.678500  1.0  0.1268
  H  H8  1  0.348000  0.007800  0.759900  1.0  0.1065
  H  H9  1  0.375200  0.938500  0.807800  1.0  0.1067
  H  H10  1  0.318600  0.886800  0.741500  1.0  0.116
  H  H11  1  0.580100  0.140600  0.805500  1.0  0.1113
  H  H12  1  0.616800  0.065400  0.847300  1.0  0.1046
  H  H13  1  0.696100  0.108700  0.801900  1.0  0.1113
  H  H14  1  0.587500  0.884100  0.601200  1.0  0.1024
  H  H15  1  0.470900  0.129900  0.690100  1.0  0.1044
  H  H16  1  0.535300  0.006900  0.550400  1.0  0.1033
  H  H17  1  0.135300  0.103100  0.321300  1.0  0.1155
  H  H18  1  0.941300  0.980600  0.439100  1.0  0.1053
  H  H19  1  0.768600  0.852300  0.365300  1.0  0.1048
  H  H20  1  0.924800  0.044700  0.153500  1.0  0.1019
  H  H21  1  0.881700  0.082400  0.205600  1.0  0.1085
  H  H22  1  0.031200  0.119600  0.209600  1.0  0.1251
  H  H23  1  0.056200  0.873100  0.229700  1.0  0.1108
  H  H24  1  0.033500  0.910300  0.168300  1.0  0.1015
  H  H25  1  0.133900  0.992900  0.223300  1.0  0.1043
  H  H26  1  0.778600  0.833700  0.113900  1.0  0.1151
  H  H27  1  0.594500  0.728100  0.266400  1.0  0.1122
  H  H28  1  0.482500  0.637400  0.171800  1.0  0.0903
  H  H29  1  0.106100  0.305600  0.383100  1.0  0.0927
  H  H30  1  0.322200  0.581100  0.336200  1.0  0.1001
  H  H31  1  0.930300  0.275800  0.303300  1.0  0.1227
  H  H32  1  0.219800  0.518700  0.187900  1.0  0.1213
  H  H33  1  0.314700  0.628300  0.228300  1.0  0.116
  H  H34  1  0.211900  0.626100  0.171100  1.0  0.1032
  H  H35  1  0.086200  0.680000  0.288800  1.0  0.1269
  H  H36  1  0.234700  0.725000  0.289800  1.0  0.1137
  H  H37  1  0.129600  0.726900  0.234700  1.0  0.11
  H  H38  1  0.747500  0.290200  0.211300  1.0  0.1132
  H  H39  1  0.955300  0.602700  0.139200  1.0  0.1181
  H  H40  1  0.632600  0.339100  0.132800  1.0  0.0908
  H  H41  1  0.435000  0.134400  0.149900  1.0  0.1062
  H  H42  1  0.346700  0.334500  0.242200  1.0  0.0885
  H  H43  1  0.369100  0.246800  0.321500  1.0  0.1265
  H  H44  1  0.652000  0.992200  0.240100  1.0  0.1074
  H  H45  1  0.624800  0.061500  0.192200  1.0  0.1062
  H  H46  1  0.681400  0.113200  0.258500  1.0  0.1161
  H  H47  1  0.419900  0.859400  0.194500  1.0  0.1113
  H  H48  1  0.383200  0.934600  0.152700  1.0  0.1044
  H  H49  1  0.303900  0.891300  0.198100  1.0  0.1097
  H  H50  1  0.412500  0.115900  0.398800  1.0  0.1029
  H  H51  1  0.529100  0.870100  0.309900  1.0  0.1048
  H  H52  1  0.464700  0.993100  0.449600  1.0  0.1039
  H  H53  1  0.864700  0.896900  0.678700  1.0  0.1154
  H  H54  1  0.058700  0.019400  0.560900  1.0  0.1056
  H  H55  1  0.231400  0.147700  0.634700  1.0  0.1039
  H  H56  1  0.075200  0.955300  0.846500  1.0  0.1013
  H  H57  1  0.118300  0.917600  0.794400  1.0  0.112
  H  H58  1  0.968800  0.880400  0.790400  1.0  0.1245
  H  H59  1  0.943800  0.126900  0.770300  1.0  0.1112
  H  H60  1  0.966500  0.089700  0.831700  1.0  0.1018
  H  H61  1  0.866100  0.007100  0.776700  1.0  0.1056
  H  H62  1  0.221400  0.166300  0.886100  1.0  0.1151
  H  H63  1  0.405500  0.271900  0.733600  1.0  0.1108
  H  H64  1  0.517500  0.362600  0.828200  1.0  0.09
  H  H65  1  0.893900  0.694400  0.616900  1.0  0.0918
  H  H66  1  0.677800  0.418900  0.663800  1.0  0.0999
  H  H67  1  0.069700  0.724200  0.696700  1.0  0.1233
  H  H68  1  0.780200  0.481300  0.812100  1.0  0.1224
  H  H69  1  0.685300  0.371700  0.771700  1.0  0.1133
  H  H70  1  0.788100  0.373900  0.828900  1.0  0.1046
  H  H71  1  0.913800  0.320000  0.711200  1.0  0.1269
  H  H72  1  0.765300  0.275000  0.710200  1.0  0.1139
  H  H73  1  0.870400  0.273100  0.765300  1.0  0.1105
  H  H74  1  0.252500  0.709800  0.788700  1.0  0.113
  H  H75  1  0.044700  0.397300  0.860800  1.0  0.1188
  H  H76  1  0.367400  0.660900  0.867200  1.0  0.0905
  C  C77  1  0.625600  0.699700  0.863100  1.0  0.6721
  C  C78  1  0.613400  0.755600  0.811500  1.0  -0.148
  C  C79  1  0.576700  0.842600  0.815500  1.0  -0.0752
  C  C80  1  0.630900  0.723900  0.760700  1.0  -0.0268
  C  C81  1  0.558300  0.893100  0.769100  1.0  0.0189
  C  C82  1  0.616500  0.775300  0.712600  1.0  -0.1323
  C  C83  1  0.579900  0.860800  0.717500  1.0  -0.0356
  C  C84  1  0.516000  0.986300  0.763100  1.0  0.0394
  C  C85  1  0.559200  0.931500  0.675600  1.0  -0.0346
  C  C86  1  0.376500  0.951300  0.768600  1.0  -0.3412
  C  C87  1  0.519900  0.003100  0.702200  1.0  -0.0087
  C  C88  1  0.611000  0.084300  0.808800  1.0  -0.3485
  C  C89  1  0.563600  0.932800  0.619000  1.0  -0.0689
  C  C90  1  0.492200  0.079600  0.672100  1.0  -0.0891
  C  C91  1  0.532500  0.006100  0.588700  1.0  -0.0394
  C  C92  1  0.496800  0.079500  0.615500  1.0  -0.1321
  C  C93  1  0.463600  0.162100  0.581900  1.0  0.6852
  C  C94  1  0.164100  0.136500  0.434100  1.0  0.6771
  C  C95  1  0.052200  0.052400  0.387400  1.0  -0.1296
  C  C96  1  0.061900  0.053700  0.330100  1.0  -0.1029
  C  C97  1  0.945000  0.979300  0.400800  1.0  -0.0365
  C  C98  1  0.956100  0.977200  0.287200  1.0  -0.0466
  C  C99  1  0.841400  0.902800  0.356600  1.0  -0.0763
  C  C100  1  0.942700  0.960600  0.221800  1.0  -0.0339
  C  C101  1  0.847800  0.902500  0.300300  1.0  0.0144
  C  C102  1  0.946000  0.061500  0.195300  1.0  -0.356
  C  C103  1  0.807500  0.866300  0.199900  1.0  0.0079
  C  C104  1  0.051600  0.931400  0.209600  1.0  -0.3337
  C  C105  1  0.755800  0.833300  0.246200  1.0  -0.0174
  C  C106  1  0.741800  0.812700  0.144200  1.0  -0.0659
  C  C107  1  0.631700  0.748400  0.236000  1.0  -0.099
  C  C108  1  0.617900  0.725500  0.133800  1.0  -0.1619
  C  C109  1  0.564600  0.694800  0.179200  1.0  -0.0056
  C  C110  1  0.548100  0.664800  0.073500  1.0  0.7381
  C  C111  1  0.341400  0.470700  0.421600  1.0  0.7377
  C  C112  1  0.229700  0.447700  0.369000  1.0  -0.1696
  C  C113  1  0.113300  0.355800  0.358000  1.0  -0.026
  C  C114  1  0.242600  0.521300  0.330100  1.0  -0.0785
  C  C115  1  0.008100  0.337700  0.310500  1.0  -0.1123
  C  C116  1  0.140000  0.505800  0.283900  1.0  0.0366
  C  C117  1  0.020700  0.414200  0.273400  1.0  -0.1012
  C  C118  1  0.126100  0.576200  0.238300  1.0  -0.0213
  C  C119  1  0.923800  0.420800  0.222600  1.0  -0.0812
  C  C120  1  0.227700  0.588300  0.203000  1.0  -0.3596
  C  C121  1  0.146200  0.687300  0.265600  1.0  -0.3507
  C  C122  1  0.985700  0.514100  0.201600  1.0  0.0299
  C  C123  1  0.789000  0.352600  0.197100  1.0  -0.1319
  C  C124  1  0.914600  0.540900  0.154100  1.0  -0.0652
  C  C125  1  0.721500  0.382200  0.150500  1.0  -0.036
  C  C126  1  0.783500  0.474900  0.129500  1.0  -0.1269
  C  C127  1  0.707000  0.504400  0.077100  1.0  0.7459
  C  C128  1  0.374400  0.300300  0.136900  1.0  0.6733
  C  C129  1  0.386600  0.244400  0.188500  1.0  -0.149
  C  C130  1  0.423300  0.157400  0.184500  1.0  -0.07
  C  C131  1  0.369100  0.276100  0.239300  1.0  -0.0261
  C  C132  1  0.441700  0.106900  0.230900  1.0  0.0193
  C  C133  1  0.383500  0.224700  0.287400  1.0  -0.1337
  C  C134  1  0.420100  0.139200  0.282500  1.0  -0.0369
  C  C135  1  0.484000  0.013700  0.236900  1.0  0.0377
  C  C136  1  0.440800  0.068500  0.324400  1.0  -0.0381
  C  C137  1  0.623500  0.048700  0.231400  1.0  -0.3429
  C  C138  1  0.480100  0.996900  0.297800  1.0  -0.0085
  C  C139  1  0.389000  0.915700  0.191200  1.0  -0.3483
  C  C140  1  0.436400  0.067200  0.381000  1.0  -0.0702
  C  C141  1  0.507800  0.920400  0.327900  1.0  -0.0887
  C  C142  1  0.467500  0.993900  0.411300  1.0  -0.0365
  C  C143  1  0.503200  0.920500  0.384500  1.0  -0.1293
  C  C144  1  0.536400  0.837900  0.418100  1.0  0.6839
  C  C145  1  0.835900  0.863500  0.565900  1.0  0.6798
  C  C146  1  0.947800  0.947600  0.612600  1.0  -0.1327
  C  C147  1  0.938100  0.946300  0.669900  1.0  -0.1026
  C  C148  1  0.055000  0.020700  0.599200  1.0  -0.0417
  C  C149  1  0.043900  0.022800  0.712800  1.0  -0.0465
  C  C150  1  0.158600  0.097200  0.643400  1.0  -0.0723
  C  C151  1  0.057300  0.039400  0.778200  1.0  -0.0323
  C  C152  1  0.152200  0.097500  0.699700  1.0  0.0136
  C  C153  1  0.054000  0.938500  0.804700  1.0  -0.357
  C  C154  1  0.192500  0.133700  0.800100  1.0  0.008
  C  C155  1  0.948400  0.068600  0.790400  1.0  -0.3348
  C  C156  1  0.244200  0.166700  0.753800  1.0  -0.0156
  C  C157  1  0.258200  0.187300  0.855800  1.0  -0.0658
  C  C158  1  0.368300  0.251600  0.764000  1.0  -0.0988
  C  C159  1  0.382100  0.274500  0.866200  1.0  -0.1619
  C  C160  1  0.435400  0.305200  0.820800  1.0  -0.0047
  C  C161  1  0.451900  0.335200  0.926500  1.0  0.7559
  C  C162  1  0.658600  0.529300  0.578400  1.0  0.7377
  C  C163  1  0.770300  0.552300  0.631000  1.0  -0.1683
  C  C164  1  0.886700  0.644200  0.642000  1.0  -0.0322
  C  C165  1  0.757400  0.478700  0.669900  1.0  -0.0778
  C  C166  1  0.991900  0.662300  0.689500  1.0  -0.1091
  C  C167  1  0.860000  0.494200  0.716100  1.0  0.0365
  C  C168  1  0.979300  0.585800  0.726600  1.0  -0.0988
  C  C169  1  0.873900  0.423800  0.761700  1.0  -0.0216
  C  C170  1  0.076200  0.579200  0.777400  1.0  -0.0814
  C  C171  1  0.772300  0.411700  0.797000  1.0  -0.3592
  C  C172  1  0.853800  0.312700  0.734400  1.0  -0.3512
  C  C173  1  0.014300  0.485900  0.798400  1.0  0.0331
  C  C174  1  0.211000  0.647400  0.802900  1.0  -0.1322
  C  C175  1  0.085400  0.459100  0.845900  1.0  -0.0652
  C  C176  1  0.278500  0.617800  0.849500  1.0  -0.0333
  C  C177  1  0.216500  0.525100  0.870500  1.0  -0.127
  C  C178  1  0.293000  0.495600  0.922900  1.0  0.7463
  O  O179  1  0.637000  0.610700  0.857600  1.0  -0.6732
  O  O180  1  0.604100  0.689600  0.035000  1.0  -0.7146
  O  O181  1  0.626800  0.741800  0.911800  1.0  -0.6311
  O  O182  1  0.433500  0.590000  0.065900  1.0  -0.6925
  O  O183  1  0.456100  0.155000  0.528900  1.0  -0.6707
  O  O184  1  0.439600  0.230500  0.607800  1.0  -0.6438
  O  O185  1  0.157900  0.148000  0.485100  1.0  -0.6334
  O  O186  1  0.268200  0.195100  0.421200  1.0  -0.6766
  O  O187  1  0.772600  0.564700  0.048100  1.0  -0.6726
  O  O188  1  0.584300  0.468300  0.065400  1.0  -0.7663
  O  O189  1  0.452800  0.541900  0.423600  1.0  -0.7575
  O  O190  1  0.317300  0.418000  0.462700  1.0  -0.7668
  O  O191  1  0.363000  0.389300  0.142400  1.0  -0.6723
  O  O192  1  0.395900  0.310400  0.965000  1.0  -0.7187
  O  O193  1  0.373200  0.258200  0.088200  1.0  -0.6271
  O  O194  1  0.566500  0.410000  0.934100  1.0  -0.6992
  O  O195  1  0.543900  0.845000  0.471100  1.0  -0.6742
  O  O196  1  0.560400  0.769500  0.392200  1.0  -0.6513
  O  O197  1  0.842100  0.852000  0.514900  1.0  -0.6315
  O  O198  1  0.731800  0.804900  0.578800  1.0  -0.6752
  O  O199  1  0.227400  0.435300  0.951900  1.0  -0.6736
  O  O200  1  0.415700  0.531700  0.934600  1.0  -0.7672
  O  O201  1  0.547200  0.458100  0.576400  1.0  -0.7567
  O  O202  1  0.682700  0.582000  0.537300  1.0  -0.7649
