# generated using pymatgen
data_Eu2H36(C17O4)3
_symmetry_space_group_name_H-M   'P 1'
_cell_length_a   11.44220000
_cell_length_b   13.64990000
_cell_length_c   23.97690000
_cell_angle_alpha   92.91500000
_cell_angle_beta   103.67100000
_cell_angle_gamma   112.82100000
_symmetry_Int_Tables_number   1
_chemical_formula_structural   Eu2H36(C17O4)3
_chemical_formula_sum   'Eu4 H72 C102 O24'
_cell_volume   3311.15881837
_cell_formula_units_Z   2
loop_
 _symmetry_equiv_pos_site_id
 _symmetry_equiv_pos_as_xyz
  1  'x, y, z'
loop_
 _atom_site_type_symbol
 _atom_site_label
 _atom_site_symmetry_multiplicity
 _atom_site_fract_x
 _atom_site_fract_y
 _atom_site_fract_z
 _atom_site_occupancy
 _atom_site_charge
  Eu  Eu1  1  0.376340  0.298650  0.517520  1.0  2.1944
  Eu  Eu2  1  0.645600  0.597340  0.961920  1.0  2.1615
  Eu  Eu3  1  0.623660  0.701350  0.482480  1.0  2.1963
  Eu  Eu4  1  0.354400  0.402660  0.038080  1.0  2.1637
  H  H5  1  0.631700  0.339300  0.135500  1.0  0.1039
  H  H6  1  0.750600  0.289700  0.210600  1.0  0.0974
  H  H7  1  0.932000  0.276300  0.304400  1.0  0.1214
  H  H8  1  0.107000  0.306600  0.383800  1.0  0.099
  H  H9  1  0.321400  0.583000  0.337200  1.0  0.1154
  H  H10  1  0.219500  0.514000  0.186300  1.0  0.1132
  H  H11  1  0.314400  0.623700  0.226700  1.0  0.117
  H  H12  1  0.211600  0.621500  0.169500  1.0  0.1166
  H  H13  1  0.130700  0.725600  0.232600  1.0  0.1231
  H  H14  1  0.235900  0.723700  0.287600  1.0  0.1194
  H  H15  1  0.087300  0.678700  0.286700  1.0  0.1281
  H  H16  1  0.955600  0.601600  0.138800  1.0  0.1246
  H  H17  1  0.485200  0.637600  0.173900  1.0  0.0786
  H  H18  1  0.594000  0.726700  0.266100  1.0  0.1258
  H  H19  1  0.772200  0.851200  0.366900  1.0  0.117
  H  H20  1  0.942700  0.982300  0.439300  1.0  0.1053
  H  H21  1  0.132700  0.105300  0.320800  1.0  0.1224
  H  H22  1  0.056300  0.874000  0.230700  1.0  0.1257
  H  H23  1  0.134000  0.993800  0.224400  1.0  0.1084
  H  H24  1  0.033600  0.911300  0.169400  1.0  0.1065
  H  H25  1  0.926300  0.044600  0.154000  1.0  0.1134
  H  H26  1  0.032800  0.119500  0.210100  1.0  0.1252
  H  H27  1  0.883200  0.082300  0.206000  1.0  0.1062
  H  H28  1  0.784900  0.832200  0.116600  1.0  0.1078
  H  H29  1  0.532200  0.007000  0.549700  1.0  0.1082
  H  H30  1  0.587400  0.884200  0.599700  1.0  0.128
  H  H31  1  0.634800  0.752700  0.679700  1.0  0.1293
  H  H32  1  0.654700  0.667300  0.757100  1.0  0.0838
  H  H33  1  0.564500  0.866600  0.850200  1.0  0.1101
  H  H34  1  0.616500  0.063000  0.847900  1.0  0.0865
  H  H35  1  0.579900  0.138200  0.806100  1.0  0.1115
  H  H36  1  0.695900  0.106300  0.802500  1.0  0.1095
  H  H37  1  0.315100  0.886700  0.741100  1.0  0.1235
  H  H38  1  0.344400  0.007700  0.759400  1.0  0.1165
  H  H39  1  0.371700  0.938400  0.807300  1.0  0.1129
  H  H40  1  0.467800  0.127800  0.690200  1.0  0.1076
  H  H41  1  0.368300  0.660700  0.864500  1.0  0.1035
  H  H42  1  0.249400  0.710300  0.789400  1.0  0.0975
  H  H43  1  0.068000  0.723700  0.695600  1.0  0.1218
  H  H44  1  0.893000  0.693400  0.616200  1.0  0.0984
  H  H45  1  0.678600  0.417000  0.662800  1.0  0.1154
  H  H46  1  0.780500  0.486000  0.813700  1.0  0.1129
  H  H47  1  0.685600  0.376300  0.773300  1.0  0.114
  H  H48  1  0.788400  0.378500  0.830500  1.0  0.1166
  H  H49  1  0.869300  0.274400  0.767400  1.0  0.1225
  H  H50  1  0.764100  0.276300  0.712400  1.0  0.1202
  H  H51  1  0.912700  0.321300  0.713300  1.0  0.1283
  H  H52  1  0.044400  0.398400  0.861200  1.0  0.1255
  H  H53  1  0.514800  0.362400  0.826100  1.0  0.0784
  H  H54  1  0.406000  0.273300  0.733900  1.0  0.1267
  H  H55  1  0.227800  0.148800  0.633100  1.0  0.1168
  H  H56  1  0.057300  0.017700  0.560700  1.0  0.1056
  H  H57  1  0.867300  0.894700  0.679200  1.0  0.1229
  H  H58  1  0.943700  0.126000  0.769300  1.0  0.1261
  H  H59  1  0.866000  0.006200  0.775600  1.0  0.1097
  H  H60  1  0.966400  0.088700  0.830600  1.0  0.1064
  H  H61  1  0.073700  0.955400  0.846000  1.0  0.1129
  H  H62  1  0.967200  0.880500  0.789900  1.0  0.1252
  H  H63  1  0.116800  0.917700  0.794000  1.0  0.1085
  H  H64  1  0.215100  0.167800  0.883400  1.0  0.1074
  H  H65  1  0.467800  0.993000  0.450300  1.0  0.1087
  H  H66  1  0.412600  0.115800  0.400300  1.0  0.128
  H  H67  1  0.365200  0.247300  0.320300  1.0  0.1289
  H  H68  1  0.345300  0.332700  0.242900  1.0  0.0838
  H  H69  1  0.435500  0.133400  0.149800  1.0  0.1107
  H  H70  1  0.383500  0.937000  0.152100  1.0  0.0867
  H  H71  1  0.420100  0.861800  0.193900  1.0  0.1133
  H  H72  1  0.304100  0.893700  0.197500  1.0  0.1068
  H  H73  1  0.684900  0.113300  0.258900  1.0  0.123
  H  H74  1  0.655600  0.992300  0.240600  1.0  0.1169
  H  H75  1  0.628300  0.061600  0.192700  1.0  0.1123
  H  H76  1  0.532200  0.872200  0.309800  1.0  0.1074
  C  C77  1  0.708000  0.501000  0.076300  1.0  0.7326
  C  C78  1  0.782800  0.473600  0.128700  1.0  -0.1381
  C  C79  1  0.721000  0.381700  0.151400  1.0  -0.0507
  C  C80  1  0.792000  0.353200  0.196900  1.0  -0.0887
  C  C81  1  0.924300  0.418500  0.222900  1.0  -0.0415
  C  C82  1  0.019500  0.413200  0.272800  1.0  -0.0544
  C  C83  1  0.009000  0.338400  0.311100  1.0  -0.0955
  C  C84  1  0.114000  0.356700  0.358500  1.0  -0.0294
  C  C85  1  0.230400  0.449300  0.369200  1.0  -0.1696
  C  C86  1  0.342600  0.472200  0.421200  1.0  0.7131
  C  C87  1  0.242800  0.522200  0.330900  1.0  -0.1276
  C  C88  1  0.138100  0.504400  0.283400  1.0  -0.0074
  C  C89  1  0.126200  0.576100  0.237000  1.0  0.0042
  C  C90  1  0.227000  0.584000  0.201400  1.0  -0.3712
  C  C91  1  0.147000  0.686000  0.263400  1.0  -0.3423
  C  C92  1  0.983900  0.512100  0.200700  1.0  -0.0016
  C  C93  1  0.914500  0.539600  0.153600  1.0  -0.0816
  C  C94  1  0.548000  0.663800  0.075000  1.0  0.7362
  C  C95  1  0.616900  0.720000  0.135600  1.0  -0.1519
  C  C96  1  0.568000  0.694400  0.180700  1.0  -0.0024
  C  C97  1  0.632000  0.747200  0.235900  1.0  -0.1306
  C  C98  1  0.756000  0.833100  0.246700  1.0  -0.0017
  C  C99  1  0.848000  0.903800  0.300000  1.0  -0.0391
  C  C100  1  0.843000  0.902900  0.357600  1.0  -0.0921
  C  C101  1  0.946500  0.980400  0.401000  1.0  -0.0224
  C  C102  1  0.053000  0.053500  0.387900  1.0  -0.1476
  C  C103  1  0.168900  0.138200  0.435300  1.0  0.6971
  C  C104  1  0.060700  0.054600  0.330000  1.0  -0.1066
  C  C105  1  0.958600  0.978600  0.288400  1.0  -0.0159
  C  C106  1  0.943300  0.963100  0.222400  1.0  0.0077
  C  C107  1  0.052000  0.932000  0.210700  1.0  -0.3222
  C  C108  1  0.948000  0.061000  0.195800  1.0  -0.3421
  C  C109  1  0.808400  0.867000  0.200600  1.0  0.0257
  C  C110  1  0.746700  0.812400  0.146700  1.0  -0.0514
  C  C111  1  0.462000  0.160500  0.581400  1.0  0.6723
  C  C112  1  0.496600  0.081200  0.614400  1.0  -0.1464
  C  C113  1  0.531000  0.006600  0.588400  1.0  -0.0299
  C  C114  1  0.563000  0.932400  0.617700  1.0  -0.1494
  C  C115  1  0.557700  0.932000  0.676100  1.0  -0.0676
  C  C116  1  0.579000  0.861000  0.716300  1.0  -0.0608
  C  C117  1  0.618000  0.774500  0.713200  1.0  -0.1193
  C  C118  1  0.631000  0.724800  0.759900  1.0  -0.0246
  C  C119  1  0.611000  0.753200  0.810800  1.0  -0.136
  C  C120  1  0.627000  0.701700  0.862100  1.0  0.653
  C  C121  1  0.575000  0.843100  0.815300  1.0  -0.0625
  C  C122  1  0.556400  0.893800  0.768500  1.0  0.0387
  C  C123  1  0.517300  0.986100  0.763300  1.0  0.0944
  C  C124  1  0.611000  0.081900  0.809400  1.0  -0.3599
  C  C125  1  0.373000  0.951200  0.768100  1.0  -0.3329
  C  C126  1  0.521000  0.004500  0.701800  1.0  -0.0166
  C  C127  1  0.491300  0.079100  0.672200  1.0  -0.0747
  C  C128  1  0.292000  0.499000  0.923700  1.0  0.7346
  C  C129  1  0.217200  0.526400  0.871300  1.0  -0.1383
  C  C130  1  0.279000  0.618300  0.848600  1.0  -0.0511
  C  C131  1  0.208000  0.646800  0.803100  1.0  -0.0875
  C  C132  1  0.075700  0.581500  0.777100  1.0  -0.041
  C  C133  1  0.980500  0.586800  0.727200  1.0  -0.054
  C  C134  1  0.991000  0.661600  0.688900  1.0  -0.0973
  C  C135  1  0.886000  0.643300  0.641500  1.0  -0.0292
  C  C136  1  0.769600  0.550700  0.630800  1.0  -0.1692
  C  C137  1  0.657400  0.527800  0.578800  1.0  0.7165
  C  C138  1  0.757200  0.477800  0.669100  1.0  -0.1279
  C  C139  1  0.861900  0.495600  0.716600  1.0  -0.0074
  C  C140  1  0.873800  0.423900  0.763000  1.0  0.0042
  C  C141  1  0.773000  0.416000  0.798600  1.0  -0.3701
  C  C142  1  0.853000  0.314000  0.736600  1.0  -0.3432
  C  C143  1  0.016100  0.487900  0.799300  1.0  -0.0012
  C  C144  1  0.085500  0.460400  0.846400  1.0  -0.0816
  C  C145  1  0.452000  0.336200  0.925000  1.0  0.7381
  C  C146  1  0.383100  0.280000  0.864400  1.0  -0.151
  C  C147  1  0.432000  0.305600  0.819300  1.0  -0.0033
  C  C148  1  0.368000  0.252800  0.764100  1.0  -0.1301
  C  C149  1  0.244000  0.166900  0.753300  1.0  -0.002
  C  C150  1  0.152000  0.096200  0.700000  1.0  -0.0392
  C  C151  1  0.157000  0.097100  0.642400  1.0  -0.0918
  C  C152  1  0.053500  0.019600  0.599000  1.0  -0.0264
  C  C153  1  0.947000  0.946500  0.612100  1.0  -0.1481
  C  C154  1  0.831100  0.861800  0.564700  1.0  0.6987
  C  C155  1  0.939300  0.945400  0.670000  1.0  -0.107
  C  C156  1  0.041400  0.021400  0.711600  1.0  -0.0155
  C  C157  1  0.056700  0.036900  0.777600  1.0  0.0099
  C  C158  1  0.948000  0.068000  0.789300  1.0  -0.322
  C  C159  1  0.052000  0.939000  0.804200  1.0  -0.3437
  C  C160  1  0.191600  0.133000  0.799400  1.0  0.0249
  C  C161  1  0.253300  0.187600  0.853300  1.0  -0.0534
  C  C162  1  0.538000  0.839500  0.418600  1.0  0.6719
  C  C163  1  0.503400  0.918800  0.385600  1.0  -0.149
  C  C164  1  0.469000  0.993400  0.411600  1.0  -0.028
  C  C165  1  0.437000  0.067600  0.382300  1.0  -0.1488
  C  C166  1  0.442300  0.068000  0.323900  1.0  -0.0669
  C  C167  1  0.421000  0.139000  0.283700  1.0  -0.0632
  C  C168  1  0.382000  0.225500  0.286800  1.0  -0.1234
  C  C169  1  0.369000  0.275200  0.240100  1.0  -0.0215
  C  C170  1  0.389000  0.246800  0.189200  1.0  -0.1386
  C  C171  1  0.373000  0.298300  0.137900  1.0  0.654
  C  C172  1  0.425000  0.156900  0.184700  1.0  -0.0627
  C  C173  1  0.443600  0.106200  0.231500  1.0  0.0387
  C  C174  1  0.482700  0.013900  0.236700  1.0  0.0927
  C  C175  1  0.389000  0.918100  0.190600  1.0  -0.3577
  C  C176  1  0.627000  0.048800  0.231900  1.0  -0.3342
  C  C177  1  0.479000  0.995500  0.298200  1.0  -0.0169
  C  C178  1  0.508700  0.920900  0.327800  1.0  -0.075
  O  O179  1  0.769600  0.560700  0.046500  1.0  -0.6555
  O  O180  1  0.583200  0.463000  0.064800  1.0  -0.7831
  O  O181  1  0.453600  0.543800  0.423500  1.0  -0.734
  O  O182  1  0.318000  0.420300  0.463100  1.0  -0.758
  O  O183  1  0.606400  0.691300  0.035400  1.0  -0.6918
  O  O184  1  0.435500  0.587600  0.066500  1.0  -0.6935
  O  O185  1  0.268400  0.196100  0.421300  1.0  -0.6152
  O  O186  1  0.159600  0.146300  0.485800  1.0  -0.5989
  O  O187  1  0.457000  0.156300  0.528400  1.0  -0.6787
  O  O188  1  0.435300  0.230400  0.606900  1.0  -0.6643
  O  O189  1  0.636700  0.610800  0.857900  1.0  -0.6452
  O  O190  1  0.627800  0.741600  0.912000  1.0  -0.6572
  O  O191  1  0.230400  0.439300  0.953500  1.0  -0.6553
  O  O192  1  0.416800  0.537000  0.935200  1.0  -0.7834
  O  O193  1  0.546400  0.456200  0.576500  1.0  -0.7331
  O  O194  1  0.682000  0.579700  0.536900  1.0  -0.7573
  O  O195  1  0.393600  0.308700  0.964600  1.0  -0.6909
  O  O196  1  0.564500  0.412400  0.933500  1.0  -0.6947
  O  O197  1  0.731600  0.803900  0.578700  1.0  -0.6158
  O  O198  1  0.840400  0.853700  0.514200  1.0  -0.5951
  O  O199  1  0.543000  0.843700  0.471600  1.0  -0.6827
  O  O200  1  0.564700  0.769600  0.393100  1.0  -0.6645
  O  O201  1  0.363300  0.389200  0.142100  1.0  -0.6454
  O  O202  1  0.372200  0.258400  0.088000  1.0  -0.6555
