# generated using pymatgen
data_Co3P2H6C12(NO5)2
_symmetry_space_group_name_H-M   'P 1'
_cell_length_a   8.71670000
_cell_length_b   9.75200000
_cell_length_c   13.86420000
_cell_angle_alpha   84.03000000
_cell_angle_beta   79.44600000
_cell_angle_gamma   73.02900000
_symmetry_Int_Tables_number   1
_chemical_formula_structural   Co3P2H6C12(NO5)2
_chemical_formula_sum   'Co6 P4 H12 C24 N4 O20'
_cell_volume   1106.53647642
_cell_formula_units_Z   2
loop_
 _symmetry_equiv_pos_site_id
 _symmetry_equiv_pos_as_xyz
  1  'x, y, z'
loop_
 _atom_site_type_symbol
 _atom_site_label
 _atom_site_symmetry_multiplicity
 _atom_site_fract_x
 _atom_site_fract_y
 _atom_site_fract_z
 _atom_site_occupancy
 _atom_site_charge
  Co  Co1  1  0.361930  0.584150  0.939750  1.0  0.8319
  Co  Co2  1  0.577200  0.978890  0.088480  1.0  1.0132
  Co  Co3  1  0.939890  0.275480  0.522390  1.0  0.8362
  Co  Co4  1  0.638070  0.415850  0.060250  1.0  0.8326
  Co  Co5  1  0.422800  0.021110  0.911520  1.0  1.0132
  Co  Co6  1  0.060110  0.724520  0.477610  1.0  0.8357
  P  P7  1  0.670100  0.718060  0.948620  1.0  1.4523
  P  P8  1  0.264870  0.827520  0.100860  1.0  1.4295
  P  P9  1  0.329900  0.281940  0.051380  1.0  1.4547
  P  P10  1  0.735130  0.172480  0.899140  1.0  1.4265
  H  H11  1  0.994100  0.697300  0.968800  1.0  0.1002
  H  H12  1  0.801600  0.520200  0.787800  1.0  0.1303
  H  H13  1  0.283500  0.402800  0.794100  1.0  0.108
  H  H14  1  0.947900  0.869600  0.058000  1.0  0.098
  H  H15  1  0.119700  0.043900  0.251600  1.0  0.1389
  H  H16  1  0.645000  0.166500  0.225100  1.0  0.1092
  H  H17  1  0.005900  0.302700  0.031200  1.0  0.1004
  H  H18  1  0.198400  0.479800  0.212200  1.0  0.1306
  H  H19  1  0.716500  0.597200  0.205900  1.0  0.1086
  H  H20  1  0.052100  0.130400  0.942000  1.0  0.0976
  H  H21  1  0.880300  0.956100  0.748400  1.0  0.1399
  H  H22  1  0.355000  0.833500  0.774900  1.0  0.1085
  C  C23  1  0.007800  0.631100  0.920200  1.0  0.2141
  C  C24  1  0.869100  0.619900  0.888700  1.0  -0.2438
  C  C25  1  0.892100  0.527300  0.814000  1.0  0.0053
  C  C26  1  0.047300  0.445600  0.778000  1.0  -0.1405
  C  C27  1  0.177300  0.460800  0.817100  1.0  0.1886
  C  C28  1  0.075000  0.346200  0.696200  1.0  0.6528
  C  C29  1  0.929800  0.935100  0.107700  1.0  0.1993
  C  C30  1  0.063400  0.942500  0.146200  1.0  -0.2586
  C  C31  1  0.033200  0.037300  0.221100  1.0  0.0022
  C  C32  1  0.875500  0.121900  0.250600  1.0  -0.1338
  C  C33  1  0.752100  0.107500  0.205600  1.0  0.1905
  C  C34  1  0.830600  0.219500  0.335000  1.0  0.6967
  C  C35  1  0.992200  0.368900  0.079800  1.0  0.214
  C  C36  1  0.130900  0.380100  0.111300  1.0  -0.245
  C  C37  1  0.107900  0.472700  0.186000  1.0  0.009
  C  C38  1  0.952700  0.554400  0.222000  1.0  -0.1389
  C  C39  1  0.822700  0.539200  0.182900  1.0  0.1895
  C  C40  1  0.925000  0.653800  0.303800  1.0  0.6468
  C  C41  1  0.070200  0.064900  0.892300  1.0  0.2
  C  C42  1  0.936600  0.057500  0.853800  1.0  -0.2614
  C  C43  1  0.966800  0.962700  0.778900  1.0  -0.0024
  C  C44  1  0.124500  0.878100  0.749400  1.0  -0.1377
  C  C45  1  0.247900  0.892500  0.794400  1.0  0.1895
  C  C46  1  0.169400  0.780500  0.665000  1.0  0.6998
  N  N47  1  0.159100  0.554100  0.886000  1.0  -0.3275
  N  N48  1  0.776200  0.014700  0.136300  1.0  -0.3288
  N  N49  1  0.840900  0.445900  0.114000  1.0  -0.3288
  N  N50  1  0.223800  0.985300  0.863700  1.0  -0.327
  O  O51  1  0.583100  0.822100  0.873470  1.0  -0.7966
  O  O52  1  0.704300  0.785000  0.032760  1.0  -0.7896
  O  O53  1  0.579300  0.602300  0.982410  1.0  -0.8503
  O  O54  1  0.963700  0.375500  0.643870  1.0  -0.6203
  O  O55  1  0.202700  0.244100  0.684210  1.0  -0.5448
  O  O56  1  0.330300  0.742000  0.190890  1.0  -0.5853
  O  O57  1  0.233600  0.736200  0.028070  1.0  -0.8031
  O  O58  1  0.368000  0.926500  0.053970  1.0  -0.8205
  O  O59  1  0.712400  0.328700  0.335330  1.0  -0.4983
  O  O60  1  0.916100  0.176000  0.403000  1.0  -0.6477
  O  O61  1  0.416900  0.177900  0.126530  1.0  -0.7967
  O  O62  1  0.295700  0.215000  0.967240  1.0  -0.7889
  O  O63  1  0.420700  0.397700  0.017590  1.0  -0.8499
  O  O64  1  0.036300  0.624500  0.356130  1.0  -0.6214
  O  O65  1  0.797300  0.755900  0.315790  1.0  -0.5398
  O  O66  1  0.669700  0.258000  0.809110  1.0  -0.5883
  O  O67  1  0.766400  0.263800  0.971930  1.0  -0.8041
  O  O68  1  0.632000  0.073500  0.946030  1.0  -0.8211
  O  O69  1  0.287600  0.671300  0.664670  1.0  -0.4998
  O  O70  1  0.083900  0.824000  0.597000  1.0  -0.6533
