# generated using pymatgen
data_FeAg3H27C51(NO)6
_symmetry_space_group_name_H-M   'P 1'
_cell_length_a   15.21690000
_cell_length_b   15.21690000
_cell_length_c   16.73800000
_cell_angle_alpha   90.00000000
_cell_angle_beta   90.00000000
_cell_angle_gamma   120.00000000
_symmetry_Int_Tables_number   1
_chemical_formula_structural   FeAg3H27C51(NO)6
_chemical_formula_sum   'Fe2 Ag6 H54 C102 N12 O12'
_cell_volume   3356.49935771
_cell_formula_units_Z   2
loop_
 _symmetry_equiv_pos_site_id
 _symmetry_equiv_pos_as_xyz
  1  'x, y, z'
loop_
 _atom_site_type_symbol
 _atom_site_label
 _atom_site_symmetry_multiplicity
 _atom_site_fract_x
 _atom_site_fract_y
 _atom_site_fract_z
 _atom_site_occupancy
 _atom_site_charge
  Fe  Fe1  1  0.333333  0.666667  0.317400  1.0  1.2329
  Fe  Fe2  1  0.666667  0.333333  0.682600  1.0  1.2308
  Ag  Ag3  1  0.759120  0.633050  0.778410  1.0  0.4999
  Ag  Ag4  1  0.873930  0.240880  0.778410  1.0  0.5023
  Ag  Ag5  1  0.366950  0.126070  0.778410  1.0  0.5018
  Ag  Ag6  1  0.240880  0.366950  0.221590  1.0  0.4997
  Ag  Ag7  1  0.126070  0.759120  0.221590  1.0  0.5012
  Ag  Ag8  1  0.633050  0.873930  0.221590  1.0  0.5027
  H  H9  1  0.019900  0.566200  0.285600  1.0  0.1223
  H  H10  1  0.206700  0.519400  0.108500  1.0  0.1147
  H  H11  1  0.933900  0.437500  0.203300  1.0  0.1114
  H  H12  1  0.127100  0.429500  0.992600  1.0  0.1173
  H  H13  1  0.855300  0.349900  0.088800  1.0  0.1229
  H  H14  1  0.169900  0.650100  0.520500  1.0  0.1109
  H  H15  1  0.948200  0.611500  0.371100  1.0  0.1124
  H  H16  1  0.080200  0.662300  0.627900  1.0  0.1205
  H  H17  1  0.853500  0.615500  0.478300  1.0  0.1075
  H  H18  1  0.546300  0.980100  0.285600  1.0  0.1198
  H  H19  1  0.312700  0.793300  0.108500  1.0  0.114
  H  H20  1  0.503600  0.066100  0.203300  1.0  0.1128
  H  H21  1  0.302400  0.872900  0.992600  1.0  0.1178
  H  H22  1  0.494600  0.144700  0.088800  1.0  0.1219
  H  H23  1  0.480200  0.830100  0.520500  1.0  0.1111
  H  H24  1  0.663300  0.051800  0.371100  1.0  0.1127
  H  H25  1  0.582100  0.919800  0.627900  1.0  0.1192
  H  H26  1  0.762000  0.146500  0.478300  1.0  0.1068
  H  H27  1  0.433800  0.453700  0.285600  1.0  0.1193
  H  H28  1  0.480600  0.687300  0.108500  1.0  0.1147
  H  H29  1  0.562500  0.496400  0.203300  1.0  0.1117
  H  H30  1  0.570500  0.697600  0.992600  1.0  0.1185
  H  H31  1  0.650100  0.505400  0.088800  1.0  0.1228
  H  H32  1  0.349900  0.519800  0.520500  1.0  0.1097
  H  H33  1  0.388500  0.336700  0.371100  1.0  0.1141
  H  H34  1  0.337700  0.417900  0.627900  1.0  0.1199
  H  H35  1  0.384500  0.238000  0.478300  1.0  0.1066
  H  H36  1  0.980100  0.433800  0.714400  1.0  0.1222
  H  H37  1  0.793300  0.480600  0.891500  1.0  0.1143
  H  H38  1  0.066100  0.562500  0.796700  1.0  0.1128
  H  H39  1  0.872900  0.570500  0.007400  1.0  0.1193
  H  H40  1  0.144700  0.650100  0.911200  1.0  0.1228
  H  H41  1  0.830100  0.349900  0.479500  1.0  0.1108
  H  H42  1  0.051800  0.388500  0.628900  1.0  0.1125
  H  H43  1  0.919800  0.337700  0.372100  1.0  0.1196
  H  H44  1  0.146500  0.384500  0.521700  1.0  0.1073
  H  H45  1  0.453700  0.019900  0.714400  1.0  0.1196
  H  H46  1  0.687300  0.206700  0.891500  1.0  0.1143
  H  H47  1  0.496400  0.933900  0.796700  1.0  0.113
  H  H48  1  0.697600  0.127100  0.007400  1.0  0.1183
  H  H49  1  0.505400  0.855300  0.911200  1.0  0.1209
  H  H50  1  0.519800  0.169900  0.479500  1.0  0.1099
  H  H51  1  0.336700  0.948200  0.628900  1.0  0.1124
  H  H52  1  0.417900  0.080200  0.372100  1.0  0.1194
  H  H53  1  0.238000  0.853500  0.521700  1.0  0.1071
  H  H54  1  0.566200  0.546300  0.714400  1.0  0.1196
  H  H55  1  0.519400  0.312700  0.891500  1.0  0.1148
  H  H56  1  0.437500  0.503600  0.796700  1.0  0.1122
  H  H57  1  0.429500  0.302400  0.007400  1.0  0.1202
  H  H58  1  0.349900  0.494600  0.911200  1.0  0.1228
  H  H59  1  0.650100  0.480200  0.479500  1.0  0.1098
  H  H60  1  0.611500  0.663300  0.628900  1.0  0.1139
  H  H61  1  0.662300  0.582100  0.372100  1.0  0.1196
  H  H62  1  0.615500  0.762000  0.521700  1.0  0.107
  C  C63  1  0.127700  0.618100  0.370000  1.0  0.3997
  C  C64  1  0.084000  0.575900  0.297000  1.0  -0.5448
  C  C65  1  0.132900  0.546900  0.238600  1.0  0.3934
  C  C66  1  0.079100  0.490100  0.166300  1.0  -0.0569
  C  C67  1  0.136400  0.486100  0.104200  1.0  -0.0807
  C  C68  1  0.972700  0.436900  0.160600  1.0  -0.0914
  C  C69  1  0.089200  0.432300  0.035100  1.0  -0.0921
  C  C70  1  0.925600  0.384200  0.093000  1.0  -0.1059
  C  C71  1  0.984600  0.383000  0.031400  1.0  -0.0802
  C  C72  1  0.935700  0.326600  0.958800  1.0  0.3694
  C  C73  1  0.067200  0.626000  0.436300  1.0  -0.0345
  C  C74  1  0.106400  0.643300  0.512100  1.0  -0.0839
  C  C75  1  0.973300  0.619100  0.422900  1.0  -0.1077
  C  C76  1  0.053000  0.650600  0.576700  1.0  -0.0983
  C  C77  1  0.917600  0.623500  0.486400  1.0  -0.0708
  C  C78  1  0.959400  0.640300  0.563000  1.0  -0.0739
  C  C79  1  0.903100  0.648700  0.629100  1.0  0.3805
  C  C80  1  0.490400  0.872300  0.370000  1.0  0.4011
  C  C81  1  0.491900  0.916000  0.297000  1.0  -0.5372
  C  C82  1  0.414000  0.867100  0.238600  1.0  0.3952
  C  C83  1  0.411000  0.920900  0.166300  1.0  -0.0576
  C  C84  1  0.349700  0.863600  0.104200  1.0  -0.0784
  C  C85  1  0.464200  0.027300  0.160600  1.0  -0.0941
  C  C86  1  0.343100  0.910800  0.035100  1.0  -0.0886
  C  C87  1  0.458600  0.074400  0.093000  1.0  -0.1018
  C  C88  1  0.398400  0.015400  0.031400  1.0  -0.0818
  C  C89  1  0.390900  0.064300  0.958800  1.0  0.3702
  C  C90  1  0.558800  0.932800  0.436300  1.0  -0.0341
  C  C91  1  0.536900  0.893600  0.512100  1.0  -0.0818
  C  C92  1  0.645800  0.026700  0.422900  1.0  -0.108
  C  C93  1  0.597600  0.947000  0.576700  1.0  -0.0928
  C  C94  1  0.705900  0.082400  0.486400  1.0  -0.071
  C  C95  1  0.680900  0.040600  0.563000  1.0  -0.0753
  C  C96  1  0.745600  0.096900  0.629100  1.0  0.384
  C  C97  1  0.381900  0.509600  0.370000  1.0  0.4007
  C  C98  1  0.424100  0.508100  0.297000  1.0  -0.5375
  C  C99  1  0.453100  0.586000  0.238600  1.0  0.3956
  C  C100  1  0.509900  0.589000  0.166300  1.0  -0.0574
  C  C101  1  0.513900  0.650300  0.104200  1.0  -0.0789
  C  C102  1  0.563100  0.535800  0.160600  1.0  -0.0912
  C  C103  1  0.567700  0.656900  0.035100  1.0  -0.0946
  C  C104  1  0.615800  0.541400  0.093000  1.0  -0.1042
  C  C105  1  0.617000  0.601600  0.031400  1.0  -0.0817
  C  C106  1  0.673400  0.609100  0.958800  1.0  0.3688
  C  C107  1  0.374000  0.441200  0.436300  1.0  -0.0345
  C  C108  1  0.356700  0.463100  0.512100  1.0  -0.0772
  C  C109  1  0.380900  0.354200  0.422900  1.0  -0.1098
  C  C110  1  0.349400  0.402400  0.576700  1.0  -0.0892
  C  C111  1  0.376500  0.294100  0.486400  1.0  -0.0731
  C  C112  1  0.359700  0.319100  0.563000  1.0  -0.0723
  C  C113  1  0.351300  0.254400  0.629100  1.0  0.3832
  C  C114  1  0.872300  0.381900  0.630000  1.0  0.4007
  C  C115  1  0.916000  0.424100  0.703000  1.0  -0.5385
  C  C116  1  0.867100  0.453100  0.761400  1.0  0.3945
  C  C117  1  0.920900  0.509900  0.833700  1.0  -0.0567
  C  C118  1  0.863600  0.513900  0.895800  1.0  -0.079
  C  C119  1  0.027300  0.563100  0.839400  1.0  -0.0916
  C  C120  1  0.910800  0.567700  0.964900  1.0  -0.0928
  C  C121  1  0.074400  0.615800  0.907000  1.0  -0.1056
  C  C122  1  0.015400  0.617000  0.968600  1.0  -0.0805
  C  C123  1  0.064300  0.673400  0.041200  1.0  0.3674
  C  C124  1  0.932800  0.374000  0.563700  1.0  -0.0341
  C  C125  1  0.893600  0.356700  0.487900  1.0  -0.0817
  C  C126  1  0.026700  0.380900  0.577100  1.0  -0.1085
  C  C127  1  0.947000  0.349400  0.423300  1.0  -0.0939
  C  C128  1  0.082400  0.376500  0.513600  1.0  -0.0758
  C  C129  1  0.040600  0.359700  0.437000  1.0  -0.0699
  C  C130  1  0.096900  0.351300  0.370900  1.0  0.3796
  C  C131  1  0.509600  0.127700  0.630000  1.0  0.4014
  C  C132  1  0.508100  0.084000  0.703000  1.0  -0.5472
  C  C133  1  0.586000  0.132900  0.761400  1.0  0.3953
  C  C134  1  0.589000  0.079100  0.833700  1.0  -0.058
  C  C135  1  0.650300  0.136400  0.895800  1.0  -0.0789
  C  C136  1  0.535800  0.972700  0.839400  1.0  -0.0947
  C  C137  1  0.656900  0.089200  0.964900  1.0  -0.0898
  C  C138  1  0.541400  0.925600  0.907000  1.0  -0.1049
  C  C139  1  0.601600  0.984600  0.968600  1.0  -0.0823
  C  C140  1  0.609100  0.935700  0.041200  1.0  0.3699
  C  C141  1  0.441200  0.067200  0.563700  1.0  -0.0347
  C  C142  1  0.463100  0.106400  0.487900  1.0  -0.0822
  C  C143  1  0.354200  0.973300  0.577100  1.0  -0.1093
  C  C144  1  0.402400  0.053000  0.423300  1.0  -0.0915
  C  C145  1  0.294100  0.917600  0.513600  1.0  -0.0706
  C  C146  1  0.319100  0.959400  0.437000  1.0  -0.0763
  C  C147  1  0.254400  0.903100  0.370900  1.0  0.3837
  C  C148  1  0.618100  0.490400  0.630000  1.0  0.3997
  C  C149  1  0.575900  0.491900  0.703000  1.0  -0.5435
  C  C150  1  0.546900  0.414000  0.761400  1.0  0.3946
  C  C151  1  0.490100  0.411000  0.833700  1.0  -0.0583
  C  C152  1  0.486100  0.349700  0.895800  1.0  -0.0799
  C  C153  1  0.436900  0.464200  0.839400  1.0  -0.0903
  C  C154  1  0.432300  0.343100  0.964900  1.0  -0.0931
  C  C155  1  0.384200  0.458600  0.907000  1.0  -0.1056
  C  C156  1  0.383000  0.398400  0.968600  1.0  -0.0832
  C  C157  1  0.326600  0.390900  0.041200  1.0  0.3686
  C  C158  1  0.626000  0.558800  0.563700  1.0  -0.0338
  C  C159  1  0.643300  0.536900  0.487900  1.0  -0.0786
  C  C160  1  0.619100  0.645800  0.577100  1.0  -0.1119
  C  C161  1  0.650600  0.597600  0.423300  1.0  -0.0957
  C  C162  1  0.623500  0.705900  0.513600  1.0  -0.0713
  C  C163  1  0.640300  0.680900  0.437000  1.0  -0.0716
  C  C164  1  0.648700  0.745600  0.370900  1.0  0.3812
  N  N165  1  0.857100  0.652200  0.682200  1.0  -0.4273
  N  N166  1  0.897600  0.284600  0.901600  1.0  -0.4512
  N  N167  1  0.795100  0.142900  0.682200  1.0  -0.4305
  N  N168  1  0.387000  0.102400  0.901600  1.0  -0.4507
  N  N169  1  0.347800  0.204900  0.682200  1.0  -0.4322
  N  N170  1  0.715400  0.613000  0.901600  1.0  -0.4529
  N  N171  1  0.142900  0.347800  0.317800  1.0  -0.4296
  N  N172  1  0.102400  0.715400  0.098400  1.0  -0.4543
  N  N173  1  0.204900  0.857100  0.317800  1.0  -0.4318
  N  N174  1  0.613000  0.897600  0.098400  1.0  -0.4506
  N  N175  1  0.652200  0.795100  0.317800  1.0  -0.4317
  N  N176  1  0.284600  0.387000  0.098400  1.0  -0.4536
  O  O177  1  0.220500  0.650100  0.386800  1.0  -0.5471
  O  O178  1  0.224400  0.567000  0.245300  1.0  -0.5534
  O  O179  1  0.429600  0.779500  0.386800  1.0  -0.5471
  O  O180  1  0.342600  0.775600  0.245300  1.0  -0.5551
  O  O181  1  0.349900  0.570400  0.386800  1.0  -0.5497
  O  O182  1  0.433000  0.657400  0.245300  1.0  -0.5537
  O  O183  1  0.779500  0.349900  0.613200  1.0  -0.5479
  O  O184  1  0.775600  0.433000  0.754700  1.0  -0.5524
  O  O185  1  0.570400  0.220500  0.613200  1.0  -0.5488
  O  O186  1  0.657400  0.224400  0.754700  1.0  -0.5529
  O  O187  1  0.650100  0.429600  0.613200  1.0  -0.5487
  O  O188  1  0.567000  0.342600  0.754700  1.0  -0.5548
