# generated using pymatgen
data_CdRe3Ag3H27C51(NO3)6
_symmetry_space_group_name_H-M   'P 1'
_cell_length_a   15.80840000
_cell_length_b   15.80840000
_cell_length_c   16.58230000
_cell_angle_alpha   90.00000000
_cell_angle_beta   90.00000000
_cell_angle_gamma   120.00000000
_symmetry_Int_Tables_number   1
_chemical_formula_structural   CdRe3Ag3H27C51(NO3)6
_chemical_formula_sum   'Cd2 Re6 Ag6 H54 C102 N12 O36'
_cell_volume   3588.81632945
_cell_formula_units_Z   2
loop_
 _symmetry_equiv_pos_site_id
 _symmetry_equiv_pos_as_xyz
  1  'x, y, z'
loop_
 _atom_site_type_symbol
 _atom_site_label
 _atom_site_symmetry_multiplicity
 _atom_site_fract_x
 _atom_site_fract_y
 _atom_site_fract_z
 _atom_site_occupancy
 _atom_site_charge
  Cd  Cd1  1  0.666667  0.333333  0.324060  1.0  1.0606
  Cd  Cd2  1  0.333333  0.666667  0.675940  1.0  1.0613
  Re  Re3  1  0.150670  0.783700  0.205120  1.0  1.1985
  Re  Re4  1  0.216300  0.366970  0.205120  1.0  1.1978
  Re  Re5  1  0.633030  0.849330  0.205120  1.0  1.1968
  Re  Re6  1  0.849330  0.216300  0.794880  1.0  1.1976
  Re  Re7  1  0.783700  0.633030  0.794880  1.0  1.1999
  Re  Re8  1  0.366970  0.150670  0.794880  1.0  1.1966
  Ag  Ag9  1  0.871690  0.597980  0.235050  1.0  0.5042
  Ag  Ag10  1  0.402020  0.273710  0.235050  1.0  0.5082
  Ag  Ag11  1  0.726290  0.128310  0.235050  1.0  0.5087
  Ag  Ag12  1  0.128310  0.402020  0.764950  1.0  0.5102
  Ag  Ag13  1  0.597980  0.726290  0.764950  1.0  0.5049
  Ag  Ag14  1  0.273710  0.871690  0.764950  1.0  0.508
  H  H15  1  0.979100  0.538500  0.285100  1.0  0.1781
  H  H16  1  0.848100  0.502500  0.524900  1.0  0.1376
  H  H17  1  0.067500  0.631500  0.371700  1.0  0.1531
  H  H18  1  0.935800  0.609100  0.625100  1.0  0.1611
  H  H19  1  0.163100  0.743600  0.468000  1.0  0.1536
  H  H20  1  0.807100  0.316700  0.106300  1.0  0.1529
  H  H21  1  0.060800  0.493100  0.203100  1.0  0.1305
  H  H22  1  0.887100  0.316000  0.987500  1.0  0.145
  H  H23  1  0.138900  0.484800  0.085500  1.0  0.1457
  H  H24  1  0.461500  0.440600  0.285100  1.0  0.1768
  H  H25  1  0.497500  0.345600  0.524900  1.0  0.1404
  H  H26  1  0.368500  0.436000  0.371700  1.0  0.1537
  H  H27  1  0.390900  0.326700  0.625100  1.0  0.161
  H  H28  1  0.256400  0.419500  0.468000  1.0  0.1536
  H  H29  1  0.683300  0.490400  0.106300  1.0  0.153
  H  H30  1  0.506900  0.567700  0.203100  1.0  0.1304
  H  H31  1  0.684000  0.571100  0.987500  1.0  0.1445
  H  H32  1  0.515200  0.654100  0.085500  1.0  0.146
  H  H33  1  0.559400  0.020900  0.285100  1.0  0.1776
  H  H34  1  0.654400  0.151900  0.524900  1.0  0.139
  H  H35  1  0.564000  0.932500  0.371700  1.0  0.1523
  H  H36  1  0.673300  0.064200  0.625100  1.0  0.1609
  H  H37  1  0.580500  0.836900  0.468000  1.0  0.1539
  H  H38  1  0.509600  0.192900  0.106300  1.0  0.1521
  H  H39  1  0.432300  0.939200  0.203100  1.0  0.1306
  H  H40  1  0.428900  0.112900  0.987500  1.0  0.145
  H  H41  1  0.345900  0.861100  0.085500  1.0  0.1435
  H  H42  1  0.020900  0.461500  0.714900  1.0  0.1777
  H  H43  1  0.151900  0.497500  0.475100  1.0  0.1385
  H  H44  1  0.932500  0.368500  0.628300  1.0  0.152
  H  H45  1  0.064200  0.390900  0.374900  1.0  0.1604
  H  H46  1  0.836900  0.256400  0.532000  1.0  0.1542
  H  H47  1  0.192900  0.683300  0.893700  1.0  0.1534
  H  H48  1  0.939200  0.506900  0.796900  1.0  0.1313
  H  H49  1  0.112900  0.684000  0.012500  1.0  0.1451
  H  H50  1  0.861100  0.515200  0.914500  1.0  0.1452
  H  H51  1  0.538500  0.559400  0.714900  1.0  0.1784
  H  H52  1  0.502500  0.654400  0.475100  1.0  0.1399
  H  H53  1  0.631500  0.564000  0.628300  1.0  0.1531
  H  H54  1  0.609100  0.673300  0.374900  1.0  0.1605
  H  H55  1  0.743600  0.580500  0.532000  1.0  0.1529
  H  H56  1  0.316700  0.509600  0.893700  1.0  0.1532
  H  H57  1  0.493100  0.432300  0.796900  1.0  0.1307
  H  H58  1  0.316000  0.428900  0.012500  1.0  0.1451
  H  H59  1  0.484800  0.345900  0.914500  1.0  0.146
  H  H60  1  0.440600  0.979100  0.714900  1.0  0.1782
  H  H61  1  0.345600  0.848100  0.475100  1.0  0.1398
  H  H62  1  0.436000  0.067500  0.628300  1.0  0.1514
  H  H63  1  0.326700  0.935800  0.374900  1.0  0.1609
  H  H64  1  0.419500  0.163100  0.532000  1.0  0.1537
  H  H65  1  0.490400  0.807100  0.893700  1.0  0.1525
  H  H66  1  0.567700  0.060800  0.796900  1.0  0.1306
  H  H67  1  0.571100  0.887100  0.012500  1.0  0.145
  H  H68  1  0.654100  0.138900  0.914500  1.0  0.1432
  C  C69  1  0.870700  0.406800  0.240200  1.0  0.2549
  C  C70  1  0.919100  0.485200  0.299000  1.0  -0.3122
  C  C71  1  0.880900  0.485400  0.375200  1.0  0.4252
  C  C72  1  0.947500  0.560000  0.436300  1.0  -0.0267
  C  C73  1  0.911000  0.552800  0.513800  1.0  -0.0271
  C  C74  1  0.041000  0.629000  0.422300  1.0  -0.0427
  C  C75  1  0.962900  0.615700  0.574100  1.0  -0.1129
  C  C76  1  0.099100  0.696000  0.479600  1.0  -0.1018
  C  C77  1  0.057600  0.690100  0.557900  1.0  0.0175
  C  C78  1  0.117000  0.757400  0.621100  1.0  0.3863
  C  C79  1  0.927900  0.407200  0.166700  1.0  0.1113
  C  C80  1  0.874900  0.352700  0.103100  1.0  -0.0386
  C  C81  1  0.023300  0.455200  0.160100  1.0  -0.1186
  C  C82  1  0.923000  0.351000  0.032200  1.0  -0.1191
  C  C83  1  0.071100  0.450700  0.088600  1.0  -0.1285
  C  C84  1  0.021200  0.400200  0.029500  1.0  0.4234
  C  C85  1  0.071100  0.402600  0.957200  1.0  0.2638
  C  C86  1  0.593200  0.463900  0.240200  1.0  0.2552
  C  C87  1  0.514800  0.433900  0.299000  1.0  -0.3155
  C  C88  1  0.514600  0.395500  0.375200  1.0  0.4269
  C  C89  1  0.440000  0.387500  0.436300  1.0  -0.024
  C  C90  1  0.447200  0.358200  0.513800  1.0  -0.0311
  C  C91  1  0.371000  0.412000  0.422300  1.0  -0.041
  C  C92  1  0.384300  0.347200  0.574100  1.0  -0.1125
  C  C93  1  0.304000  0.403100  0.479600  1.0  -0.0976
  C  C94  1  0.309900  0.367500  0.557900  1.0  0.0123
  C  C95  1  0.242600  0.359600  0.621100  1.0  0.3864
  C  C96  1  0.592800  0.520700  0.166700  1.0  0.1105
  C  C97  1  0.647300  0.522200  0.103100  1.0  -0.0388
  C  C98  1  0.544800  0.568100  0.160100  1.0  -0.1178
  C  C99  1  0.649000  0.572000  0.032200  1.0  -0.1166
  C  C100  1  0.549300  0.620400  0.088600  1.0  -0.1309
  C  C101  1  0.599800  0.621000  0.029500  1.0  0.4269
  C  C102  1  0.597400  0.668500  0.957200  1.0  0.2627
  C  C103  1  0.536100  0.129300  0.240200  1.0  0.2551
  C  C104  1  0.566100  0.080900  0.299000  1.0  -0.3162
  C  C105  1  0.604500  0.119100  0.375200  1.0  0.4274
  C  C106  1  0.612500  0.052500  0.436300  1.0  -0.0247
  C  C107  1  0.641800  0.089000  0.513800  1.0  -0.0336
  C  C108  1  0.588000  0.959000  0.422300  1.0  -0.0405
  C  C109  1  0.652800  0.037100  0.574100  1.0  -0.1101
  C  C110  1  0.596900  0.900900  0.479600  1.0  -0.0982
  C  C111  1  0.632500  0.942400  0.557900  1.0  0.0132
  C  C112  1  0.640400  0.883000  0.621100  1.0  0.3874
  C  C113  1  0.479300  0.072100  0.166700  1.0  0.1129
  C  C114  1  0.477800  0.125100  0.103100  1.0  -0.0419
  C  C115  1  0.431900  0.976700  0.160100  1.0  -0.1186
  C  C116  1  0.428000  0.077000  0.032200  1.0  -0.116
  C  C117  1  0.379600  0.928900  0.088600  1.0  -0.1326
  C  C118  1  0.379000  0.978800  0.029500  1.0  0.4231
  C  C119  1  0.331500  0.928900  0.957200  1.0  0.2663
  C  C120  1  0.129300  0.593200  0.759800  1.0  0.2546
  C  C121  1  0.080900  0.514800  0.701000  1.0  -0.3144
  C  C122  1  0.119100  0.514600  0.624800  1.0  0.4256
  C  C123  1  0.052500  0.440000  0.563700  1.0  -0.0266
  C  C124  1  0.089000  0.447200  0.486200  1.0  -0.0275
  C  C125  1  0.959000  0.371000  0.577700  1.0  -0.0405
  C  C126  1  0.037100  0.384300  0.425900  1.0  -0.1159
  C  C127  1  0.900900  0.304000  0.520400  1.0  -0.1017
  C  C128  1  0.942400  0.309900  0.442100  1.0  0.0153
  C  C129  1  0.883000  0.242600  0.378900  1.0  0.3879
  C  C130  1  0.072100  0.592800  0.833300  1.0  0.1129
  C  C131  1  0.125100  0.647300  0.896900  1.0  -0.0382
  C  C132  1  0.976700  0.544800  0.839900  1.0  -0.1179
  C  C133  1  0.077000  0.649000  0.967800  1.0  -0.1199
  C  C134  1  0.928900  0.549300  0.911400  1.0  -0.1301
  C  C135  1  0.978800  0.599800  0.970500  1.0  0.4226
  C  C136  1  0.928900  0.597400  0.042800  1.0  0.2661
  C  C137  1  0.406800  0.536100  0.759800  1.0  0.2558
  C  C138  1  0.485200  0.566100  0.701000  1.0  -0.3143
  C  C139  1  0.485400  0.604500  0.624800  1.0  0.4267
  C  C140  1  0.560000  0.612500  0.563700  1.0  -0.0236
  C  C141  1  0.552800  0.641800  0.486200  1.0  -0.0284
  C  C142  1  0.629000  0.588000  0.577700  1.0  -0.0426
  C  C143  1  0.615700  0.652800  0.425900  1.0  -0.1162
  C  C144  1  0.696000  0.596900  0.520400  1.0  -0.0995
  C  C145  1  0.690100  0.632500  0.442100  1.0  0.0151
  C  C146  1  0.757400  0.640400  0.378900  1.0  0.3856
  C  C147  1  0.407200  0.479300  0.833300  1.0  0.1114
  C  C148  1  0.352700  0.477800  0.896900  1.0  -0.0373
  C  C149  1  0.455200  0.431900  0.839900  1.0  -0.1193
  C  C150  1  0.351000  0.428000  0.967800  1.0  -0.1157
  C  C151  1  0.450700  0.379600  0.911400  1.0  -0.1285
  C  C152  1  0.400200  0.379000  0.970500  1.0  0.4256
  C  C153  1  0.402600  0.331500  0.042800  1.0  0.2622
  C  C154  1  0.463900  0.870700  0.759800  1.0  0.2551
  C  C155  1  0.433900  0.919100  0.701000  1.0  -0.3219
  C  C156  1  0.395500  0.880900  0.624800  1.0  0.4274
  C  C157  1  0.387500  0.947500  0.563700  1.0  -0.0249
  C  C158  1  0.358200  0.911000  0.486200  1.0  -0.0331
  C  C159  1  0.412000  0.041000  0.577700  1.0  -0.0426
  C  C160  1  0.347200  0.962900  0.425900  1.0  -0.1114
  C  C161  1  0.403100  0.099100  0.520400  1.0  -0.0986
  C  C162  1  0.367500  0.057600  0.442100  1.0  0.0151
  C  C163  1  0.359600  0.117000  0.378900  1.0  0.3883
  C  C164  1  0.520700  0.927900  0.833300  1.0  0.1115
  C  C165  1  0.522200  0.874900  0.896900  1.0  -0.0411
  C  C166  1  0.568100  0.023300  0.839900  1.0  -0.1203
  C  C167  1  0.572000  0.923000  0.967800  1.0  -0.1172
  C  C168  1  0.620400  0.071100  0.911400  1.0  -0.1291
  C  C169  1  0.621000  0.021200  0.970500  1.0  0.4201
  C  C170  1  0.668500  0.071100  0.042800  1.0  0.2631
  N  N171  1  0.105800  0.398200  0.895500  1.0  -0.4451
  N  N172  1  0.161300  0.806700  0.669100  1.0  -0.3235
  N  N173  1  0.601800  0.707600  0.895500  1.0  -0.4495
  N  N174  1  0.193300  0.354600  0.669100  1.0  -0.3193
  N  N175  1  0.292400  0.894200  0.895500  1.0  -0.4455
  N  N176  1  0.645400  0.838700  0.669100  1.0  -0.3163
  N  N177  1  0.894200  0.601800  0.104500  1.0  -0.4518
  N  N178  1  0.838700  0.193300  0.330900  1.0  -0.3194
  N  N179  1  0.398200  0.292400  0.104500  1.0  -0.4506
  N  N180  1  0.806700  0.645400  0.330900  1.0  -0.3177
  N  N181  1  0.707600  0.105800  0.104500  1.0  -0.4486
  N  N182  1  0.354600  0.161300  0.330900  1.0  -0.3166
  O  O183  1  0.785700  0.340600  0.244700  1.0  -0.5833
  O  O184  1  0.797600  0.427300  0.398800  1.0  -0.5722
  O  O185  1  0.036700  0.734300  0.250200  1.0  -0.718
  O  O186  1  0.237700  0.872100  0.263800  1.0  -0.5335
  O  O187  1  0.147700  0.822400  0.111600  1.0  -0.5807
  O  O188  1  0.176600  0.688700  0.200600  1.0  -0.5161
  O  O189  1  0.659400  0.445100  0.244700  1.0  -0.5834
  O  O190  1  0.572700  0.370300  0.398800  1.0  -0.571
  O  O191  1  0.265700  0.302400  0.250200  1.0  -0.7225
  O  O192  1  0.127900  0.365600  0.263800  1.0  -0.5331
  O  O193  1  0.177600  0.325300  0.111600  1.0  -0.5799
  O  O194  1  0.311300  0.487900  0.200600  1.0  -0.5172
  O  O195  1  0.554900  0.214300  0.244700  1.0  -0.5834
  O  O196  1  0.629700  0.202400  0.398800  1.0  -0.5691
  O  O197  1  0.697600  0.963300  0.250200  1.0  -0.7145
  O  O198  1  0.634400  0.762300  0.263800  1.0  -0.5297
  O  O199  1  0.674700  0.852300  0.111600  1.0  -0.579
  O  O200  1  0.512100  0.823400  0.200600  1.0  -0.5189
  O  O201  1  0.214300  0.659400  0.755300  1.0  -0.5822
  O  O202  1  0.202400  0.572700  0.601200  1.0  -0.571
  O  O203  1  0.963300  0.265700  0.749800  1.0  -0.7211
  O  O204  1  0.762300  0.127900  0.736200  1.0  -0.5331
  O  O205  1  0.852300  0.177600  0.888400  1.0  -0.5778
  O  O206  1  0.823400  0.311300  0.799400  1.0  -0.5149
  O  O207  1  0.340600  0.554900  0.755300  1.0  -0.5838
  O  O208  1  0.427300  0.629700  0.601200  1.0  -0.5709
  O  O209  1  0.734300  0.697600  0.749800  1.0  -0.7208
  O  O210  1  0.872100  0.634400  0.736200  1.0  -0.5318
  O  O211  1  0.822400  0.674700  0.888400  1.0  -0.58
  O  O212  1  0.688700  0.512100  0.799400  1.0  -0.5171
  O  O213  1  0.445100  0.785700  0.755300  1.0  -0.5826
  O  O214  1  0.370300  0.797600  0.601200  1.0  -0.5691
  O  O215  1  0.302400  0.036700  0.749800  1.0  -0.7184
  O  O216  1  0.365600  0.237700  0.736200  1.0  -0.5293
  O  O217  1  0.325300  0.147700  0.888400  1.0  -0.5785
  O  O218  1  0.487900  0.176600  0.799400  1.0  -0.5181
