# generated using pymatgen
data_CuH8C12(NO2)2
_symmetry_space_group_name_H-M   'P 1'
_cell_length_a   9.07180000
_cell_length_b   9.07180000
_cell_length_c   16.89100000
_cell_angle_alpha   90.00000000
_cell_angle_beta   90.00000000
_cell_angle_gamma   120.00000000
_symmetry_Int_Tables_number   1
_chemical_formula_structural   CuH8C12(NO2)2
_chemical_formula_sum   'Cu3 H24 C36 N6 O12'
_cell_volume   1203.85152631
_cell_formula_units_Z   3
loop_
 _symmetry_equiv_pos_site_id
 _symmetry_equiv_pos_as_xyz
  1  'x, y, z'
loop_
 _atom_site_type_symbol
 _atom_site_label
 _atom_site_symmetry_multiplicity
 _atom_site_fract_x
 _atom_site_fract_y
 _atom_site_fract_z
 _atom_site_occupancy
 _atom_site_charge
  Cu  Cu1  1  0.542230  0.000000  0.000000  1.0  0.8046
  Cu  Cu2  1  0.457770  0.457770  0.333333  1.0  0.807
  Cu  Cu3  1  0.000000  0.542230  0.666667  1.0  0.8072
  H  H4  1  0.081700  0.775400  0.228200  1.0  0.1108
  H  H5  1  0.987900  0.585600  0.335000  1.0  0.1242
  H  H6  1  0.150700  0.470000  0.375700  1.0  0.086
  H  H7  1  0.478700  0.704300  0.207100  1.0  0.0793
  H  H8  1  0.693700  0.918300  0.561530  1.0  0.1113
  H  H9  1  0.597700  0.012100  0.668330  1.0  0.1247
  H  H10  1  0.319300  0.849300  0.709030  1.0  0.0857
  H  H11  1  0.225600  0.521300  0.540430  1.0  0.0793
  H  H12  1  0.224600  0.306300  0.894870  1.0  0.1106
  H  H13  1  0.414400  0.402300  0.001670  1.0  0.1241
  H  H14  1  0.530000  0.680700  0.042370  1.0  0.0858
  H  H15  1  0.295700  0.774400  0.873770  1.0  0.0794
  H  H16  1  0.306300  0.224600  0.771800  1.0  0.1108
  H  H17  1  0.402300  0.414400  0.665000  1.0  0.1238
  H  H18  1  0.680700  0.530000  0.624300  1.0  0.0861
  H  H19  1  0.774400  0.295700  0.792900  1.0  0.079
  H  H20  1  0.775400  0.081700  0.438470  1.0  0.1112
  H  H21  1  0.585600  0.987900  0.331670  1.0  0.1238
  H  H22  1  0.470000  0.150700  0.290970  1.0  0.0857
  H  H23  1  0.704300  0.478700  0.459570  1.0  0.079
  H  H24  1  0.918300  0.693700  0.105130  1.0  0.111
  H  H25  1  0.012100  0.597700  0.998330  1.0  0.1234
  H  H26  1  0.849300  0.319300  0.957630  1.0  0.086
  H  H27  1  0.521300  0.225600  0.126230  1.0  0.0794
  C  C28  1  0.347700  0.870600  0.133800  1.0  0.6502
  C  C29  1  0.288100  0.758100  0.206400  1.0  -0.1989
  C  C30  1  0.143600  0.724500  0.244600  1.0  0.0521
  C  C31  1  0.088400  0.612600  0.308700  1.0  -0.1583
  C  C32  1  0.186200  0.543000  0.332400  1.0  0.1434
  C  C33  1  0.379500  0.680900  0.233600  1.0  0.1928
  C  C34  1  0.522900  0.652300  0.467130  1.0  0.6503
  C  C35  1  0.470000  0.711900  0.539730  1.0  -0.2002
  C  C36  1  0.580900  0.856400  0.577930  1.0  0.052
  C  C37  1  0.524200  0.911600  0.642030  1.0  -0.1577
  C  C38  1  0.356800  0.813800  0.665730  1.0  0.1427
  C  C39  1  0.301400  0.620500  0.566930  1.0  0.1928
  C  C40  1  0.129400  0.477100  0.800470  1.0  0.6504
  C  C41  1  0.241900  0.530000  0.873070  1.0  -0.1985
  C  C42  1  0.275500  0.419100  0.911270  1.0  0.0532
  C  C43  1  0.387400  0.475800  0.975370  1.0  -0.1578
  C  C44  1  0.457000  0.643200  0.999070  1.0  0.143
  C  C45  1  0.319100  0.698600  0.900270  1.0  0.195
  C  C46  1  0.477100  0.129400  0.866200  1.0  0.6499
  C  C47  1  0.530000  0.241900  0.793600  1.0  -0.199
  C  C48  1  0.419100  0.275500  0.755400  1.0  0.0517
  C  C49  1  0.475800  0.387400  0.691300  1.0  -0.1588
  C  C50  1  0.643200  0.457000  0.667600  1.0  0.1435
  C  C51  1  0.698600  0.319100  0.766400  1.0  0.1936
  C  C52  1  0.870600  0.347700  0.532870  1.0  0.6502
  C  C53  1  0.758100  0.288100  0.460270  1.0  -0.2004
  C  C54  1  0.724500  0.143600  0.422070  1.0  0.052
  C  C55  1  0.612600  0.088400  0.357970  1.0  -0.1564
  C  C56  1  0.543000  0.186200  0.334270  1.0  0.1437
  C  C57  1  0.680900  0.379500  0.433070  1.0  0.1924
  C  C58  1  0.652300  0.522900  0.199530  1.0  0.6502
  C  C59  1  0.711900  0.470000  0.126930  1.0  -0.1983
  C  C60  1  0.856400  0.580900  0.088730  1.0  0.0516
  C  C61  1  0.911600  0.524200  0.024630  1.0  -0.1586
  C  C62  1  0.813800  0.356800  0.000930  1.0  0.1439
  C  C63  1  0.620500  0.301400  0.099730  1.0  0.1957
  N  N64  1  0.331400  0.576600  0.295000  1.0  -0.3216
  N  N65  1  0.245200  0.668600  0.628330  1.0  -0.3225
  N  N66  1  0.423400  0.754800  0.961670  1.0  -0.3214
  N  N67  1  0.754800  0.423400  0.705000  1.0  -0.3222
  N  N68  1  0.576600  0.331400  0.371670  1.0  -0.3217
  N  N69  1  0.668600  0.245200  0.038330  1.0  -0.3212
  O  O70  1  0.247400  0.910000  0.102500  1.0  -0.5807
  O  O71  1  0.492500  0.912200  0.108800  1.0  -0.5841
  O  O72  1  0.662600  0.752600  0.435830  1.0  -0.5792
  O  O73  1  0.419700  0.507500  0.442130  1.0  -0.5852
  O  O74  1  0.090000  0.337400  0.769170  1.0  -0.5777
  O  O75  1  0.087800  0.580300  0.775470  1.0  -0.5845
  O  O76  1  0.337400  0.090000  0.897500  1.0  -0.58
  O  O77  1  0.580300  0.087800  0.891200  1.0  -0.5841
  O  O78  1  0.910000  0.247400  0.564170  1.0  -0.58
  O  O79  1  0.912200  0.492500  0.557870  1.0  -0.585
  O  O80  1  0.752600  0.662600  0.230830  1.0  -0.5771
  O  O81  1  0.507500  0.419700  0.224530  1.0  -0.5844
