# generated using pymatgen
data_YH6(C2O)6
_symmetry_space_group_name_H-M   'P 1'
_cell_length_a   9.81960000
_cell_length_b   10.34210000
_cell_length_c   11.01330000
_cell_angle_alpha   77.27800000
_cell_angle_beta   76.39800000
_cell_angle_gamma   65.79300000
_symmetry_Int_Tables_number   1
_chemical_formula_structural   YH6(C2O)6
_chemical_formula_sum   'Y2 H12 C24 O12'
_cell_volume   981.78687516
_cell_formula_units_Z   2
loop_
 _symmetry_equiv_pos_site_id
 _symmetry_equiv_pos_as_xyz
  1  'x, y, z'
loop_
 _atom_site_type_symbol
 _atom_site_label
 _atom_site_symmetry_multiplicity
 _atom_site_fract_x
 _atom_site_fract_y
 _atom_site_fract_z
 _atom_site_occupancy
 _atom_site_charge
  Y  Y1  1  0.943870  0.227670  0.824060  1.0  2.0263
  Y  Y2  1  0.056130  0.772330  0.175940  1.0  2.0265
  H  H3  1  0.649700  0.859700  0.151600  1.0  0.0937
  H  H4  1  0.599300  0.117800  0.819300  1.0  0.0998
  H  H5  1  0.434500  0.416300  0.709500  1.0  0.1061
  H  H6  1  0.741700  0.500100  0.423500  1.0  0.1085
  H  H7  1  0.309100  0.921200  0.503900  1.0  0.1086
  H  H8  1  0.453100  0.187000  0.607400  1.0  0.0833
  H  H9  1  0.350300  0.140300  0.848400  1.0  0.094
  H  H10  1  0.400700  0.882200  0.180700  1.0  0.1006
  H  H11  1  0.565500  0.583700  0.290500  1.0  0.1062
  H  H12  1  0.258300  0.499900  0.576500  1.0  0.1093
  H  H13  1  0.690900  0.078800  0.496100  1.0  0.1083
  H  H14  1  0.546900  0.813000  0.392600  1.0  0.0833
  C  C15  1  0.649500  0.986600  0.982200  1.0  -0.1477
  C  C16  1  0.589500  0.915800  0.091100  1.0  -0.0305
  C  C17  1  0.559200  0.070700  0.891600  1.0  -0.031
  C  C18  1  0.808900  0.977000  0.966700  1.0  0.78
  C  C19  1  0.607600  0.448500  0.580600  1.0  -0.1156
  C  C20  1  0.460600  0.449800  0.625300  1.0  -0.0589
  C  C21  1  0.645000  0.499900  0.454200  1.0  -0.0506
  C  C22  1  0.722800  0.389400  0.666667  1.0  0.6784
  C  C23  1  0.355800  0.066000  0.567200  1.0  -0.1217
  C  C24  1  0.385500  0.952900  0.502300  1.0  -0.0628
  C  C25  1  0.471900  0.112100  0.564200  1.0  -0.0557
  C  C26  1  0.203900  0.132600  0.646000  1.0  0.6753
  C  C27  1  0.350500  0.013400  0.017800  1.0  -0.1479
  C  C28  1  0.410500  0.084200  0.908900  1.0  -0.0303
  C  C29  1  0.440800  0.929300  0.108400  1.0  -0.0307
  C  C30  1  0.191100  0.023000  0.033300  1.0  0.7828
  C  C31  1  0.392400  0.551500  0.419400  1.0  -0.1146
  C  C32  1  0.539400  0.550200  0.374700  1.0  -0.0595
  C  C33  1  0.355000  0.500100  0.545800  1.0  -0.0506
  C  C34  1  0.277200  0.610600  0.333400  1.0  0.6786
  C  C35  1  0.644200  0.934000  0.432800  1.0  -0.1236
  C  C36  1  0.614500  0.047100  0.497700  1.0  -0.0607
  C  C37  1  0.528100  0.887900  0.435800  1.0  -0.0554
  C  C38  1  0.796100  0.867400  0.354000  1.0  0.6746
  O  O39  1  0.857900  0.046400  0.870400  1.0  -0.6802
  O  O40  1  0.884300  0.899700  0.052000  1.0  -0.7734
  O  O41  1  0.858500  0.375100  0.624900  1.0  -0.6431
  O  O42  1  0.684100  0.349800  0.782100  1.0  -0.7005
  O  O43  1  0.169900  0.249700  0.684000  1.0  -0.6526
  O  O44  1  0.115300  0.064700  0.677500  1.0  -0.6363
  O  O45  1  0.142100  0.953600  0.129600  1.0  -0.6811
  O  O46  1  0.115700  0.100300  0.948000  1.0  -0.7742
  O  O47  1  0.141500  0.624900  0.375100  1.0  -0.6427
  O  O48  1  0.315900  0.650200  0.217900  1.0  -0.7052
  O  O49  1  0.830100  0.750300  0.316000  1.0  -0.6521
  O  O50  1  0.884700  0.935300  0.322500  1.0  -0.635
