# generated using pymatgen
data_YH6(C2O)6
_symmetry_space_group_name_H-M   'P 1'
_cell_length_a   10.04630000
_cell_length_b   10.42650000
_cell_length_c   12.73850000
_cell_angle_alpha   109.09500000
_cell_angle_beta   95.26200000
_cell_angle_gamma   118.27500000
_symmetry_Int_Tables_number   1
_chemical_formula_structural   YH6(C2O)6
_chemical_formula_sum   'Y2 H12 C24 O12'
_cell_volume   1060.56289070
_cell_formula_units_Z   2
loop_
 _symmetry_equiv_pos_site_id
 _symmetry_equiv_pos_as_xyz
  1  'x, y, z'
loop_
 _atom_site_type_symbol
 _atom_site_label
 _atom_site_symmetry_multiplicity
 _atom_site_fract_x
 _atom_site_fract_y
 _atom_site_fract_z
 _atom_site_occupancy
 _atom_site_charge
  Y  Y1  1  0.526610  0.978100  0.697760  1.0  2.0381
  Y  Y2  1  0.473390  0.021900  0.302240  1.0  2.0361
  H  H3  1  0.931300  0.867400  0.801100  1.0  0.1029
  H  H4  1  0.871300  0.121300  0.082600  1.0  0.1065
  H  H5  1  0.695000  0.549100  0.908100  1.0  0.1051
  H  H6  1  0.319700  0.240500  0.972200  1.0  0.0874
  H  H7  1  0.941400  0.062300  0.674400  1.0  0.0983
  H  H8  1  0.855300  0.982800  0.337600  1.0  0.0987
  H  H9  1  0.068700  0.132600  0.198900  1.0  0.103
  H  H10  1  0.128700  0.878700  0.917400  1.0  0.1065
  H  H11  1  0.305000  0.450900  0.091900  1.0  0.1055
  H  H12  1  0.680300  0.759500  0.027800  1.0  0.0877
  H  H13  1  0.058600  0.937700  0.325600  1.0  0.0994
  H  H14  1  0.144700  0.017200  0.662400  1.0  0.0995
  C  C15  1  0.880000  0.992600  0.929700  1.0  -0.1374
  C  C16  1  0.958700  0.921000  0.881500  1.0  -0.0486
  C  C17  1  0.922900  0.072000  0.048900  1.0  -0.0666
  C  C18  1  0.750800  0.984100  0.852500  1.0  0.6851
  C  C19  1  0.509400  0.372900  0.927700  1.0  -0.1233
  C  C20  1  0.616300  0.528900  0.945000  1.0  -0.062
  C  C21  1  0.392500  0.344800  0.983200  1.0  -0.0582
  C  C22  1  0.515300  0.233800  0.847800  1.0  0.6743
  C  C23  1  0.877500  0.027700  0.507400  1.0  -0.1441
  C  C24  1  0.965000  0.037400  0.604400  1.0  -0.0449
  C  C25  1  0.913300  0.989900  0.402800  1.0  -0.0419
  C  C26  1  0.741200  0.051700  0.513800  1.0  0.7984
  C  C27  1  0.120000  0.007400  0.070300  1.0  -0.1442
  C  C28  1  0.041300  0.079000  0.118500  1.0  -0.0485
  C  C29  1  0.077100  0.928000  0.951100  1.0  -0.0699
  C  C30  1  0.249200  0.015900  0.147500  1.0  0.6861
  C  C31  1  0.490600  0.627100  0.072300  1.0  -0.1228
  C  C32  1  0.383700  0.471100  0.055000  1.0  -0.0626
  C  C33  1  0.607500  0.655200  0.016800  1.0  -0.0565
  C  C34  1  0.484700  0.766200  0.152200  1.0  0.6734
  C  C35  1  0.122500  0.972300  0.492600  1.0  -0.1437
  C  C36  1  0.035000  0.962600  0.395600  1.0  -0.0444
  C  C37  1  0.086700  0.010100  0.597200  1.0  -0.0427
  C  C38  1  0.258800  0.948300  0.486200  1.0  0.7983
  O  O39  1  0.696000  0.887500  0.746700  1.0  -0.7015
  O  O40  1  0.700200  0.073000  0.891200  1.0  -0.6307
  O  O41  1  0.615600  0.260200  0.791100  1.0  -0.6222
  O  O42  1  0.421400  0.095400  0.838000  1.0  -0.656
  O  O43  1  0.712500  0.085000  0.609800  1.0  -0.6997
  O  O44  1  0.663000  0.032600  0.422100  1.0  -0.7552
  O  O45  1  0.304000  0.112500  0.253300  1.0  -0.7017
  O  O46  1  0.299800  0.927000  0.108800  1.0  -0.632
  O  O47  1  0.384400  0.739800  0.208900  1.0  -0.6168
  O  O48  1  0.578600  0.904600  0.162000  1.0  -0.6584
  O  O49  1  0.287500  0.915000  0.390200  1.0  -0.6989
  O  O50  1  0.337000  0.967400  0.577900  1.0  -0.7552
