# generated using pymatgen
data_YH6(C2O)6
_symmetry_space_group_name_H-M   'P 1'
_cell_length_a   10.74710000
_cell_length_b   10.74710000
_cell_length_c   18.76100000
_cell_angle_alpha   73.81240000
_cell_angle_beta   73.81240000
_cell_angle_gamma   64.50240000
_symmetry_Int_Tables_number   1
_chemical_formula_structural   YH6(C2O)6
_chemical_formula_sum   'Y4 H24 C48 O24'
_cell_volume   1846.52986211
_cell_formula_units_Z   4
loop_
 _symmetry_equiv_pos_site_id
 _symmetry_equiv_pos_as_xyz
  1  'x, y, z'
loop_
 _atom_site_type_symbol
 _atom_site_label
 _atom_site_symmetry_multiplicity
 _atom_site_fract_x
 _atom_site_fract_y
 _atom_site_fract_z
 _atom_site_occupancy
 _atom_site_charge
  Y  Y1  1  0.565030  0.437190  0.395650  1.0  2.09
  Y  Y2  1  0.562810  0.434970  0.104350  1.0  2.0887
  Y  Y3  1  0.434970  0.562810  0.604350  1.0  2.0909
  Y  Y4  1  0.437190  0.565030  0.895650  1.0  2.09
  H  H5  1  0.201800  0.456600  0.409300  1.0  0.0999
  H  H6  1  0.897600  0.510600  0.269900  1.0  0.1011
  H  H7  1  0.989700  0.567700  0.609000  1.0  0.1025
  H  H8  1  0.799800  0.616400  0.064700  1.0  0.0921
  H  H9  1  0.017100  0.623500  0.011300  1.0  0.0986
  H  H10  1  0.116300  0.514900  0.216100  1.0  0.1082
  H  H11  1  0.543400  0.798200  0.090700  1.0  0.0995
  H  H12  1  0.489400  0.102400  0.230100  1.0  0.1011
  H  H13  1  0.432300  0.010300  0.891000  1.0  0.1033
  H  H14  1  0.383600  0.200200  0.435300  1.0  0.0922
  H  H15  1  0.376500  0.982900  0.488700  1.0  0.0986
  H  H16  1  0.485100  0.883700  0.283900  1.0  0.108
  H  H17  1  0.798200  0.543400  0.590700  1.0  0.1002
  H  H18  1  0.102400  0.489400  0.730100  1.0  0.1015
  H  H19  1  0.010300  0.432300  0.391000  1.0  0.1032
  H  H20  1  0.200200  0.383600  0.935300  1.0  0.0922
  H  H21  1  0.982900  0.376500  0.988700  1.0  0.0988
  H  H22  1  0.883700  0.485100  0.783900  1.0  0.1077
  H  H23  1  0.456600  0.201800  0.909300  1.0  0.099
  H  H24  1  0.510600  0.897600  0.769900  1.0  0.1011
  H  H25  1  0.567700  0.989700  0.109000  1.0  0.1031
  H  H26  1  0.616400  0.799800  0.564700  1.0  0.0928
  H  H27  1  0.623500  0.017100  0.511300  1.0  0.0983
  H  H28  1  0.514900  0.116300  0.716100  1.0  0.108
  C  C29  1  0.689100  0.543300  0.206900  1.0  0.7844
  C  C30  1  0.115800  0.514800  0.511200  1.0  -0.1351
  C  C31  1  0.091200  0.565800  0.107000  1.0  -0.1443
  C  C32  1  0.238400  0.554000  0.071100  1.0  0.7957
  C  C33  1  0.827200  0.559600  0.172800  1.0  -0.1705
  C  C34  1  0.240600  0.529000  0.523300  1.0  0.7613
  C  C35  1  0.120600  0.474200  0.445900  1.0  -0.0472
  C  C36  1  0.922300  0.531500  0.217700  1.0  -0.0459
  C  C37  1  0.994300  0.540500  0.565100  1.0  -0.055
  C  C38  1  0.863800  0.595000  0.095300  1.0  -0.0549
  C  C39  1  0.994200  0.598400  0.063400  1.0  -0.0337
  C  C40  1  0.052900  0.534100  0.185500  1.0  -0.0508
  C  C41  1  0.456700  0.310900  0.293100  1.0  0.7794
  C  C42  1  0.485200  0.884200  0.988800  1.0  -0.135
  C  C43  1  0.434200  0.908800  0.393000  1.0  -0.1446
  C  C44  1  0.446000  0.761600  0.428900  1.0  0.7991
  C  C45  1  0.440400  0.172800  0.327200  1.0  -0.1706
  C  C46  1  0.471000  0.759400  0.976700  1.0  0.7638
  C  C47  1  0.525800  0.879400  0.054100  1.0  -0.0483
  C  C48  1  0.468500  0.077700  0.282300  1.0  -0.0474
  C  C49  1  0.459500  0.005700  0.934900  1.0  -0.0548
  C  C50  1  0.405000  0.136200  0.404700  1.0  -0.055
  C  C51  1  0.401600  0.005800  0.436600  1.0  -0.0323
  C  C52  1  0.465900  0.947100  0.314500  1.0  -0.0496
  C  C53  1  0.310900  0.456700  0.793100  1.0  0.7824
  C  C54  1  0.884200  0.485200  0.488800  1.0  -0.1359
  C  C55  1  0.908800  0.434200  0.893000  1.0  -0.1444
  C  C56  1  0.761600  0.446000  0.928900  1.0  0.7976
  C  C57  1  0.172800  0.440400  0.827200  1.0  -0.1696
  C  C58  1  0.759400  0.471000  0.476700  1.0  0.7613
  C  C59  1  0.879400  0.525800  0.554100  1.0  -0.0478
  C  C60  1  0.077700  0.468500  0.782300  1.0  -0.0461
  C  C61  1  0.005700  0.459500  0.434900  1.0  -0.0544
  C  C62  1  0.136200  0.405000  0.904700  1.0  -0.0559
  C  C63  1  0.005800  0.401600  0.936600  1.0  -0.0358
  C  C64  1  0.947100  0.465900  0.814500  1.0  -0.0498
  C  C65  1  0.543300  0.689100  0.706900  1.0  0.7791
  C  C66  1  0.514800  0.115800  0.011200  1.0  -0.1352
  C  C67  1  0.565800  0.091200  0.607000  1.0  -0.1439
  C  C68  1  0.554000  0.238400  0.571100  1.0  0.7993
  C  C69  1  0.559600  0.827200  0.672800  1.0  -0.1708
  C  C70  1  0.529000  0.240600  0.023300  1.0  0.7627
  C  C71  1  0.474200  0.120600  0.945900  1.0  -0.0488
  C  C72  1  0.531500  0.922300  0.717700  1.0  -0.0456
  C  C73  1  0.540500  0.994300  0.065100  1.0  -0.0551
  C  C74  1  0.595000  0.863800  0.595300  1.0  -0.0552
  C  C75  1  0.598400  0.994200  0.563400  1.0  -0.0324
  C  C76  1  0.534100  0.052900  0.685500  1.0  -0.0504
  O  O77  1  0.660500  0.515100  0.277070  1.0  -0.7302
  O  O78  1  0.611900  0.559700  0.162980  1.0  -0.7224
  O  O79  1  0.351900  0.496700  0.476000  1.0  -0.7591
  O  O80  1  0.326600  0.508600  0.112700  1.0  -0.6719
  O  O81  1  0.228500  0.571900  0.581400  1.0  -0.6763
  O  O82  1  0.261100  0.591300  0.000680  1.0  -0.7337
  O  O83  1  0.484900  0.339500  0.222930  1.0  -0.7322
  O  O84  1  0.440300  0.388100  0.337020  1.0  -0.7224
  O  O85  1  0.503300  0.648100  0.024000  1.0  -0.7618
  O  O86  1  0.491400  0.673400  0.387300  1.0  -0.674
  O  O87  1  0.428100  0.771500  0.918600  1.0  -0.6739
  O  O88  1  0.408700  0.738900  0.499320  1.0  -0.7372
  O  O89  1  0.339500  0.484900  0.722930  1.0  -0.7301
  O  O90  1  0.388100  0.440300  0.837020  1.0  -0.7222
  O  O91  1  0.648100  0.503300  0.524000  1.0  -0.7588
  O  O92  1  0.673400  0.491400  0.887300  1.0  -0.6732
  O  O93  1  0.771500  0.428100  0.418600  1.0  -0.6749
  O  O94  1  0.738900  0.408700  0.999320  1.0  -0.7346
  O  O95  1  0.515100  0.660500  0.777070  1.0  -0.7323
  O  O96  1  0.559700  0.611900  0.662980  1.0  -0.7224
  O  O97  1  0.496700  0.351900  0.976000  1.0  -0.762
  O  O98  1  0.508600  0.326600  0.612700  1.0  -0.673
  O  O99  1  0.571900  0.228500  0.081400  1.0  -0.6706
  O  O100  1  0.591300  0.261100  0.500680  1.0  -0.7356
