# generated using pymatgen
data_YH6(C2O)6
_symmetry_space_group_name_H-M   'P 1'
_cell_length_a   9.84880000
_cell_length_b   10.61300000
_cell_length_c   12.63360000
_cell_angle_alpha   69.65800000
_cell_angle_beta   73.77200000
_cell_angle_gamma   62.53700000
_symmetry_Int_Tables_number   1
_chemical_formula_structural   YH6(C2O)6
_chemical_formula_sum   'Y2 H12 C24 O12'
_cell_volume   1087.31967486
_cell_formula_units_Z   2
loop_
 _symmetry_equiv_pos_site_id
 _symmetry_equiv_pos_as_xyz
  1  'x, y, z'
loop_
 _atom_site_type_symbol
 _atom_site_label
 _atom_site_symmetry_multiplicity
 _atom_site_fract_x
 _atom_site_fract_y
 _atom_site_fract_z
 _atom_site_occupancy
 _atom_site_charge
  Y  Y1  1  0.048890  0.780070  0.691200  1.0  2.0405
  Y  Y2  1  0.951110  0.219930  0.308800  1.0  2.0417
  H  H3  1  0.244600  0.626800  0.061300  1.0  0.104
  H  H4  1  0.578200  0.485600  0.813700  1.0  0.1074
  H  H5  1  0.385300  0.889700  0.670600  1.0  0.1037
  H  H6  1  0.363500  0.134000  0.345700  1.0  0.1037
  H  H7  1  0.656400  0.128100  0.927600  1.0  0.099
  H  H8  1  0.557200  0.796500  0.938500  1.0  0.1014
  H  H9  1  0.755400  0.373200  0.938700  1.0  0.1044
  H  H10  1  0.421800  0.514400  0.186300  1.0  0.1074
  H  H11  1  0.614700  0.110300  0.329400  1.0  0.1042
  H  H12  1  0.636500  0.866000  0.654300  1.0  0.1038
  H  H13  1  0.343600  0.871900  0.072400  1.0  0.0988
  H  H14  1  0.442800  0.203500  0.061500  1.0  0.1014
  C  C15  1  0.391600  0.570400  0.923300  1.0  -0.1016
  C  C16  1  0.348000  0.575900  0.035600  1.0  -0.0479
  C  C17  1  0.545500  0.492400  0.888800  1.0  -0.0596
  C  C18  1  0.275400  0.645100  0.840900  1.0  0.6797
  C  C19  1  0.350800  0.013600  0.509800  1.0  -0.1509
  C  C20  1  0.431500  0.933700  0.602400  1.0  -0.0397
  C  C21  1  0.418400  0.080400  0.407300  1.0  -0.0408
  C  C22  1  0.189900  0.025600  0.519100  1.0  0.7871
  C  C23  1  0.630900  0.954400  0.918600  1.0  -0.1233
  C  C24  1  0.593800  0.076200  0.956600  1.0  -0.0567
  C  C25  1  0.534900  0.878100  0.962900  1.0  -0.0697
  C  C26  1  0.774400  0.901200  0.836000  1.0  0.6816
  C  C27  1  0.608400  0.429600  0.076700  1.0  -0.1017
  C  C28  1  0.652000  0.424100  0.964400  1.0  -0.0454
  C  C29  1  0.454500  0.507600  0.111200  1.0  -0.0581
  C  C30  1  0.724600  0.354900  0.159100  1.0  0.6798
  C  C31  1  0.649200  0.986400  0.490200  1.0  -0.1499
  C  C32  1  0.568500  0.066300  0.397600  1.0  -0.0405
  C  C33  1  0.581600  0.919600  0.592700  1.0  -0.0416
  C  C34  1  0.810100  0.974400  0.480900  1.0  0.7915
  C  C35  1  0.369100  0.045600  0.081400  1.0  -0.1236
  C  C36  1  0.406200  0.923800  0.043400  1.0  -0.0568
  C  C37  1  0.465100  0.121900  0.037100  1.0  -0.0683
  C  C38  1  0.225600  0.098800  0.164000  1.0  0.6805
  O  O39  1  0.136700  0.723900  0.872490  1.0  -0.6515
  O  O40  1  0.316300  0.626800  0.741370  1.0  -0.7127
  O  O41  1  0.134200  0.960100  0.611830  1.0  -0.6991
  O  O42  1  0.121900  0.101600  0.433280  1.0  -0.7656
  O  O43  1  0.818400  0.776000  0.820510  1.0  -0.674
  O  O44  1  0.849800  0.979600  0.783680  1.0  -0.6212
  O  O45  1  0.863300  0.276100  0.127510  1.0  -0.6518
  O  O46  1  0.683700  0.373200  0.258630  1.0  -0.7129
  O  O47  1  0.865800  0.039900  0.388170  1.0  -0.697
  O  O48  1  0.878100  0.898400  0.566720  1.0  -0.7652
  O  O49  1  0.181600  0.224000  0.179490  1.0  -0.673
  O  O50  1  0.150200  0.020400  0.216320  1.0  -0.6216
