# generated using pymatgen
data_YH6(C2O)6
_symmetry_space_group_name_H-M   'P 1'
_cell_length_a   10.01490000
_cell_length_b   10.18720000
_cell_length_c   11.83470000
_cell_angle_alpha   67.77000000
_cell_angle_beta   72.89500000
_cell_angle_gamma   64.32800000
_symmetry_Int_Tables_number   1
_chemical_formula_structural   YH6(C2O)6
_chemical_formula_sum   'Y2 H12 C24 O12'
_cell_volume   995.00203639
_cell_formula_units_Z   2
loop_
 _symmetry_equiv_pos_site_id
 _symmetry_equiv_pos_as_xyz
  1  'x, y, z'
loop_
 _atom_site_type_symbol
 _atom_site_label
 _atom_site_symmetry_multiplicity
 _atom_site_fract_x
 _atom_site_fract_y
 _atom_site_fract_z
 _atom_site_occupancy
 _atom_site_charge
  Y  Y1  1  0.952870  0.230540  0.802470  1.0  2.0331
  Y  Y2  1  0.047130  0.769460  0.197530  1.0  2.0294
  H  H3  1  0.440600  0.494100  0.704300  1.0  0.1026
  H  H4  1  0.746100  0.408100  0.411100  1.0  0.1056
  H  H5  1  0.321000  0.893500  0.547200  1.0  0.1032
  H  H6  1  0.447900  0.210100  0.561300  1.0  0.0858
  H  H7  1  0.624900  0.857200  0.169100  1.0  0.1025
  H  H8  1  0.623900  0.107700  0.814400  1.0  0.0962
  H  H9  1  0.559400  0.505900  0.295700  1.0  0.1025
  H  H10  1  0.253900  0.591900  0.588900  1.0  0.1047
  H  H11  1  0.679000  0.106500  0.452800  1.0  0.103
  H  H12  1  0.552100  0.789900  0.438700  1.0  0.086
  H  H13  1  0.375100  0.142800  0.830900  1.0  0.1021
  H  H14  1  0.376100  0.892300  0.185600  1.0  0.0965
  C  C15  1  0.614000  0.439100  0.570900  1.0  -0.1259
  C  C16  1  0.465200  0.496000  0.621700  1.0  -0.0514
  C  C17  1  0.646700  0.444900  0.447600  1.0  -0.0563
  C  C18  1  0.736400  0.372300  0.646600  1.0  0.6834
  C  C19  1  0.358400  0.064300  0.564900  1.0  -0.1232
  C  C20  1  0.392800  0.936700  0.528000  1.0  -0.0662
  C  C21  1  0.468400  0.126000  0.536500  1.0  -0.0581
  C  C22  1  0.211700  0.126500  0.641200  1.0  0.6865
  C  C23  1  0.648500  0.980400  0.990300  1.0  -0.1365
  C  C24  1  0.575100  0.914800  0.101200  1.0  -0.0473
  C  C25  1  0.573800  0.064600  0.889300  1.0  -0.0463
  C  C26  1  0.807400  0.964800  0.981100  1.0  0.7995
  C  C27  1  0.386000  0.560900  0.429100  1.0  -0.126
  C  C28  1  0.534800  0.504000  0.378300  1.0  -0.0479
  C  C29  1  0.353300  0.555100  0.552400  1.0  -0.0552
  C  C30  1  0.263600  0.627700  0.353400  1.0  0.6845
  C  C31  1  0.641600  0.935700  0.435100  1.0  -0.1244
  C  C32  1  0.607200  0.063300  0.472000  1.0  -0.0663
  C  C33  1  0.531600  0.874000  0.463500  1.0  -0.0563
  C  C34  1  0.788300  0.873500  0.358800  1.0  0.6858
  C  C35  1  0.351500  0.019600  0.009700  1.0  -0.1376
  C  C36  1  0.424900  0.085200  0.898800  1.0  -0.0469
  C  C37  1  0.426200  0.935400  0.110700  1.0  -0.0461
  C  C38  1  0.192600  0.035200  0.018900  1.0  0.8004
  O  O39  1  0.703400  0.386200  0.753400  1.0  -0.7248
  O  O40  1  0.868700  0.303400  0.605700  1.0  -0.6338
  O  O41  1  0.135700  0.042600  0.700100  1.0  -0.6178
  O  O42  1  0.169400  0.258300  0.649400  1.0  -0.6413
  O  O43  1  0.866200  0.037900  0.881400  1.0  -0.7005
  O  O44  1  0.871100  0.882200  0.073100  1.0  -0.7693
  O  O45  1  0.296600  0.613800  0.246600  1.0  -0.7251
  O  O46  1  0.131300  0.696600  0.394300  1.0  -0.6332
  O  O47  1  0.864300  0.957400  0.299900  1.0  -0.6168
  O  O48  1  0.830600  0.741700  0.350600  1.0  -0.6421
  O  O49  1  0.133800  0.962100  0.118600  1.0  -0.7019
  O  O50  1  0.128900  0.117800  0.926900  1.0  -0.7688
