# generated using pymatgen
data_YH6(C2O)6
_symmetry_space_group_name_H-M   'P 1'
_cell_length_a   9.62920000
_cell_length_b   11.10060000
_cell_length_c   16.02630000
_cell_angle_alpha   91.06600000
_cell_angle_beta   90.00000000
_cell_angle_gamma   90.00000000
_symmetry_Int_Tables_number   1
_chemical_formula_structural   YH6(C2O)6
_chemical_formula_sum   'Y4 H24 C48 O24'
_cell_volume   1712.75308384
_cell_formula_units_Z   4
loop_
 _symmetry_equiv_pos_site_id
 _symmetry_equiv_pos_as_xyz
  1  'x, y, z'
loop_
 _atom_site_type_symbol
 _atom_site_label
 _atom_site_symmetry_multiplicity
 _atom_site_fract_x
 _atom_site_fract_y
 _atom_site_fract_z
 _atom_site_occupancy
 _atom_site_charge
  Y  Y1  1  0.789420  0.504880  0.009660  1.0  2.0781
  Y  Y2  1  0.289420  0.995120  0.490340  1.0  2.0775
  Y  Y3  1  0.210580  0.495120  0.990340  1.0  2.0768
  Y  Y4  1  0.710580  0.004880  0.509660  1.0  2.0773
  H  H5  1  0.161800  0.370200  0.772000  1.0  0.0899
  H  H6  1  0.186200  0.252500  0.652800  1.0  0.0935
  H  H7  1  0.780500  0.282400  0.607300  1.0  0.0895
  H  H8  1  0.754000  0.399300  0.727000  1.0  0.1054
  H  H9  1  0.202800  0.102400  0.032600  1.0  0.1058
  H  H10  1  0.793100  0.104700  0.984500  1.0  0.1075
  H  H11  1  0.661800  0.129800  0.728000  1.0  0.0899
  H  H12  1  0.686200  0.247500  0.847200  1.0  0.0933
  H  H13  1  0.280500  0.217600  0.892700  1.0  0.0898
  H  H14  1  0.254000  0.100700  0.773000  1.0  0.1053
  H  H15  1  0.702800  0.397600  0.467400  1.0  0.1061
  H  H16  1  0.293100  0.395300  0.515500  1.0  0.1081
  H  H17  1  0.838200  0.629800  0.228000  1.0  0.0896
  H  H18  1  0.813800  0.747500  0.347200  1.0  0.0935
  H  H19  1  0.219500  0.717600  0.392700  1.0  0.0899
  H  H20  1  0.246000  0.600700  0.273000  1.0  0.105
  H  H21  1  0.797200  0.897600  0.967400  1.0  0.1061
  H  H22  1  0.206900  0.895300  0.015500  1.0  0.1083
  H  H23  1  0.338200  0.870200  0.272000  1.0  0.0905
  H  H24  1  0.313800  0.752500  0.152800  1.0  0.0938
  H  H25  1  0.719500  0.782400  0.107300  1.0  0.0896
  H  H26  1  0.746000  0.899300  0.227000  1.0  0.1053
  H  H27  1  0.297200  0.602400  0.532600  1.0  0.1058
  H  H28  1  0.706900  0.604700  0.484500  1.0  0.1079
  C  C29  1  0.954800  0.392700  0.764400  1.0  -0.1349
  C  C30  1  0.084100  0.350900  0.740000  1.0  -0.06
  C  C31  1  0.098800  0.280800  0.668400  1.0  -0.0384
  C  C32  1  0.984200  0.252400  0.619600  1.0  -0.1483
  C  C33  1  0.857000  0.298400  0.641200  1.0  -0.0477
  C  C34  1  0.840900  0.368400  0.713000  1.0  -0.0443
  C  C35  1  0.930900  0.453500  0.848000  1.0  0.752
  C  C36  1  0.998300  0.165100  0.546700  1.0  0.7784
  C  C37  1  0.998600  0.124900  0.009400  1.0  -0.1313
  C  C38  1  0.121400  0.061200  0.019300  1.0  -0.0545
  C  C39  1  0.876000  0.062800  0.990500  1.0  -0.0488
  C  C40  1  0.998700  0.260400  0.018900  1.0  0.7661
  C  C41  1  0.454800  0.107300  0.735600  1.0  -0.1357
  C  C42  1  0.584100  0.149100  0.760000  1.0  -0.0603
  C  C43  1  0.598800  0.219200  0.831600  1.0  -0.0378
  C  C44  1  0.484200  0.247600  0.880400  1.0  -0.1491
  C  C45  1  0.357000  0.201600  0.858800  1.0  -0.0487
  C  C46  1  0.340900  0.131600  0.787000  1.0  -0.0426
  C  C47  1  0.430900  0.046500  0.652000  1.0  0.7512
  C  C48  1  0.498300  0.334900  0.953300  1.0  0.7775
  C  C49  1  0.498600  0.375100  0.490600  1.0  -0.1298
  C  C50  1  0.621400  0.438800  0.480700  1.0  -0.0541
  C  C51  1  0.376000  0.437200  0.509500  1.0  -0.0487
  C  C52  1  0.498700  0.239600  0.481100  1.0  0.7664
  C  C53  1  0.045200  0.607300  0.235600  1.0  -0.1364
  C  C54  1  0.915900  0.649100  0.260000  1.0  -0.0599
  C  C55  1  0.901200  0.719200  0.331600  1.0  -0.0376
  C  C56  1  0.015800  0.747600  0.380400  1.0  -0.1493
  C  C57  1  0.143000  0.701600  0.358800  1.0  -0.0486
  C  C58  1  0.159100  0.631600  0.287000  1.0  -0.0434
  C  C59  1  0.069100  0.546500  0.152000  1.0  0.7513
  C  C60  1  0.001700  0.834900  0.453300  1.0  0.7772
  C  C61  1  0.001400  0.875100  0.990600  1.0  -0.1293
  C  C62  1  0.878600  0.938800  0.980700  1.0  -0.0546
  C  C63  1  0.124000  0.937200  0.009500  1.0  -0.048
  C  C64  1  0.001300  0.739600  0.981100  1.0  0.7664
  C  C65  1  0.545200  0.892700  0.264400  1.0  -0.1355
  C  C66  1  0.415900  0.850900  0.240000  1.0  -0.0597
  C  C67  1  0.401200  0.780800  0.168400  1.0  -0.0384
  C  C68  1  0.515800  0.752400  0.119600  1.0  -0.1489
  C  C69  1  0.643000  0.798400  0.141200  1.0  -0.0473
  C  C70  1  0.659100  0.868400  0.213000  1.0  -0.0437
  C  C71  1  0.569100  0.953500  0.348000  1.0  0.7523
  C  C72  1  0.501700  0.665100  0.046700  1.0  0.7782
  C  C73  1  0.501400  0.624900  0.509400  1.0  -0.1304
  C  C74  1  0.378600  0.561200  0.519300  1.0  -0.055
  C  C75  1  0.624000  0.562800  0.490500  1.0  -0.048
  C  C76  1  0.501300  0.760400  0.518900  1.0  0.7664
  O  O77  1  0.810400  0.487500  0.865300  1.0  -0.6303
  O  O78  1  0.029700  0.462800  0.898700  1.0  -0.7911
  O  O79  1  0.891200  0.136000  0.507500  1.0  -0.7113
  O  O80  1  0.117100  0.126600  0.530200  1.0  -0.7157
  O  O81  1  0.880600  0.311700  0.021000  1.0  -0.7223
  O  O82  1  0.113300  0.311700  0.022100  1.0  -0.6859
  O  O83  1  0.310400  0.012500  0.634700  1.0  -0.6291
  O  O84  1  0.529700  0.037200  0.601300  1.0  -0.7908
  O  O85  1  0.391200  0.364000  0.992500  1.0  -0.7121
  O  O86  1  0.617100  0.373400  0.969800  1.0  -0.7155
  O  O87  1  0.380600  0.188300  0.479000  1.0  -0.7223
  O  O88  1  0.613300  0.188300  0.477900  1.0  -0.6866
  O  O89  1  0.189600  0.512500  0.134700  1.0  -0.6295
  O  O90  1  0.970300  0.537200  0.101300  1.0  -0.7928
  O  O91  1  0.108800  0.864000  0.492500  1.0  -0.7133
  O  O92  1  0.882900  0.873400  0.469800  1.0  -0.7163
  O  O93  1  0.119400  0.688300  0.979000  1.0  -0.7222
  O  O94  1  0.886700  0.688300  0.977900  1.0  -0.6873
  O  O95  1  0.689600  0.987500  0.365300  1.0  -0.6313
  O  O96  1  0.470300  0.962800  0.398700  1.0  -0.7927
  O  O97  1  0.608800  0.636000  0.007500  1.0  -0.712
  O  O98  1  0.382900  0.626600  0.030200  1.0  -0.7157
  O  O99  1  0.619400  0.811700  0.521000  1.0  -0.7208
  O  O100  1  0.386700  0.811700  0.522100  1.0  -0.6864
