# generated using pymatgen
data_YH6(C2O)6
_symmetry_space_group_name_H-M   'P 1'
_cell_length_a   9.36590000
_cell_length_b   10.56620000
_cell_length_c   11.07810000
_cell_angle_alpha   98.84100000
_cell_angle_beta   112.93700000
_cell_angle_gamma   113.84400000
_symmetry_Int_Tables_number   1
_chemical_formula_structural   YH6(C2O)6
_chemical_formula_sum   'Y2 H12 C24 O12'
_cell_volume   858.10733307
_cell_formula_units_Z   2
loop_
 _symmetry_equiv_pos_site_id
 _symmetry_equiv_pos_as_xyz
  1  'x, y, z'
loop_
 _atom_site_type_symbol
 _atom_site_label
 _atom_site_symmetry_multiplicity
 _atom_site_fract_x
 _atom_site_fract_y
 _atom_site_fract_z
 _atom_site_occupancy
 _atom_site_charge
  Y  Y1  1  0.302390  0.989500  0.023670  1.0  2.0785
  Y  Y2  1  0.697610  0.010500  0.976330  1.0  2.0789
  H  H3  1  0.789400  0.359900  0.992900  1.0  0.0945
  H  H4  1  0.951000  0.599200  0.009100  1.0  0.0988
  H  H5  1  0.494100  0.597600  0.795900  1.0  0.0995
  H  H6  1  0.332600  0.364600  0.795900  1.0  0.1071
  H  H7  1  0.909000  0.607100  0.631100  1.0  0.1062
  H  H8  1  0.300800  0.611900  0.563000  1.0  0.1075
  H  H9  1  0.210600  0.640100  0.007100  1.0  0.0944
  H  H10  1  0.049000  0.400800  0.990900  1.0  0.0999
  H  H11  1  0.505900  0.402400  0.204100  1.0  0.1
  H  H12  1  0.667400  0.635400  0.204100  1.0  0.1067
  H  H13  1  0.091000  0.392900  0.368900  1.0  0.1064
  H  H14  1  0.699200  0.388100  0.437000  1.0  0.1074
  C  C15  1  0.543800  0.337400  0.894400  1.0  -0.1414
  C  C16  1  0.729500  0.408400  0.955800  1.0  -0.0299
  C  C17  1  0.825800  0.550000  0.962100  1.0  -0.0451
  C  C18  1  0.737900  0.620200  0.899200  1.0  -0.1359
  C  C19  1  0.553900  0.550600  0.837200  1.0  -0.0437
  C  C20  1  0.457100  0.410300  0.836200  1.0  -0.0435
  C  C21  1  0.442600  0.190200  0.904300  1.0  0.72
  C  C22  1  0.847700  0.776100  0.908300  1.0  0.7848
  C  C23  1  0.126600  0.630000  0.618400  1.0  -0.1422
  C  C24  1  0.945900  0.563800  0.578900  1.0  -0.0546
  C  C25  1  0.179900  0.566600  0.538100  1.0  -0.0565
  C  C26  1  0.262700  0.771200  0.745700  1.0  0.7632
  C  C27  1  0.456200  0.662600  0.105600  1.0  -0.14
  C  C28  1  0.270500  0.591600  0.044200  1.0  -0.0315
  C  C29  1  0.174200  0.450000  0.037900  1.0  -0.0452
  C  C30  1  0.262100  0.379800  0.100800  1.0  -0.1362
  C  C31  1  0.446100  0.449400  0.162800  1.0  -0.0458
  C  C32  1  0.542900  0.589700  0.163800  1.0  -0.0445
  C  C33  1  0.557400  0.809800  0.095700  1.0  0.7197
  C  C34  1  0.152300  0.223900  0.091700  1.0  0.7823
  C  C35  1  0.873400  0.370000  0.381600  1.0  -0.1422
  C  C36  1  0.054100  0.436200  0.421100  1.0  -0.0522
  C  C37  1  0.820100  0.433400  0.461900  1.0  -0.0559
  C  C38  1  0.737300  0.228800  0.254300  1.0  0.7631
  O  O39  1  0.524500  0.120700  0.943700  1.0  -0.8026
  O  O40  1  0.288500  0.145300  0.884700  1.0  -0.6077
  O  O41  1  0.005500  0.821500  0.935100  1.0  -0.7295
  O  O42  1  0.773600  0.853200  0.885400  1.0  -0.7354
  O  O43  1  0.200100  0.828400  0.804900  1.0  -0.6852
  O  O44  1  0.425300  0.819700  0.785100  1.0  -0.7064
  O  O45  1  0.475500  0.879300  0.056300  1.0  -0.8041
  O  O46  1  0.711500  0.854700  0.115300  1.0  -0.607
  O  O47  1  0.994500  0.178500  0.064900  1.0  -0.7273
  O  O48  1  0.226400  0.146800  0.114600  1.0  -0.7364
  O  O49  1  0.799900  0.171600  0.195100  1.0  -0.6848
  O  O50  1  0.574700  0.180300  0.214900  1.0  -0.7062
