# generated using pymatgen
data_GdH6(C2O)6
_symmetry_space_group_name_H-M   'P 1'
_cell_length_a   9.87390000
_cell_length_b   10.47670000
_cell_length_c   11.07350000
_cell_angle_alpha   77.23000000
_cell_angle_beta   76.42100000
_cell_angle_gamma   66.16600000
_symmetry_Int_Tables_number   1
_chemical_formula_structural   GdH6(C2O)6
_chemical_formula_sum   'Gd2 H12 C24 O12'
_cell_volume   1008.22421472
_cell_formula_units_Z   2
loop_
 _symmetry_equiv_pos_site_id
 _symmetry_equiv_pos_as_xyz
  1  'x, y, z'
loop_
 _atom_site_type_symbol
 _atom_site_label
 _atom_site_symmetry_multiplicity
 _atom_site_fract_x
 _atom_site_fract_y
 _atom_site_fract_z
 _atom_site_occupancy
 _atom_site_charge
  Gd  Gd1  1  0.944450  0.227500  0.822790  1.0  2.1131
  Gd  Gd2  1  0.055550  0.772500  0.177210  1.0  2.1102
  H  H3  1  0.648300  0.860700  0.150300  1.0  0.0992
  H  H4  1  0.599900  0.116800  0.821600  1.0  0.1018
  H  H5  1  0.435800  0.414500  0.707600  1.0  0.1085
  H  H6  1  0.737800  0.502800  0.425100  1.0  0.1079
  H  H7  1  0.310000  0.921500  0.506000  1.0  0.1104
  H  H8  1  0.455000  0.183600  0.606200  1.0  0.0855
  H  H9  1  0.351700  0.139300  0.849700  1.0  0.0987
  H  H10  1  0.400100  0.883200  0.178400  1.0  0.1022
  H  H11  1  0.564200  0.585500  0.292400  1.0  0.1085
  H  H12  1  0.262200  0.497200  0.574900  1.0  0.1089
  H  H13  1  0.690000  0.078500  0.494000  1.0  0.1104
  H  H14  1  0.545000  0.816400  0.393800  1.0  0.0854
  C  C15  1  0.648400  0.986300  0.982400  1.0  -0.1451
  C  C16  1  0.588800  0.916300  0.090100  1.0  -0.0325
  C  C17  1  0.559700  0.069900  0.893100  1.0  -0.0194
  C  C18  1  0.808400  0.975500  0.966100  1.0  0.8171
  C  C19  1  0.607100  0.448600  0.580100  1.0  -0.1153
  C  C20  1  0.461900  0.448600  0.624100  1.0  -0.0678
  C  C21  1  0.642200  0.501300  0.455400  1.0  -0.0505
  C  C22  1  0.720900  0.389700  0.665400  1.0  0.6882
  C  C23  1  0.357300  0.065200  0.566700  1.0  -0.1177
  C  C24  1  0.386000  0.953500  0.503400  1.0  -0.0649
  C  C25  1  0.472800  0.110000  0.563200  1.0  -0.0514
  C  C26  1  0.206700  0.130200  0.644200  1.0  0.6768
  C  C27  1  0.351600  0.013700  0.017600  1.0  -0.146
  C  C28  1  0.411200  0.083700  0.909900  1.0  -0.033
  C  C29  1  0.440300  0.930100  0.106900  1.0  -0.0198
  C  C30  1  0.191600  0.024500  0.033900  1.0  0.8175
  C  C31  1  0.392900  0.551400  0.419900  1.0  -0.1145
  C  C32  1  0.538100  0.551400  0.375900  1.0  -0.0679
  C  C33  1  0.357800  0.498700  0.544600  1.0  -0.0516
  C  C34  1  0.279100  0.610300  0.334600  1.0  0.6889
  C  C35  1  0.642700  0.934800  0.433300  1.0  -0.12
  C  C36  1  0.614000  0.046500  0.496600  1.0  -0.0608
  C  C37  1  0.527200  0.890000  0.436800  1.0  -0.051
  C  C38  1  0.793300  0.869800  0.355800  1.0  0.6765
  O  O39  1  0.856400  0.045700  0.871300  1.0  -0.6906
  O  O40  1  0.882700  0.897100  0.049800  1.0  -0.8037
  O  O41  1  0.854700  0.378400  0.624000  1.0  -0.6681
  O  O42  1  0.683100  0.349200  0.779700  1.0  -0.7445
  O  O43  1  0.172300  0.246900  0.680400  1.0  -0.6737
  O  O44  1  0.118100  0.064000  0.676300  1.0  -0.6654
  O  O45  1  0.143600  0.954300  0.128700  1.0  -0.6939
  O  O46  1  0.117300  0.102900  0.950200  1.0  -0.8047
  O  O47  1  0.145300  0.621600  0.376000  1.0  -0.6693
  O  O48  1  0.316900  0.650800  0.220300  1.0  -0.7398
  O  O49  1  0.827700  0.753100  0.319600  1.0  -0.6713
  O  O50  1  0.881900  0.936000  0.323700  1.0  -0.6616
