# generated using pymatgen
data_SmH6(C2O)6
_symmetry_space_group_name_H-M   'P 1'
_cell_length_a   9.90980000
_cell_length_b   10.53140000
_cell_length_c   11.06190000
_cell_angle_alpha   77.71100000
_cell_angle_beta   76.63800000
_cell_angle_gamma   66.32000000
_symmetry_Int_Tables_number   1
_chemical_formula_structural   SmH6(C2O)6
_chemical_formula_sum   'Sm2 H12 C24 O12'
_cell_volume   1019.26588569
_cell_formula_units_Z   2
loop_
 _symmetry_equiv_pos_site_id
 _symmetry_equiv_pos_as_xyz
  1  'x, y, z'
loop_
 _atom_site_type_symbol
 _atom_site_label
 _atom_site_symmetry_multiplicity
 _atom_site_fract_x
 _atom_site_fract_y
 _atom_site_fract_z
 _atom_site_occupancy
 _atom_site_charge
  Sm  Sm1  1  0.943980  0.226390  0.822870  1.0  2.1809
  Sm  Sm2  1  0.056020  0.773610  0.177130  1.0  2.1762
  H  H3  1  0.651300  0.861000  0.147100  1.0  0.0946
  H  H4  1  0.596900  0.117000  0.822500  1.0  0.0923
  H  H5  1  0.438200  0.412300  0.706500  1.0  0.1008
  H  H6  1  0.738100  0.504300  0.426500  1.0  0.1128
  H  H7  1  0.313600  0.919000  0.507300  1.0  0.1015
  H  H8  1  0.453400  0.182700  0.607800  1.0  0.0851
  H  H9  1  0.348700  0.139000  0.852900  1.0  0.0945
  H  H10  1  0.403100  0.883000  0.177500  1.0  0.0929
  H  H11  1  0.561800  0.587700  0.293500  1.0  0.1012
  H  H12  1  0.261900  0.495700  0.573500  1.0  0.1136
  H  H13  1  0.686400  0.081000  0.492700  1.0  0.1017
  H  H14  1  0.546600  0.817300  0.392200  1.0  0.0851
  C  C15  1  0.648700  0.987200  0.981800  1.0  -0.1472
  C  C16  1  0.591100  0.916800  0.088000  1.0  -0.0348
  C  C17  1  0.558100  0.069900  0.894000  1.0  -0.034
  C  C18  1  0.808600  0.974400  0.964800  1.0  0.8079
  C  C19  1  0.605800  0.448600  0.579100  1.0  -0.1079
  C  C20  1  0.463000  0.447200  0.623400  1.0  -0.0283
  C  C21  1  0.643100  0.502200  0.455900  1.0  -0.0534
  C  C22  1  0.720300  0.389700  0.664800  1.0  0.6785
  C  C23  1  0.358400  0.063500  0.566100  1.0  -0.1196
  C  C24  1  0.388400  0.952500  0.503800  1.0  -0.0624
  C  C25  1  0.471600  0.109800  0.563900  1.0  -0.0637
  C  C26  1  0.207400  0.128600  0.644300  1.0  0.6895
  C  C27  1  0.351300  0.012800  0.018200  1.0  -0.1471
  C  C28  1  0.408900  0.083200  0.912000  1.0  -0.0347
  C  C29  1  0.441900  0.930100  0.106000  1.0  -0.0328
  C  C30  1  0.191400  0.025600  0.035200  1.0  0.8076
  C  C31  1  0.394200  0.551400  0.420900  1.0  -0.1073
  C  C32  1  0.537000  0.552800  0.376600  1.0  -0.0301
  C  C33  1  0.356900  0.497800  0.544100  1.0  -0.0538
  C  C34  1  0.279700  0.610300  0.335200  1.0  0.6791
  C  C35  1  0.641600  0.936500  0.433900  1.0  -0.1202
  C  C36  1  0.611600  0.047500  0.496200  1.0  -0.0619
  C  C37  1  0.528400  0.890200  0.436100  1.0  -0.0621
  C  C38  1  0.792600  0.871400  0.355700  1.0  0.6886
  O  O39  1  0.856300  0.044200  0.870700  1.0  -0.7281
  O  O40  1  0.880500  0.898000  0.048400  1.0  -0.7954
  O  O41  1  0.853100  0.379800  0.624200  1.0  -0.664
  O  O42  1  0.681200  0.348400  0.779800  1.0  -0.752
  O  O43  1  0.172900  0.244800  0.679300  1.0  -0.6674
  O  O44  1  0.119500  0.061200  0.675000  1.0  -0.6844
  O  O45  1  0.143700  0.955800  0.129300  1.0  -0.7312
  O  O46  1  0.119500  0.102000  0.951600  1.0  -0.7957
  O  O47  1  0.146900  0.620200  0.375800  1.0  -0.6683
  O  O48  1  0.318800  0.651600  0.220200  1.0  -0.7487
  O  O49  1  0.827100  0.755200  0.320700  1.0  -0.6647
  O  O50  1  0.880500  0.938800  0.325000  1.0  -0.6831
