# generated using pymatgen
data_ErH6(C2O)6
_symmetry_space_group_name_H-M   'P 1'
_cell_length_a   8.57760000
_cell_length_b   10.19500000
_cell_length_c   10.91150000
_cell_angle_alpha   66.67200000
_cell_angle_beta   69.42500000
_cell_angle_gamma   78.11300000
_symmetry_Int_Tables_number   1
_chemical_formula_structural   ErH6(C2O)6
_chemical_formula_sum   'Er2 H12 C24 O12'
_cell_volume   817.82192269
_cell_formula_units_Z   2
loop_
 _symmetry_equiv_pos_site_id
 _symmetry_equiv_pos_as_xyz
  1  'x, y, z'
loop_
 _atom_site_type_symbol
 _atom_site_label
 _atom_site_symmetry_multiplicity
 _atom_site_fract_x
 _atom_site_fract_y
 _atom_site_fract_z
 _atom_site_occupancy
 _atom_site_charge
  Er  Er1  1  0.346670  0.566060  0.846580  1.0  1.4984
  Er  Er2  1  0.653330  0.433940  0.153420  1.0  1.4983
  H  H3  1  0.795000  0.371300  0.515000  1.0  0.1207
  H  H4  1  0.935100  0.658600  0.616600  1.0  0.0922
  H  H5  1  0.288700  0.178400  0.022100  1.0  0.1043
  H  H6  1  0.764400  0.028000  0.995000  1.0  0.1252
  H  H7  1  0.853300  0.876400  0.726300  1.0  0.0943
  H  H8  1  0.285800  0.949200  0.418400  1.0  0.1229
  H  H9  1  0.205000  0.628700  0.485000  1.0  0.1206
  H  H10  1  0.064900  0.341400  0.383400  1.0  0.0926
  H  H11  1  0.711300  0.821600  0.977900  1.0  0.1042
  H  H12  1  0.235600  0.972000  0.005000  1.0  0.1261
  H  H13  1  0.146700  0.123600  0.273700  1.0  0.0944
  H  H14  1  0.714200  0.050800  0.581600  1.0  0.123
  C  C15  1  0.662200  0.540100  0.667000  1.0  0.6462
  C  C16  1  0.837500  0.518200  0.581000  1.0  -0.1037
  C  C17  1  0.877100  0.422400  0.509100  1.0  -0.0658
  C  C18  1  0.962200  0.594500  0.569500  1.0  -0.0236
  C  C19  1  0.563900  0.255700  0.020300  1.0  0.7166
  C  C20  1  0.530100  0.124000  0.007400  1.0  -0.0765
  C  C21  1  0.374000  0.106900  0.012600  1.0  -0.0524
  C  C22  1  0.658700  0.017100  0.996400  1.0  -0.0601
  C  C23  1  0.171700  0.780000  0.684300  1.0  0.6533
  C  C24  1  0.082400  0.894100  0.590000  1.0  -0.1105
  C  C25  1  0.913200  0.926300  0.634800  1.0  -0.0413
  C  C26  1  0.171200  0.969300  0.451800  1.0  -0.0597
  C  C27  1  0.337800  0.459900  0.333000  1.0  0.646
  C  C28  1  0.162500  0.481800  0.419000  1.0  -0.1051
  C  C29  1  0.122900  0.577600  0.490900  1.0  -0.0657
  C  C30  1  0.037800  0.405500  0.430500  1.0  -0.0229
  C  C31  1  0.436100  0.744300  0.979700  1.0  0.7172
  C  C32  1  0.469900  0.876000  0.992600  1.0  -0.0763
  C  C33  1  0.626000  0.893100  0.987400  1.0  -0.0546
  C  C34  1  0.341300  0.982900  0.003600  1.0  -0.0588
  C  C35  1  0.828300  0.220000  0.315700  1.0  0.6544
  C  C36  1  0.917600  0.105900  0.410000  1.0  -0.1117
  C  C37  1  0.086800  0.073700  0.365200  1.0  -0.0403
  C  C38  1  0.828800  0.030700  0.548200  1.0  -0.0536
  O  O39  1  0.631600  0.619200  0.739600  1.0  -0.5571
  O  O40  1  0.547100  0.480100  0.669700  1.0  -0.5627
  O  O41  1  0.479800  0.370500  0.976300  1.0  -0.6883
  O  O42  1  0.668600  0.245100  0.079400  1.0  -0.6092
  O  O43  1  0.326900  0.750300  0.636400  1.0  -0.5661
  O  O44  1  0.090800  0.711000  0.809000  1.0  -0.6019
  O  O45  1  0.368400  0.380800  0.260400  1.0  -0.5576
  O  O46  1  0.452900  0.519900  0.330300  1.0  -0.5631
  O  O47  1  0.520200  0.629500  0.023700  1.0  -0.6887
  O  O48  1  0.331400  0.754900  0.920600  1.0  -0.6086
  O  O49  1  0.673100  0.249700  0.363600  1.0  -0.5641
  O  O50  1  0.909200  0.289000  0.191000  1.0  -0.6012
