# generated using pymatgen
data_YbH6(C2O)6
_symmetry_space_group_name_H-M   'P 1'
_cell_length_a   8.56790000
_cell_length_b   10.18680000
_cell_length_c   10.87240000
_cell_angle_alpha   66.79100000
_cell_angle_beta   69.31600000
_cell_angle_gamma   78.24600000
_symmetry_Int_Tables_number   1
_chemical_formula_structural   YbH6(C2O)6
_chemical_formula_sum   'Yb2 H12 C24 O12'
_cell_volume   813.62733765
_cell_formula_units_Z   2
loop_
 _symmetry_equiv_pos_site_id
 _symmetry_equiv_pos_as_xyz
  1  'x, y, z'
loop_
 _atom_site_type_symbol
 _atom_site_label
 _atom_site_symmetry_multiplicity
 _atom_site_fract_x
 _atom_site_fract_y
 _atom_site_fract_z
 _atom_site_occupancy
 _atom_site_charge
  Yb  Yb1  1  0.345630  0.566980  0.843610  1.0  1.4927
  Yb  Yb2  1  0.654370  0.433020  0.156390  1.0  1.493
  H  H3  1  0.794800  0.373100  0.514600  1.0  0.1057
  H  H4  1  0.933300  0.659400  0.616900  1.0  0.0902
  H  H5  1  0.285900  0.176500  0.016500  1.0  0.1052
  H  H6  1  0.759200  0.031100  0.998600  1.0  0.119
  H  H7  1  0.853500  0.877200  0.728600  1.0  0.1004
  H  H8  1  0.286400  0.953800  0.418300  1.0  0.1224
  H  H9  1  0.205200  0.626900  0.485400  1.0  0.1056
  H  H10  1  0.066700  0.340600  0.383100  1.0  0.0904
  H  H11  1  0.714100  0.823500  0.983500  1.0  0.1055
  H  H12  1  0.240800  0.968900  0.001400  1.0  0.1199
  H  H13  1  0.146500  0.122800  0.271400  1.0  0.1001
  H  H14  1  0.713600  0.046200  0.581700  1.0  0.1222
  C  C15  1  0.660800  0.539600  0.667300  1.0  0.6433
  C  C16  1  0.836100  0.518200  0.581800  1.0  -0.1033
  C  C17  1  0.877200  0.423800  0.509300  1.0  -0.0529
  C  C18  1  0.960200  0.594700  0.570200  1.0  -0.0275
  C  C19  1  0.555800  0.260000  0.018100  1.0  0.7311
  C  C20  1  0.527300  0.126500  0.007400  1.0  -0.0932
  C  C21  1  0.372900  0.105800  0.009500  1.0  -0.0677
  C  C22  1  0.654400  0.019100  0.998800  1.0  -0.063
  C  C23  1  0.171800  0.779300  0.685700  1.0  0.66
  C  C24  1  0.083200  0.896000  0.589000  1.0  -0.126
  C  C25  1  0.912800  0.926400  0.636200  1.0  -0.038
  C  C26  1  0.171200  0.971800  0.451200  1.0  -0.0429
  C  C27  1  0.339200  0.460400  0.332700  1.0  0.6429
  C  C28  1  0.163900  0.481800  0.418200  1.0  -0.1037
  C  C29  1  0.122800  0.576200  0.490700  1.0  -0.0507
  C  C30  1  0.039800  0.405300  0.429800  1.0  -0.0274
  C  C31  1  0.444200  0.740000  0.981900  1.0  0.7305
  C  C32  1  0.472700  0.873500  0.992600  1.0  -0.093
  C  C33  1  0.627100  0.894200  0.990500  1.0  -0.0688
  C  C34  1  0.345600  0.980900  0.001200  1.0  -0.0635
  C  C35  1  0.828200  0.220700  0.314300  1.0  0.6589
  C  C36  1  0.916800  0.104000  0.411000  1.0  -0.1248
  C  C37  1  0.087200  0.073600  0.363800  1.0  -0.0375
  C  C38  1  0.828800  0.028200  0.548800  1.0  -0.0366
  O  O39  1  0.629800  0.617900  0.741700  1.0  -0.5503
  O  O40  1  0.545600  0.481500  0.667200  1.0  -0.5376
  O  O41  1  0.470300  0.372900  0.971900  1.0  -0.7059
  O  O42  1  0.658500  0.252500  0.078500  1.0  -0.5974
  O  O43  1  0.326500  0.751400  0.635700  1.0  -0.5695
  O  O44  1  0.092700  0.713800  0.809200  1.0  -0.5982
  O  O45  1  0.370200  0.382100  0.258300  1.0  -0.5508
  O  O46  1  0.454400  0.518500  0.332800  1.0  -0.5382
  O  O47  1  0.529700  0.627100  0.028100  1.0  -0.7059
  O  O48  1  0.341500  0.747500  0.921500  1.0  -0.5967
  O  O49  1  0.673500  0.248600  0.364300  1.0  -0.5689
  O  O50  1  0.907300  0.286200  0.190800  1.0  -0.599
