# generated using pymatgen
data_Yb3C18S3O13
_symmetry_space_group_name_H-M   'P 1'
_cell_length_a   14.41550000
_cell_length_b   14.41550000
_cell_length_c   16.97250000
_cell_angle_alpha   90.00000000
_cell_angle_beta   90.00000000
_cell_angle_gamma   120.00000000
_symmetry_Int_Tables_number   1
_chemical_formula_structural   Yb3C18S3O13
_chemical_formula_sum   'Yb6 C36 S6 O26'
_cell_volume   3054.47004172
_cell_formula_units_Z   2
loop_
 _symmetry_equiv_pos_site_id
 _symmetry_equiv_pos_as_xyz
  1  'x, y, z'
loop_
 _atom_site_type_symbol
 _atom_site_label
 _atom_site_symmetry_multiplicity
 _atom_site_fract_x
 _atom_site_fract_y
 _atom_site_fract_z
 _atom_site_occupancy
 _atom_site_charge
  Yb  Yb1  1  0.202540  0.505940  0.383720  1.0  1.5453
  Yb  Yb2  1  0.494060  0.696600  0.383720  1.0  1.5465
  Yb  Yb3  1  0.303400  0.797460  0.383720  1.0  1.5461
  Yb  Yb4  1  0.505940  0.202540  0.883720  1.0  1.5451
  Yb  Yb5  1  0.696600  0.494060  0.883720  1.0  1.5451
  Yb  Yb6  1  0.797460  0.303400  0.883720  1.0  1.5464
  C  C7  1  0.874600  0.501800  0.005800  1.0  0.7182
  C  C8  1  0.125400  0.628500  0.261100  1.0  0.7102
  C  C9  1  0.940000  0.559600  0.076200  1.0  -0.0998
  C  C10  1  0.059900  0.619300  0.190900  1.0  -0.0838
  C  C11  1  0.035900  0.695900  0.166800  1.0  0.0038
  C  C12  1  0.965300  0.659600  0.100000  1.0  -0.0007
  C  C13  1  0.498200  0.372800  0.005800  1.0  0.7183
  C  C14  1  0.371500  0.496900  0.261100  1.0  0.7102
  C  C15  1  0.440400  0.380400  0.076200  1.0  -0.1014
  C  C16  1  0.380700  0.440600  0.190900  1.0  -0.0826
  C  C17  1  0.304100  0.340000  0.166800  1.0  0.0036
  C  C18  1  0.340400  0.305700  0.100000  1.0  -0.0003
  C  C19  1  0.627200  0.125400  0.005800  1.0  0.7179
  C  C20  1  0.503100  0.874600  0.261100  1.0  0.7097
  C  C21  1  0.619600  0.060000  0.076200  1.0  -0.1021
  C  C22  1  0.559400  0.940100  0.190900  1.0  -0.0859
  C  C23  1  0.660000  0.964100  0.166800  1.0  0.006
  C  C24  1  0.694300  0.034700  0.100000  1.0  0.0063
  C  C25  1  0.501800  0.874600  0.505800  1.0  0.7177
  C  C26  1  0.628500  0.125400  0.761100  1.0  0.7095
  C  C27  1  0.559600  0.940000  0.576200  1.0  -0.1016
  C  C28  1  0.619300  0.059900  0.690900  1.0  -0.0856
  C  C29  1  0.695900  0.035900  0.666800  1.0  0.0061
  C  C30  1  0.659600  0.965300  0.600000  1.0  0.0123
  C  C31  1  0.372800  0.498200  0.505800  1.0  0.7189
  C  C32  1  0.496900  0.371500  0.761100  1.0  0.7106
  C  C33  1  0.380400  0.440400  0.576200  1.0  -0.1002
  C  C34  1  0.440600  0.380700  0.690900  1.0  -0.0842
  C  C35  1  0.340000  0.304100  0.666800  1.0  0.0023
  C  C36  1  0.305700  0.340400  0.600000  1.0  0.0055
  C  C37  1  0.125400  0.627200  0.505800  1.0  0.7183
  C  C38  1  0.874600  0.503100  0.761100  1.0  0.7099
  C  C39  1  0.060000  0.619600  0.576200  1.0  -0.1016
  C  C40  1  0.940100  0.559400  0.690900  1.0  -0.0822
  C  C41  1  0.964100  0.660000  0.666800  1.0  0.0039
  C  C42  1  0.034700  0.694300  0.600000  1.0  0.0056
  S  S43  1  0.999900  0.505900  0.133600  1.0  0.1491
  S  S44  1  0.494100  0.494000  0.133600  1.0  0.1541
  S  S45  1  0.506000  0.000100  0.133600  1.0  0.1475
  S  S46  1  0.505900  0.999900  0.633600  1.0  0.1509
  S  S47  1  0.494000  0.494100  0.633600  1.0  0.1541
  S  S48  1  0.000100  0.506000  0.633600  1.0  0.1525
  O  O49  1  0.126900  0.544000  0.282000  1.0  -0.7017
  O  O50  1  0.873500  0.416700  0.984800  1.0  -0.647
  O  O51  1  0.827000  0.543300  0.973600  1.0  -0.6455
  O  O52  1  0.173100  0.716200  0.294800  1.0  -0.6332
  O  O53  1  0.456000  0.582900  0.282000  1.0  -0.6998
  O  O54  1  0.583300  0.456800  0.984800  1.0  -0.6482
  O  O55  1  0.456700  0.283700  0.973600  1.0  -0.6453
  O  O56  1  0.283800  0.456900  0.294800  1.0  -0.6335
  O  O57  1  0.417100  0.873100  0.282000  1.0  -0.7015
  O  O58  1  0.543200  0.126500  0.984800  1.0  -0.6484
  O  O59  1  0.716300  0.173000  0.973600  1.0  -0.6484
  O  O60  1  0.543100  0.826900  0.294800  1.0  -0.6365
  O  O61  1  0.544000  0.126900  0.782000  1.0  -0.7019
  O  O62  1  0.416700  0.873500  0.484800  1.0  -0.648
  O  O63  1  0.543300  0.827000  0.473600  1.0  -0.6486
  O  O64  1  0.716200  0.173100  0.794800  1.0  -0.6372
  O  O65  1  0.582900  0.456000  0.782000  1.0  -0.7019
  O  O66  1  0.456800  0.583300  0.484800  1.0  -0.6475
  O  O67  1  0.283700  0.456700  0.473600  1.0  -0.6457
  O  O68  1  0.456900  0.283800  0.794800  1.0  -0.6336
  O  O69  1  0.873100  0.417100  0.782000  1.0  -0.7013
  O  O70  1  0.126500  0.543200  0.484800  1.0  -0.6462
  O  O71  1  0.173000  0.716300  0.473600  1.0  -0.6473
  O  O72  1  0.826900  0.543100  0.794800  1.0  -0.6338
  O  O73  1  0.333333  0.666667  0.384100  1.0  -0.9566
  O  O74  1  0.666667  0.333333  0.884100  1.0  -0.9566
