# generated using pymatgen
data_YH4(C3O2)3
_symmetry_space_group_name_H-M   'P 1'
_cell_length_a   9.65200000
_cell_length_b   14.06700000
_cell_length_c   16.21200000
_cell_angle_alpha   90.00000000
_cell_angle_beta   90.00000000
_cell_angle_gamma   106.58000000
_symmetry_Int_Tables_number   1
_chemical_formula_structural   YH4(C3O2)3
_chemical_formula_sum   'Y4 H16 C36 O24'
_cell_volume   2109.65907776
_cell_formula_units_Z   4
loop_
 _symmetry_equiv_pos_site_id
 _symmetry_equiv_pos_as_xyz
  1  'x, y, z'
loop_
 _atom_site_type_symbol
 _atom_site_label
 _atom_site_symmetry_multiplicity
 _atom_site_fract_x
 _atom_site_fract_y
 _atom_site_fract_z
 _atom_site_occupancy
 _atom_site_charge
  Y  Y1  1  0.826910  0.552580  0.017480  1.0  2.0258
  Y  Y2  1  0.673090  0.947420  0.517480  1.0  2.0272
  Y  Y3  1  0.173090  0.447420  0.982520  1.0  2.0264
  Y  Y4  1  0.326910  0.052580  0.482520  1.0  2.0252
  H  H5  1  0.297200  0.633900  0.806000  1.0  0.1057
  H  H6  1  0.413900  0.729000  0.700900  1.0  0.1029
  H  H7  1  0.107500  0.869000  0.690400  1.0  0.104
  H  H8  1  0.994700  0.778800  0.799900  1.0  0.1068
  H  H9  1  0.202800  0.866100  0.306000  1.0  0.1048
  H  H10  1  0.086100  0.771000  0.200900  1.0  0.1036
  H  H11  1  0.392500  0.631000  0.190400  1.0  0.1038
  H  H12  1  0.505300  0.721200  0.299900  1.0  0.107
  H  H13  1  0.702800  0.366100  0.194000  1.0  0.1053
  H  H14  1  0.586100  0.271000  0.299100  1.0  0.1028
  H  H15  1  0.892500  0.131000  0.309600  1.0  0.1038
  H  H16  1  0.005300  0.221200  0.200100  1.0  0.107
  H  H17  1  0.797200  0.133900  0.694000  1.0  0.106
  H  H18  1  0.913900  0.229000  0.799100  1.0  0.1033
  H  H19  1  0.607500  0.369000  0.809600  1.0  0.1034
  H  H20  1  0.494700  0.278800  0.700100  1.0  0.1072
  C  C21  1  0.135500  0.696500  0.815200  1.0  -0.1337
  C  C22  1  0.260000  0.682600  0.783800  1.0  -0.0494
  C  C23  1  0.329000  0.738800  0.721200  1.0  -0.0363
  C  C24  1  0.276000  0.811500  0.685900  1.0  -0.1562
  C  C25  1  0.147000  0.823200  0.715200  1.0  -0.0441
  C  C26  1  0.079000  0.768700  0.779300  1.0  -0.0588
  C  C27  1  0.055000  0.633100  0.889600  1.0  0.7488
  C  C28  1  0.350000  0.876100  0.613600  1.0  0.7639
  C  C29  1  0.508800  0.534600  0.963300  1.0  0.5382
  C  C30  1  0.364500  0.803500  0.315200  1.0  -0.1352
  C  C31  1  0.240000  0.817400  0.283800  1.0  -0.052
  C  C32  1  0.171000  0.761200  0.221200  1.0  -0.0377
  C  C33  1  0.224000  0.688500  0.185900  1.0  -0.1552
  C  C34  1  0.353000  0.676800  0.215200  1.0  -0.0435
  C  C35  1  0.421000  0.731300  0.279300  1.0  -0.0581
  C  C36  1  0.445000  0.866900  0.389600  1.0  0.7461
  C  C37  1  0.150000  0.623900  0.113600  1.0  0.7763
  C  C38  1  0.991200  0.965400  0.463300  1.0  0.5373
  C  C39  1  0.864500  0.303500  0.184800  1.0  -0.135
  C  C40  1  0.740000  0.317400  0.216200  1.0  -0.0517
  C  C41  1  0.671000  0.261200  0.278800  1.0  -0.0383
  C  C42  1  0.724000  0.188500  0.314100  1.0  -0.1569
  C  C43  1  0.853000  0.176800  0.284800  1.0  -0.0431
  C  C44  1  0.921000  0.231300  0.220700  1.0  -0.0579
  C  C45  1  0.945000  0.366900  0.110400  1.0  0.748
  C  C46  1  0.650000  0.123900  0.386400  1.0  0.7759
  C  C47  1  0.491200  0.465400  0.036700  1.0  0.5373
  C  C48  1  0.635500  0.196500  0.684800  1.0  -0.1341
  C  C49  1  0.760000  0.182600  0.716200  1.0  -0.0498
  C  C50  1  0.829000  0.238800  0.778800  1.0  -0.0358
  C  C51  1  0.776000  0.311500  0.814100  1.0  -0.155
  C  C52  1  0.647000  0.323200  0.784800  1.0  -0.0446
  C  C53  1  0.579000  0.268700  0.720700  1.0  -0.0587
  C  C54  1  0.555000  0.133100  0.610400  1.0  0.7508
  C  C55  1  0.850000  0.376100  0.886400  1.0  0.7629
  C  C56  1  0.008800  0.034600  0.536700  1.0  0.5361
  O  O57  1  0.946500  0.657700  0.914400  1.0  -0.6595
  O  O58  1  0.104300  0.568600  0.914500  1.0  -0.729
  O  O59  1  0.293400  0.934400  0.583600  1.0  -0.6568
  O  O60  1  0.473200  0.861900  0.592300  1.0  -0.7658
  O  O61  1  0.393900  0.544700  0.930500  1.0  -0.6184
  O  O62  1  0.634400  0.578100  0.940200  1.0  -0.5873
  O  O63  1  0.553500  0.842300  0.414400  1.0  -0.6584
  O  O64  1  0.395700  0.931400  0.414500  1.0  -0.7305
  O  O65  1  0.206600  0.565600  0.083600  1.0  -0.6563
  O  O66  1  0.026800  0.638100  0.092300  1.0  -0.7649
  O  O67  1  0.106100  0.955300  0.430500  1.0  -0.6219
  O  O68  1  0.865600  0.921900  0.440200  1.0  -0.5912
  O  O69  1  0.053500  0.342300  0.085600  1.0  -0.6583
  O  O70  1  0.895700  0.431400  0.085500  1.0  -0.7301
  O  O71  1  0.706600  0.065600  0.416400  1.0  -0.6562
  O  O72  1  0.526800  0.138100  0.407700  1.0  -0.7665
  O  O73  1  0.606100  0.455300  0.069500  1.0  -0.6214
  O  O74  1  0.365600  0.421900  0.059800  1.0  -0.5933
  O  O75  1  0.446500  0.157700  0.585600  1.0  -0.66
  O  O76  1  0.604300  0.068600  0.585500  1.0  -0.7286
  O  O77  1  0.793400  0.434400  0.916400  1.0  -0.6539
  O  O78  1  0.973200  0.361900  0.907700  1.0  -0.7668
  O  O79  1  0.893900  0.044700  0.569500  1.0  -0.6186
  O  O80  1  0.134400  0.078100  0.559800  1.0  -0.5892
