# generated using pymatgen
data_CdH4(C2O)4
_symmetry_space_group_name_H-M   'P 1'
_cell_length_a   12.44980000
_cell_length_b   13.81570000
_cell_length_c   14.57900000
_cell_angle_alpha   71.09300000
_cell_angle_beta   64.72400000
_cell_angle_gamma   63.21990000
_symmetry_Int_Tables_number   1
_chemical_formula_structural   CdH4(C2O)4
_chemical_formula_sum   'Cd6 H24 C48 O24'
_cell_volume   1997.23855219
_cell_formula_units_Z   6
loop_
 _symmetry_equiv_pos_site_id
 _symmetry_equiv_pos_as_xyz
  1  'x, y, z'
loop_
 _atom_site_type_symbol
 _atom_site_label
 _atom_site_symmetry_multiplicity
 _atom_site_fract_x
 _atom_site_fract_y
 _atom_site_fract_z
 _atom_site_occupancy
 _atom_site_charge
  Cd  Cd1  1  0.986140  0.046250  0.610030  1.0  1.1194
  Cd  Cd2  1  0.642420  0.453750  0.889970  1.0  1.1195
  Cd  Cd3  1  0.013860  0.953750  0.389970  1.0  1.1197
  Cd  Cd4  1  0.357580  0.546250  0.110030  1.0  1.1198
  Cd  Cd5  1  0.717350  0.250000  0.750000  1.0  1.2824
  Cd  Cd6  1  0.282650  0.750000  0.250000  1.0  1.2828
  H  H7  1  0.653820  0.300450  0.240070  1.0  0.1207
  H  H8  1  0.792240  0.163250  0.346230  1.0  0.1125
  H  H9  1  0.826080  0.167330  0.946080  1.0  0.1085
  H  H10  1  0.703730  0.422230  0.506810  1.0  0.1126
  H  H11  1  0.566470  0.559750  0.400120  1.0  0.1207
  H  H12  1  0.168210  0.872540  0.873160  1.0  0.1121
  H  H13  1  0.194340  0.199550  0.259930  1.0  0.12
  H  H14  1  0.301730  0.336750  0.153770  1.0  0.1127
  H  H15  1  0.939480  0.332670  0.553920  1.0  0.1092
  H  H16  1  0.632770  0.077770  0.993190  1.0  0.113
  H  H17  1  0.526340  0.940250  0.099880  1.0  0.1231
  H  H18  1  0.913900  0.627460  0.626840  1.0  0.1135
  H  H19  1  0.346180  0.699550  0.759930  1.0  0.1216
  H  H20  1  0.207670  0.836780  0.653650  1.0  0.1129
  H  H21  1  0.174170  0.832540  0.053450  1.0  0.1084
  H  H22  1  0.296270  0.577770  0.493190  1.0  0.1126
  H  H23  1  0.433530  0.440250  0.599880  1.0  0.1206
  H  H24  1  0.831890  0.127360  0.126960  1.0  0.1136
  H  H25  1  0.805660  0.800450  0.740070  1.0  0.1203
  H  H26  1  0.698110  0.663220  0.846350  1.0  0.1139
  H  H27  1  0.060520  0.667330  0.446080  1.0  0.1099
  H  H28  1  0.367230  0.922230  0.006810  1.0  0.1133
  H  H29  1  0.473510  0.059710  0.900230  1.0  0.1224
  H  H30  1  0.086200  0.372640  0.373040  1.0  0.1133
  C  C31  1  0.836400  0.203600  0.495000  1.0  0.723
  C  C32  1  0.755000  0.285900  0.431300  1.0  -0.0908
  C  C33  1  0.664500  0.327900  0.300500  1.0  -0.0752
  C  C34  1  0.991900  0.042900  0.795100  1.0  0.7023
  C  C35  1  0.996600  0.021800  0.901200  1.0  -0.0749
  C  C36  1  0.741000  0.252600  0.358600  1.0  -0.0775
  C  C37  1  0.510500  0.517300  0.257700  1.0  0.707
  C  C38  1  0.601500  0.436100  0.316300  1.0  -0.0708
  C  C39  1  0.904300  0.092000  0.970400  1.0  -0.0918
  C  C40  1  0.692400  0.395000  0.446600  1.0  -0.0688
  C  C41  1  0.616600  0.470100  0.388700  1.0  -0.0899
  C  C42  1  0.092300  0.930000  0.930400  1.0  -0.0831
  C  C43  1  0.535000  0.296400  0.005000  1.0  0.7215
  C  C44  1  0.472200  0.214100  0.068700  1.0  -0.0914
  C  C45  1  0.292900  0.172100  0.199500  1.0  -0.0784
  C  C46  1  0.829900  0.457100  0.704900  1.0  0.7021
  C  C47  1  0.919600  0.478200  0.598800  1.0  -0.0746
  C  C48  1  0.352200  0.247400  0.141400  1.0  -0.0767
  C  C49  1  0.285500  0.982700  0.242300  1.0  0.7051
  C  C50  1  0.353900  0.063900  0.183700  1.0  -0.0658
  C  C51  1  0.966700  0.408000  0.529600  1.0  -0.0902
  C  C52  1  0.534000  0.105000  0.053400  1.0  -0.0716
  C  C53  1  0.475400  0.029900  0.111300  1.0  -0.0872
  C  C54  1  0.952700  0.570000  0.569600  1.0  -0.0813
  C  C55  1  0.163600  0.796400  0.505000  1.0  0.7232
  C  C56  1  0.245000  0.714100  0.568700  1.0  -0.0888
  C  C57  1  0.335500  0.672100  0.699500  1.0  -0.0749
  C  C58  1  0.008100  0.957100  0.204900  1.0  0.7019
  C  C59  1  0.003400  0.978200  0.098800  1.0  -0.0742
  C  C60  1  0.259000  0.747400  0.641400  1.0  -0.0771
  C  C61  1  0.489500  0.482700  0.742300  1.0  0.7071
  C  C62  1  0.398500  0.563900  0.683700  1.0  -0.07
  C  C63  1  0.095700  0.908000  0.029600  1.0  -0.0863
  C  C64  1  0.307600  0.605000  0.553400  1.0  -0.0689
  C  C65  1  0.383400  0.529900  0.611300  1.0  -0.0875
  C  C66  1  0.907700  0.070000  0.069600  1.0  -0.087
  C  C67  1  0.465000  0.703600  0.995000  1.0  0.7203
  C  C68  1  0.527800  0.785900  0.931300  1.0  -0.0912
  C  C69  1  0.707100  0.827900  0.800500  1.0  -0.0792
  C  C70  1  0.170100  0.542900  0.295100  1.0  0.701
  C  C71  1  0.080400  0.521800  0.401200  1.0  -0.0757
  C  C72  1  0.647800  0.752600  0.858600  1.0  -0.0785
  C  C73  1  0.714500  0.017300  0.757700  1.0  0.7042
  C  C74  1  0.646100  0.936100  0.816300  1.0  -0.0666
  C  C75  1  0.033300  0.592000  0.470400  1.0  -0.0964
  C  C76  1  0.466000  0.895000  0.946600  1.0  -0.071
  C  C77  1  0.524600  0.970100  0.888700  1.0  -0.0901
  C  C78  1  0.047300  0.430000  0.430400  1.0  -0.0849
  O  O79  1  0.913190  0.112720  0.466300  1.0  -0.6489
  O  O80  1  0.828820  0.226860  0.574900  1.0  -0.6619
  O  O81  1  0.507900  0.485300  0.188100  1.0  -0.6378
  O  O82  1  0.908500  0.127000  0.767400  1.0  -0.675
  O  O83  1  0.445000  0.610900  0.284900  1.0  -0.6468
  O  O84  1  0.070000  0.974200  0.737200  1.0  -0.5874
  O  O85  1  0.492210  0.387280  0.033700  1.0  -0.6536
  O  O86  1  0.630580  0.273140  0.925100  1.0  -0.6615
  O  O87  1  0.181300  0.014700  0.311900  1.0  -0.6339
  O  O88  1  0.802900  0.373000  0.732600  1.0  -0.6739
  O  O89  1  0.340800  0.889100  0.215100  1.0  -0.6445
  O  O90  1  0.781400  0.525800  0.762800  1.0  -0.5871
  O  O91  1  0.086810  0.887280  0.533700  1.0  -0.6512
  O  O92  1  0.171180  0.773140  0.425100  1.0  -0.6618
  O  O93  1  0.492100  0.514700  0.811900  1.0  -0.6379
  O  O94  1  0.091500  0.873000  0.232600  1.0  -0.6734
  O  O95  1  0.555000  0.389100  0.715100  1.0  -0.6469
  O  O96  1  0.930000  0.025800  0.262800  1.0  -0.5905
  O  O97  1  0.507790  0.612720  0.966300  1.0  -0.652
  O  O98  1  0.369420  0.726860  0.074900  1.0  -0.6634
  O  O99  1  0.818700  0.985300  0.688100  1.0  -0.6354
  O  O100  1  0.197100  0.627000  0.267400  1.0  -0.6761
  O  O101  1  0.659200  0.110900  0.784900  1.0  -0.6466
  O  O102  1  0.218600  0.474200  0.237200  1.0  -0.5878
