# generated using pymatgen
data_Zn2H3C9O7
_symmetry_space_group_name_H-M   'P 1'
_cell_length_a   10.83000000
_cell_length_b   17.04900000
_cell_length_c   17.29300000
_cell_angle_alpha   90.00000000
_cell_angle_beta   90.00000000
_cell_angle_gamma   90.00000000
_symmetry_Int_Tables_number   1
_chemical_formula_structural   Zn2H3C9O7
_chemical_formula_sum   'Zn16 H24 C72 O56'
_cell_volume   3192.99110631
_cell_formula_units_Z   8
loop_
 _symmetry_equiv_pos_site_id
 _symmetry_equiv_pos_as_xyz
  1  'x, y, z'
loop_
 _atom_site_type_symbol
 _atom_site_label
 _atom_site_symmetry_multiplicity
 _atom_site_fract_x
 _atom_site_fract_y
 _atom_site_fract_z
 _atom_site_occupancy
 _atom_site_charge
  Zn  Zn1  1  0.675710  0.782710  0.495350  1.0  1.0555
  Zn  Zn2  1  0.713650  0.601510  0.511270  1.0  1.0834
  Zn  Zn3  1  0.443090  0.648130  0.431900  1.0  1.1032
  Zn  Zn4  1  0.830810  0.902470  0.392540  1.0  1.1451
  Zn  Zn5  1  0.824290  0.217290  0.995350  1.0  1.0553
  Zn  Zn6  1  0.786350  0.398490  0.011270  1.0  1.0822
  Zn  Zn7  1  0.056910  0.351870  0.931900  1.0  1.1029
  Zn  Zn8  1  0.669190  0.097530  0.892540  1.0  1.1471
  Zn  Zn9  1  0.324290  0.282710  0.004650  1.0  1.0557
  Zn  Zn10  1  0.286350  0.101510  0.988730  1.0  1.0826
  Zn  Zn11  1  0.556910  0.148130  0.068100  1.0  1.1029
  Zn  Zn12  1  0.169190  0.402470  0.107460  1.0  1.1466
  Zn  Zn13  1  0.175710  0.717290  0.504650  1.0  1.0559
  Zn  Zn14  1  0.213650  0.898490  0.488730  1.0  1.0831
  Zn  Zn15  1  0.943090  0.851870  0.568100  1.0  1.1029
  Zn  Zn16  1  0.330810  0.597530  0.607460  1.0  1.1456
  H  H17  1  0.693000  0.659200  0.736200  1.0  0.1442
  H  H18  1  0.704600  0.677100  0.264800  1.0  0.1489
  H  H19  1  0.742800  0.595200  0.160900  1.0  0.13
  H  H20  1  0.709300  0.569900  0.835300  1.0  0.1513
  H  H21  1  0.061400  0.528600  0.776300  1.0  0.1301
  H  H22  1  0.067400  0.534600  0.252200  1.0  0.132
  H  H23  1  0.807000  0.340800  0.236200  1.0  0.144
  H  H24  1  0.795400  0.322900  0.764800  1.0  0.1485
  H  H25  1  0.757200  0.404800  0.660900  1.0  0.1303
  H  H26  1  0.790700  0.430100  0.335300  1.0  0.1512
  H  H27  1  0.438600  0.471400  0.276300  1.0  0.1299
  H  H28  1  0.432600  0.465400  0.752200  1.0  0.1323
  H  H29  1  0.307000  0.159200  0.763800  1.0  0.1439
  H  H30  1  0.295400  0.177100  0.235200  1.0  0.149
  H  H31  1  0.257200  0.095200  0.339100  1.0  0.13
  H  H32  1  0.290700  0.069900  0.664700  1.0  0.1508
  H  H33  1  0.938600  0.028600  0.723700  1.0  0.1301
  H  H34  1  0.932600  0.034600  0.247800  1.0  0.1321
  H  H35  1  0.193000  0.840800  0.263800  1.0  0.144
  H  H36  1  0.204600  0.822900  0.735200  1.0  0.1495
  H  H37  1  0.242800  0.904800  0.839100  1.0  0.131
  H  H38  1  0.209300  0.930100  0.164700  1.0  0.1511
  H  H39  1  0.561400  0.971400  0.223700  1.0  0.1301
  H  H40  1  0.567400  0.965400  0.747800  1.0  0.1319
  C  C41  1  0.850800  0.732100  0.370700  1.0  0.6963
  C  C42  1  0.983400  0.618700  0.310400  1.0  -0.121
  C  C43  1  0.087700  0.625200  0.655800  1.0  0.7209
  C  C44  1  0.869000  0.651400  0.700100  1.0  -0.0741
  C  C45  1  0.767700  0.633800  0.745300  1.0  -0.075
  C  C46  1  0.853200  0.715300  0.640600  1.0  0.7432
  C  C47  1  0.979300  0.611000  0.706500  1.0  -0.123
  C  C48  1  0.080900  0.631100  0.370400  1.0  0.7059
  C  C49  1  0.781300  0.653300  0.259100  1.0  -0.0655
  C  C50  1  0.875800  0.670600  0.309100  1.0  -0.0468
  C  C51  1  0.906100  0.552700  0.197300  1.0  -0.2125
  C  C52  1  0.801300  0.599800  0.200000  1.0  -0.0602
  C  C53  1  0.889900  0.539400  0.812100  1.0  -0.1359
  C  C54  1  0.776000  0.580000  0.802900  1.0  -0.049
  C  C55  1  0.924700  0.491600  0.139100  1.0  0.7692
  C  C56  1  0.987400  0.554700  0.767500  1.0  -0.0172
  C  C57  1  0.996000  0.564800  0.253700  1.0  -0.0077
  C  C58  1  0.899600  0.477300  0.877300  1.0  0.7311
  C  C59  1  0.649200  0.267900  0.870700  1.0  0.697
  C  C60  1  0.516600  0.381300  0.810400  1.0  -0.1202
  C  C61  1  0.412300  0.374800  0.155800  1.0  0.7215
  C  C62  1  0.631000  0.348600  0.200100  1.0  -0.0737
  C  C63  1  0.732300  0.366200  0.245300  1.0  -0.0744
  C  C64  1  0.646800  0.284700  0.140600  1.0  0.7424
  C  C65  1  0.520700  0.389000  0.206500  1.0  -0.1239
  C  C66  1  0.419100  0.368900  0.870400  1.0  0.7059
  C  C67  1  0.718700  0.346700  0.759100  1.0  -0.0667
  C  C68  1  0.624200  0.329400  0.809100  1.0  -0.0476
  C  C69  1  0.593900  0.447300  0.697300  1.0  -0.2129
  C  C70  1  0.698700  0.400200  0.700000  1.0  -0.0607
  C  C71  1  0.610100  0.460600  0.312100  1.0  -0.1358
  C  C72  1  0.724000  0.420000  0.302900  1.0  -0.0486
  C  C73  1  0.575300  0.508400  0.639100  1.0  0.7694
  C  C74  1  0.512600  0.445300  0.267500  1.0  -0.0161
  C  C75  1  0.504000  0.435200  0.753700  1.0  -0.0089
  C  C76  1  0.600400  0.522700  0.377300  1.0  0.73
  C  C77  1  0.149200  0.232100  0.129300  1.0  0.6962
  C  C78  1  0.016600  0.118700  0.189600  1.0  -0.1199
  C  C79  1  0.912300  0.125200  0.844200  1.0  0.7222
  C  C80  1  0.131000  0.151400  0.799900  1.0  -0.0738
  C  C81  1  0.232300  0.133800  0.754700  1.0  -0.0743
  C  C82  1  0.146800  0.215300  0.859400  1.0  0.7434
  C  C83  1  0.020700  0.111000  0.793500  1.0  -0.1242
  C  C84  1  0.919100  0.131100  0.129600  1.0  0.7057
  C  C85  1  0.218700  0.153300  0.240900  1.0  -0.0677
  C  C86  1  0.124200  0.170600  0.190900  1.0  -0.0466
  C  C87  1  0.093900  0.052700  0.302700  1.0  -0.2109
  C  C88  1  0.198700  0.099800  0.300000  1.0  -0.0607
  C  C89  1  0.110100  0.039400  0.687900  1.0  -0.1372
  C  C90  1  0.224000  0.080000  0.697100  1.0  -0.0488
  C  C91  1  0.075300  0.991600  0.360900  1.0  0.7679
  C  C92  1  0.012600  0.054700  0.732500  1.0  -0.0164
  C  C93  1  0.004000  0.064800  0.246300  1.0  -0.0089
  C  C94  1  0.100400  0.977300  0.622700  1.0  0.7302
  C  C95  1  0.350800  0.767900  0.629300  1.0  0.6969
  C  C96  1  0.483400  0.881300  0.689600  1.0  -0.1216
  C  C97  1  0.587700  0.874800  0.344200  1.0  0.7209
  C  C98  1  0.369000  0.848600  0.299900  1.0  -0.0745
  C  C99  1  0.267700  0.866200  0.254700  1.0  -0.0747
  C  C100  1  0.353200  0.784700  0.359400  1.0  0.7425
  C  C101  1  0.479300  0.889000  0.293500  1.0  -0.1232
  C  C102  1  0.580900  0.868900  0.629600  1.0  0.7048
  C  C103  1  0.281300  0.846700  0.740900  1.0  -0.0665
  C  C104  1  0.375800  0.829400  0.690900  1.0  -0.0478
  C  C105  1  0.406100  0.947300  0.802700  1.0  -0.2114
  C  C106  1  0.301300  0.900200  0.800000  1.0  -0.0624
  C  C107  1  0.389900  0.960600  0.187900  1.0  -0.1366
  C  C108  1  0.276000  0.920000  0.197100  1.0  -0.0459
  C  C109  1  0.424700  0.008400  0.860900  1.0  0.7682
  C  C110  1  0.487400  0.945300  0.232500  1.0  -0.0176
  C  C111  1  0.496000  0.935200  0.746300  1.0  -0.0078
  C  C112  1  0.399600  0.022700  0.122700  1.0  0.7306
  O  O113  1  0.783000  0.706000  0.580000  1.0  -0.702
  O  O114  1  0.569700  0.677800  0.504100  1.0  -0.7241
  O  O115  1  0.769800  0.714300  0.419900  1.0  -0.608
  O  O116  1  0.834200  0.476200  0.092500  1.0  -0.6589
  O  O117  1  0.814100  0.464000  0.921100  1.0  -0.5808
  O  O118  1  0.059200  0.675300  0.423500  1.0  -0.5426
  O  O119  1  0.800400  0.875700  0.500900  1.0  -0.7001
  O  O120  1  0.162100  0.577600  0.373000  1.0  -0.5022
  O  O121  1  0.071000  0.661400  0.593900  1.0  -0.6029
  O  O122  1  0.905700  0.778600  0.651600  1.0  -0.5544
  O  O123  1  0.901300  0.797100  0.359300  1.0  -0.5669
  O  O124  1  0.006900  0.443600  0.874600  1.0  -0.5925
  O  O125  1  0.191600  0.598600  0.673300  1.0  -0.5983
  O  O126  1  0.022900  0.454400  0.137900  1.0  -0.6651
  O  O127  1  0.717000  0.294000  0.080000  1.0  -0.7015
  O  O128  1  0.930300  0.322200  0.004100  1.0  -0.7247
  O  O129  1  0.730200  0.285700  0.919900  1.0  -0.6088
  O  O130  1  0.665800  0.523800  0.592500  1.0  -0.6575
  O  O131  1  0.685900  0.536000  0.421100  1.0  -0.5827
  O  O132  1  0.440800  0.324700  0.923500  1.0  -0.5437
  O  O133  1  0.699600  0.124300  0.000900  1.0  -0.7
  O  O134  1  0.337900  0.422400  0.873000  1.0  -0.502
  O  O135  1  0.429000  0.338600  0.093900  1.0  -0.6047
  O  O136  1  0.594300  0.221400  0.151600  1.0  -0.5547
  O  O137  1  0.598700  0.202900  0.859300  1.0  -0.5666
  O  O138  1  0.493100  0.556400  0.374600  1.0  -0.5919
  O  O139  1  0.308400  0.401400  0.173300  1.0  -0.599
  O  O140  1  0.477100  0.545600  0.637900  1.0  -0.6651
  O  O141  1  0.217000  0.206000  0.920000  1.0  -0.7012
  O  O142  1  0.430300  0.177800  0.995900  1.0  -0.724
  O  O143  1  0.230200  0.214300  0.080100  1.0  -0.6096
  O  O144  1  0.165800  0.976200  0.407500  1.0  -0.6579
  O  O145  1  0.185900  0.964000  0.578900  1.0  -0.5815
  O  O146  1  0.940800  0.175300  0.076500  1.0  -0.5428
  O  O147  1  0.199600  0.375700  0.999100  1.0  -0.7005
  O  O148  1  0.837900  0.077600  0.127000  1.0  -0.503
  O  O149  1  0.929000  0.161400  0.906100  1.0  -0.6039
  O  O150  1  0.094300  0.278600  0.848400  1.0  -0.5547
  O  O151  1  0.098700  0.297100  0.140700  1.0  -0.5656
  O  O152  1  0.993100  0.943600  0.625400  1.0  -0.5924
  O  O153  1  0.808400  0.098600  0.826700  1.0  -0.598
  O  O154  1  0.977100  0.954400  0.362100  1.0  -0.6636
  O  O155  1  0.283000  0.794000  0.420000  1.0  -0.7015
  O  O156  1  0.069700  0.822200  0.495900  1.0  -0.7235
  O  O157  1  0.269800  0.785700  0.580100  1.0  -0.6077
  O  O158  1  0.334200  0.023800  0.907500  1.0  -0.6599
  O  O159  1  0.314100  0.036000  0.078900  1.0  -0.5808
  O  O160  1  0.559200  0.824700  0.576500  1.0  -0.5429
  O  O161  1  0.300400  0.624300  0.499100  1.0  -0.6995
  O  O162  1  0.662100  0.922400  0.627000  1.0  -0.5044
  O  O163  1  0.571000  0.838600  0.406100  1.0  -0.604
  O  O164  1  0.405700  0.721400  0.348400  1.0  -0.5541
  O  O165  1  0.401300  0.702900  0.640700  1.0  -0.567
  O  O166  1  0.506900  0.056400  0.125400  1.0  -0.5928
  O  O167  1  0.691600  0.901400  0.326700  1.0  -0.6004
  O  O168  1  0.522900  0.045600  0.862100  1.0  -0.6632
