# generated using pymatgen
data_CdH9C16NO4
_symmetry_space_group_name_H-M   'P 1'
_cell_length_a   10.81900000
_cell_length_b   24.51400000
_cell_length_c   16.60700000
_cell_angle_alpha   90.00000000
_cell_angle_beta   91.68100000
_cell_angle_gamma   90.00000000
_symmetry_Int_Tables_number   1
_chemical_formula_structural   CdH9C16NO4
_chemical_formula_sum   'Cd8 H72 C128 N8 O32'
_cell_volume   4402.56266434
_cell_formula_units_Z   8
loop_
 _symmetry_equiv_pos_site_id
 _symmetry_equiv_pos_as_xyz
  1  'x, y, z'
loop_
 _atom_site_type_symbol
 _atom_site_label
 _atom_site_symmetry_multiplicity
 _atom_site_fract_x
 _atom_site_fract_y
 _atom_site_fract_z
 _atom_site_occupancy
 _atom_site_charge
  Cd  Cd1  1  0.999950  0.197980  0.964130  1.0  1.0525
  Cd  Cd2  1  0.715150  0.867840  0.007400  1.0  0.9643
  Cd  Cd3  1  0.000050  0.697980  0.535870  1.0  1.0528
  Cd  Cd4  1  0.284850  0.367840  0.492600  1.0  0.9634
  Cd  Cd5  1  0.000050  0.802020  0.035870  1.0  1.0528
  Cd  Cd6  1  0.284850  0.132160  0.992600  1.0  0.9629
  Cd  Cd7  1  0.999950  0.302020  0.464130  1.0  1.0525
  Cd  Cd8  1  0.715150  0.632160  0.507400  1.0  0.9648
  H  H9  1  0.162500  0.329500  0.158300  1.0  0.1058
  H  H10  1  0.158800  0.402500  0.246900  1.0  0.1225
  H  H11  1  0.816000  0.439100  0.163200  1.0  0.1206
  H  H12  1  0.817300  0.364300  0.080400  1.0  0.1162
  H  H13  1  0.062000  0.525100  0.444000  1.0  0.1084
  H  H14  1  0.906800  0.526000  0.183500  1.0  0.1116
  H  H15  1  0.008600  0.678400  0.280000  1.0  0.1099
  H  H16  1  0.930200  0.752200  0.208400  1.0  0.0904
  H  H17  1  0.658300  0.659500  0.115800  1.0  0.1154
  H  H18  1  0.738900  0.584800  0.181900  1.0  0.1176
  H  H19  1  0.744100  0.262100  0.943700  1.0  0.0857
  H  H20  1  0.596400  0.291900  0.852500  1.0  0.1302
  H  H21  1  0.777300  0.212200  0.681400  1.0  0.1058
  H  H22  1  0.908500  0.177500  0.779900  1.0  0.0786
  H  H23  1  0.428700  0.273800  0.757900  1.0  0.1086
  H  H24  1  0.296600  0.309600  0.662900  1.0  0.0723
  H  H25  1  0.562500  0.323300  0.510600  1.0  0.091
  H  H26  1  0.702000  0.289100  0.603200  1.0  0.115
  H  H27  1  0.837500  0.829500  0.341700  1.0  0.1057
  H  H28  1  0.841200  0.902500  0.253100  1.0  0.1242
  H  H29  1  0.184000  0.939100  0.336800  1.0  0.1202
  H  H30  1  0.182700  0.864300  0.419600  1.0  0.1169
  H  H31  1  0.938000  0.025100  0.056000  1.0  0.1068
  H  H32  1  0.093200  0.026000  0.316500  1.0  0.1113
  H  H33  1  0.991400  0.178400  0.220000  1.0  0.1093
  H  H34  1  0.069800  0.252200  0.291600  1.0  0.0903
  H  H35  1  0.341700  0.159500  0.384200  1.0  0.1153
  H  H36  1  0.261100  0.084800  0.318100  1.0  0.1182
  H  H37  1  0.255900  0.762100  0.556300  1.0  0.0856
  H  H38  1  0.403600  0.791900  0.647500  1.0  0.13
  H  H39  1  0.222700  0.712200  0.818600  1.0  0.1051
  H  H40  1  0.091500  0.677500  0.720100  1.0  0.0783
  H  H41  1  0.571300  0.773800  0.742100  1.0  0.1081
  H  H42  1  0.703400  0.809600  0.837100  1.0  0.0719
  H  H43  1  0.437500  0.823300  0.989400  1.0  0.0908
  H  H44  1  0.298000  0.789100  0.896800  1.0  0.1158
  H  H45  1  0.837500  0.670500  0.841700  1.0  0.1063
  H  H46  1  0.841200  0.597500  0.753100  1.0  0.1239
  H  H47  1  0.184000  0.560900  0.836800  1.0  0.1201
  H  H48  1  0.182700  0.635700  0.919600  1.0  0.1169
  H  H49  1  0.938000  0.474900  0.556000  1.0  0.1069
  H  H50  1  0.093200  0.474000  0.816500  1.0  0.1113
  H  H51  1  0.991400  0.321600  0.720000  1.0  0.1102
  H  H52  1  0.069800  0.247800  0.791600  1.0  0.0902
  H  H53  1  0.341700  0.340500  0.884200  1.0  0.1156
  H  H54  1  0.261100  0.415200  0.818100  1.0  0.1177
  H  H55  1  0.255900  0.737900  0.056300  1.0  0.0857
  H  H56  1  0.403600  0.708100  0.147500  1.0  0.1297
  H  H57  1  0.222700  0.787800  0.318600  1.0  0.1051
  H  H58  1  0.091500  0.822500  0.220100  1.0  0.0789
  H  H59  1  0.571300  0.726200  0.242100  1.0  0.1085
  H  H60  1  0.703400  0.690400  0.337100  1.0  0.072
  H  H61  1  0.437500  0.676700  0.489400  1.0  0.0908
  H  H62  1  0.298000  0.710900  0.396800  1.0  0.1165
  H  H63  1  0.162500  0.170500  0.658300  1.0  0.1063
  H  H64  1  0.158800  0.097500  0.746900  1.0  0.1241
  H  H65  1  0.816000  0.060900  0.663200  1.0  0.1203
  H  H66  1  0.817300  0.135700  0.580400  1.0  0.1167
  H  H67  1  0.062000  0.974900  0.944000  1.0  0.1084
  H  H68  1  0.906800  0.974000  0.683500  1.0  0.1115
  H  H69  1  0.008600  0.821600  0.780000  1.0  0.1106
  H  H70  1  0.930200  0.747800  0.708400  1.0  0.0908
  H  H71  1  0.658300  0.840500  0.615800  1.0  0.1158
  H  H72  1  0.738900  0.915200  0.681900  1.0  0.1182
  H  H73  1  0.744100  0.237900  0.443700  1.0  0.0858
  H  H74  1  0.596400  0.208100  0.352500  1.0  0.1296
  H  H75  1  0.777300  0.287800  0.181400  1.0  0.106
  H  H76  1  0.908500  0.322500  0.279900  1.0  0.0783
  H  H77  1  0.428700  0.226200  0.257900  1.0  0.1087
  H  H78  1  0.296600  0.190400  0.162900  1.0  0.0718
  H  H79  1  0.562500  0.176700  0.010600  1.0  0.0912
  H  H80  1  0.702000  0.210900  0.103200  1.0  0.1152
  C  C81  1  0.988000  0.289400  0.057900  1.0  0.6925
  C  C82  1  0.989000  0.338550  0.110800  1.0  -0.0948
  C  C83  1  0.092000  0.351100  0.160600  1.0  -0.0407
  C  C84  1  0.090600  0.395200  0.213300  1.0  -0.1036
  C  C85  1  0.986100  0.428280  0.215300  1.0  0.0494
  C  C86  1  0.885000  0.416500  0.163500  1.0  -0.1509
  C  C87  1  0.886300  0.371960  0.113200  1.0  -0.0817
  C  C88  1  0.982500  0.476480  0.268900  1.0  0.0151
  C  C89  1  0.028400  0.476590  0.348200  1.0  -0.0831
  C  C90  1  0.074900  0.425370  0.391200  1.0  0.6843
  C  C91  1  0.028800  0.524950  0.391700  1.0  -0.0899
  C  C92  1  0.980800  0.573460  0.359400  1.0  -0.0779
  C  C93  1  0.932600  0.573840  0.280800  1.0  -0.0031
  C  C94  1  0.936300  0.525650  0.236700  1.0  -0.1387
  C  C95  1  0.882500  0.623040  0.239500  1.0  0.0496
  C  C96  1  0.938800  0.674030  0.246500  1.0  -0.0706
  C  C97  1  0.891200  0.718460  0.203800  1.0  -0.0396
  C  C98  1  0.785800  0.713050  0.154100  1.0  -0.05
  C  C99  1  0.729700  0.663300  0.147900  1.0  -0.0627
  C  C100  1  0.777200  0.618530  0.188400  1.0  -0.1681
  C  C101  1  0.983200  0.621710  0.415000  1.0  0.6875
  C  C102  1  0.749500  0.251200  0.890300  1.0  0.1806
  C  C103  1  0.661400  0.270300  0.835500  1.0  -0.2016
  C  C104  1  0.670900  0.257080  0.755300  1.0  0.1086
  C  C105  1  0.767400  0.222200  0.734900  1.0  -0.1947
  C  C106  1  0.848100  0.202460  0.794100  1.0  0.1367
  C  C107  1  0.583300  0.277720  0.692300  1.0  0.1097
  C  C108  1  0.458300  0.284000  0.708100  1.0  -0.2052
  C  C109  1  0.379300  0.305200  0.650600  1.0  0.1809
  C  C110  1  0.535400  0.313400  0.561300  1.0  0.1641
  C  C111  1  0.619600  0.292800  0.616800  1.0  -0.1837
  C  C112  1  0.730800  0.761780  0.111100  1.0  0.7595
  C  C113  1  0.012000  0.789400  0.442100  1.0  0.6927
  C  C114  1  0.011000  0.838550  0.389200  1.0  -0.0913
  C  C115  1  0.908000  0.851100  0.339400  1.0  -0.0431
  C  C116  1  0.909400  0.895200  0.286700  1.0  -0.1066
  C  C117  1  0.013900  0.928280  0.284700  1.0  0.0488
  C  C118  1  0.115000  0.916500  0.336500  1.0  -0.1505
  C  C119  1  0.113700  0.871960  0.386800  1.0  -0.0782
  C  C120  1  0.017500  0.976480  0.231100  1.0  0.0156
  C  C121  1  0.971600  0.976590  0.151800  1.0  -0.0833
  C  C122  1  0.925100  0.925370  0.108800  1.0  0.6838
  C  C123  1  0.971200  0.024950  0.108300  1.0  -0.0899
  C  C124  1  0.019200  0.073460  0.140600  1.0  -0.0783
  C  C125  1  0.067400  0.073840  0.219200  1.0  -0.0036
  C  C126  1  0.063700  0.025650  0.263300  1.0  -0.1387
  C  C127  1  0.117500  0.123040  0.260500  1.0  0.0504
  C  C128  1  0.061200  0.174030  0.253500  1.0  -0.0761
  C  C129  1  0.108800  0.218460  0.296200  1.0  -0.0444
  C  C130  1  0.214200  0.213050  0.345900  1.0  -0.0527
  C  C131  1  0.270300  0.163300  0.352100  1.0  -0.0623
  C  C132  1  0.222800  0.118530  0.311600  1.0  -0.1673
  C  C133  1  0.016800  0.121710  0.085000  1.0  0.6858
  C  C134  1  0.250500  0.751200  0.609700  1.0  0.1804
  C  C135  1  0.338600  0.770300  0.664500  1.0  -0.202
  C  C136  1  0.329100  0.757080  0.744700  1.0  0.109
  C  C137  1  0.232600  0.722200  0.765100  1.0  -0.1944
  C  C138  1  0.151900  0.702460  0.705900  1.0  0.1367
  C  C139  1  0.416700  0.777720  0.807700  1.0  0.1105
  C  C140  1  0.541700  0.784000  0.791900  1.0  -0.2055
  C  C141  1  0.620700  0.805200  0.849400  1.0  0.1824
  C  C142  1  0.464600  0.813400  0.938700  1.0  0.1638
  C  C143  1  0.380400  0.792800  0.883200  1.0  -0.1888
  C  C144  1  0.269200  0.261780  0.388900  1.0  0.7583
  C  C145  1  0.012000  0.710600  0.942100  1.0  0.6931
  C  C146  1  0.011000  0.661450  0.889200  1.0  -0.0912
  C  C147  1  0.908000  0.648900  0.839400  1.0  -0.0393
  C  C148  1  0.909400  0.604800  0.786700  1.0  -0.107
  C  C149  1  0.013900  0.571720  0.784700  1.0  0.0486
  C  C150  1  0.115000  0.583500  0.836500  1.0  -0.1484
  C  C151  1  0.113700  0.628040  0.886800  1.0  -0.0784
  C  C152  1  0.017500  0.523520  0.731100  1.0  0.0157
  C  C153  1  0.971600  0.523410  0.651800  1.0  -0.0834
  C  C154  1  0.925100  0.574630  0.608800  1.0  0.6837
  C  C155  1  0.971200  0.475050  0.608300  1.0  -0.089
  C  C156  1  0.019200  0.426540  0.640600  1.0  -0.0779
  C  C157  1  0.067400  0.426160  0.719200  1.0  -0.0032
  C  C158  1  0.063700  0.474350  0.763300  1.0  -0.1388
  C  C159  1  0.117500  0.376960  0.760500  1.0  0.0511
  C  C160  1  0.061200  0.325970  0.753500  1.0  -0.0718
  C  C161  1  0.108800  0.281540  0.796200  1.0  -0.0476
  C  C162  1  0.214200  0.286950  0.845900  1.0  -0.0526
  C  C163  1  0.270300  0.336700  0.852100  1.0  -0.0638
  C  C164  1  0.222800  0.381470  0.811600  1.0  -0.1693
  C  C165  1  0.016800  0.378290  0.585000  1.0  0.6869
  C  C166  1  0.250500  0.748800  0.109700  1.0  0.1811
  C  C167  1  0.338600  0.729700  0.164500  1.0  -0.2007
  C  C168  1  0.329100  0.742920  0.244700  1.0  0.1091
  C  C169  1  0.232600  0.777800  0.265100  1.0  -0.1947
  C  C170  1  0.151900  0.797540  0.205900  1.0  0.1361
  C  C171  1  0.416700  0.722280  0.307700  1.0  0.1104
  C  C172  1  0.541700  0.716000  0.291900  1.0  -0.2046
  C  C173  1  0.620700  0.694800  0.349400  1.0  0.1822
  C  C174  1  0.464600  0.686600  0.438700  1.0  0.1637
  C  C175  1  0.380400  0.707200  0.383200  1.0  -0.1856
  C  C176  1  0.269200  0.238220  0.888900  1.0  0.7404
  C  C177  1  0.988000  0.210600  0.557900  1.0  0.6938
  C  C178  1  0.989000  0.161450  0.610800  1.0  -0.0921
  C  C179  1  0.092000  0.148900  0.660600  1.0  -0.0416
  C  C180  1  0.090600  0.104800  0.713300  1.0  -0.1038
  C  C181  1  0.986100  0.071720  0.715300  1.0  0.0492
  C  C182  1  0.885000  0.083500  0.663500  1.0  -0.1509
  C  C183  1  0.886300  0.128040  0.613200  1.0  -0.0796
  C  C184  1  0.982500  0.023520  0.768900  1.0  0.015
  C  C185  1  0.028400  0.023410  0.848200  1.0  -0.0833
  C  C186  1  0.074900  0.074630  0.891200  1.0  0.6843
  C  C187  1  0.028800  0.975050  0.891700  1.0  -0.0899
  C  C188  1  0.980800  0.926540  0.859400  1.0  -0.0779
  C  C189  1  0.932600  0.926160  0.780800  1.0  -0.0026
  C  C190  1  0.936300  0.974350  0.736700  1.0  -0.1387
  C  C191  1  0.882500  0.876960  0.739500  1.0  0.0506
  C  C192  1  0.938800  0.825970  0.746500  1.0  -0.0709
  C  C193  1  0.891200  0.781540  0.703800  1.0  -0.0397
  C  C194  1  0.785800  0.786950  0.654100  1.0  -0.0515
  C  C195  1  0.729700  0.836700  0.647900  1.0  -0.0632
  C  C196  1  0.777200  0.881470  0.688400  1.0  -0.1688
  C  C197  1  0.983200  0.878290  0.915000  1.0  0.6882
  C  C198  1  0.749500  0.248800  0.390300  1.0  0.1811
  C  C199  1  0.661400  0.229700  0.335500  1.0  -0.1996
  C  C200  1  0.670900  0.242920  0.255300  1.0  0.1087
  C  C201  1  0.767400  0.277800  0.234900  1.0  -0.1947
  C  C202  1  0.848100  0.297540  0.294100  1.0  0.1362
  C  C203  1  0.583300  0.222280  0.192300  1.0  0.1096
  C  C204  1  0.458300  0.216000  0.208100  1.0  -0.2043
  C  C205  1  0.379300  0.194800  0.150600  1.0  0.1807
  C  C206  1  0.535400  0.186600  0.061300  1.0  0.1634
  C  C207  1  0.619600  0.207200  0.116800  1.0  -0.1836
  C  C208  1  0.730800  0.738220  0.611100  1.0  0.757
  N  N209  1  0.415300  0.319880  0.577400  1.0  -0.3532
  N  N210  1  0.842000  0.218030  0.871100  1.0  -0.337
  N  N211  1  0.584700  0.819880  0.922600  1.0  -0.3487
  N  N212  1  0.158000  0.718030  0.628900  1.0  -0.3375
  N  N213  1  0.584700  0.680120  0.422600  1.0  -0.348
  N  N214  1  0.158000  0.781970  0.128900  1.0  -0.3362
  N  N215  1  0.415300  0.180120  0.077400  1.0  -0.3519
  N  N216  1  0.842000  0.281970  0.371100  1.0  -0.3381
  O  O217  1  0.888600  0.264200  0.047200  1.0  -0.6149
  O  O218  1  0.085200  0.274350  0.027100  1.0  -0.587
  O  O219  1  0.009800  0.383640  0.387560  1.0  -0.6487
  O  O220  1  0.176500  0.432020  0.430370  1.0  -0.6239
  O  O221  1  0.083700  0.634590  0.448080  1.0  -0.5955
  O  O222  1  0.883400  0.646910  0.428180  1.0  -0.6805
  O  O223  1  0.615700  0.762670  0.102500  1.0  -0.5516
  O  O224  1  0.802000  0.799600  0.088880  1.0  -0.7009
  O  O225  1  0.111400  0.764200  0.452800  1.0  -0.6159
  O  O226  1  0.914800  0.774350  0.472900  1.0  -0.5874
  O  O227  1  0.990200  0.883640  0.112440  1.0  -0.6482
  O  O228  1  0.823500  0.932020  0.069630  1.0  -0.6244
  O  O229  1  0.916300  0.134590  0.051920  1.0  -0.595
  O  O230  1  0.116600  0.146910  0.071820  1.0  -0.6808
  O  O231  1  0.384300  0.262670  0.397500  1.0  -0.5525
  O  O232  1  0.198000  0.299600  0.411120  1.0  -0.7003
  O  O233  1  0.111400  0.735800  0.952800  1.0  -0.616
  O  O234  1  0.914800  0.725650  0.972900  1.0  -0.5877
  O  O235  1  0.990200  0.616360  0.612440  1.0  -0.6484
  O  O236  1  0.823500  0.567980  0.569630  1.0  -0.6235
  O  O237  1  0.916300  0.365410  0.551920  1.0  -0.5947
  O  O238  1  0.116600  0.353090  0.571820  1.0  -0.6806
  O  O239  1  0.384300  0.237330  0.897500  1.0  -0.5514
  O  O240  1  0.198000  0.200400  0.911120  1.0  -0.7006
  O  O241  1  0.888600  0.235800  0.547200  1.0  -0.6156
  O  O242  1  0.085200  0.225650  0.527100  1.0  -0.588
  O  O243  1  0.009800  0.116360  0.887560  1.0  -0.6485
  O  O244  1  0.176500  0.067980  0.930370  1.0  -0.625
  O  O245  1  0.083700  0.865410  0.948080  1.0  -0.595
  O  O246  1  0.883400  0.853090  0.928180  1.0  -0.6805
  O  O247  1  0.615700  0.737330  0.602500  1.0  -0.5515
  O  O248  1  0.802000  0.700400  0.588880  1.0  -0.7009
