# generated using pymatgen
data_Cd2H19C37(N3O4)2
_symmetry_space_group_name_H-M   'P 1'
_cell_length_a   12.20000000
_cell_length_b   26.58000000
_cell_length_c   18.62000000
_cell_angle_alpha   90.00000000
_cell_angle_beta   104.82000000
_cell_angle_gamma   90.00000000
_symmetry_Int_Tables_number   1
_chemical_formula_structural   Cd2H19C37(N3O4)2
_chemical_formula_sum   'Cd8 H76 C148 N24 O32'
_cell_volume   5837.15935600
_cell_formula_units_Z   4
loop_
 _symmetry_equiv_pos_site_id
 _symmetry_equiv_pos_as_xyz
  1  'x, y, z'
loop_
 _atom_site_type_symbol
 _atom_site_label
 _atom_site_symmetry_multiplicity
 _atom_site_fract_x
 _atom_site_fract_y
 _atom_site_fract_z
 _atom_site_occupancy
 _atom_site_charge
  Cd  Cd1  1  0.784040  0.829990  0.796380  1.0  0.9396
  Cd  Cd2  1  0.383880  0.671290  0.778530  1.0  1.0213
  Cd  Cd3  1  0.215960  0.829990  0.203620  1.0  0.9408
  Cd  Cd4  1  0.616120  0.671290  0.221470  1.0  1.0202
  Cd  Cd5  1  0.215960  0.170010  0.203620  1.0  0.9413
  Cd  Cd6  1  0.616120  0.328710  0.221470  1.0  1.0203
  Cd  Cd7  1  0.784040  0.170010  0.796380  1.0  0.9401
  Cd  Cd8  1  0.383880  0.328710  0.778530  1.0  1.0213
  H  H9  1  0.536800  0.804300  0.702700  1.0  0.0884
  H  H10  1  0.048600  0.700200  0.879000  1.0  0.122
  H  H11  1  0.330200  0.850100  0.720100  1.0  0.1325
  H  H12  1  0.213700  0.800300  0.889000  1.0  0.1035
  H  H13  1  0.493800  0.769800  0.933300  1.0  0.1337
  H  H14  1  0.293300  0.630000  0.613000  1.0  0.0943
  H  H15  1  0.718400  0.902100  0.915200  1.0  0.1012
  H  H16  1  0.111600  0.871700  0.886800  1.0  0.1281
  H  H17  1  0.253200  0.925800  0.732800  1.0  0.0826
  H  H18  1  0.571900  0.696400  0.698800  1.0  0.069
  H  H19  1  0.141000  0.626600  0.864900  1.0  0.1133
  H  H20  1  0.607100  0.768200  0.857400  1.0  0.0679
  H  H21  1  0.772600  0.652700  0.723300  1.0  0.1003
  H  H22  1  0.770100  0.877700  0.640800  1.0  0.1073
  H  H23  1  0.679300  0.865100  0.519800  1.0  0.122
  H  H24  1  0.871400  0.577400  0.710600  1.0  0.1195
  H  H25  1  0.325800  0.635200  0.497300  1.0  0.1286
  H  H26  1  0.463200  0.804300  0.297300  1.0  0.0889
  H  H27  1  0.951400  0.700200  0.121000  1.0  0.1219
  H  H28  1  0.669800  0.850100  0.279900  1.0  0.1334
  H  H29  1  0.786300  0.800300  0.111000  1.0  0.1029
  H  H30  1  0.506200  0.769800  0.066700  1.0  0.134
  H  H31  1  0.706700  0.630000  0.387000  1.0  0.0944
  H  H32  1  0.281600  0.902100  0.084800  1.0  0.101
  H  H33  1  0.888400  0.871700  0.113200  1.0  0.1274
  H  H34  1  0.746800  0.925800  0.267200  1.0  0.083
  H  H35  1  0.428100  0.696400  0.301200  1.0  0.0683
  H  H36  1  0.859000  0.626600  0.135100  1.0  0.1136
  H  H37  1  0.392900  0.768200  0.142600  1.0  0.0675
  H  H38  1  0.227400  0.652700  0.276700  1.0  0.1003
  H  H39  1  0.229900  0.877700  0.359200  1.0  0.107
  H  H40  1  0.320700  0.865100  0.480200  1.0  0.1207
  H  H41  1  0.128600  0.577400  0.289400  1.0  0.1198
  H  H42  1  0.674200  0.635200  0.502700  1.0  0.1274
  H  H43  1  0.463200  0.195700  0.297300  1.0  0.0893
  H  H44  1  0.951400  0.299800  0.121000  1.0  0.122
  H  H45  1  0.669800  0.149900  0.279900  1.0  0.1336
  H  H46  1  0.786300  0.199700  0.111000  1.0  0.1034
  H  H47  1  0.506200  0.230200  0.066700  1.0  0.1345
  H  H48  1  0.706700  0.370000  0.387000  1.0  0.0946
  H  H49  1  0.281600  0.097900  0.084800  1.0  0.1006
  H  H50  1  0.888400  0.128300  0.113200  1.0  0.1274
  H  H51  1  0.746800  0.074200  0.267200  1.0  0.0839
  H  H52  1  0.428100  0.303600  0.301200  1.0  0.0684
  H  H53  1  0.859000  0.373400  0.135100  1.0  0.1135
  H  H54  1  0.392900  0.231800  0.142600  1.0  0.0676
  H  H55  1  0.227400  0.347300  0.276700  1.0  0.0995
  H  H56  1  0.229900  0.122300  0.359200  1.0  0.1073
  H  H57  1  0.320700  0.134900  0.480200  1.0  0.1221
  H  H58  1  0.128600  0.422600  0.289400  1.0  0.1192
  H  H59  1  0.674200  0.364800  0.502700  1.0  0.128
  H  H60  1  0.536800  0.195700  0.702700  1.0  0.0886
  H  H61  1  0.048600  0.299800  0.879000  1.0  0.1223
  H  H62  1  0.330200  0.149900  0.720100  1.0  0.1329
  H  H63  1  0.213700  0.199700  0.889000  1.0  0.1035
  H  H64  1  0.493800  0.230200  0.933300  1.0  0.1344
  H  H65  1  0.293300  0.370000  0.613000  1.0  0.0938
  H  H66  1  0.718400  0.097900  0.915200  1.0  0.1011
  H  H67  1  0.111600  0.128300  0.886800  1.0  0.128
  H  H68  1  0.253200  0.074200  0.732800  1.0  0.0833
  H  H69  1  0.571900  0.303600  0.698800  1.0  0.0689
  H  H70  1  0.141000  0.373400  0.864900  1.0  0.1134
  H  H71  1  0.607100  0.231800  0.857400  1.0  0.0677
  H  H72  1  0.772600  0.347300  0.723300  1.0  0.1001
  H  H73  1  0.770100  0.122300  0.640800  1.0  0.1066
  H  H74  1  0.679300  0.134900  0.519800  1.0  0.1205
  H  H75  1  0.871400  0.422600  0.710600  1.0  0.1198
  H  H76  1  0.325800  0.364800  0.497300  1.0  0.1282
  H  H77  1  0.864600  0.000000  0.813100  1.0  0.1159
  H  H78  1  0.241200  0.000000  0.811800  1.0  0.1333
  H  H79  1  0.135400  0.000000  0.186900  1.0  0.1163
  H  H80  1  0.758800  0.000000  0.188200  1.0  0.1344
  H  H81  1  0.944300  0.500000  0.784700  1.0  0.1054
  H  H82  1  0.316600  0.500000  0.780800  1.0  0.1222
  H  H83  1  0.055700  0.500000  0.215300  1.0  0.1045
  H  H84  1  0.683400  0.500000  0.219200  1.0  0.1219
  C  C85  1  0.561500  0.819200  0.664400  1.0  0.1642
  C  C86  1  0.535200  0.838700  0.973400  1.0  0.0323
  C  C87  1  0.013500  0.676400  0.844000  1.0  -0.089
  C  C88  1  0.250900  0.593700  0.776400  1.0  0.6175
  C  C89  1  0.288700  0.854900  0.755100  1.0  -0.1028
  C  C90  1  0.854600  0.735000  0.802500  1.0  0.6479
  C  C91  1  0.922600  0.909000  0.800100  1.0  0.6928
  C  C92  1  0.487800  0.816100  0.595100  1.0  0.0744
  C  C93  1  0.012800  0.593600  0.788900  1.0  0.005
  C  C94  1  0.215500  0.824900  0.853800  1.0  -0.0795
  C  C95  1  0.105400  0.955500  0.805200  1.0  0.0017
  C  C96  1  0.072900  0.546100  0.787100  1.0  0.0333
  C  C97  1  0.275400  0.816300  0.803500  1.0  -0.1045
  C  C98  1  0.992100  0.955200  0.806400  1.0  -0.0518
  C  C99  1  0.538500  0.797700  0.930400  1.0  -0.1884
  C  C100  1  0.360800  0.644400  0.608500  1.0  0.1918
  C  C101  1  0.670900  0.875500  0.919300  1.0  0.1702
  C  C102  1  0.321300  0.766100  0.794000  1.0  0.6601
  C  C103  1  0.169800  0.908300  0.805700  1.0  0.046
  C  C104  1  0.158300  0.868000  0.854700  1.0  -0.1672
  C  C105  1  0.238700  0.899200  0.761500  1.0  -0.0978
  C  C106  1  0.533800  0.838000  0.537500  1.0  -0.0337
  C  C107  1  0.899500  0.686000  0.794800  1.0  -0.1064
  C  C108  1  0.524000  0.682000  0.656900  1.0  0.0237
  C  C109  1  0.066900  0.631600  0.836900  1.0  -0.1368
  C  C110  1  0.188300  0.546000  0.786700  1.0  -0.0377
  C  C111  1  0.605700  0.797600  0.884300  1.0  0.2144
  C  C112  1  0.561800  0.686000  0.599200  1.0  0.3265
  C  C113  1  0.610800  0.879800  0.968200  1.0  0.2776
  C  C114  1  0.847400  0.648600  0.750600  1.0  -0.0386
  C  C115  1  0.701700  0.860300  0.628900  1.0  0.158
  C  C116  1  0.644400  0.856000  0.556800  1.0  -0.1075
  C  C117  1  0.906300  0.601800  0.744600  1.0  -0.116
  C  C118  1  0.379200  0.646000  0.539500  1.0  -0.1515
  C  C119  1  0.489200  0.666100  0.537300  1.0  -0.0177
  C  C120  1  0.438500  0.819200  0.335600  1.0  0.1653
  C  C121  1  0.464800  0.838700  0.026600  1.0  0.0319
  C  C122  1  0.986500  0.676400  0.156000  1.0  -0.0895
  C  C123  1  0.749100  0.593700  0.223600  1.0  0.6184
  C  C124  1  0.711300  0.854900  0.244900  1.0  -0.1039
  C  C125  1  0.145400  0.735000  0.197500  1.0  0.6485
  C  C126  1  0.077400  0.909000  0.199900  1.0  0.6926
  C  C127  1  0.512200  0.816100  0.404900  1.0  0.0724
  C  C128  1  0.987200  0.593600  0.211100  1.0  0.0055
  C  C129  1  0.784500  0.824900  0.146200  1.0  -0.0805
  C  C130  1  0.894600  0.955500  0.194800  1.0  0.0018
  C  C131  1  0.927100  0.546100  0.212900  1.0  0.0343
  C  C132  1  0.724600  0.816300  0.196500  1.0  -0.1033
  C  C133  1  0.007900  0.955200  0.193600  1.0  -0.0508
  C  C134  1  0.461500  0.797700  0.069600  1.0  -0.1848
  C  C135  1  0.639200  0.644400  0.391500  1.0  0.1908
  C  C136  1  0.329100  0.875500  0.080700  1.0  0.1696
  C  C137  1  0.678700  0.766100  0.206000  1.0  0.6615
  C  C138  1  0.830200  0.908300  0.194300  1.0  0.0452
  C  C139  1  0.841700  0.868000  0.145300  1.0  -0.1702
  C  C140  1  0.761300  0.899200  0.238500  1.0  -0.0979
  C  C141  1  0.466200  0.838000  0.462500  1.0  -0.0341
  C  C142  1  0.100500  0.686000  0.205200  1.0  -0.1064
  C  C143  1  0.476000  0.682000  0.343100  1.0  0.0228
  C  C144  1  0.933100  0.631600  0.163100  1.0  -0.138
  C  C145  1  0.811700  0.546000  0.213300  1.0  -0.0374
  C  C146  1  0.394300  0.797600  0.115700  1.0  0.2164
  C  C147  1  0.438200  0.686000  0.400800  1.0  0.3264
  C  C148  1  0.389200  0.879800  0.031800  1.0  0.2781
  C  C149  1  0.152600  0.648600  0.249400  1.0  -0.0388
  C  C150  1  0.298300  0.860300  0.371100  1.0  0.158
  C  C151  1  0.355600  0.856000  0.443200  1.0  -0.1038
  C  C152  1  0.093700  0.601800  0.255400  1.0  -0.1144
  C  C153  1  0.620800  0.646000  0.460500  1.0  -0.1516
  C  C154  1  0.510800  0.666100  0.462700  1.0  -0.0182
  C  C155  1  0.438500  0.180800  0.335600  1.0  0.1651
  C  C156  1  0.464800  0.161300  0.026600  1.0  0.0309
  C  C157  1  0.986500  0.323600  0.156000  1.0  -0.0897
  C  C158  1  0.749100  0.406300  0.223600  1.0  0.6182
  C  C159  1  0.711300  0.145100  0.244900  1.0  -0.1035
  C  C160  1  0.145400  0.265000  0.197500  1.0  0.6479
  C  C161  1  0.077400  0.091000  0.199900  1.0  0.6926
  C  C162  1  0.512200  0.183900  0.404900  1.0  0.0728
  C  C163  1  0.987200  0.406400  0.211100  1.0  0.0054
  C  C164  1  0.784500  0.175100  0.146200  1.0  -0.0822
  C  C165  1  0.894600  0.044500  0.194800  1.0  0.002
  C  C166  1  0.927100  0.453900  0.212900  1.0  0.0339
  C  C167  1  0.724600  0.183700  0.196500  1.0  -0.1033
  C  C168  1  0.007900  0.044800  0.193600  1.0  -0.0512
  C  C169  1  0.461500  0.202300  0.069600  1.0  -0.1903
  C  C170  1  0.639200  0.355600  0.391500  1.0  0.1913
  C  C171  1  0.329100  0.124500  0.080700  1.0  0.1698
  C  C172  1  0.678700  0.233900  0.206000  1.0  0.6609
  C  C173  1  0.830200  0.091700  0.194300  1.0  0.0445
  C  C174  1  0.841700  0.132000  0.145300  1.0  -0.1702
  C  C175  1  0.761300  0.100800  0.238500  1.0  -0.0984
  C  C176  1  0.466200  0.162000  0.462500  1.0  -0.0348
  C  C177  1  0.100500  0.314000  0.205200  1.0  -0.1064
  C  C178  1  0.476000  0.318000  0.343100  1.0  0.0234
  C  C179  1  0.933100  0.368400  0.163100  1.0  -0.1378
  C  C180  1  0.811700  0.454000  0.213300  1.0  -0.0383
  C  C181  1  0.394300  0.202400  0.115700  1.0  0.2152
  C  C182  1  0.438200  0.314000  0.400800  1.0  0.3263
  C  C183  1  0.389200  0.120200  0.031800  1.0  0.2806
  C  C184  1  0.152600  0.351400  0.249400  1.0  -0.0391
  C  C185  1  0.298300  0.139700  0.371100  1.0  0.1596
  C  C186  1  0.355600  0.144000  0.443200  1.0  -0.1066
  C  C187  1  0.093700  0.398200  0.255400  1.0  -0.1158
  C  C188  1  0.620800  0.354000  0.460500  1.0  -0.1531
  C  C189  1  0.510800  0.333900  0.462700  1.0  -0.0178
  C  C190  1  0.561500  0.180800  0.664400  1.0  0.1644
  C  C191  1  0.535200  0.161300  0.973400  1.0  0.0314
  C  C192  1  0.013500  0.323600  0.844000  1.0  -0.0897
  C  C193  1  0.250900  0.406300  0.776400  1.0  0.6168
  C  C194  1  0.288700  0.145100  0.755100  1.0  -0.1025
  C  C195  1  0.854600  0.265000  0.802500  1.0  0.6472
  C  C196  1  0.922600  0.091000  0.800100  1.0  0.6925
  C  C197  1  0.487800  0.183900  0.595100  1.0  0.0753
  C  C198  1  0.012800  0.406400  0.788900  1.0  0.0051
  C  C199  1  0.215500  0.175100  0.853800  1.0  -0.0819
  C  C200  1  0.105400  0.044500  0.805200  1.0  0.0018
  C  C201  1  0.072900  0.453900  0.787100  1.0  0.033
  C  C202  1  0.275400  0.183700  0.803500  1.0  -0.1047
  C  C203  1  0.992100  0.044800  0.806400  1.0  -0.0517
  C  C204  1  0.538500  0.202300  0.930400  1.0  -0.1887
  C  C205  1  0.360800  0.355600  0.608500  1.0  0.1907
  C  C206  1  0.670900  0.124500  0.919300  1.0  0.1684
  C  C207  1  0.321300  0.233900  0.794000  1.0  0.6607
  C  C208  1  0.169800  0.091700  0.805700  1.0  0.045
  C  C209  1  0.158300  0.132000  0.854700  1.0  -0.1669
  C  C210  1  0.238700  0.100800  0.761500  1.0  -0.0979
  C  C211  1  0.533800  0.162000  0.537500  1.0  -0.0342
  C  C212  1  0.899500  0.314000  0.794800  1.0  -0.1062
  C  C213  1  0.524000  0.318000  0.656900  1.0  0.0239
  C  C214  1  0.066900  0.368400  0.836900  1.0  -0.1363
  C  C215  1  0.188300  0.454000  0.786700  1.0  -0.038
  C  C216  1  0.605700  0.202400  0.884300  1.0  0.2147
  C  C217  1  0.561800  0.314000  0.599200  1.0  0.3253
  C  C218  1  0.610800  0.120200  0.968200  1.0  0.2778
  C  C219  1  0.847400  0.351400  0.750600  1.0  -0.0393
  C  C220  1  0.701700  0.139700  0.628900  1.0  0.1581
  C  C221  1  0.644400  0.144000  0.556800  1.0  -0.1049
  C  C222  1  0.906300  0.398200  0.744600  1.0  -0.117
  C  C223  1  0.379200  0.354000  0.539500  1.0  -0.1527
  C  C224  1  0.489200  0.333900  0.537300  1.0  -0.0175
  C  C225  1  0.939100  0.000000  0.809200  1.0  -0.0222
  C  C226  1  0.163700  0.000000  0.808000  1.0  -0.1521
  C  C227  1  0.060900  0.000000  0.190800  1.0  -0.0228
  C  C228  1  0.836300  0.000000  0.192000  1.0  -0.1519
  C  C229  1  0.021100  0.500000  0.786100  1.0  -0.1079
  C  C230  1  0.241900  0.500000  0.784200  1.0  -0.0332
  C  C231  1  0.978900  0.500000  0.213900  1.0  -0.1082
  C  C232  1  0.758100  0.500000  0.215800  1.0  -0.0371
  N  N233  1  0.669100  0.834000  0.873000  1.0  -0.3096
  N  N234  1  0.432000  0.661900  0.670400  1.0  -0.2711
  N  N235  1  0.663000  0.840300  0.684000  1.0  -0.3448
  N  N236  1  0.374000  0.798700  0.586900  1.0  -0.262
  N  N237  1  0.662800  0.706500  0.604400  1.0  -0.2513
  N  N238  1  0.611200  0.926900  0.004100  1.0  -0.2642
  N  N239  1  0.330900  0.834000  0.127000  1.0  -0.3111
  N  N240  1  0.568000  0.661900  0.329600  1.0  -0.2693
  N  N241  1  0.337000  0.840300  0.316000  1.0  -0.3433
  N  N242  1  0.626000  0.798700  0.413100  1.0  -0.2662
  N  N243  1  0.337200  0.706500  0.395600  1.0  -0.25
  N  N244  1  0.388800  0.926900  0.995900  1.0  -0.2643
  N  N245  1  0.330900  0.166000  0.127000  1.0  -0.3103
  N  N246  1  0.568000  0.338100  0.329600  1.0  -0.2689
  N  N247  1  0.337000  0.159700  0.316000  1.0  -0.3445
  N  N248  1  0.626000  0.201300  0.413100  1.0  -0.2664
  N  N249  1  0.337200  0.293500  0.395600  1.0  -0.2493
  N  N250  1  0.388800  0.073100  0.995900  1.0  -0.2619
  N  N251  1  0.669100  0.166000  0.873000  1.0  -0.3097
  N  N252  1  0.432000  0.338100  0.670400  1.0  -0.27
  N  N253  1  0.663000  0.159700  0.684000  1.0  -0.3448
  N  N254  1  0.374000  0.201300  0.586900  1.0  -0.2619
  N  N255  1  0.662800  0.293500  0.604400  1.0  -0.2506
  N  N256  1  0.611200  0.073100  0.004100  1.0  -0.2627
  O  O257  1  0.215300  0.622700  0.730000  1.0  -0.5645
  O  O258  1  0.924200  0.876100  0.752400  1.0  -0.6466
  O  O259  1  0.345000  0.596000  0.821600  1.0  -0.6306
  O  O260  1  0.306800  0.730000  0.836500  1.0  -0.5764
  O  O261  1  0.859100  0.904900  0.844400  1.0  -0.6069
  O  O262  1  0.903500  0.767000  0.841300  1.0  -0.5345
  O  O263  1  0.368600  0.758300  0.740800  1.0  -0.5999
  O  O264  1  0.752200  0.742100  0.760700  1.0  -0.7004
  O  O265  1  0.784700  0.622700  0.270000  1.0  -0.5655
  O  O266  1  0.075800  0.876100  0.247600  1.0  -0.6457
  O  O267  1  0.655000  0.596000  0.178400  1.0  -0.628
  O  O268  1  0.693200  0.730000  0.163500  1.0  -0.5766
  O  O269  1  0.140900  0.904900  0.155600  1.0  -0.6073
  O  O270  1  0.096500  0.767000  0.158700  1.0  -0.5359
  O  O271  1  0.631400  0.758300  0.259200  1.0  -0.5982
  O  O272  1  0.247800  0.742100  0.239300  1.0  -0.7012
  O  O273  1  0.784700  0.377300  0.270000  1.0  -0.565
  O  O274  1  0.075800  0.123900  0.247600  1.0  -0.6472
  O  O275  1  0.655000  0.404000  0.178400  1.0  -0.6282
  O  O276  1  0.693200  0.270000  0.163500  1.0  -0.5774
  O  O277  1  0.140900  0.095100  0.155600  1.0  -0.607
  O  O278  1  0.096500  0.233000  0.158700  1.0  -0.5362
  O  O279  1  0.631400  0.241700  0.259200  1.0  -0.5984
  O  O280  1  0.247800  0.257900  0.239300  1.0  -0.7014
  O  O281  1  0.215300  0.377300  0.730000  1.0  -0.5643
  O  O282  1  0.924200  0.123900  0.752400  1.0  -0.6473
  O  O283  1  0.345000  0.404000  0.821600  1.0  -0.6302
  O  O284  1  0.306800  0.270000  0.836500  1.0  -0.5771
  O  O285  1  0.859100  0.095100  0.844400  1.0  -0.6068
  O  O286  1  0.903500  0.233000  0.841300  1.0  -0.5344
  O  O287  1  0.368600  0.241700  0.740800  1.0  -0.5996
  O  O288  1  0.752200  0.257900  0.760700  1.0  -0.7003
