# generated using pymatgen
data_BaH12(C5O)4
_symmetry_space_group_name_H-M   'P 1'
_cell_length_a   10.81770000
_cell_length_b   19.84830000
_cell_length_c   25.86870000
_cell_angle_alpha   101.11700000
_cell_angle_beta   101.10800000
_cell_angle_gamma   94.82700000
_symmetry_Int_Tables_number   1
_chemical_formula_structural   BaH12(C5O)4
_chemical_formula_sum   'Ba10 H120 C200 O40'
_cell_volume   5305.41183936
_cell_formula_units_Z   10
loop_
 _symmetry_equiv_pos_site_id
 _symmetry_equiv_pos_as_xyz
  1  'x, y, z'
loop_
 _atom_site_type_symbol
 _atom_site_label
 _atom_site_symmetry_multiplicity
 _atom_site_fract_x
 _atom_site_fract_y
 _atom_site_fract_z
 _atom_site_occupancy
 _atom_site_charge
  Ba  Ba1  1  0.826530  0.188940  0.289470  1.0  1.6029
  Ba  Ba2  1  0.535670  0.298640  0.192530  1.0  1.6151
  Ba  Ba3  1  0.464620  0.207230  0.342930  1.0  1.6648
  Ba  Ba4  1  0.930150  0.363990  0.228170  1.0  1.6432
  Ba  Ba5  1  0.148410  0.192820  0.210560  1.0  1.6454
  Ba  Ba6  1  0.173470  0.811060  0.710530  1.0  1.6033
  Ba  Ba7  1  0.464330  0.701360  0.807470  1.0  1.6158
  Ba  Ba8  1  0.535380  0.792770  0.657070  1.0  1.6648
  Ba  Ba9  1  0.069850  0.636010  0.771830  1.0  1.6433
  Ba  Ba10  1  0.851590  0.807180  0.789440  1.0  1.645
  H  H11  1  0.907700  0.210000  0.713200  1.0  0.0687
  H  H12  1  0.955200  0.136800  0.464700  1.0  0.1209
  H  H13  1  0.894400  0.710500  0.528800  1.0  0.1061
  H  H14  1  0.084500  0.792400  0.149600  1.0  0.1086
  H  H15  1  0.679200  0.490900  0.832900  1.0  0.1123
  H  H16  1  0.684000  0.905700  0.866200  1.0  0.0413
  H  H17  1  0.849900  0.123900  0.104700  1.0  0.0961
  H  H18  1  0.721500  0.006000  0.103100  1.0  0.1214
  H  H19  1  0.905900  0.274600  0.656000  1.0  0.1051
  H  H20  1  0.647500  0.642600  0.905600  1.0  0.0857
  H  H21  1  0.766800  0.832000  0.447800  1.0  0.1089
  H  H22  1  0.944600  0.855100  0.181600  1.0  0.097
  H  H23  1  0.452300  0.943400  0.833800  1.0  0.0858
  H  H24  1  0.729100  0.187400  0.472500  1.0  0.0994
  H  H25  1  0.846400  0.671300  0.367800  1.0  0.1022
  H  H26  1  0.822900  0.937300  0.305700  1.0  0.0893
  H  H27  1  0.865500  0.513400  0.621300  1.0  0.1335
  H  H28  1  0.714400  0.818000  0.013000  1.0  0.1046
  H  H29  1  0.733900  0.890800  0.095700  1.0  0.0974
  H  H30  1  0.745400  0.909700  0.194800  1.0  0.0936
  H  H31  1  0.557700  0.372700  0.013100  1.0  0.0825
  H  H32  1  0.667400  0.856600  0.936600  1.0  0.1068
  H  H33  1  0.423000  0.824800  0.306200  1.0  0.0973
  H  H34  1  0.847800  0.583800  0.869300  1.0  0.1014
  H  H35  1  0.635600  0.520400  0.095600  1.0  0.1002
  H  H36  1  0.573000  0.052300  0.842800  1.0  0.1003
  H  H37  1  0.715000  0.630900  0.605700  1.0  0.1004
  H  H38  1  0.725400  0.684300  0.995800  1.0  0.1122
  H  H39  1  0.890500  0.749400  0.451200  1.0  0.0915
  H  H40  1  0.842600  0.597100  0.262400  1.0  0.1166
  H  H41  1  0.841600  0.017600  0.415800  1.0  0.1064
  H  H42  1  0.073900  0.672300  0.151500  1.0  0.1085
  H  H43  1  0.812700  0.357700  0.456600  1.0  0.093
  H  H44  1  0.662200  0.373200  0.796700  1.0  0.104
  H  H45  1  0.950800  0.913100  0.628300  1.0  0.0792
  H  H46  1  0.803500  0.901900  0.389000  1.0  0.0931
  H  H47  1  0.946100  0.629100  0.200700  1.0  0.1098
  H  H48  1  0.837600  0.091400  0.687800  1.0  0.1281
  H  H49  1  0.647800  0.634400  0.131100  1.0  0.0881
  H  H50  1  0.596400  0.140600  0.083300  1.0  0.0949
  H  H51  1  0.750100  0.977000  0.648600  1.0  0.0856
  H  H52  1  0.590600  0.566600  0.214100  1.0  0.0887
  H  H53  1  0.700900  0.717700  0.082600  1.0  0.1003
  H  H54  1  0.590200  0.196400  0.010000  1.0  0.1033
  H  H55  1  0.572900  0.875700  0.268200  1.0  0.111
  H  H56  1  0.536200  0.162800  0.848100  1.0  0.0972
  H  H57  1  0.820900  0.554200  0.362000  1.0  0.1113
  H  H58  1  0.843400  0.397400  0.616000  1.0  0.1022
  H  H59  1  0.784400  0.879000  0.537800  1.0  0.1154
  H  H60  1  0.537000  0.235100  0.931800  1.0  0.091
  H  H61  1  0.973800  0.649100  0.609700  1.0  0.0955
  H  H62  1  0.432700  0.712100  0.319600  1.0  0.1268
  H  H63  1  0.652400  0.383600  0.391500  1.0  0.1148
  H  H64  1  0.594500  0.653200  0.296600  1.0  0.0987
  H  H65  1  0.867600  0.441800  0.368000  1.0  0.0836
  H  H66  1  0.807200  0.318800  0.533000  1.0  0.1152
  H  H67  1  0.779200  0.422700  0.087800  1.0  0.0891
  H  H68  1  0.901700  0.230200  0.567600  1.0  0.1007
  H  H69  1  0.668600  0.330200  0.941200  1.0  0.0992
  H  H70  1  0.660000  0.294300  0.852000  1.0  0.1067
  H  H71  1  0.092300  0.790000  0.286800  1.0  0.0693
  H  H72  1  0.044800  0.863200  0.535300  1.0  0.12
  H  H73  1  0.105600  0.289500  0.471200  1.0  0.1062
  H  H74  1  0.915500  0.207600  0.850400  1.0  0.111
  H  H75  1  0.320800  0.509100  0.167100  1.0  0.1122
  H  H76  1  0.316000  0.094300  0.133800  1.0  0.0411
  H  H77  1  0.150100  0.876100  0.895300  1.0  0.0967
  H  H78  1  0.278500  0.994000  0.896900  1.0  0.122
  H  H79  1  0.094100  0.725400  0.344000  1.0  0.1061
  H  H80  1  0.352500  0.357400  0.094400  1.0  0.0856
  H  H81  1  0.233200  0.168000  0.552200  1.0  0.1089
  H  H82  1  0.055400  0.144900  0.818400  1.0  0.0993
  H  H83  1  0.547700  0.056600  0.166200  1.0  0.087
  H  H84  1  0.270900  0.812600  0.527500  1.0  0.1002
  H  H85  1  0.153600  0.328700  0.632200  1.0  0.1022
  H  H86  1  0.177100  0.062700  0.694300  1.0  0.0894
  H  H87  1  0.134500  0.486600  0.378700  1.0  0.1339
  H  H88  1  0.285600  0.182000  0.987000  1.0  0.1038
  H  H89  1  0.266100  0.109200  0.904300  1.0  0.0971
  H  H90  1  0.254600  0.090300  0.805200  1.0  0.092
  H  H91  1  0.442300  0.627300  0.986900  1.0  0.0817
  H  H92  1  0.332600  0.143400  0.063400  1.0  0.1073
  H  H93  1  0.577000  0.175200  0.693800  1.0  0.0974
  H  H94  1  0.152200  0.416200  0.130700  1.0  0.103
  H  H95  1  0.364400  0.479600  0.904400  1.0  0.0996
  H  H96  1  0.427000  0.947700  0.157200  1.0  0.1006
  H  H97  1  0.285000  0.369100  0.394300  1.0  0.0966
  H  H98  1  0.274600  0.315700  0.004200  1.0  0.1109
  H  H99  1  0.109500  0.250600  0.548800  1.0  0.0907
  H  H100  1  0.157400  0.402900  0.737600  1.0  0.1185
  H  H101  1  0.158400  0.982400  0.584200  1.0  0.1062
  H  H102  1  0.926100  0.327700  0.848500  1.0  0.1085
  H  H103  1  0.187300  0.642300  0.543400  1.0  0.0918
  H  H104  1  0.337800  0.626800  0.203300  1.0  0.1023
  H  H105  1  0.049200  0.086900  0.371700  1.0  0.0789
  H  H106  1  0.196500  0.098100  0.611000  1.0  0.0953
  H  H107  1  0.053900  0.370900  0.799300  1.0  0.11
  H  H108  1  0.162400  0.908600  0.312200  1.0  0.1275
  H  H109  1  0.352200  0.365600  0.868900  1.0  0.0883
  H  H110  1  0.403600  0.859400  0.916700  1.0  0.0959
  H  H111  1  0.249900  0.023000  0.351400  1.0  0.0861
  H  H112  1  0.409400  0.433400  0.785900  1.0  0.0879
  H  H113  1  0.299100  0.282300  0.917400  1.0  0.1007
  H  H114  1  0.409800  0.803600  0.990000  1.0  0.1044
  H  H115  1  0.427100  0.124300  0.731800  1.0  0.111
  H  H116  1  0.463800  0.837200  0.151900  1.0  0.0973
  H  H117  1  0.179100  0.445800  0.638000  1.0  0.1115
  H  H118  1  0.156600  0.602600  0.384000  1.0  0.0998
  H  H119  1  0.215600  0.121000  0.462200  1.0  0.1152
  H  H120  1  0.463000  0.764900  0.068200  1.0  0.0944
  H  H121  1  0.026200  0.350900  0.390300  1.0  0.0957
  H  H122  1  0.567300  0.287900  0.680400  1.0  0.123
  H  H123  1  0.347600  0.616400  0.608500  1.0  0.1107
  H  H124  1  0.405500  0.346800  0.703400  1.0  0.0988
  H  H125  1  0.132400  0.558200  0.632000  1.0  0.0838
  H  H126  1  0.192800  0.681200  0.467000  1.0  0.1167
  H  H127  1  0.220800  0.577300  0.912200  1.0  0.0945
  H  H128  1  0.098300  0.769800  0.432400  1.0  0.1
  H  H129  1  0.331400  0.669800  0.058800  1.0  0.0998
  H  H130  1  0.340000  0.705700  0.148000  1.0  0.1061
  C  C131  1  0.514000  0.865100  0.778500  1.0  0.6597
  C  C132  1  0.785000  0.189100  0.166300  1.0  0.7117
  C  C133  1  0.856000  0.882000  0.686700  1.0  0.6622
  C  C134  1  0.889000  0.188900  0.676700  1.0  -0.0685
  C  C135  1  0.880000  0.137600  0.476700  1.0  -0.1048
  C  C136  1  0.817000  0.208600  0.408800  1.0  0.6629
  C  C137  1  0.827000  0.693400  0.676900  1.0  0.6987
  C  C138  1  0.659000  0.455000  0.997200  1.0  0.0186
  C  C139  1  0.881000  0.678800  0.496100  1.0  -0.0815
  C  C140  1  0.025000  0.772200  0.165200  1.0  -0.1078
  C  C141  1  0.675000  0.459500  0.855100  1.0  -0.1261
  C  C142  1  0.616000  0.930900  0.869800  1.0  -0.0998
  C  C143  1  0.628000  0.982300  0.920900  1.0  -0.0066
  C  C144  1  0.802000  0.673400  0.843900  1.0  0.7562
  C  C145  1  0.666000  0.527900  0.019300  1.0  0.0199
  C  C146  1  0.834000  0.009800  0.589900  1.0  -0.0436
  C  C147  1  0.777000  0.141000  0.112500  1.0  -0.1243
  C  C148  1  0.663000  0.340100  0.103200  1.0  0.6932
  C  C149  1  0.688000  0.577900  0.988400  1.0  -0.009
  C  C150  1  0.844000  0.023700  0.497400  1.0  -0.0203
  C  C151  1  0.708000  0.976900  0.069300  1.0  -0.1834
  C  C152  1  0.896000  0.226800  0.643800  1.0  -0.1188
  C  C153  1  0.704000  0.610100  0.903700  1.0  -0.1409
  C  C154  1  0.863000  0.095000  0.514900  1.0  0.029
  C  C155  1  0.787000  0.879500  0.460500  1.0  -0.104
  C  C156  1  0.618000  0.096800  0.976500  1.0  -0.0461
  C  C157  1  0.798000  0.025100  0.272600  1.0  0.7003
  C  C158  1  0.672000  0.793300  0.254700  1.0  0.0359
  C  C159  1  0.682000  0.339000  0.316900  1.0  0.7056
  C  C160  1  0.693000  0.484300  0.234700  1.0  0.6535
  C  C161  1  0.943000  0.809200  0.184900  1.0  -0.079
  C  C162  1  0.521000  0.918800  0.830700  1.0  -0.1864
  C  C163  1  0.608000  0.050700  0.923900  1.0  -0.0035
  C  C164  1  0.678000  0.484100  0.910900  1.0  0.0076
  C  C165  1  0.798000  0.177900  0.456800  1.0  -0.0916
  C  C166  1  0.852000  0.654400  0.399200  1.0  -0.0882
  C  C167  1  0.850000  0.711100  0.214600  1.0  0.0167
  C  C168  1  0.799000  0.949600  0.272600  1.0  -0.1525
  C  C169  1  0.853000  0.482900  0.588100  1.0  -0.1424
  C  C170  1  0.704000  0.864400  0.014800  1.0  -0.0982
  C  C171  1  0.718000  0.908600  0.064700  1.0  -0.0938
  C  C172  1  0.767000  0.898500  0.228400  1.0  -0.1616
  C  C173  1  0.632000  0.403100  0.027300  1.0  -0.0975
  C  C174  1  0.676000  0.887600  0.969400  1.0  -0.0935
  C  C175  1  0.763000  0.682000  0.240500  1.0  -0.0399
  C  C176  1  0.487000  0.800100  0.295800  1.0  -0.0949
  C  C177  1  0.792000  0.616800  0.872500  1.0  -0.1543
  C  C178  1  0.651000  0.552500  0.075000  1.0  -0.1463
  C  C179  1  0.865000  0.605800  0.495400  1.0  0.0198
  C  C180  1  0.824000  0.980700  0.534500  1.0  0.0359
  C  C181  1  0.577000  0.080200  0.876500  1.0  -0.1501
  C  C182  1  0.799000  0.647700  0.621900  1.0  -0.1217
  C  C183  1  0.669000  0.435700  0.943300  1.0  0.0085
  C  C184  1  0.705000  0.650900  0.014600  1.0  -0.1405
  C  C185  1  0.853000  0.083600  0.608800  1.0  0.0328
  C  C186  1  0.660000  0.957000  0.969400  1.0  0.0287
  C  C187  1  0.877000  0.702100  0.449800  1.0  -0.1161
  C  C188  1  0.765000  0.608300  0.245600  1.0  -0.0597
  C  C189  1  0.656000  0.072500  0.023000  1.0  -0.0384
  C  C190  1  0.851000  0.782900  0.210900  1.0  0.0323
  C  C191  1  0.832000  0.990600  0.440800  1.0  -0.1392
  C  C192  1  0.021000  0.700000  0.168000  1.0  -0.1322
  C  C193  1  0.819000  0.389500  0.488800  1.0  -0.1346
  C  C194  1  0.864000  0.125600  0.568300  1.0  0.0043
  C  C195  1  0.765000  0.823500  0.231600  1.0  -0.0377
  C  C196  1  0.666000  0.388700  0.833400  1.0  -0.1094
  C  C197  1  0.883000  0.922500  0.644600  1.0  -0.1578
  C  C198  1  0.865000  0.581400  0.542800  1.0  -0.0006
  C  C199  1  0.807000  0.922100  0.424900  1.0  -0.0603
  C  C200  1  0.941000  0.673700  0.195000  1.0  -0.1457
  C  C201  1  0.849000  0.507800  0.540400  1.0  0.0106
  C  C202  1  0.677000  0.004000  0.021500  1.0  -0.0351
  C  C203  1  0.671000  0.721800  0.259700  1.0  -0.0085
  C  C204  1  0.856000  0.116300  0.662800  1.0  -0.1723
  C  C205  1  0.661000  0.620100  0.096400  1.0  -0.0984
  C  C206  1  0.669000  0.122000  0.075700  1.0  -0.1307
  C  C207  1  0.816000  0.968300  0.631100  1.0  -0.0958
  C  C208  1  0.841000  0.557400  0.443200  1.0  -0.1145
  C  C209  1  0.671000  0.557600  0.229200  1.0  -0.1163
  C  C210  1  0.691000  0.670800  0.066500  1.0  -0.1275
  C  C211  1  0.588000  0.166800  0.977100  1.0  -0.121
  C  C212  1  0.694000  0.556200  0.933800  1.0  0.0466
  C  C213  1  0.825000  0.487300  0.441100  1.0  -0.0317
  C  C214  1  0.576000  0.830300  0.272400  1.0  -0.0968
  C  C215  1  0.829000  0.461400  0.488300  1.0  0.0509
  C  C216  1  0.554000  0.145800  0.879500  1.0  -0.1161
  C  C217  1  0.835000  0.584300  0.395500  1.0  -0.1511
  C  C218  1  0.840000  0.414100  0.584600  1.0  -0.09
  C  C219  1  0.796000  0.907800  0.514300  1.0  -0.1047
  C  C220  1  0.557000  0.190100  0.930400  1.0  -0.1351
  C  C221  1  0.890000  0.629500  0.594400  1.0  -0.1568
  C  C222  1  0.492000  0.732400  0.303800  1.0  -0.117
  C  C223  1  0.709000  0.387900  0.369300  1.0  -0.0725
  C  C224  1  0.587000  0.696200  0.288000  1.0  -0.1592
  C  C225  1  0.807000  0.437800  0.388700  1.0  -0.1624
  C  C226  1  0.820000  0.366100  0.534400  1.0  -0.1555
  C  C227  1  0.703000  0.394400  0.073300  1.0  -0.0732
  C  C228  1  0.890000  0.200400  0.590300  1.0  -0.1677
  C  C229  1  0.667000  0.362500  0.919500  1.0  -0.1485
  C  C230  1  0.664000  0.341200  0.866600  1.0  -0.0685
  C  C231  1  0.486000  0.134900  0.221500  1.0  0.6583
  C  C232  1  0.215000  0.810900  0.833700  1.0  0.7154
  C  C233  1  0.144000  0.118000  0.313300  1.0  0.6627
  C  C234  1  0.111000  0.811100  0.323300  1.0  -0.0657
  C  C235  1  0.120000  0.862400  0.523300  1.0  -0.1032
  C  C236  1  0.183000  0.791400  0.591200  1.0  0.6634
  C  C237  1  0.173000  0.306600  0.323100  1.0  0.7025
  C  C238  1  0.341000  0.545000  0.002800  1.0  0.0179
  C  C239  1  0.119000  0.321200  0.503900  1.0  -0.0782
  C  C240  1  0.975000  0.227800  0.834800  1.0  -0.1147
  C  C241  1  0.325000  0.540500  0.144900  1.0  -0.1264
  C  C242  1  0.384000  0.069100  0.130200  1.0  -0.1008
  C  C243  1  0.372000  0.017700  0.079100  1.0  -0.0095
  C  C244  1  0.198000  0.326600  0.156100  1.0  0.7563
  C  C245  1  0.334000  0.472100  0.980700  1.0  0.0211
  C  C246  1  0.166000  0.990200  0.410100  1.0  -0.0413
  C  C247  1  0.223000  0.859000  0.887500  1.0  -0.1191
  C  C248  1  0.337000  0.659900  0.896800  1.0  0.6926
  C  C249  1  0.312000  0.422100  0.011600  1.0  -0.0108
  C  C250  1  0.156000  0.976300  0.502600  1.0  -0.0196
  C  C251  1  0.292000  0.023100  0.930700  1.0  -0.1827
  C  C252  1  0.104000  0.773200  0.356200  1.0  -0.1216
  C  C253  1  0.296000  0.389900  0.096300  1.0  -0.1398
  C  C254  1  0.137000  0.905000  0.485100  1.0  0.0284
  C  C255  1  0.213000  0.120500  0.539500  1.0  -0.1045
  C  C256  1  0.382000  0.903200  0.023500  1.0  -0.0494
  C  C257  1  0.202000  0.974900  0.727400  1.0  0.7011
  C  C258  1  0.328000  0.206700  0.745300  1.0  0.035
  C  C259  1  0.318000  0.661000  0.683100  1.0  0.7003
  C  C260  1  0.307000  0.515700  0.765300  1.0  0.6511
  C  C261  1  0.057000  0.190800  0.815100  1.0  -0.0825
  C  C262  1  0.479000  0.081200  0.169300  1.0  -0.1921
  C  C263  1  0.392000  0.949300  0.076100  1.0  -0.0052
  C  C264  1  0.322000  0.515900  0.089100  1.0  0.0083
  C  C265  1  0.202000  0.822100  0.543200  1.0  -0.09
  C  C266  1  0.148000  0.345600  0.600800  1.0  -0.0909
  C  C267  1  0.150000  0.288900  0.785400  1.0  0.0177
  C  C268  1  0.201000  0.050400  0.727400  1.0  -0.1533
  C  C269  1  0.147000  0.517100  0.411900  1.0  -0.1435
  C  C270  1  0.296000  0.135600  0.985200  1.0  -0.103
  C  C271  1  0.282000  0.091400  0.935300  1.0  -0.0967
  C  C272  1  0.233000  0.101500  0.771600  1.0  -0.161
  C  C273  1  0.368000  0.596900  0.972700  1.0  -0.0989
  C  C274  1  0.324000  0.112400  0.030600  1.0  -0.0939
  C  C275  1  0.237000  0.318000  0.759500  1.0  -0.0406
  C  C276  1  0.513000  0.199900  0.704200  1.0  -0.096
  C  C277  1  0.208000  0.383200  0.127500  1.0  -0.1509
  C  C278  1  0.349000  0.447500  0.925000  1.0  -0.1393
  C  C279  1  0.135000  0.394200  0.504600  1.0  0.0218
  C  C280  1  0.176000  0.019300  0.465500  1.0  0.0374
  C  C281  1  0.423000  0.919800  0.123500  1.0  -0.1448
  C  C282  1  0.201000  0.352300  0.378100  1.0  -0.1252
  C  C283  1  0.331000  0.564300  0.056700  1.0  0.0106
  C  C284  1  0.295000  0.349100  0.985400  1.0  -0.1379
  C  C285  1  0.147000  0.916400  0.391200  1.0  0.0331
  C  C286  1  0.340000  0.043000  0.030600  1.0  0.03
  C  C287  1  0.123000  0.297900  0.550200  1.0  -0.114
  C  C288  1  0.235000  0.391700  0.754400  1.0  -0.0588
  C  C289  1  0.344000  0.927500  0.977000  1.0  -0.0402
  C  C290  1  0.149000  0.217100  0.789100  1.0  0.0332
  C  C291  1  0.168000  0.009400  0.559200  1.0  -0.1367
  C  C292  1  0.979000  0.300000  0.832000  1.0  -0.1271
  C  C293  1  0.181000  0.610500  0.511200  1.0  -0.1345
  C  C294  1  0.136000  0.874400  0.431700  1.0  0.0046
  C  C295  1  0.235000  0.176500  0.768400  1.0  -0.0379
  C  C296  1  0.334000  0.611300  0.166600  1.0  -0.1079
  C  C297  1  0.117000  0.077500  0.355400  1.0  -0.1603
  C  C298  1  0.135000  0.418600  0.457200  1.0  -0.0036
  C  C299  1  0.193000  0.077900  0.575100  1.0  -0.0596
  C  C300  1  0.059000  0.326300  0.805000  1.0  -0.1448
  C  C301  1  0.151000  0.492200  0.459600  1.0  0.0133
  C  C302  1  0.323000  0.996000  0.978500  1.0  -0.0349
  C  C303  1  0.329000  0.278200  0.740300  1.0  -0.0076
  C  C304  1  0.144000  0.883700  0.337200  1.0  -0.1707
  C  C305  1  0.339000  0.379900  0.903600  1.0  -0.0968
  C  C306  1  0.331000  0.878000  0.924300  1.0  -0.1322
  C  C307  1  0.184000  0.031700  0.368900  1.0  -0.0954
  C  C308  1  0.159000  0.442600  0.556800  1.0  -0.1128
  C  C309  1  0.329000  0.442400  0.770800  1.0  -0.1179
  C  C310  1  0.309000  0.329200  0.933500  1.0  -0.1265
  C  C311  1  0.412000  0.833200  0.022900  1.0  -0.1192
  C  C312  1  0.306000  0.443800  0.066200  1.0  0.0487
  C  C313  1  0.175000  0.512700  0.558900  1.0  -0.0296
  C  C314  1  0.424000  0.169700  0.727600  1.0  -0.0971
  C  C315  1  0.171000  0.538600  0.511700  1.0  0.0523
  C  C316  1  0.446000  0.854200  0.120500  1.0  -0.113
  C  C317  1  0.165000  0.415700  0.604500  1.0  -0.1514
  C  C318  1  0.160000  0.585900  0.415400  1.0  -0.0891
  C  C319  1  0.204000  0.092200  0.485700  1.0  -0.1076
  C  C320  1  0.443000  0.809900  0.069600  1.0  -0.1346
  C  C321  1  0.110000  0.370500  0.405600  1.0  -0.1542
  C  C322  1  0.508000  0.267600  0.696200  1.0  -0.1092
  C  C323  1  0.291000  0.612100  0.630700  1.0  -0.0732
  C  C324  1  0.413000  0.303800  0.712000  1.0  -0.1593
  C  C325  1  0.193000  0.562200  0.611300  1.0  -0.1612
  C  C326  1  0.180000  0.633900  0.465600  1.0  -0.1554
  C  C327  1  0.297000  0.605600  0.926700  1.0  -0.0783
  C  C328  1  0.110000  0.799600  0.409700  1.0  -0.1674
  C  C329  1  0.333000  0.637500  0.080500  1.0  -0.1539
  C  C330  1  0.336000  0.658800  0.133400  1.0  -0.0708
  O  O331  1  0.923300  0.215800  0.397400  1.0  -0.6331
  O  O332  1  0.893600  0.215300  0.193700  1.0  -0.7305
  O  O333  1  0.597900  0.820500  0.780600  1.0  -0.7188
  O  O334  1  0.712000  0.710800  0.839100  1.0  -0.7429
  O  O335  1  0.791500  0.062600  0.317400  1.0  -0.6476
  O  O336  1  0.682300  0.200200  0.181500  1.0  -0.6762
  O  O337  1  0.808200  0.045500  0.229900  1.0  -0.6178
  O  O338  1  0.950800  0.854100  0.708800  1.0  -0.7642
  O  O339  1  0.716500  0.225200  0.380900  1.0  -0.7607
  O  O340  1  0.570600  0.308500  0.300900  1.0  -0.7137
  O  O341  1  0.771300  0.329200  0.290500  1.0  -0.7746
  O  O342  1  0.898100  0.683000  0.824800  1.0  -0.7108
  O  O343  1  0.588600  0.440300  0.222700  1.0  -0.6511
  O  O344  1  0.751600  0.880500  0.698500  1.0  -0.6244
  O  O345  1  0.936000  0.705900  0.705800  1.0  -0.6736
  O  O346  1  0.553600  0.305600  0.088200  1.0  -0.6663
  O  O347  1  0.429100  0.860300  0.737600  1.0  -0.6802
  O  O348  1  0.738800  0.338300  0.146200  1.0  -0.7391
  O  O349  1  0.730800  0.719800  0.691200  1.0  -0.7359
  O  O350  1  0.800900  0.472700  0.248800  1.0  -0.5694
  O  O351  1  0.076700  0.784200  0.602600  1.0  -0.6328
  O  O352  1  0.106400  0.784700  0.806300  1.0  -0.7281
  O  O353  1  0.402100  0.179500  0.219400  1.0  -0.7218
  O  O354  1  0.288000  0.289200  0.160900  1.0  -0.7412
  O  O355  1  0.208500  0.937400  0.682600  1.0  -0.647
  O  O356  1  0.317700  0.799800  0.818500  1.0  -0.6771
  O  O357  1  0.191800  0.954500  0.770100  1.0  -0.619
  O  O358  1  0.049200  0.145900  0.291200  1.0  -0.7641
  O  O359  1  0.283500  0.774800  0.619100  1.0  -0.7627
  O  O360  1  0.429400  0.691500  0.699100  1.0  -0.7153
  O  O361  1  0.228700  0.670800  0.709500  1.0  -0.7746
  O  O362  1  0.101900  0.317000  0.175200  1.0  -0.7104
  O  O363  1  0.411400  0.559700  0.777300  1.0  -0.6518
  O  O364  1  0.248400  0.119500  0.301500  1.0  -0.6239
  O  O365  1  0.064000  0.294100  0.294200  1.0  -0.6749
  O  O366  1  0.446400  0.694400  0.911800  1.0  -0.6651
  O  O367  1  0.570900  0.139700  0.262400  1.0  -0.6813
  O  O368  1  0.261200  0.661700  0.853800  1.0  -0.7385
  O  O369  1  0.269200  0.280200  0.308800  1.0  -0.7371
  O  O370  1  0.199100  0.527300  0.751200  1.0  -0.5689
