# generated using pymatgen
data_TiH4C4NO8
_symmetry_space_group_name_H-M   'P 1'
_cell_length_a   8.93900000
_cell_length_b   8.93900000
_cell_length_c   10.89300000
_cell_angle_alpha   90.00000000
_cell_angle_beta   90.00000000
_cell_angle_gamma   120.00000000
_symmetry_Int_Tables_number   1
_chemical_formula_structural   TiH4C4NO8
_chemical_formula_sum   'Ti3 H12 C12 N3 O24'
_cell_volume   753.79978611
_cell_formula_units_Z   3
loop_
 _symmetry_equiv_pos_site_id
 _symmetry_equiv_pos_as_xyz
  1  'x, y, z'
loop_
 _atom_site_type_symbol
 _atom_site_label
 _atom_site_symmetry_multiplicity
 _atom_site_fract_x
 _atom_site_fract_y
 _atom_site_fract_z
 _atom_site_occupancy
 _atom_site_charge
  Ti  Ti1  1  0.000000  0.500000  0.166670  1.0  1.594
  Ti  Ti2  1  0.500000  0.000000  0.833330  1.0  1.594
  Ti  Ti3  1  0.500000  0.500000  0.500000  1.0  1.594
  H  H4  1  0.895680  0.911310  0.883790  1.0  0.4204
  H  H5  1  0.104320  0.088690  0.883790  1.0  0.4203
  H  H6  1  0.984370  0.088690  0.782880  1.0  0.4195
  H  H7  1  0.015630  0.911310  0.782880  1.0  0.4169
  H  H8  1  0.015630  0.104320  0.550460  1.0  0.4214
  H  H9  1  0.984370  0.895680  0.550460  1.0  0.4209
  H  H10  1  0.104320  0.015630  0.449540  1.0  0.4231
  H  H11  1  0.895680  0.984370  0.449540  1.0  0.4233
  H  H12  1  0.088690  0.984370  0.217120  1.0  0.423
  H  H13  1  0.911310  0.015630  0.217120  1.0  0.4222
  H  H14  1  0.911310  0.895680  0.116210  1.0  0.4205
  H  H15  1  0.088690  0.104320  0.116210  1.0  0.4197
  C  C16  1  0.308250  0.616500  0.333333  1.0  0.5399
  C  C17  1  0.210490  0.420980  0.333333  1.0  0.538
  C  C18  1  0.308250  0.691750  0.000000  1.0  0.5392
  C  C19  1  0.210490  0.789510  0.000000  1.0  0.5365
  C  C20  1  0.383500  0.691750  0.666667  1.0  0.5395
  C  C21  1  0.579020  0.789510  0.666667  1.0  0.5367
  C  C22  1  0.691750  0.383500  0.333333  1.0  0.5407
  C  C23  1  0.789510  0.579020  0.333333  1.0  0.5387
  C  C24  1  0.691750  0.308250  0.000000  1.0  0.5402
  C  C25  1  0.789510  0.210490  0.000000  1.0  0.5361
  C  C26  1  0.616500  0.308250  0.666667  1.0  0.5398
  C  C27  1  0.420980  0.210490  0.666667  1.0  0.5361
  N  N28  1  0.000000  0.000000  0.833330  1.0  -0.7947
  N  N29  1  0.000000  0.000000  0.500000  1.0  -0.7939
  N  N30  1  0.000000  0.000000  0.166670  1.0  -0.7948
  O  O31  1  0.237040  0.686040  0.276350  1.0  -0.5703
  O  O32  1  0.076110  0.348600  0.270130  1.0  -0.588
  O  O33  1  0.449000  0.762960  0.943020  1.0  -0.5701
  O  O34  1  0.272490  0.923890  0.936800  1.0  -0.5893
  O  O35  1  0.313960  0.551000  0.609680  1.0  -0.5715
  O  O36  1  0.651400  0.727510  0.603460  1.0  -0.5886
  O  O37  1  0.762960  0.313960  0.276350  1.0  -0.5713
  O  O38  1  0.923890  0.651400  0.270130  1.0  -0.5883
  O  O39  1  0.551000  0.237040  0.943020  1.0  -0.5705
  O  O40  1  0.727510  0.076110  0.936800  1.0  -0.5899
  O  O41  1  0.686040  0.449000  0.609680  1.0  -0.5706
  O  O42  1  0.348600  0.272490  0.603460  1.0  -0.588
  O  O43  1  0.551000  0.313960  0.390320  1.0  -0.5709
  O  O44  1  0.727510  0.651400  0.396540  1.0  -0.5878
  O  O45  1  0.686040  0.237040  0.723650  1.0  -0.5702
  O  O46  1  0.348600  0.076110  0.729870  1.0  -0.5894
  O  O47  1  0.762960  0.449000  0.056980  1.0  -0.5712
  O  O48  1  0.923890  0.272490  0.063200  1.0  -0.5882
  O  O49  1  0.449000  0.686040  0.390320  1.0  -0.5714
  O  O50  1  0.272490  0.348600  0.396540  1.0  -0.5879
  O  O51  1  0.313960  0.762960  0.723650  1.0  -0.5702
  O  O52  1  0.651400  0.923890  0.729870  1.0  -0.5889
  O  O53  1  0.237040  0.551000  0.056980  1.0  -0.5713
  O  O54  1  0.076110  0.727510  0.063200  1.0  -0.5876
