# generated using pymatgen
data_TiH4C4NO8
_symmetry_space_group_name_H-M   'P 1'
_cell_length_a   8.93500000
_cell_length_b   8.93500000
_cell_length_c   10.87800000
_cell_angle_alpha   90.00000000
_cell_angle_beta   90.00000000
_cell_angle_gamma   120.00000000
_symmetry_Int_Tables_number   1
_chemical_formula_structural   TiH4C4NO8
_chemical_formula_sum   'Ti3 H12 C12 N3 O24'
_cell_volume   752.08824339
_cell_formula_units_Z   3
loop_
 _symmetry_equiv_pos_site_id
 _symmetry_equiv_pos_as_xyz
  1  'x, y, z'
loop_
 _atom_site_type_symbol
 _atom_site_label
 _atom_site_symmetry_multiplicity
 _atom_site_fract_x
 _atom_site_fract_y
 _atom_site_fract_z
 _atom_site_occupancy
 _atom_site_charge
  Ti  Ti1  1  0.500000  0.000000  0.666667  1.0  1.5951
  Ti  Ti2  1  0.500000  0.500000  0.000000  1.0  1.5952
  Ti  Ti3  1  0.000000  0.500000  0.333333  1.0  1.5951
  H  H4  1  0.028200  0.109700  0.949400  1.0  0.4006
  H  H5  1  0.971800  0.890300  0.949400  1.0  0.3971
  H  H6  1  0.109700  0.028200  0.050600  1.0  0.4019
  H  H7  1  0.890300  0.971800  0.050600  1.0  0.4068
  H  H8  1  0.081500  0.971800  0.282730  1.0  0.4011
  H  H9  1  0.918500  0.028200  0.282730  1.0  0.4053
  H  H10  1  0.918500  0.890300  0.383930  1.0  0.4002
  H  H11  1  0.081500  0.109700  0.383930  1.0  0.3996
  H  H12  1  0.890300  0.918500  0.616070  1.0  0.3972
  H  H13  1  0.109700  0.081500  0.616070  1.0  0.3977
  H  H14  1  0.971800  0.081500  0.717270  1.0  0.401
  H  H15  1  0.028200  0.918500  0.717270  1.0  0.3964
  C  C16  1  0.308000  0.692000  0.500000  1.0  0.5402
  C  C17  1  0.210450  0.789550  0.500000  1.0  0.5587
  C  C18  1  0.384000  0.692000  0.833330  1.0  0.54
  C  C19  1  0.579100  0.789550  0.833330  1.0  0.5594
  C  C20  1  0.308000  0.616000  0.166670  1.0  0.5415
  C  C21  1  0.210450  0.420900  0.166670  1.0  0.5609
  C  C22  1  0.692000  0.308000  0.500000  1.0  0.5409
  C  C23  1  0.789550  0.210450  0.500000  1.0  0.5589
  C  C24  1  0.616000  0.308000  0.833330  1.0  0.5411
  C  C25  1  0.420900  0.210450  0.833330  1.0  0.5587
  C  C26  1  0.692000  0.384000  0.166670  1.0  0.5423
  C  C27  1  0.789550  0.579100  0.166670  1.0  0.5618
  N  N28  1  0.000000  0.000000  0.000000  1.0  -0.7747
  N  N29  1  0.000000  0.000000  0.333333  1.0  -0.7748
  N  N30  1  0.000000  0.000000  0.666667  1.0  -0.7747
  O  O31  1  0.448900  0.762900  0.557000  1.0  -0.5667
  O  O32  1  0.076800  0.727300  0.437200  1.0  -0.588
  O  O33  1  0.314000  0.551100  0.890330  1.0  -0.5683
  O  O34  1  0.650500  0.923200  0.770530  1.0  -0.5889
  O  O35  1  0.237100  0.686000  0.223670  1.0  -0.5674
  O  O36  1  0.272700  0.349500  0.103870  1.0  -0.5872
  O  O37  1  0.551100  0.237100  0.557000  1.0  -0.5671
  O  O38  1  0.923200  0.272700  0.437200  1.0  -0.588
  O  O39  1  0.686000  0.448900  0.890330  1.0  -0.5675
  O  O40  1  0.349500  0.076800  0.770530  1.0  -0.5893
  O  O41  1  0.762900  0.314000  0.223670  1.0  -0.5684
  O  O42  1  0.727300  0.650500  0.103870  1.0  -0.588
  O  O43  1  0.686000  0.237100  0.776330  1.0  -0.5673
  O  O44  1  0.349500  0.272700  0.896130  1.0  -0.5881
  O  O45  1  0.762900  0.448900  0.443000  1.0  -0.5676
  O  O46  1  0.727300  0.076800  0.562800  1.0  -0.5893
  O  O47  1  0.551100  0.314000  0.109670  1.0  -0.5679
  O  O48  1  0.923200  0.650500  0.229470  1.0  -0.5875
  O  O49  1  0.314000  0.762900  0.776330  1.0  -0.5665
  O  O50  1  0.650500  0.727300  0.896130  1.0  -0.5879
  O  O51  1  0.237100  0.551100  0.443000  1.0  -0.5684
  O  O52  1  0.272700  0.923200  0.562800  1.0  -0.5887
  O  O53  1  0.448900  0.686000  0.109670  1.0  -0.5686
  O  O54  1  0.076800  0.349500  0.229470  1.0  -0.588
