# generated using pymatgen
data_TiH4C4NO8
_symmetry_space_group_name_H-M   'P 1'
_cell_length_a   8.93100000
_cell_length_b   8.93100000
_cell_length_c   10.89300000
_cell_angle_alpha   90.00000000
_cell_angle_beta   90.00000000
_cell_angle_gamma   120.00000000
_symmetry_Int_Tables_number   1
_chemical_formula_structural   TiH4C4NO8
_chemical_formula_sum   'Ti3 H12 C12 N3 O24'
_cell_volume   752.45115655
_cell_formula_units_Z   3
loop_
 _symmetry_equiv_pos_site_id
 _symmetry_equiv_pos_as_xyz
  1  'x, y, z'
loop_
 _atom_site_type_symbol
 _atom_site_label
 _atom_site_symmetry_multiplicity
 _atom_site_fract_x
 _atom_site_fract_y
 _atom_site_fract_z
 _atom_site_occupancy
 _atom_site_charge
  Ti  Ti1  1  0.000000  0.500000  0.166670  1.0  1.5958
  Ti  Ti2  1  0.500000  0.000000  0.833330  1.0  1.5958
  Ti  Ti3  1  0.500000  0.500000  0.500000  1.0  1.5959
  H  H4  1  0.893860  0.913890  0.883610  1.0  0.4146
  H  H5  1  0.106140  0.086110  0.883610  1.0  0.4129
  H  H6  1  0.979970  0.086110  0.783060  1.0  0.4131
  H  H7  1  0.020030  0.913890  0.783060  1.0  0.4102
  H  H8  1  0.020030  0.106140  0.550280  1.0  0.4153
  H  H9  1  0.979970  0.893860  0.550280  1.0  0.4138
  H  H10  1  0.106140  0.020030  0.449720  1.0  0.4194
  H  H11  1  0.893860  0.979970  0.449720  1.0  0.4193
  H  H12  1  0.086110  0.979970  0.216940  1.0  0.4183
  H  H13  1  0.913890  0.020030  0.216940  1.0  0.4175
  H  H14  1  0.913890  0.893860  0.116390  1.0  0.4155
  H  H15  1  0.086110  0.106140  0.116390  1.0  0.4135
  C  C16  1  0.308370  0.616740  0.333333  1.0  0.5344
  C  C17  1  0.210250  0.420500  0.333333  1.0  0.5367
  C  C18  1  0.308370  0.691630  0.000000  1.0  0.5329
  C  C19  1  0.210250  0.789750  0.000000  1.0  0.5351
  C  C20  1  0.383260  0.691630  0.666667  1.0  0.5331
  C  C21  1  0.579500  0.789750  0.666667  1.0  0.5355
  C  C22  1  0.691630  0.383260  0.333333  1.0  0.535
  C  C23  1  0.789750  0.579500  0.333333  1.0  0.5375
  C  C24  1  0.691630  0.308370  0.000000  1.0  0.5341
  C  C25  1  0.789750  0.210250  0.000000  1.0  0.535
  C  C26  1  0.616740  0.308370  0.666667  1.0  0.5336
  C  C27  1  0.420500  0.210250  0.666667  1.0  0.5347
  N  N28  1  0.000000  0.000000  0.833330  1.0  -0.7834
  N  N29  1  0.000000  0.000000  0.500000  1.0  -0.7836
  N  N30  1  0.000000  0.000000  0.166670  1.0  -0.7835
  O  O31  1  0.237130  0.686510  0.276150  1.0  -0.5648
  O  O32  1  0.075380  0.348110  0.270090  1.0  -0.5876
  O  O33  1  0.449380  0.762870  0.942820  1.0  -0.5642
  O  O34  1  0.272730  0.924620  0.936760  1.0  -0.589
  O  O35  1  0.313490  0.550620  0.609480  1.0  -0.5659
  O  O36  1  0.651890  0.727270  0.603420  1.0  -0.5882
  O  O37  1  0.762870  0.313490  0.276150  1.0  -0.5658
  O  O38  1  0.924620  0.651890  0.270090  1.0  -0.588
  O  O39  1  0.550620  0.237130  0.942820  1.0  -0.565
  O  O40  1  0.727270  0.075380  0.936760  1.0  -0.5893
  O  O41  1  0.686510  0.449380  0.609480  1.0  -0.5648
  O  O42  1  0.348110  0.272730  0.603420  1.0  -0.5875
  O  O43  1  0.550620  0.313490  0.390520  1.0  -0.5652
  O  O44  1  0.727270  0.651890  0.396580  1.0  -0.5876
  O  O45  1  0.686510  0.237130  0.723850  1.0  -0.5643
  O  O46  1  0.348110  0.075380  0.729910  1.0  -0.5888
  O  O47  1  0.762870  0.449380  0.057180  1.0  -0.5655
  O  O48  1  0.924620  0.272730  0.063240  1.0  -0.5879
  O  O49  1  0.449380  0.686510  0.390520  1.0  -0.5657
  O  O50  1  0.272730  0.348110  0.396580  1.0  -0.5875
  O  O51  1  0.313490  0.762870  0.723850  1.0  -0.5644
  O  O52  1  0.651890  0.924620  0.729910  1.0  -0.5886
  O  O53  1  0.237130  0.550620  0.057180  1.0  -0.5655
  O  O54  1  0.075380  0.727270  0.063240  1.0  -0.5871
