# generated using pymatgen
data_TiH4C4NO8
_symmetry_space_group_name_H-M   'P 1'
_cell_length_a   8.94700000
_cell_length_b   8.94700000
_cell_length_c   10.89800000
_cell_angle_alpha   90.00000000
_cell_angle_beta   90.00000000
_cell_angle_gamma   120.00000000
_symmetry_Int_Tables_number   1
_chemical_formula_structural   TiH4C4NO8
_chemical_formula_sum   'Ti3 H12 C12 N3 O24'
_cell_volume   755.49624469
_cell_formula_units_Z   3
loop_
 _symmetry_equiv_pos_site_id
 _symmetry_equiv_pos_as_xyz
  1  'x, y, z'
loop_
 _atom_site_type_symbol
 _atom_site_label
 _atom_site_symmetry_multiplicity
 _atom_site_fract_x
 _atom_site_fract_y
 _atom_site_fract_z
 _atom_site_occupancy
 _atom_site_charge
  Ti  Ti1  1  0.000000  0.500000  0.166670  1.0  1.596
  Ti  Ti2  1  0.500000  0.000000  0.833330  1.0  1.596
  Ti  Ti3  1  0.500000  0.500000  0.500000  1.0  1.5856
  H  H4  1  0.895290  0.910300  0.882840  1.0  0.4147
  H  H5  1  0.104710  0.089700  0.882840  1.0  0.4143
  H  H6  1  0.984990  0.089700  0.783830  1.0  0.4135
  H  H7  1  0.015010  0.910300  0.783830  1.0  0.4103
  H  H8  1  0.015010  0.104710  0.549510  1.0  0.4156
  H  H9  1  0.984990  0.895290  0.549510  1.0  0.4151
  H  H10  1  0.104710  0.015010  0.450490  1.0  0.4183
  H  H11  1  0.895290  0.984990  0.450490  1.0  0.4173
  H  H12  1  0.089700  0.984990  0.216170  1.0  0.4178
  H  H13  1  0.910300  0.015010  0.216170  1.0  0.4151
  H  H14  1  0.910300  0.895290  0.117160  1.0  0.4149
  H  H15  1  0.089700  0.104710  0.117160  1.0  0.4137
  C  C16  1  0.308470  0.616940  0.333333  1.0  0.5329
  C  C17  1  0.210520  0.421040  0.333333  1.0  0.5399
  C  C18  1  0.308470  0.691530  0.000000  1.0  0.5326
  C  C19  1  0.210520  0.789480  0.000000  1.0  0.5385
  C  C20  1  0.383060  0.691530  0.666667  1.0  0.5332
  C  C21  1  0.578960  0.789480  0.666667  1.0  0.5386
  C  C22  1  0.691530  0.383060  0.333333  1.0  0.5344
  C  C23  1  0.789480  0.578960  0.333333  1.0  0.5407
  C  C24  1  0.691530  0.308470  0.000000  1.0  0.5339
  C  C25  1  0.789480  0.210520  0.000000  1.0  0.5381
  C  C26  1  0.616940  0.308470  0.666667  1.0  0.5336
  C  C27  1  0.421040  0.210520  0.666667  1.0  0.5382
  N  N28  1  0.000000  0.000000  0.833330  1.0  -0.7915
  N  N29  1  0.000000  0.000000  0.500000  1.0  -0.7896
  N  N30  1  0.000000  0.000000  0.166670  1.0  -0.7903
  O  O31  1  0.237100  0.686000  0.276290  1.0  -0.5642
  O  O32  1  0.076100  0.348500  0.269990  1.0  -0.5866
  O  O33  1  0.448900  0.762900  0.942960  1.0  -0.5642
  O  O34  1  0.272400  0.923900  0.936660  1.0  -0.5881
  O  O35  1  0.314000  0.551100  0.609620  1.0  -0.5659
  O  O36  1  0.651500  0.727600  0.603320  1.0  -0.587
  O  O37  1  0.762900  0.314000  0.276290  1.0  -0.5652
  O  O38  1  0.923900  0.651500  0.269990  1.0  -0.5869
  O  O39  1  0.551100  0.237100  0.942960  1.0  -0.5644
  O  O40  1  0.727600  0.076100  0.936660  1.0  -0.5884
  O  O41  1  0.686000  0.448900  0.609620  1.0  -0.5645
  O  O42  1  0.348500  0.272400  0.603320  1.0  -0.5863
  O  O43  1  0.551100  0.314000  0.390380  1.0  -0.5651
  O  O44  1  0.727600  0.651500  0.396680  1.0  -0.5862
  O  O45  1  0.686000  0.237100  0.723710  1.0  -0.564
  O  O46  1  0.348500  0.076100  0.730010  1.0  -0.5878
  O  O47  1  0.762900  0.448900  0.057040  1.0  -0.5651
  O  O48  1  0.923900  0.272400  0.063340  1.0  -0.5869
  O  O49  1  0.448900  0.686000  0.390380  1.0  -0.5653
  O  O50  1  0.272400  0.348500  0.396680  1.0  -0.5861
  O  O51  1  0.314000  0.762900  0.723710  1.0  -0.5644
  O  O52  1  0.651500  0.923900  0.730010  1.0  -0.5874
  O  O53  1  0.237100  0.551100  0.057040  1.0  -0.5657
  O  O54  1  0.076100  0.727600  0.063340  1.0  -0.586
