# generated using pymatgen
data_ZnH4C6N3O2
_symmetry_space_group_name_H-M   'P 1'
_cell_length_a   10.03270000
_cell_length_b   25.65100000
_cell_length_c   9.51210000
_cell_angle_alpha   90.00000000
_cell_angle_beta   90.00000000
_cell_angle_gamma   90.00000000
_symmetry_Int_Tables_number   1
_chemical_formula_structural   ZnH4C6N3O2
_chemical_formula_sum   'Zn8 H32 C48 N24 O16'
_cell_volume   2447.92740348
_cell_formula_units_Z   8
loop_
 _symmetry_equiv_pos_site_id
 _symmetry_equiv_pos_as_xyz
  1  'x, y, z'
loop_
 _atom_site_type_symbol
 _atom_site_label
 _atom_site_symmetry_multiplicity
 _atom_site_fract_x
 _atom_site_fract_y
 _atom_site_fract_z
 _atom_site_occupancy
 _atom_site_charge
  Zn  Zn1  1  0.392450  0.451860  0.078230  1.0  0.8607
  Zn  Zn2  1  0.107550  0.548140  0.578230  1.0  0.8618
  Zn  Zn3  1  0.607550  0.951860  0.921770  1.0  0.8602
  Zn  Zn4  1  0.892450  0.048140  0.421770  1.0  0.8603
  Zn  Zn5  1  0.607550  0.548140  0.921770  1.0  0.8607
  Zn  Zn6  1  0.892450  0.451860  0.421770  1.0  0.8599
  Zn  Zn7  1  0.392450  0.048140  0.078230  1.0  0.8613
  Zn  Zn8  1  0.107550  0.951860  0.578230  1.0  0.861
  H  H9  1  0.104000  0.424500  0.183600  1.0  0.0556
  H  H10  1  0.342300  0.522500  0.360600  1.0  0.0646
  H  H11  1  0.123400  0.327600  0.981000  1.0  0.0936
  H  H12  1  0.396000  0.575500  0.683600  1.0  0.0555
  H  H13  1  0.157700  0.477500  0.860600  1.0  0.0641
  H  H14  1  0.376600  0.672400  0.481000  1.0  0.0936
  H  H15  1  0.896000  0.924500  0.816400  1.0  0.0555
  H  H16  1  0.657700  0.022500  0.639400  1.0  0.0648
  H  H17  1  0.876600  0.827600  0.019000  1.0  0.0932
  H  H18  1  0.604000  0.075500  0.316400  1.0  0.0545
  H  H19  1  0.842300  0.977500  0.139400  1.0  0.0646
  H  H20  1  0.623400  0.172400  0.519000  1.0  0.0935
  H  H21  1  0.896000  0.575500  0.816400  1.0  0.0547
  H  H22  1  0.657700  0.477500  0.639400  1.0  0.0645
  H  H23  1  0.876600  0.672400  0.019000  1.0  0.0933
  H  H24  1  0.604000  0.424500  0.316400  1.0  0.0555
  H  H25  1  0.842300  0.522500  0.139400  1.0  0.0648
  H  H26  1  0.623400  0.327600  0.519000  1.0  0.0937
  H  H27  1  0.104000  0.075500  0.183600  1.0  0.0552
  H  H28  1  0.342300  0.977500  0.360600  1.0  0.0642
  H  H29  1  0.123400  0.172400  0.981000  1.0  0.0935
  H  H30  1  0.396000  0.924500  0.683600  1.0  0.0557
  H  H31  1  0.157700  0.022500  0.860600  1.0  0.0645
  H  H32  1  0.376600  0.827600  0.481000  1.0  0.0933
  H  H33  1  0.426100  0.250000  0.157100  1.0  0.0993
  H  H34  1  0.016600  0.250000  0.934100  1.0  0.1016
  H  H35  1  0.073900  0.750000  0.657100  1.0  0.0994
  H  H36  1  0.483400  0.750000  0.434100  1.0  0.1025
  H  H37  1  0.573900  0.750000  0.842900  1.0  0.0998
  H  H38  1  0.983400  0.750000  0.065900  1.0  0.1024
  H  H39  1  0.926100  0.250000  0.342900  1.0  0.0995
  H  H40  1  0.516600  0.250000  0.565900  1.0  0.1024
  C  C41  1  0.139100  0.449200  0.244800  1.0  0.2589
  C  C42  1  0.267800  0.502300  0.339800  1.0  0.2424
  C  C43  1  0.354600  0.348500  0.100300  1.0  0.7002
  C  C44  1  0.285400  0.297200  0.072100  1.0  -0.1171
  C  C45  1  0.163900  0.296300  0.005700  1.0  -0.0773
  C  C46  1  0.360900  0.550800  0.744800  1.0  0.2581
  C  C47  1  0.232200  0.497700  0.839800  1.0  0.2427
  C  C48  1  0.145400  0.651500  0.600300  1.0  0.6994
  C  C49  1  0.214600  0.702800  0.572100  1.0  -0.1164
  C  C50  1  0.336100  0.703700  0.505700  1.0  -0.0763
  C  C51  1  0.860900  0.949200  0.755200  1.0  0.2582
  C  C52  1  0.732200  0.002300  0.660200  1.0  0.2427
  C  C53  1  0.645400  0.848500  0.899700  1.0  0.7002
  C  C54  1  0.714600  0.797200  0.927900  1.0  -0.1154
  C  C55  1  0.836100  0.796300  0.994300  1.0  -0.0775
  C  C56  1  0.639100  0.050800  0.255200  1.0  0.2584
  C  C57  1  0.767800  0.997700  0.160200  1.0  0.242
  C  C58  1  0.854600  0.151500  0.399700  1.0  0.6994
  C  C59  1  0.785400  0.202800  0.427900  1.0  -0.1168
  C  C60  1  0.663900  0.203700  0.494300  1.0  -0.0769
  C  C61  1  0.860900  0.550800  0.755200  1.0  0.258
  C  C62  1  0.732200  0.497700  0.660200  1.0  0.2425
  C  C63  1  0.645400  0.651500  0.899700  1.0  0.6995
  C  C64  1  0.714600  0.702800  0.927900  1.0  -0.1162
  C  C65  1  0.836100  0.703700  0.994300  1.0  -0.0764
  C  C66  1  0.639100  0.449200  0.255200  1.0  0.2588
  C  C67  1  0.767800  0.502300  0.160200  1.0  0.2427
  C  C68  1  0.854600  0.348500  0.399700  1.0  0.7002
  C  C69  1  0.785400  0.297200  0.427900  1.0  -0.1168
  C  C70  1  0.663900  0.296300  0.494300  1.0  -0.0778
  C  C71  1  0.139100  0.050800  0.244800  1.0  0.2587
  C  C72  1  0.267800  0.997700  0.339800  1.0  0.2421
  C  C73  1  0.354600  0.151500  0.100300  1.0  0.6994
  C  C74  1  0.285400  0.202800  0.072100  1.0  -0.1171
  C  C75  1  0.163900  0.203700  0.005700  1.0  -0.0762
  C  C76  1  0.360900  0.949200  0.744800  1.0  0.2582
  C  C77  1  0.232200  0.002300  0.839800  1.0  0.2424
  C  C78  1  0.145400  0.848500  0.600300  1.0  0.7003
  C  C79  1  0.214600  0.797200  0.572100  1.0  -0.1156
  C  C80  1  0.336100  0.796300  0.505700  1.0  -0.0776
  C  C81  1  0.345600  0.250000  0.108500  1.0  0.0032
  C  C82  1  0.100800  0.250000  0.975000  1.0  -0.1537
  C  C83  1  0.154400  0.750000  0.608500  1.0  0.0014
  C  C84  1  0.399200  0.750000  0.475000  1.0  -0.1523
  C  C85  1  0.654400  0.750000  0.891500  1.0  0.0015
  C  C86  1  0.899200  0.750000  0.025000  1.0  -0.1508
  C  C87  1  0.845600  0.250000  0.391500  1.0  0.003
  C  C88  1  0.600800  0.250000  0.525000  1.0  -0.1545
  N  N89  1  0.261500  0.469100  0.230700  1.0  -0.4262
  N  N90  1  0.073800  0.467400  0.351000  1.0  -0.2718
  N  N91  1  0.156800  0.503160  0.414000  1.0  -0.2732
  N  N92  1  0.238500  0.530900  0.730700  1.0  -0.4266
  N  N93  1  0.426200  0.532600  0.851000  1.0  -0.2706
  N  N94  1  0.343200  0.496840  0.914000  1.0  -0.2734
  N  N95  1  0.738500  0.969100  0.769300  1.0  -0.4262
  N  N96  1  0.926200  0.967400  0.649000  1.0  -0.2707
  N  N97  1  0.843200  0.003160  0.586000  1.0  -0.2735
  N  N98  1  0.761500  0.030900  0.269300  1.0  -0.4256
  N  N99  1  0.573800  0.032600  0.149000  1.0  -0.2706
  N  N100  1  0.656800  0.996840  0.086000  1.0  -0.2727
  N  N101  1  0.738500  0.530900  0.769300  1.0  -0.4262
  N  N102  1  0.926200  0.532600  0.649000  1.0  -0.2703
  N  N103  1  0.843200  0.496840  0.586000  1.0  -0.2731
  N  N104  1  0.761500  0.469100  0.269300  1.0  -0.4256
  N  N105  1  0.573800  0.467400  0.149000  1.0  -0.271
  N  N106  1  0.656800  0.503160  0.086000  1.0  -0.2729
  N  N107  1  0.261500  0.030900  0.230700  1.0  -0.4262
  N  N108  1  0.073800  0.032600  0.351000  1.0  -0.2717
  N  N109  1  0.156800  0.996840  0.414000  1.0  -0.2733
  N  N110  1  0.238500  0.969100  0.730700  1.0  -0.4265
  N  N111  1  0.426200  0.967400  0.851000  1.0  -0.2706
  N  N112  1  0.343200  0.003160  0.914000  1.0  -0.2738
  O  O113  1  0.323300  0.384810  0.017800  1.0  -0.6094
  O  O114  1  0.433000  0.353200  0.198500  1.0  -0.5284
  O  O115  1  0.176700  0.615190  0.517800  1.0  -0.6101
  O  O116  1  0.067000  0.646800  0.698500  1.0  -0.5276
  O  O117  1  0.676700  0.884810  0.982200  1.0  -0.6071
  O  O118  1  0.567000  0.853200  0.801500  1.0  -0.5276
  O  O119  1  0.823300  0.115190  0.482200  1.0  -0.6075
  O  O120  1  0.933000  0.146800  0.301500  1.0  -0.5283
  O  O121  1  0.676700  0.615190  0.982200  1.0  -0.6075
  O  O122  1  0.567000  0.646800  0.801500  1.0  -0.5277
  O  O123  1  0.823300  0.384810  0.482200  1.0  -0.6073
  O  O124  1  0.933000  0.353200  0.301500  1.0  -0.5281
  O  O125  1  0.323300  0.115190  0.017800  1.0  -0.6098
  O  O126  1  0.433000  0.146800  0.198500  1.0  -0.5286
  O  O127  1  0.176700  0.884810  0.517800  1.0  -0.6097
  O  O128  1  0.067000  0.853200  0.698500  1.0  -0.5273
