# generated using pymatgen
data_Cu2(CN)3
_symmetry_space_group_name_H-M   'P 1'
_cell_length_a   12.06480000
_cell_length_b   8.19180000
_cell_length_c   7.48070000
_cell_angle_alpha   90.00000000
_cell_angle_beta   97.03500000
_cell_angle_gamma   90.00000000
_symmetry_Int_Tables_number   1
_chemical_formula_structural   Cu2(CN)3
_chemical_formula_sum   'Cu8 C12 N12'
_cell_volume   733.76967506
_cell_formula_units_Z   4
loop_
 _symmetry_equiv_pos_site_id
 _symmetry_equiv_pos_as_xyz
  1  'x, y, z'
loop_
 _atom_site_type_symbol
 _atom_site_label
 _atom_site_symmetry_multiplicity
 _atom_site_fract_x
 _atom_site_fract_y
 _atom_site_fract_z
 _atom_site_occupancy
 _atom_site_charge
  Cu  Cu1  1  0.432500  0.383200  0.881800  1.0  0.438
  Cu  Cu2  1  0.105800  0.212700  0.181600  1.0  0.5414
  Cu  Cu3  1  0.567500  0.883200  0.618200  1.0  0.4397
  Cu  Cu4  1  0.894200  0.712700  0.318400  1.0  0.5406
  Cu  Cu5  1  0.567500  0.616800  0.118200  1.0  0.4369
  Cu  Cu6  1  0.894200  0.787300  0.818400  1.0  0.5408
  Cu  Cu7  1  0.432500  0.116800  0.381800  1.0  0.4405
  Cu  Cu8  1  0.105800  0.287300  0.681600  1.0  0.5417
  C  C9  1  0.032500  0.017000  0.234300  1.0  0.0356
  C  C10  1  0.543300  0.077500  0.740900  1.0  0.073
  C  C11  1  0.232100  0.262600  0.064100  1.0  0.1115
  C  C12  1  0.967500  0.517000  0.265700  1.0  0.035
  C  C13  1  0.456700  0.577500  0.759100  1.0  0.0736
  C  C14  1  0.767900  0.762600  0.435900  1.0  0.1127
  C  C15  1  0.967500  0.983000  0.765700  1.0  0.036
  C  C16  1  0.456700  0.922500  0.259100  1.0  0.0679
  C  C17  1  0.767900  0.737400  0.935900  1.0  0.1083
  C  C18  1  0.032500  0.483000  0.734300  1.0  0.037
  C  C19  1  0.543300  0.422500  0.240900  1.0  0.0682
  C  C20  1  0.232100  0.237400  0.564100  1.0  0.1057
  N  N21  1  0.526800  0.190800  0.826000  1.0  -0.4389
  N  N22  1  0.308600  0.303000  0.995900  1.0  -0.3862
  N  N23  1  0.978500  0.907500  0.260500  1.0  -0.3661
  N  N24  1  0.473200  0.690800  0.674000  1.0  -0.4388
  N  N25  1  0.691400  0.803000  0.504100  1.0  -0.3862
  N  N26  1  0.021500  0.407500  0.239500  1.0  -0.366
  N  N27  1  0.473200  0.809200  0.174000  1.0  -0.4384
  N  N28  1  0.691400  0.697000  0.004100  1.0  -0.3865
  N  N29  1  0.021500  0.092500  0.739500  1.0  -0.3766
  N  N30  1  0.526800  0.309200  0.326000  1.0  -0.4379
  N  N31  1  0.308600  0.197000  0.495900  1.0  -0.3861
  N  N32  1  0.978500  0.592500  0.760500  1.0  -0.3765
