# generated using pymatgen
data_ZnH8C12(IN2)2
_symmetry_space_group_name_H-M   'P 1'
_cell_length_a   13.72470000
_cell_length_b   27.78700000
_cell_length_c   45.88100000
_cell_angle_alpha   90.00000000
_cell_angle_beta   90.00000000
_cell_angle_gamma   90.00000000
_symmetry_Int_Tables_number   1
_chemical_formula_structural   ZnH8C12(IN2)2
_chemical_formula_sum   'Zn24 H192 C288 I48 N96'
_cell_volume   17497.55616897
_cell_formula_units_Z   24
loop_
 _symmetry_equiv_pos_site_id
 _symmetry_equiv_pos_as_xyz
  1  'x, y, z'
loop_
 _atom_site_type_symbol
 _atom_site_label
 _atom_site_symmetry_multiplicity
 _atom_site_fract_x
 _atom_site_fract_y
 _atom_site_fract_z
 _atom_site_occupancy
 _atom_site_charge
  Zn  Zn1  1  0.848290  0.745540  0.813490  1.0  0.8624
  Zn  Zn2  1  0.144320  0.947500  0.574740  1.0  0.8433
  Zn  Zn3  1  0.141540  0.472520  0.590390  1.0  0.8362
  Zn  Zn4  1  0.151710  0.754460  0.313490  1.0  0.8654
  Zn  Zn5  1  0.855680  0.552500  0.074740  1.0  0.844
  Zn  Zn6  1  0.858460  0.027480  0.090390  1.0  0.8347
  Zn  Zn7  1  0.348290  0.254460  0.686510  1.0  0.864
  Zn  Zn8  1  0.644320  0.052500  0.925260  1.0  0.8443
  Zn  Zn9  1  0.641540  0.527480  0.909610  1.0  0.8363
  Zn  Zn10  1  0.651710  0.245540  0.186510  1.0  0.8645
  Zn  Zn11  1  0.355680  0.447500  0.425260  1.0  0.842
  Zn  Zn12  1  0.358460  0.972520  0.409610  1.0  0.8355
  Zn  Zn13  1  0.151710  0.254460  0.186510  1.0  0.8654
  Zn  Zn14  1  0.855680  0.052500  0.425260  1.0  0.8434
  Zn  Zn15  1  0.858460  0.527480  0.409610  1.0  0.8349
  Zn  Zn16  1  0.848290  0.245540  0.686510  1.0  0.8625
  Zn  Zn17  1  0.144320  0.447500  0.925260  1.0  0.8436
  Zn  Zn18  1  0.141540  0.972520  0.909610  1.0  0.8364
  Zn  Zn19  1  0.651710  0.745540  0.313490  1.0  0.8644
  Zn  Zn20  1  0.355680  0.947500  0.074740  1.0  0.8416
  Zn  Zn21  1  0.358460  0.472520  0.090390  1.0  0.8352
  Zn  Zn22  1  0.348290  0.754460  0.813490  1.0  0.864
  Zn  Zn23  1  0.644320  0.552500  0.574740  1.0  0.8447
  Zn  Zn24  1  0.641540  0.027480  0.590390  1.0  0.8363
  H  H25  1  0.950300  0.806000  0.768500  1.0  0.0879
  H  H26  1  0.007700  0.799000  0.720800  1.0  0.1211
  H  H27  1  0.984500  0.654000  0.729100  1.0  0.1227
  H  H28  1  0.924900  0.665200  0.775900  1.0  0.093
  H  H29  1  0.046000  0.847900  0.660900  1.0  0.1237
  H  H30  1  0.071900  0.915900  0.633200  1.0  0.0864
  H  H31  1  0.136200  0.838700  0.564100  1.0  0.0957
  H  H32  1  0.107900  0.768000  0.589100  1.0  0.1239
  H  H33  1  0.087900  0.651200  0.593400  1.0  0.124
  H  H34  1  0.110700  0.575800  0.572800  1.0  0.0836
  H  H35  1  0.083600  0.513000  0.649200  1.0  0.0904
  H  H36  1  0.055600  0.586200  0.671800  1.0  0.1164
  H  H37  1  0.809400  0.688600  0.866600  1.0  0.0994
  H  H38  1  0.891100  0.652200  0.905400  1.0  0.123
  H  H39  1  0.146400  0.683600  0.865600  1.0  0.1207
  H  H40  1  0.058200  0.721900  0.829300  1.0  0.0807
  H  H41  1  0.891500  0.617600  0.972600  1.0  0.1308
  H  H42  1  0.135400  0.555700  0.005000  1.0  0.1244
  H  H43  1  0.345900  0.570900  0.969100  1.0  0.1171
  H  H44  1  0.326300  0.606800  0.884000  1.0  0.1217
  H  H45  1  0.049900  0.534800  0.045900  1.0  0.0814
  H  H46  1  0.811900  0.594700  0.015200  1.0  0.0866
  H  H47  1  0.503500  0.542600  0.960600  1.0  0.1024
  H  H48  1  0.484000  0.578200  0.877400  1.0  0.0926
  H  H49  1  0.049700  0.694000  0.268500  1.0  0.0886
  H  H50  1  0.992300  0.701000  0.220800  1.0  0.1207
  H  H51  1  0.015500  0.846000  0.229100  1.0  0.1234
  H  H52  1  0.075100  0.834800  0.275900  1.0  0.0929
  H  H53  1  0.954000  0.652100  0.160900  1.0  0.1239
  H  H54  1  0.928100  0.584100  0.133200  1.0  0.0872
  H  H55  1  0.863800  0.661300  0.064100  1.0  0.0962
  H  H56  1  0.892100  0.732000  0.089100  1.0  0.1239
  H  H57  1  0.912100  0.848800  0.093400  1.0  0.1238
  H  H58  1  0.889300  0.924200  0.072800  1.0  0.0836
  H  H59  1  0.916400  0.987000  0.149200  1.0  0.0901
  H  H60  1  0.944400  0.913800  0.171800  1.0  0.1164
  H  H61  1  0.190600  0.811400  0.366600  1.0  0.0972
  H  H62  1  0.108900  0.847800  0.405400  1.0  0.1229
  H  H63  1  0.853600  0.816400  0.365600  1.0  0.1223
  H  H64  1  0.941800  0.778100  0.329300  1.0  0.0807
  H  H65  1  0.108500  0.882400  0.472600  1.0  0.1306
  H  H66  1  0.864600  0.944300  0.505000  1.0  0.1243
  H  H67  1  0.654100  0.929100  0.469100  1.0  0.1171
  H  H68  1  0.673700  0.893200  0.384000  1.0  0.1216
  H  H69  1  0.950100  0.965200  0.545900  1.0  0.082
  H  H70  1  0.188100  0.905300  0.515200  1.0  0.086
  H  H71  1  0.496500  0.957400  0.460600  1.0  0.1014
  H  H72  1  0.516000  0.921800  0.377400  1.0  0.0922
  H  H73  1  0.450300  0.194000  0.731500  1.0  0.0883
  H  H74  1  0.507700  0.201000  0.779200  1.0  0.1209
  H  H75  1  0.484500  0.346000  0.770900  1.0  0.1226
  H  H76  1  0.424900  0.334800  0.724100  1.0  0.0931
  H  H77  1  0.546000  0.152100  0.839100  1.0  0.1237
  H  H78  1  0.571900  0.084100  0.866800  1.0  0.0867
  H  H79  1  0.636200  0.161300  0.935900  1.0  0.0957
  H  H80  1  0.607900  0.232000  0.910900  1.0  0.1238
  H  H81  1  0.587900  0.348800  0.906600  1.0  0.1239
  H  H82  1  0.610700  0.424200  0.927200  1.0  0.085
  H  H83  1  0.583600  0.487000  0.850800  1.0  0.0898
  H  H84  1  0.555600  0.413800  0.828200  1.0  0.1163
  H  H85  1  0.309400  0.311400  0.633400  1.0  0.0994
  H  H86  1  0.391100  0.347800  0.594600  1.0  0.1228
  H  H87  1  0.646400  0.316400  0.634400  1.0  0.1206
  H  H88  1  0.558200  0.278100  0.670700  1.0  0.0804
  H  H89  1  0.391500  0.382400  0.527400  1.0  0.1306
  H  H90  1  0.635400  0.444300  0.495000  1.0  0.1244
  H  H91  1  0.845900  0.429100  0.530900  1.0  0.1168
  H  H92  1  0.826300  0.393200  0.616000  1.0  0.1218
  H  H93  1  0.549900  0.465200  0.454100  1.0  0.0819
  H  H94  1  0.311900  0.405300  0.484800  1.0  0.0868
  H  H95  1  0.003500  0.457400  0.539400  1.0  0.1015
  H  H96  1  0.984000  0.421800  0.622600  1.0  0.0928
  H  H97  1  0.549700  0.306000  0.231500  1.0  0.0875
  H  H98  1  0.492300  0.299000  0.279200  1.0  0.1211
  H  H99  1  0.515500  0.154000  0.270900  1.0  0.1229
  H  H100  1  0.575100  0.165200  0.224100  1.0  0.093
  H  H101  1  0.454000  0.347900  0.339100  1.0  0.1241
  H  H102  1  0.428100  0.415900  0.366800  1.0  0.0861
  H  H103  1  0.363800  0.338700  0.435900  1.0  0.0962
  H  H104  1  0.392100  0.268000  0.410900  1.0  0.1241
  H  H105  1  0.412100  0.151200  0.406600  1.0  0.1237
  H  H106  1  0.389300  0.075800  0.427200  1.0  0.0848
  H  H107  1  0.416400  0.013000  0.350800  1.0  0.0895
  H  H108  1  0.444400  0.086200  0.328200  1.0  0.1164
  H  H109  1  0.690600  0.188600  0.133400  1.0  0.0971
  H  H110  1  0.608900  0.152200  0.094600  1.0  0.123
  H  H111  1  0.353600  0.183600  0.134400  1.0  0.1221
  H  H112  1  0.441800  0.221900  0.170700  1.0  0.0804
  H  H113  1  0.608500  0.117600  0.027400  1.0  0.1299
  H  H114  1  0.364600  0.055700  0.995000  1.0  0.1248
  H  H115  1  0.154100  0.070900  0.030900  1.0  0.117
  H  H116  1  0.173700  0.106800  0.116000  1.0  0.1215
  H  H117  1  0.450100  0.034800  0.954100  1.0  0.0811
  H  H118  1  0.688100  0.094700  0.984800  1.0  0.0863
  H  H119  1  0.996500  0.042600  0.039400  1.0  0.1011
  H  H120  1  0.016000  0.078200  0.122600  1.0  0.0921
  H  H121  1  0.049700  0.194000  0.231500  1.0  0.0882
  H  H122  1  0.992300  0.201000  0.279200  1.0  0.1207
  H  H123  1  0.015500  0.346000  0.270900  1.0  0.1231
  H  H124  1  0.075100  0.334800  0.224100  1.0  0.0931
  H  H125  1  0.954000  0.152100  0.339100  1.0  0.1239
  H  H126  1  0.928100  0.084100  0.366800  1.0  0.0869
  H  H127  1  0.863800  0.161300  0.435900  1.0  0.0962
  H  H128  1  0.892100  0.232000  0.410900  1.0  0.1239
  H  H129  1  0.912100  0.348800  0.406600  1.0  0.1238
  H  H130  1  0.889300  0.424200  0.427200  1.0  0.085
  H  H131  1  0.916400  0.487000  0.350800  1.0  0.0896
  H  H132  1  0.944400  0.413800  0.328200  1.0  0.1163
  H  H133  1  0.190600  0.311400  0.133400  1.0  0.097
  H  H134  1  0.108900  0.347800  0.094600  1.0  0.1229
  H  H135  1  0.853600  0.316400  0.134400  1.0  0.1222
  H  H136  1  0.941800  0.278100  0.170700  1.0  0.0807
  H  H137  1  0.108500  0.382400  0.027400  1.0  0.1301
  H  H138  1  0.864600  0.444300  0.995000  1.0  0.1247
  H  H139  1  0.654100  0.429100  0.030900  1.0  0.117
  H  H140  1  0.673700  0.393200  0.116000  1.0  0.1216
  H  H141  1  0.950100  0.465200  0.954100  1.0  0.0817
  H  H142  1  0.188100  0.405300  0.984800  1.0  0.0861
  H  H143  1  0.496500  0.457400  0.039400  1.0  0.101
  H  H144  1  0.516000  0.421800  0.122600  1.0  0.0925
  H  H145  1  0.950300  0.306000  0.731500  1.0  0.0872
  H  H146  1  0.007700  0.299000  0.779200  1.0  0.1209
  H  H147  1  0.984500  0.154000  0.770900  1.0  0.1227
  H  H148  1  0.924900  0.165200  0.724100  1.0  0.093
  H  H149  1  0.046000  0.347900  0.839100  1.0  0.1239
  H  H150  1  0.071900  0.415900  0.866800  1.0  0.0862
  H  H151  1  0.136200  0.338700  0.935900  1.0  0.0955
  H  H152  1  0.107900  0.268000  0.910900  1.0  0.1238
  H  H153  1  0.087900  0.151200  0.906600  1.0  0.1235
  H  H154  1  0.110700  0.075800  0.927200  1.0  0.0848
  H  H155  1  0.083600  0.013000  0.850800  1.0  0.0896
  H  H156  1  0.055600  0.086200  0.828200  1.0  0.1164
  H  H157  1  0.809400  0.188600  0.633400  1.0  0.0993
  H  H158  1  0.891100  0.152200  0.594600  1.0  0.1227
  H  H159  1  0.146400  0.183600  0.634400  1.0  0.1204
  H  H160  1  0.058200  0.221900  0.670700  1.0  0.0803
  H  H161  1  0.891500  0.117600  0.527400  1.0  0.1303
  H  H162  1  0.135400  0.055700  0.495000  1.0  0.1246
  H  H163  1  0.345900  0.070900  0.530900  1.0  0.117
  H  H164  1  0.326300  0.106800  0.616000  1.0  0.1217
  H  H165  1  0.049900  0.034800  0.454100  1.0  0.0813
  H  H166  1  0.811900  0.094700  0.484800  1.0  0.0865
  H  H167  1  0.503500  0.042600  0.539400  1.0  0.1017
  H  H168  1  0.484000  0.078200  0.622600  1.0  0.0923
  H  H169  1  0.549700  0.806000  0.268500  1.0  0.0881
  H  H170  1  0.492300  0.799000  0.220800  1.0  0.1213
  H  H171  1  0.515500  0.654000  0.229100  1.0  0.123
  H  H172  1  0.575100  0.665200  0.275900  1.0  0.093
  H  H173  1  0.454000  0.847900  0.160900  1.0  0.1238
  H  H174  1  0.428100  0.915900  0.133200  1.0  0.0862
  H  H175  1  0.363800  0.838700  0.064100  1.0  0.0963
  H  H176  1  0.392100  0.768000  0.089100  1.0  0.1241
  H  H177  1  0.412100  0.651200  0.093400  1.0  0.1241
  H  H178  1  0.389300  0.575800  0.072800  1.0  0.0834
  H  H179  1  0.416400  0.513000  0.149200  1.0  0.0904
  H  H180  1  0.444400  0.586200  0.171800  1.0  0.1166
  H  H181  1  0.690600  0.688600  0.366600  1.0  0.0973
  H  H182  1  0.608900  0.652200  0.405400  1.0  0.1232
  H  H183  1  0.353600  0.683600  0.365600  1.0  0.1224
  H  H184  1  0.441800  0.721900  0.329300  1.0  0.0809
  H  H185  1  0.608500  0.617600  0.472600  1.0  0.1308
  H  H186  1  0.364600  0.555700  0.505000  1.0  0.1244
  H  H187  1  0.154100  0.570900  0.469100  1.0  0.1171
  H  H188  1  0.173700  0.606800  0.384000  1.0  0.1215
  H  H189  1  0.450100  0.534800  0.545900  1.0  0.0817
  H  H190  1  0.688100  0.594700  0.515200  1.0  0.0862
  H  H191  1  0.996500  0.542600  0.460600  1.0  0.1017
  H  H192  1  0.016000  0.578200  0.377400  1.0  0.0922
  H  H193  1  0.450300  0.694000  0.768500  1.0  0.0888
  H  H194  1  0.507700  0.701000  0.720800  1.0  0.1208
  H  H195  1  0.484500  0.846000  0.729100  1.0  0.1228
  H  H196  1  0.424900  0.834800  0.775900  1.0  0.0928
  H  H197  1  0.546000  0.652100  0.660900  1.0  0.1239
  H  H198  1  0.571900  0.584100  0.633200  1.0  0.0872
  H  H199  1  0.636200  0.661300  0.564100  1.0  0.0956
  H  H200  1  0.607900  0.732000  0.589100  1.0  0.1236
  H  H201  1  0.587900  0.848800  0.593400  1.0  0.1239
  H  H202  1  0.610700  0.924200  0.572800  1.0  0.0839
  H  H203  1  0.583600  0.987000  0.649200  1.0  0.0902
  H  H204  1  0.555600  0.913800  0.671800  1.0  0.1164
  H  H205  1  0.309400  0.811400  0.866600  1.0  0.0994
  H  H206  1  0.391100  0.847800  0.905400  1.0  0.1228
  H  H207  1  0.646400  0.816400  0.865600  1.0  0.1206
  H  H208  1  0.558200  0.778100  0.829300  1.0  0.0804
  H  H209  1  0.391500  0.882400  0.972600  1.0  0.1307
  H  H210  1  0.635400  0.944300  0.005000  1.0  0.1242
  H  H211  1  0.845900  0.929100  0.969100  1.0  0.1169
  H  H212  1  0.826300  0.893200  0.884000  1.0  0.1218
  H  H213  1  0.549900  0.965200  0.045900  1.0  0.0818
  H  H214  1  0.311900  0.905300  0.015200  1.0  0.0868
  H  H215  1  0.003500  0.957400  0.960600  1.0  0.102
  H  H216  1  0.984000  0.921800  0.877400  1.0  0.0927
  C  C217  1  0.955400  0.774900  0.760050  1.0  0.1331
  C  C218  1  0.990200  0.771100  0.731680  1.0  -0.1172
  C  C219  1  0.998600  0.725900  0.719750  1.0  -0.1117
  C  C220  1  0.976000  0.685600  0.736610  1.0  -0.1496
  C  C221  1  0.941000  0.692600  0.764470  1.0  0.1348
  C  C222  1  0.027000  0.719900  0.688550  1.0  0.4062
  C  C223  1  0.061200  0.756100  0.645520  1.0  0.3923
  C  C224  1  0.059900  0.674200  0.648800  1.0  0.3681
  C  C225  1  0.075800  0.800000  0.628070  1.0  -0.1139
  C  C226  1  0.064400  0.845100  0.640970  1.0  -0.147
  C  C227  1  0.080300  0.885300  0.624320  1.0  0.1316
  C  C228  1  0.117200  0.840400  0.583970  1.0  0.1398
  C  C229  1  0.101400  0.798000  0.598780  1.0  -0.1391
  C  C230  1  0.070700  0.627300  0.635060  1.0  -0.0885
  C  C231  1  0.086700  0.623300  0.605320  1.0  -0.1443
  C  C232  1  0.101000  0.578100  0.593300  1.0  0.1278
  C  C233  1  0.084600  0.541400  0.637800  1.0  0.1422
  C  C234  1  0.068300  0.585000  0.651400  1.0  -0.1364
  C  C235  1  0.878600  0.688200  0.866660  1.0  0.1342
  C  C236  1  0.926800  0.666000  0.889760  1.0  -0.1201
  C  C237  1  0.027500  0.664200  0.889500  1.0  -0.1256
  C  C238  1  0.077300  0.684700  0.866500  1.0  -0.1491
  C  C239  1  0.023800  0.707100  0.844900  1.0  0.1568
  C  C240  1  0.079500  0.640600  0.913860  1.0  0.3532
  C  C241  1  0.078100  0.605900  0.958190  1.0  0.3802
  C  C242  1  0.216600  0.606800  0.931780  1.0  0.3812
  C  C243  1  0.024400  0.590800  0.984920  1.0  -0.0794
  C  C244  1  0.925700  0.601300  0.987660  1.0  -0.1439
  C  C245  1  0.069000  0.564800  0.006800  1.0  -0.1446
  C  C246  1  0.319900  0.591100  0.927100  1.0  -0.0831
  C  C247  1  0.373100  0.572300  0.950100  1.0  -0.1184
  C  C248  1  0.361400  0.593600  0.900000  1.0  -0.1037
  C  C249  1  0.017500  0.552300  0.030980  1.0  0.1385
  C  C250  1  0.879000  0.587200  0.013040  1.0  0.1487
  C  C251  1  0.466800  0.555600  0.944900  1.0  0.1328
  C  C252  1  0.455300  0.576400  0.896200  1.0  0.1362
  C  C253  1  0.044600  0.725100  0.260050  1.0  0.1319
  C  C254  1  0.009800  0.728900  0.231680  1.0  -0.1192
  C  C255  1  0.001400  0.774100  0.219750  1.0  -0.1118
  C  C256  1  0.024000  0.814400  0.236610  1.0  -0.1505
  C  C257  1  0.059000  0.807400  0.264470  1.0  0.1337
  C  C258  1  0.973000  0.780100  0.188550  1.0  0.4062
  C  C259  1  0.938800  0.743900  0.145520  1.0  0.3919
  C  C260  1  0.940100  0.825800  0.148800  1.0  0.368
  C  C261  1  0.924200  0.700000  0.128070  1.0  -0.1132
  C  C262  1  0.935600  0.654900  0.140970  1.0  -0.1467
  C  C263  1  0.919700  0.614700  0.124320  1.0  0.1306
  C  C264  1  0.882800  0.659600  0.083970  1.0  0.1392
  C  C265  1  0.898600  0.702000  0.098780  1.0  -0.1405
  C  C266  1  0.929300  0.872700  0.135060  1.0  -0.0891
  C  C267  1  0.913300  0.876700  0.105320  1.0  -0.1442
  C  C268  1  0.899000  0.921900  0.093300  1.0  0.1285
  C  C269  1  0.915400  0.958600  0.137800  1.0  0.1418
  C  C270  1  0.931700  0.915000  0.151400  1.0  -0.1362
  C  C271  1  0.121400  0.811800  0.366660  1.0  0.135
  C  C272  1  0.073200  0.834000  0.389760  1.0  -0.1191
  C  C273  1  0.972500  0.835800  0.389500  1.0  -0.125
  C  C274  1  0.922700  0.815300  0.366500  1.0  -0.1489
  C  C275  1  0.976200  0.792900  0.344900  1.0  0.1569
  C  C276  1  0.920500  0.859400  0.413860  1.0  0.3527
  C  C277  1  0.921900  0.894100  0.458190  1.0  0.3797
  C  C278  1  0.783400  0.893200  0.431780  1.0  0.3819
  C  C279  1  0.975600  0.909200  0.484920  1.0  -0.0803
  C  C280  1  0.074300  0.898700  0.487660  1.0  -0.1426
  C  C281  1  0.931000  0.935200  0.506800  1.0  -0.1449
  C  C282  1  0.680100  0.908900  0.427100  1.0  -0.083
  C  C283  1  0.626900  0.927700  0.450100  1.0  -0.1182
  C  C284  1  0.638600  0.906400  0.400000  1.0  -0.1036
  C  C285  1  0.982500  0.947700  0.530980  1.0  0.1396
  C  C286  1  0.121000  0.912800  0.513040  1.0  0.1483
  C  C287  1  0.533200  0.944400  0.444900  1.0  0.1316
  C  C288  1  0.544700  0.923600  0.396200  1.0  0.1375
  C  C289  1  0.455400  0.225100  0.739950  1.0  0.1326
  C  C290  1  0.490200  0.228900  0.768320  1.0  -0.1187
  C  C291  1  0.498600  0.274100  0.780250  1.0  -0.1111
  C  C292  1  0.476000  0.314400  0.763390  1.0  -0.15
  C  C293  1  0.441000  0.307400  0.735530  1.0  0.1339
  C  C294  1  0.527000  0.280100  0.811450  1.0  0.4059
  C  C295  1  0.561200  0.243900  0.854480  1.0  0.3922
  C  C296  1  0.559900  0.325800  0.851200  1.0  0.3684
  C  C297  1  0.575800  0.200000  0.871930  1.0  -0.113
  C  C298  1  0.564400  0.154900  0.859030  1.0  -0.146
  C  C299  1  0.580300  0.114700  0.875680  1.0  0.1311
  C  C300  1  0.617200  0.159600  0.916030  1.0  0.1401
  C  C301  1  0.601400  0.202000  0.901220  1.0  -0.1399
  C  C302  1  0.570700  0.372700  0.864940  1.0  -0.0886
  C  C303  1  0.586700  0.376700  0.894680  1.0  -0.1451
  C  C304  1  0.601000  0.421900  0.906700  1.0  0.1278
  C  C305  1  0.584600  0.458600  0.862200  1.0  0.1429
  C  C306  1  0.568300  0.415000  0.848600  1.0  -0.1327
  C  C307  1  0.378600  0.311800  0.633340  1.0  0.1339
  C  C308  1  0.426800  0.334000  0.610240  1.0  -0.1196
  C  C309  1  0.527500  0.335800  0.610500  1.0  -0.1255
  C  C310  1  0.577300  0.315300  0.633500  1.0  -0.1486
  C  C311  1  0.523800  0.292900  0.655100  1.0  0.1579
  C  C312  1  0.579500  0.359400  0.586140  1.0  0.3528
  C  C313  1  0.578100  0.394100  0.541810  1.0  0.3793
  C  C314  1  0.716600  0.393200  0.568220  1.0  0.3809
  C  C315  1  0.524400  0.409200  0.515080  1.0  -0.0806
  C  C316  1  0.425700  0.398700  0.512340  1.0  -0.144
  C  C317  1  0.569000  0.435200  0.493200  1.0  -0.1429
  C  C318  1  0.819900  0.408900  0.572900  1.0  -0.084
  C  C319  1  0.873100  0.427700  0.549900  1.0  -0.1175
  C  C320  1  0.861400  0.406400  0.600000  1.0  -0.1026
  C  C321  1  0.517500  0.447700  0.469020  1.0  0.1396
  C  C322  1  0.379000  0.412800  0.486960  1.0  0.1488
  C  C323  1  0.966800  0.444400  0.555100  1.0  0.1316
  C  C324  1  0.955300  0.423600  0.603800  1.0  0.1375
  C  C325  1  0.544600  0.274900  0.239950  1.0  0.1325
  C  C326  1  0.509800  0.271100  0.268320  1.0  -0.1187
  C  C327  1  0.501400  0.225900  0.280250  1.0  -0.1109
  C  C328  1  0.524000  0.185600  0.263390  1.0  -0.1504
  C  C329  1  0.559000  0.192600  0.235530  1.0  0.1339
  C  C330  1  0.473000  0.219900  0.311450  1.0  0.4059
  C  C331  1  0.438800  0.256100  0.354480  1.0  0.3923
  C  C332  1  0.440100  0.174200  0.351200  1.0  0.368
  C  C333  1  0.424200  0.300000  0.371930  1.0  -0.1137
  C  C334  1  0.435600  0.345100  0.359030  1.0  -0.1467
  C  C335  1  0.419700  0.385300  0.375680  1.0  0.1314
  C  C336  1  0.382800  0.340400  0.416030  1.0  0.1399
  C  C337  1  0.398600  0.298000  0.401220  1.0  -0.1382
  C  C338  1  0.429300  0.127300  0.364940  1.0  -0.0885
  C  C339  1  0.413300  0.123300  0.394680  1.0  -0.1449
  C  C340  1  0.399000  0.078100  0.406700  1.0  0.1274
  C  C341  1  0.415400  0.041400  0.362200  1.0  0.1419
  C  C342  1  0.431700  0.085000  0.348600  1.0  -0.133
  C  C343  1  0.621400  0.188200  0.133340  1.0  0.1341
  C  C344  1  0.573200  0.166000  0.110240  1.0  -0.1187
  C  C345  1  0.472500  0.164200  0.110500  1.0  -0.1261
  C  C346  1  0.422700  0.184700  0.133500  1.0  -0.1485
  C  C347  1  0.476200  0.207100  0.155100  1.0  0.1571
  C  C348  1  0.420500  0.140600  0.086140  1.0  0.3535
  C  C349  1  0.421900  0.105900  0.041810  1.0  0.3794
  C  C350  1  0.283400  0.106800  0.068220  1.0  0.3821
  C  C351  1  0.475600  0.090800  0.015080  1.0  -0.08
  C  C352  1  0.574300  0.101300  0.012340  1.0  -0.1432
  C  C353  1  0.431000  0.064800  0.993200  1.0  -0.1449
  C  C354  1  0.180100  0.091100  0.072900  1.0  -0.0826
  C  C355  1  0.126900  0.072300  0.049900  1.0  -0.1175
  C  C356  1  0.138600  0.093600  0.100000  1.0  -0.1035
  C  C357  1  0.482500  0.052300  0.969020  1.0  0.1402
  C  C358  1  0.621000  0.087200  0.986960  1.0  0.1488
  C  C359  1  0.033200  0.055600  0.055100  1.0  0.1327
  C  C360  1  0.044700  0.076400  0.103800  1.0  0.1369
  C  C361  1  0.044600  0.225100  0.239950  1.0  0.1314
  C  C362  1  0.009800  0.228900  0.268320  1.0  -0.1195
  C  C363  1  0.001400  0.274100  0.280250  1.0  -0.1109
  C  C364  1  0.024000  0.314400  0.263390  1.0  -0.1501
  C  C365  1  0.059000  0.307400  0.235530  1.0  0.1344
  C  C366  1  0.973000  0.280100  0.311450  1.0  0.4059
  C  C367  1  0.938800  0.243900  0.354480  1.0  0.3921
  C  C368  1  0.940100  0.325800  0.351200  1.0  0.3682
  C  C369  1  0.924200  0.200000  0.371930  1.0  -0.1127
  C  C370  1  0.935600  0.154900  0.359030  1.0  -0.1469
  C  C371  1  0.919700  0.114700  0.375680  1.0  0.1305
  C  C372  1  0.882800  0.159600  0.416030  1.0  0.1394
  C  C373  1  0.898600  0.202000  0.401220  1.0  -0.1403
  C  C374  1  0.929300  0.372700  0.364940  1.0  -0.0889
  C  C375  1  0.913300  0.376700  0.394680  1.0  -0.145
  C  C376  1  0.899000  0.421900  0.406700  1.0  0.127
  C  C377  1  0.915400  0.458600  0.362200  1.0  0.1428
  C  C378  1  0.931700  0.415000  0.348600  1.0  -0.1334
  C  C379  1  0.121400  0.311800  0.133340  1.0  0.1343
  C  C380  1  0.073200  0.334000  0.110240  1.0  -0.1187
  C  C381  1  0.972500  0.335800  0.110500  1.0  -0.1257
  C  C382  1  0.922700  0.315300  0.133500  1.0  -0.1484
  C  C383  1  0.976200  0.292900  0.155100  1.0  0.1583
  C  C384  1  0.920500  0.359400  0.086140  1.0  0.3529
  C  C385  1  0.921900  0.394100  0.041810  1.0  0.3791
  C  C386  1  0.783400  0.393200  0.068220  1.0  0.3817
  C  C387  1  0.975600  0.409200  0.015080  1.0  -0.0808
  C  C388  1  0.074300  0.398700  0.012340  1.0  -0.1426
  C  C389  1  0.931000  0.435200  0.993200  1.0  -0.1443
  C  C390  1  0.680100  0.408900  0.072900  1.0  -0.0826
  C  C391  1  0.626900  0.427700  0.049900  1.0  -0.1173
  C  C392  1  0.638600  0.406400  0.100000  1.0  -0.1025
  C  C393  1  0.982500  0.447700  0.969020  1.0  0.1408
  C  C394  1  0.121000  0.412800  0.986960  1.0  0.1482
  C  C395  1  0.533200  0.444400  0.055100  1.0  0.1325
  C  C396  1  0.544700  0.423600  0.103800  1.0  0.1375
  C  C397  1  0.955400  0.274900  0.739950  1.0  0.1335
  C  C398  1  0.990200  0.271100  0.768320  1.0  -0.1173
  C  C399  1  0.998600  0.225900  0.780250  1.0  -0.1111
  C  C400  1  0.976000  0.185600  0.763390  1.0  -0.1499
  C  C401  1  0.941000  0.192600  0.735530  1.0  0.1342
  C  C402  1  0.027000  0.219900  0.811450  1.0  0.406
  C  C403  1  0.061200  0.256100  0.854480  1.0  0.3924
  C  C404  1  0.059900  0.174200  0.851200  1.0  0.3683
  C  C405  1  0.075800  0.300000  0.871930  1.0  -0.1138
  C  C406  1  0.064400  0.345100  0.859030  1.0  -0.146
  C  C407  1  0.080300  0.385300  0.875680  1.0  0.1316
  C  C408  1  0.117200  0.340400  0.916030  1.0  0.1405
  C  C409  1  0.101400  0.298000  0.901220  1.0  -0.1386
  C  C410  1  0.070700  0.127300  0.864940  1.0  -0.0883
  C  C411  1  0.086700  0.123300  0.894680  1.0  -0.1447
  C  C412  1  0.101000  0.078100  0.906700  1.0  0.1279
  C  C413  1  0.084600  0.041400  0.862200  1.0  0.1415
  C  C414  1  0.068300  0.085000  0.848600  1.0  -0.1323
  C  C415  1  0.878600  0.188200  0.633340  1.0  0.1337
  C  C416  1  0.926800  0.166000  0.610240  1.0  -0.1197
  C  C417  1  0.027500  0.164200  0.610500  1.0  -0.126
  C  C418  1  0.077300  0.184700  0.633500  1.0  -0.1487
  C  C419  1  0.023800  0.207100  0.655100  1.0  0.1571
  C  C420  1  0.079500  0.140600  0.586140  1.0  0.3534
  C  C421  1  0.078100  0.105900  0.541810  1.0  0.3794
  C  C422  1  0.216600  0.106800  0.568220  1.0  0.381
  C  C423  1  0.024400  0.090800  0.515080  1.0  -0.0795
  C  C424  1  0.925700  0.101300  0.512340  1.0  -0.1445
  C  C425  1  0.069000  0.064800  0.493200  1.0  -0.1432
  C  C426  1  0.319900  0.091100  0.572900  1.0  -0.0832
  C  C427  1  0.373100  0.072300  0.549900  1.0  -0.1175
  C  C428  1  0.361400  0.093600  0.600000  1.0  -0.1033
  C  C429  1  0.017500  0.052300  0.469020  1.0  0.139
  C  C430  1  0.879000  0.087200  0.486960  1.0  0.1491
  C  C431  1  0.466800  0.055600  0.555100  1.0  0.1317
  C  C432  1  0.455300  0.076400  0.603800  1.0  0.1369
  C  C433  1  0.544600  0.774900  0.260050  1.0  0.1322
  C  C434  1  0.509800  0.771100  0.231680  1.0  -0.1186
  C  C435  1  0.501400  0.725900  0.219750  1.0  -0.1118
  C  C436  1  0.524000  0.685600  0.236610  1.0  -0.1502
  C  C437  1  0.559000  0.692600  0.264470  1.0  0.1351
  C  C438  1  0.473000  0.719900  0.188550  1.0  0.4062
  C  C439  1  0.438800  0.756100  0.145520  1.0  0.3922
  C  C440  1  0.440100  0.674200  0.148800  1.0  0.3679
  C  C441  1  0.424200  0.800000  0.128070  1.0  -0.1138
  C  C442  1  0.435600  0.845100  0.140970  1.0  -0.147
  C  C443  1  0.419700  0.885300  0.124320  1.0  0.1317
  C  C444  1  0.382800  0.840400  0.083970  1.0  0.1398
  C  C445  1  0.398600  0.798000  0.098780  1.0  -0.1381
  C  C446  1  0.429300  0.627300  0.135060  1.0  -0.0888
  C  C447  1  0.413300  0.623300  0.105320  1.0  -0.1439
  C  C448  1  0.399000  0.578100  0.093300  1.0  0.1284
  C  C449  1  0.415400  0.541400  0.137800  1.0  0.1417
  C  C450  1  0.431700  0.585000  0.151400  1.0  -0.1361
  C  C451  1  0.621400  0.688200  0.366660  1.0  0.1347
  C  C452  1  0.573200  0.666000  0.389760  1.0  -0.1189
  C  C453  1  0.472500  0.664200  0.389500  1.0  -0.1255
  C  C454  1  0.422700  0.684700  0.366500  1.0  -0.1491
  C  C455  1  0.476200  0.707100  0.344900  1.0  0.157
  C  C456  1  0.420500  0.640600  0.413860  1.0  0.3532
  C  C457  1  0.421900  0.605900  0.458190  1.0  0.3802
  C  C458  1  0.283400  0.606800  0.431780  1.0  0.3823
  C  C459  1  0.475600  0.590800  0.484920  1.0  -0.0801
  C  C460  1  0.574300  0.601300  0.487660  1.0  -0.1424
  C  C461  1  0.431000  0.564800  0.506800  1.0  -0.1461
  C  C462  1  0.180100  0.591100  0.427100  1.0  -0.0828
  C  C463  1  0.126900  0.572300  0.450100  1.0  -0.118
  C  C464  1  0.138600  0.593600  0.400000  1.0  -0.1039
  C  C465  1  0.482500  0.552300  0.530980  1.0  0.1393
  C  C466  1  0.621000  0.587200  0.513040  1.0  0.1488
  C  C467  1  0.033200  0.555600  0.444900  1.0  0.1323
  C  C468  1  0.044700  0.576400  0.396200  1.0  0.1377
  C  C469  1  0.455400  0.725100  0.760050  1.0  0.1329
  C  C470  1  0.490200  0.728900  0.731680  1.0  -0.1183
  C  C471  1  0.498600  0.774100  0.719750  1.0  -0.1118
  C  C472  1  0.476000  0.814400  0.736610  1.0  -0.1505
  C  C473  1  0.441000  0.807400  0.764470  1.0  0.1328
  C  C474  1  0.527000  0.780100  0.688550  1.0  0.4062
  C  C475  1  0.561200  0.743900  0.645520  1.0  0.392
  C  C476  1  0.559900  0.825800  0.648800  1.0  0.3683
  C  C477  1  0.575800  0.700000  0.628070  1.0  -0.1134
  C  C478  1  0.564400  0.654900  0.640970  1.0  -0.1467
  C  C479  1  0.580300  0.614700  0.624320  1.0  0.1309
  C  C480  1  0.617200  0.659600  0.583970  1.0  0.1392
  C  C481  1  0.601400  0.702000  0.598780  1.0  -0.1407
  C  C482  1  0.570700  0.872700  0.635060  1.0  -0.0887
  C  C483  1  0.586700  0.876700  0.605320  1.0  -0.1448
  C  C484  1  0.601000  0.921900  0.593300  1.0  0.1279
  C  C485  1  0.584600  0.958600  0.637800  1.0  0.1429
  C  C486  1  0.568300  0.915000  0.651400  1.0  -0.1365
  C  C487  1  0.378600  0.811800  0.866660  1.0  0.1344
  C  C488  1  0.426800  0.834000  0.889760  1.0  -0.1201
  C  C489  1  0.527500  0.835800  0.889500  1.0  -0.1252
  C  C490  1  0.577300  0.815300  0.866500  1.0  -0.1489
  C  C491  1  0.523800  0.792900  0.844900  1.0  0.1564
  C  C492  1  0.579500  0.859400  0.913860  1.0  0.3526
  C  C493  1  0.578100  0.894100  0.958190  1.0  0.3799
  C  C494  1  0.716600  0.893200  0.931780  1.0  0.381
  C  C495  1  0.524400  0.909200  0.984920  1.0  -0.0798
  C  C496  1  0.425700  0.898700  0.987660  1.0  -0.1439
  C  C497  1  0.569000  0.935200  0.006800  1.0  -0.1434
  C  C498  1  0.819900  0.908900  0.927100  1.0  -0.0841
  C  C499  1  0.873100  0.927700  0.950100  1.0  -0.1187
  C  C500  1  0.861400  0.906400  0.900000  1.0  -0.1036
  C  C501  1  0.517500  0.947700  0.030980  1.0  0.1388
  C  C502  1  0.379000  0.912800  0.013040  1.0  0.1484
  C  C503  1  0.966800  0.944400  0.944900  1.0  0.1326
  C  C504  1  0.955300  0.923600  0.896200  1.0  0.1363
  I  I505  1  0.839500  0.835440  0.824800  1.0  -0.2924
  I  I506  1  0.690960  0.697350  0.806660  1.0  -0.3633
  I  I507  1  0.050800  0.014060  0.601070  1.0  -0.3965
  I  I508  1  0.327750  0.942130  0.566750  1.0  -0.3773
  I  I509  1  0.224590  0.426020  0.631420  1.0  -0.331
  I  I510  1  0.222660  0.489210  0.541320  1.0  -0.4272
  I  I511  1  0.160500  0.664560  0.324800  1.0  -0.2933
  I  I512  1  0.309040  0.802650  0.306660  1.0  -0.3633
  I  I513  1  0.949200  0.485940  0.101070  1.0  -0.3973
  I  I514  1  0.672250  0.557870  0.066750  1.0  -0.3764
  I  I515  1  0.775410  0.073980  0.131420  1.0  -0.3302
  I  I516  1  0.777340  0.010790  0.041320  1.0  -0.4278
  I  I517  1  0.339500  0.164560  0.675200  1.0  -0.2924
  I  I518  1  0.190960  0.302650  0.693340  1.0  -0.3633
  I  I519  1  0.550800  0.985940  0.898930  1.0  -0.3978
  I  I520  1  0.827750  0.057870  0.933250  1.0  -0.3775
  I  I521  1  0.724590  0.573980  0.868580  1.0  -0.3304
  I  I522  1  0.722660  0.510790  0.958680  1.0  -0.4269
  I  I523  1  0.660500  0.335440  0.175200  1.0  -0.292
  I  I524  1  0.809040  0.197350  0.193340  1.0  -0.3636
  I  I525  1  0.449200  0.514060  0.398930  1.0  -0.3982
  I  I526  1  0.172250  0.442130  0.433250  1.0  -0.3769
  I  I527  1  0.275410  0.926020  0.368580  1.0  -0.33
  I  I528  1  0.277340  0.989210  0.458680  1.0  -0.4272
  I  I529  1  0.160500  0.164560  0.175200  1.0  -0.2925
  I  I530  1  0.309040  0.302650  0.193340  1.0  -0.3636
  I  I531  1  0.949200  0.985940  0.398930  1.0  -0.3985
  I  I532  1  0.672250  0.057870  0.433250  1.0  -0.3768
  I  I533  1  0.775410  0.573980  0.368580  1.0  -0.3306
  I  I534  1  0.777340  0.510790  0.458680  1.0  -0.4275
  I  I535  1  0.839500  0.335440  0.675200  1.0  -0.292
  I  I536  1  0.690960  0.197350  0.693340  1.0  -0.3635
  I  I537  1  0.050800  0.514060  0.898930  1.0  -0.3977
  I  I538  1  0.327750  0.442130  0.933250  1.0  -0.3776
  I  I539  1  0.224590  0.926020  0.868580  1.0  -0.3316
  I  I540  1  0.222660  0.989210  0.958680  1.0  -0.4268
  I  I541  1  0.660500  0.835440  0.324800  1.0  -0.2925
  I  I542  1  0.809040  0.697350  0.306660  1.0  -0.3635
  I  I543  1  0.449200  0.014060  0.101070  1.0  -0.3974
  I  I544  1  0.172250  0.942130  0.066750  1.0  -0.3766
  I  I545  1  0.275410  0.426020  0.131420  1.0  -0.3292
  I  I546  1  0.277340  0.489210  0.041320  1.0  -0.4277
  I  I547  1  0.339500  0.664560  0.824800  1.0  -0.2932
  I  I548  1  0.190960  0.802650  0.806660  1.0  -0.3632
  I  I549  1  0.550800  0.485940  0.601070  1.0  -0.3964
  I  I550  1  0.827750  0.557870  0.566750  1.0  -0.377
  I  I551  1  0.724590  0.073980  0.631420  1.0  -0.3302
  I  I552  1  0.722660  0.010790  0.541320  1.0  -0.4272
  N  N553  1  0.928800  0.736600  0.775980  1.0  -0.3328
  N  N554  1  0.039400  0.761300  0.673530  1.0  -0.4674
  N  N555  1  0.072500  0.713400  0.631900  1.0  -0.4509
  N  N556  1  0.035700  0.676000  0.677530  1.0  -0.4643
  N  N557  1  0.107000  0.884000  0.596270  1.0  -0.3364
  N  N558  1  0.101700  0.537500  0.609130  1.0  -0.3463
  N  N559  1  0.926600  0.709000  0.844550  1.0  -0.3161
  N  N560  1  0.028100  0.629200  0.937790  1.0  -0.3578
  N  N561  1  0.172300  0.593800  0.956840  1.0  -0.4777
  N  N562  1  0.175000  0.630900  0.909740  1.0  -0.4665
  N  N563  1  0.923400  0.563600  0.034780  1.0  -0.302
  N  N564  1  0.506900  0.557500  0.918170  1.0  -0.305
  N  N565  1  0.071200  0.763400  0.275980  1.0  -0.333
  N  N566  1  0.960600  0.738700  0.173530  1.0  -0.4665
  N  N567  1  0.927500  0.786600  0.131900  1.0  -0.4506
  N  N568  1  0.964300  0.824000  0.177530  1.0  -0.4652
  N  N569  1  0.893000  0.616000  0.096270  1.0  -0.3366
  N  N570  1  0.898300  0.962500  0.109130  1.0  -0.3468
  N  N571  1  0.073400  0.791000  0.344550  1.0  -0.3168
  N  N572  1  0.971900  0.870800  0.437790  1.0  -0.3591
  N  N573  1  0.827700  0.906200  0.456840  1.0  -0.4792
  N  N574  1  0.825000  0.869100  0.409740  1.0  -0.4679
  N  N575  1  0.076600  0.936400  0.534780  1.0  -0.3013
  N  N576  1  0.493100  0.942500  0.418170  1.0  -0.3059
  N  N577  1  0.428800  0.263400  0.724020  1.0  -0.335
  N  N578  1  0.539400  0.238700  0.826470  1.0  -0.4672
  N  N579  1  0.572500  0.286600  0.868100  1.0  -0.4483
  N  N580  1  0.535700  0.324000  0.822470  1.0  -0.4634
  N  N581  1  0.607000  0.116000  0.903730  1.0  -0.3359
  N  N582  1  0.601700  0.462500  0.890870  1.0  -0.3487
  N  N583  1  0.426600  0.291000  0.655450  1.0  -0.3174
  N  N584  1  0.528100  0.370800  0.562210  1.0  -0.3589
  N  N585  1  0.672300  0.406200  0.543160  1.0  -0.4771
  N  N586  1  0.675000  0.369100  0.590260  1.0  -0.4679
  N  N587  1  0.423400  0.436400  0.465220  1.0  -0.3021
  N  N588  1  0.006900  0.442500  0.581830  1.0  -0.3045
  N  N589  1  0.571200  0.236600  0.224020  1.0  -0.3343
  N  N590  1  0.460600  0.261300  0.326470  1.0  -0.467
  N  N591  1  0.427500  0.213400  0.368100  1.0  -0.4479
  N  N592  1  0.464300  0.176000  0.322470  1.0  -0.4637
  N  N593  1  0.393000  0.384000  0.403730  1.0  -0.3389
  N  N594  1  0.398300  0.037500  0.390870  1.0  -0.3473
  N  N595  1  0.573400  0.209000  0.155450  1.0  -0.3169
  N  N596  1  0.471900  0.129200  0.062210  1.0  -0.358
  N  N597  1  0.327700  0.093800  0.043160  1.0  -0.4776
  N  N598  1  0.325000  0.130900  0.090260  1.0  -0.4684
  N  N599  1  0.576600  0.063600  0.965220  1.0  -0.3025
  N  N600  1  0.993100  0.057500  0.081830  1.0  -0.307
  N  N601  1  0.071200  0.263400  0.224020  1.0  -0.3348
  N  N602  1  0.960600  0.238700  0.326470  1.0  -0.4668
  N  N603  1  0.927500  0.286600  0.368100  1.0  -0.4479
  N  N604  1  0.964300  0.324000  0.322470  1.0  -0.4636
  N  N605  1  0.893000  0.116000  0.403730  1.0  -0.3371
  N  N606  1  0.898300  0.462500  0.390870  1.0  -0.349
  N  N607  1  0.073400  0.291000  0.155450  1.0  -0.3164
  N  N608  1  0.971900  0.370800  0.062210  1.0  -0.3591
  N  N609  1  0.827700  0.406200  0.043160  1.0  -0.478
  N  N610  1  0.825000  0.369100  0.090260  1.0  -0.4686
  N  N611  1  0.076600  0.436400  0.965220  1.0  -0.3014
  N  N612  1  0.493100  0.442500  0.081830  1.0  -0.306
  N  N613  1  0.928800  0.236600  0.724020  1.0  -0.3341
  N  N614  1  0.039400  0.261300  0.826470  1.0  -0.4674
  N  N615  1  0.072500  0.213400  0.868100  1.0  -0.4482
  N  N616  1  0.035700  0.176000  0.822470  1.0  -0.4639
  N  N617  1  0.107000  0.384000  0.903730  1.0  -0.338
  N  N618  1  0.101700  0.037500  0.890870  1.0  -0.3468
  N  N619  1  0.926600  0.209000  0.655450  1.0  -0.3173
  N  N620  1  0.028100  0.129200  0.562210  1.0  -0.3575
  N  N621  1  0.172300  0.093800  0.543160  1.0  -0.4767
  N  N622  1  0.175000  0.130900  0.590260  1.0  -0.4683
  N  N623  1  0.923400  0.063600  0.465220  1.0  -0.3032
  N  N624  1  0.506900  0.057500  0.581830  1.0  -0.3049
  N  N625  1  0.571200  0.736600  0.275980  1.0  -0.3332
  N  N626  1  0.460600  0.761300  0.173530  1.0  -0.4671
  N  N627  1  0.427500  0.713400  0.131900  1.0  -0.4509
  N  N628  1  0.464300  0.676000  0.177530  1.0  -0.4644
  N  N629  1  0.393000  0.884000  0.096270  1.0  -0.337
  N  N630  1  0.398300  0.537500  0.109130  1.0  -0.3471
  N  N631  1  0.573400  0.709000  0.344550  1.0  -0.3162
  N  N632  1  0.471900  0.629200  0.437790  1.0  -0.3582
  N  N633  1  0.327700  0.593800  0.456840  1.0  -0.4784
  N  N634  1  0.325000  0.630900  0.409740  1.0  -0.4664
  N  N635  1  0.576600  0.563600  0.534780  1.0  -0.3013
  N  N636  1  0.993100  0.557500  0.418170  1.0  -0.307
  N  N637  1  0.428800  0.763400  0.775980  1.0  -0.3327
  N  N638  1  0.539400  0.738700  0.673530  1.0  -0.467
  N  N639  1  0.572500  0.786600  0.631900  1.0  -0.4508
  N  N640  1  0.535700  0.824000  0.677530  1.0  -0.4649
  N  N641  1  0.607000  0.616000  0.596270  1.0  -0.3354
  N  N642  1  0.601700  0.962500  0.609130  1.0  -0.3467
  N  N643  1  0.426600  0.791000  0.844550  1.0  -0.3178
  N  N644  1  0.528100  0.870800  0.937790  1.0  -0.3589
  N  N645  1  0.672300  0.906200  0.956840  1.0  -0.4782
  N  N646  1  0.675000  0.869100  0.909740  1.0  -0.4675
  N  N647  1  0.423400  0.936400  0.034780  1.0  -0.3026
  N  N648  1  0.006900  0.942500  0.918170  1.0  -0.3045
