# generated using pymatgen
data_EuH4C7N2O7
_symmetry_space_group_name_H-M   'P 1'
_cell_length_a   6.09150000
_cell_length_b   9.96100000
_cell_length_c   13.36100000
_cell_angle_alpha   68.87000000
_cell_angle_beta   81.01000000
_cell_angle_gamma   76.72000000
_symmetry_Int_Tables_number   1
_chemical_formula_structural   EuH4C7N2O7
_chemical_formula_sum   'Eu2 H8 C14 N4 O14'
_cell_volume   733.56820584
_cell_formula_units_Z   2
loop_
 _symmetry_equiv_pos_site_id
 _symmetry_equiv_pos_as_xyz
  1  'x, y, z'
loop_
 _atom_site_type_symbol
 _atom_site_label
 _atom_site_symmetry_multiplicity
 _atom_site_fract_x
 _atom_site_fract_y
 _atom_site_fract_z
 _atom_site_occupancy
 _atom_site_charge
  Eu  Eu1  1  0.668280  0.385620  0.803910  1.0  2.0999
  Eu  Eu2  1  0.331720  0.614380  0.196090  1.0  2.1008
  H  H3  1  0.827700  0.045200  0.026800  1.0  0.0558
  H  H4  1  0.201900  0.326500  0.630800  1.0  0.0657
  H  H5  1  0.010200  0.498900  0.768800  1.0  0.3929
  H  H6  1  0.918000  0.579100  0.836800  1.0  0.4306
  H  H7  1  0.172300  0.954800  0.973200  1.0  0.0549
  H  H8  1  0.798100  0.673500  0.369200  1.0  0.0659
  H  H9  1  0.989800  0.501100  0.231200  1.0  0.3954
  H  H10  1  0.082000  0.420900  0.163200  1.0  0.4313
  C  C11  1  0.210700  0.232800  0.858200  1.0  0.6818
  C  C12  1  0.366900  0.104500  0.931400  1.0  0.1206
  C  C13  1  0.691200  0.028900  0.014900  1.0  0.1742
  C  C14  1  0.550200  0.617300  0.560400  1.0  0.6649
  C  C15  1  0.788600  0.555200  0.527400  1.0  0.0992
  C  C16  1  0.115000  0.398600  0.578300  1.0  0.1622
  C  C17  1  0.408900  0.560500  0.966500  1.0  0.5586
  C  C18  1  0.789300  0.767200  0.141800  1.0  0.6821
  C  C19  1  0.633100  0.895500  0.068600  1.0  0.121
  C  C20  1  0.308800  0.971100  0.985100  1.0  0.1742
  C  C21  1  0.449800  0.382700  0.439600  1.0  0.6652
  C  C22  1  0.211400  0.444800  0.472600  1.0  0.1039
  C  C23  1  0.885000  0.601400  0.421700  1.0  0.1705
  C  C24  1  0.591100  0.439500  0.033500  1.0  0.5589
  N  N25  1  0.560900  0.135200  0.946800  1.0  -0.4212
  N  N26  1  0.906200  0.453300  0.606500  1.0  -0.4467
  N  N27  1  0.439100  0.864800  0.053200  1.0  -0.4232
  N  N28  1  0.093800  0.546700  0.393500  1.0  -0.4533
  O  O29  1  0.285200  0.351600  0.815100  1.0  -0.63
  O  O30  1  0.020500  0.215600  0.847700  1.0  -0.6755
  O  O31  1  0.486400  0.569000  0.657300  1.0  -0.6606
  O  O32  1  0.432100  0.709900  0.489800  1.0  -0.602
  O  O33  1  0.275500  0.637300  0.013500  1.0  -0.6291
  O  O34  1  0.415100  0.569300  0.870700  1.0  -0.6191
  O  O35  1  0.907100  0.565900  0.779100  1.0  -0.8263
  O  O36  1  0.714800  0.648400  0.184900  1.0  -0.631
  O  O37  1  0.979500  0.784400  0.152300  1.0  -0.6761
  O  O38  1  0.513600  0.431000  0.342700  1.0  -0.6608
  O  O39  1  0.567900  0.290100  0.510200  1.0  -0.5998
  O  O40  1  0.724500  0.362700  0.986500  1.0  -0.6288
  O  O41  1  0.584900  0.430700  0.129300  1.0  -0.6201
  O  O42  1  0.092900  0.434100  0.220900  1.0  -0.8269
