# generated using pymatgen
data_Cd2(CO2)7
_symmetry_space_group_name_H-M   'P 1'
_cell_length_a   16.95500000
_cell_length_b   9.54300000
_cell_length_c   18.54900000
_cell_angle_alpha   90.00000000
_cell_angle_beta   90.01000000
_cell_angle_gamma   90.00000000
_symmetry_Int_Tables_number   1
_chemical_formula_structural   Cd2(CO2)7
_chemical_formula_sum   'Cd8 C28 O56'
_cell_volume   3001.25718347
_cell_formula_units_Z   4
loop_
 _symmetry_equiv_pos_site_id
 _symmetry_equiv_pos_as_xyz
  1  'x, y, z'
loop_
 _atom_site_type_symbol
 _atom_site_label
 _atom_site_symmetry_multiplicity
 _atom_site_fract_x
 _atom_site_fract_y
 _atom_site_fract_z
 _atom_site_occupancy
 _atom_site_charge
  Cd  Cd1  1  0.414150  0.913460  0.631390  1.0  1.1359
  Cd  Cd2  1  0.080650  0.751830  0.568320  1.0  1.0501
  Cd  Cd3  1  0.585850  0.413460  0.868610  1.0  1.136
  Cd  Cd4  1  0.919350  0.251830  0.931680  1.0  1.0498
  Cd  Cd5  1  0.585850  0.086540  0.368610  1.0  1.1361
  Cd  Cd6  1  0.919350  0.248170  0.431680  1.0  1.0501
  Cd  Cd7  1  0.414150  0.586540  0.131390  1.0  1.136
  Cd  Cd8  1  0.080650  0.748170  0.068320  1.0  1.05
  C  C9  1  0.449700  0.722800  0.745300  1.0  0.6622
  C  C10  1  0.485900  0.619300  0.800200  1.0  0.6611
  C  C11  1  0.472000  0.066600  0.495800  1.0  0.7198
  C  C12  1  0.230400  0.905600  0.625200  1.0  0.7021
  C  C13  1  0.260200  0.786100  0.575400  1.0  0.7108
  C  C14  1  0.022800  0.987600  0.464200  1.0  0.6388
  C  C15  1  0.958800  0.531800  0.511800  1.0  0.6922
  C  C16  1  0.550300  0.222800  0.754700  1.0  0.6625
  C  C17  1  0.514100  0.119300  0.699800  1.0  0.6608
  C  C18  1  0.528000  0.566600  0.004200  1.0  0.72
  C  C19  1  0.769600  0.405600  0.874800  1.0  0.7036
  C  C20  1  0.739800  0.286100  0.924600  1.0  0.7117
  C  C21  1  0.977200  0.487600  0.035800  1.0  0.6375
  C  C22  1  0.041200  0.031800  0.988200  1.0  0.6923
  C  C23  1  0.550300  0.277200  0.254700  1.0  0.6622
  C  C24  1  0.514100  0.380700  0.199800  1.0  0.661
  C  C25  1  0.528000  0.933400  0.504200  1.0  0.7197
  C  C26  1  0.769600  0.094400  0.374800  1.0  0.7036
  C  C27  1  0.739800  0.213900  0.424600  1.0  0.7114
  C  C28  1  0.977200  0.012400  0.535800  1.0  0.6375
  C  C29  1  0.041200  0.468200  0.488200  1.0  0.6925
  C  C30  1  0.449700  0.777200  0.245300  1.0  0.6618
  C  C31  1  0.485900  0.880700  0.300200  1.0  0.6613
  C  C32  1  0.472000  0.433400  0.995800  1.0  0.7191
  C  C33  1  0.230400  0.594400  0.125200  1.0  0.7043
  C  C34  1  0.260200  0.713900  0.075400  1.0  0.7117
  C  C35  1  0.022800  0.512400  0.964200  1.0  0.6392
  C  C36  1  0.958800  0.968200  0.011800  1.0  0.6925
  O  O37  1  0.492100  0.757800  0.693100  1.0  -0.4753
  O  O38  1  0.380400  0.766200  0.757200  1.0  -0.5202
  O  O39  1  0.555100  0.579000  0.786300  1.0  -0.5067
  O  O40  1  0.444300  0.582200  0.851800  1.0  -0.4551
  O  O41  1  0.411200  0.066600  0.534900  1.0  -0.4891
  O  O42  1  0.490100  0.158500  0.453300  1.0  -0.4767
  O  O43  1  0.281900  0.977700  0.656900  1.0  -0.5453
  O  O44  1  0.158200  0.922700  0.630000  1.0  -0.5132
  O  O45  1  0.333700  0.766700  0.570500  1.0  -0.5054
  O  O46  1  0.211000  0.718700  0.542100  1.0  -0.4995
  O  O47  1  0.067300  0.880300  0.463300  1.0  -0.5049
  O  O48  1  0.013000  0.068600  0.413200  1.0  -0.4842
  O  O49  1  0.959800  0.639500  0.549200  1.0  -0.4903
  O  O50  1  0.900300  0.465200  0.490000  1.0  -0.5129
  O  O51  1  0.507900  0.257800  0.806900  1.0  -0.4751
  O  O52  1  0.619600  0.266200  0.742800  1.0  -0.5207
  O  O53  1  0.444900  0.079000  0.713700  1.0  -0.5085
  O  O54  1  0.555700  0.082200  0.648200  1.0  -0.4536
  O  O55  1  0.588800  0.566600  0.965100  1.0  -0.4849
  O  O56  1  0.509900  0.658500  0.046700  1.0  -0.4729
  O  O57  1  0.718100  0.477700  0.843100  1.0  -0.5472
  O  O58  1  0.841800  0.422700  0.870000  1.0  -0.5112
  O  O59  1  0.666300  0.266700  0.929500  1.0  -0.5061
  O  O60  1  0.789000  0.218700  0.957900  1.0  -0.4988
  O  O61  1  0.932700  0.380300  0.036700  1.0  -0.5043
  O  O62  1  0.987000  0.568600  0.086800  1.0  -0.4865
  O  O63  1  0.040200  0.139500  0.950800  1.0  -0.4878
  O  O64  1  0.099700  0.965200  0.010000  1.0  -0.5152
  O  O65  1  0.507900  0.242200  0.306900  1.0  -0.4758
  O  O66  1  0.619600  0.233800  0.242800  1.0  -0.5208
  O  O67  1  0.444900  0.421000  0.213700  1.0  -0.5077
  O  O68  1  0.555700  0.417800  0.148200  1.0  -0.4536
  O  O69  1  0.588800  0.933400  0.465100  1.0  -0.486
  O  O70  1  0.509900  0.841500  0.546700  1.0  -0.477
  O  O71  1  0.718100  0.022300  0.343100  1.0  -0.5475
  O  O72  1  0.841800  0.077300  0.370000  1.0  -0.5117
  O  O73  1  0.666300  0.233300  0.429500  1.0  -0.5052
  O  O74  1  0.789000  0.281300  0.457900  1.0  -0.4959
  O  O75  1  0.932700  0.119700  0.536700  1.0  -0.5026
  O  O76  1  0.987000  0.931400  0.586800  1.0  -0.4866
  O  O77  1  0.040200  0.360500  0.450800  1.0  -0.4855
  O  O78  1  0.099700  0.534800  0.510000  1.0  -0.5177
  O  O79  1  0.492100  0.742200  0.193100  1.0  -0.4753
  O  O80  1  0.380400  0.733800  0.257200  1.0  -0.5199
  O  O81  1  0.555100  0.921000  0.286300  1.0  -0.5065
  O  O82  1  0.444300  0.917800  0.351800  1.0  -0.455
  O  O83  1  0.411200  0.433400  0.034900  1.0  -0.489
  O  O84  1  0.490100  0.341500  0.953300  1.0  -0.4762
  O  O85  1  0.281900  0.522300  0.156900  1.0  -0.5455
  O  O86  1  0.158200  0.577300  0.130000  1.0  -0.5124
  O  O87  1  0.333700  0.733300  0.070500  1.0  -0.5053
  O  O88  1  0.211000  0.781300  0.042100  1.0  -0.4962
  O  O89  1  0.067300  0.619700  0.963300  1.0  -0.5037
  O  O90  1  0.013000  0.431400  0.913200  1.0  -0.485
  O  O91  1  0.959800  0.860500  0.049200  1.0  -0.4875
  O  O92  1  0.900300  0.034800  0.990000  1.0  -0.5143
