# generated using pymatgen
data_YH18C15S3(N2O)6
_symmetry_space_group_name_H-M   'P 1'
_cell_length_a   9.46090000
_cell_length_b   11.45800000
_cell_length_c   14.59300000
_cell_angle_alpha   69.96000000
_cell_angle_beta   85.42000000
_cell_angle_gamma   86.41000000
_symmetry_Int_Tables_number   1
_chemical_formula_structural   YH18C15S3(N2O)6
_chemical_formula_sum   'Y2 H36 C30 S6 N24 O12'
_cell_volume   1480.34941401
_cell_formula_units_Z   2
loop_
 _symmetry_equiv_pos_site_id
 _symmetry_equiv_pos_as_xyz
  1  'x, y, z'
loop_
 _atom_site_type_symbol
 _atom_site_label
 _atom_site_symmetry_multiplicity
 _atom_site_fract_x
 _atom_site_fract_y
 _atom_site_fract_z
 _atom_site_occupancy
 _atom_site_charge
  Y  Y1  1  0.796830  0.954720  0.002510  1.0  2.0894
  Y  Y2  1  0.203170  0.045280  0.997490  1.0  2.0874
  H  H3  1  0.866600  0.369400  0.840900  1.0  0.1577
  H  H4  1  0.973000  0.370500  0.752800  1.0  0.1532
  H  H5  1  0.341000  0.378000  0.898000  1.0  0.3406
  H  H6  1  0.262000  0.476000  0.812000  1.0  0.2921
  H  H7  1  0.878800  0.942300  0.556900  1.0  0.0822
  H  H8  1  0.871400  0.064300  0.465500  1.0  0.1057
  H  H9  1  0.275500  0.349200  0.391800  1.0  0.3682
  H  H10  1  0.261000  0.286800  0.318900  1.0  0.3142
  H  H11  1  0.855300  0.098000  0.280600  1.0  0.1356
  H  H12  1  0.814800  0.223300  0.198000  1.0  0.1421
  H  H13  1  0.118800  0.534500  0.432400  1.0  0.0953
  H  H14  1  0.114600  0.411500  0.523100  1.0  0.1021
  H  H15  1  0.669100  0.044500  0.609000  1.0  0.3515
  H  H16  1  0.626500  0.119500  0.673000  1.0  0.3619
  H  H17  1  0.484800  0.837200  0.808700  1.0  0.1688
  H  H18  1  0.635800  0.831800  0.758400  1.0  0.131
  H  H19  1  0.029300  0.481400  0.909200  1.0  0.0987
  H  H20  1  0.079500  0.388200  0.008800  1.0  0.1109
  H  H21  1  0.133400  0.630600  0.159100  1.0  0.1572
  H  H22  1  0.027000  0.629500  0.247200  1.0  0.1537
  H  H23  1  0.659000  0.622000  0.102000  1.0  0.3412
  H  H24  1  0.738000  0.524000  0.188000  1.0  0.295
  H  H25  1  0.121200  0.057700  0.443100  1.0  0.0823
  H  H26  1  0.128600  0.935700  0.534500  1.0  0.1061
  H  H27  1  0.724500  0.650800  0.608200  1.0  0.3679
  H  H28  1  0.739000  0.713200  0.681100  1.0  0.3148
  H  H29  1  0.144700  0.902000  0.719400  1.0  0.1349
  H  H30  1  0.185200  0.776700  0.802000  1.0  0.1395
  H  H31  1  0.881200  0.465500  0.567600  1.0  0.0965
  H  H32  1  0.885400  0.588500  0.476900  1.0  0.1042
  H  H33  1  0.330900  0.955500  0.391000  1.0  0.351
  H  H34  1  0.373500  0.880500  0.327000  1.0  0.3611
  H  H35  1  0.515200  0.162800  0.191300  1.0  0.1691
  H  H36  1  0.364200  0.168200  0.241600  1.0  0.1298
  H  H37  1  0.970700  0.518600  0.090800  1.0  0.0976
  H  H38  1  0.920500  0.611800  0.991200  1.0  0.1099
  C  C39  1  0.925300  0.097600  0.142300  1.0  0.8272
  C  C40  1  0.885700  0.197400  0.681200  1.0  0.1711
  C  C41  1  0.000600  0.216200  0.873000  1.0  0.8006
  C  C42  1  0.911100  0.318300  0.804900  1.0  -0.3116
  C  C43  1  0.927900  0.017400  0.519800  1.0  -0.1759
  C  C44  1  0.983900  0.303100  0.315400  1.0  0.1645
  C  C45  1  0.888800  0.159100  0.219500  1.0  -0.3099
  C  C46  1  0.941900  0.092900  0.583300  1.0  0.2442
  C  C47  1  0.996300  0.405600  0.415100  1.0  0.2495
  C  C48  1  0.057300  0.470500  0.474500  1.0  -0.193
  C  C49  1  0.579800  0.800500  0.819900  1.0  -0.3067
  C  C50  1  0.641400  0.847700  0.892200  1.0  0.7442
  C  C51  1  0.402700  0.615100  0.912400  1.0  0.2251
  C  C52  1  0.189900  0.545900  0.959900  1.0  0.2675
  C  C53  1  0.059300  0.475200  0.972700  1.0  -0.2138
  C  C54  1  0.074700  0.902400  0.857700  1.0  0.8278
  C  C55  1  0.114300  0.802600  0.318800  1.0  0.1713
  C  C56  1  0.999400  0.783800  0.127000  1.0  0.8009
  C  C57  1  0.088900  0.681700  0.195100  1.0  -0.3129
  C  C58  1  0.072100  0.982600  0.480200  1.0  -0.1751
  C  C59  1  0.016100  0.696900  0.684600  1.0  0.1656
  C  C60  1  0.111200  0.840900  0.780500  1.0  -0.312
  C  C61  1  0.058100  0.907100  0.416700  1.0  0.2463
  C  C62  1  0.003700  0.594400  0.584900  1.0  0.2495
  C  C63  1  0.942700  0.529500  0.525500  1.0  -0.1931
  C  C64  1  0.420200  0.199500  0.180100  1.0  -0.3076
  C  C65  1  0.358600  0.152300  0.107800  1.0  0.7413
  C  C66  1  0.597300  0.384900  0.087600  1.0  0.2272
  C  C67  1  0.810100  0.454100  0.040100  1.0  0.2718
  C  C68  1  0.940700  0.524800  0.027300  1.0  -0.2114
  S  S69  1  0.048610  0.226050  0.235790  1.0  0.0037
  S  S70  1  0.569070  0.634810  0.850310  1.0  -0.0199
  S  S71  1  0.775870  0.264400  0.751830  1.0  -0.0127
  S  S72  1  0.951390  0.773950  0.764210  1.0  0.0035
  S  S73  1  0.430930  0.365190  0.149690  1.0  -0.0192
  S  S74  1  0.224130  0.735600  0.248170  1.0  -0.0127
  N  N75  1  0.309100  0.532000  0.905100  1.0  0.0745
  N  N76  1  0.207700  0.631600  0.997800  1.0  -0.2879
  N  N77  1  0.076300  0.347800  0.361200  1.0  0.1302
  N  N78  1  0.022000  0.204500  0.662000  1.0  -0.2823
  N  N79  1  0.344400  0.675400  0.967300  1.0  -0.334
  N  N80  1  0.830700  0.127800  0.633500  1.0  0.1402
  N  N81  1  0.338300  0.452100  0.850500  1.0  -0.6024
  N  N82  1  0.223100  0.325000  0.356700  1.0  -0.6671
  N  N83  1  0.058900  0.136800  0.598200  1.0  -0.3316
  N  N84  1  0.863300  0.397400  0.404100  1.0  -0.317
  N  N85  1  0.853900  0.330600  0.339500  1.0  -0.3181
  N  N86  1  0.691000  0.092800  0.639200  1.0  -0.6513
  N  N87  1  0.690900  0.468000  0.094900  1.0  0.0759
  N  N88  1  0.792300  0.368400  0.002200  1.0  -0.2875
  N  N89  1  0.923700  0.652200  0.638800  1.0  0.13
  N  N90  1  0.978000  0.795500  0.338000  1.0  -0.2804
  N  N91  1  0.655600  0.324600  0.032700  1.0  -0.3348
  N  N92  1  0.169300  0.872200  0.366500  1.0  0.1387
  N  N93  1  0.661700  0.547900  0.149500  1.0  -0.6059
  N  N94  1  0.776900  0.675000  0.643300  1.0  -0.6679
  N  N95  1  0.941100  0.863200  0.401800  1.0  -0.332
  N  N96  1  0.136700  0.602600  0.595900  1.0  -0.317
  N  N97  1  0.146100  0.669400  0.660500  1.0  -0.3177
  N  N98  1  0.309000  0.907200  0.360800  1.0  -0.6535
  O  O99  1  0.828100  0.041400  0.124300  1.0  -0.7243
  O  O100  1  0.947300  0.114600  0.924900  1.0  -0.839
  O  O101  1  0.127400  0.236500  0.878200  1.0  -0.6296
  O  O102  1  0.050300  0.108400  0.105700  1.0  -0.6833
  O  O103  1  0.687200  0.777600  0.970800  1.0  -0.6639
  O  O104  1  0.648200  0.965400  0.867200  1.0  -0.7706
  O  O105  1  0.171900  0.958600  0.875700  1.0  -0.7172
  O  O106  1  0.052700  0.885400  0.075100  1.0  -0.8397
  O  O107  1  0.872600  0.763500  0.121800  1.0  -0.6301
  O  O108  1  0.949700  0.891600  0.894300  1.0  -0.682
  O  O109  1  0.312800  0.222400  0.029200  1.0  -0.6655
  O  O110  1  0.351800  0.034600  0.132800  1.0  -0.7718
