# generated using pymatgen
data_CeH18C15S3(N2O)6
_symmetry_space_group_name_H-M   'P 1'
_cell_length_a   9.58790000
_cell_length_b   11.57000000
_cell_length_c   14.58300000
_cell_angle_alpha   69.16000000
_cell_angle_beta   85.20000000
_cell_angle_gamma   86.30000000
_symmetry_Int_Tables_number   1
_chemical_formula_structural   CeH18C15S3(N2O)6
_chemical_formula_sum   'Ce2 H36 C30 S6 N24 O12'
_cell_volume   1505.53372359
_cell_formula_units_Z   2
loop_
 _symmetry_equiv_pos_site_id
 _symmetry_equiv_pos_as_xyz
  1  'x, y, z'
loop_
 _atom_site_type_symbol
 _atom_site_label
 _atom_site_symmetry_multiplicity
 _atom_site_fract_x
 _atom_site_fract_y
 _atom_site_fract_z
 _atom_site_occupancy
 _atom_site_charge
  Ce  Ce1  1  0.793910  0.956850  0.001210  1.0  2.2417
  Ce  Ce2  1  0.206090  0.043150  0.998790  1.0  2.2425
  H  H3  1  0.867600  0.369800  0.836400  1.0  0.1582
  H  H4  1  0.969600  0.372800  0.746100  1.0  0.152
  H  H5  1  0.329000  0.384000  0.894000  1.0  0.3279
  H  H6  1  0.258000  0.480000  0.802000  1.0  0.2923
  H  H7  1  0.878700  0.944400  0.555900  1.0  0.0811
  H  H8  1  0.875600  0.066300  0.463200  1.0  0.0976
  H  H9  1  0.272700  0.348100  0.394000  1.0  0.3718
  H  H10  1  0.258400  0.286000  0.321800  1.0  0.3193
  H  H11  1  0.851200  0.106900  0.285500  1.0  0.1341
  H  H12  1  0.818200  0.230300  0.198000  1.0  0.1386
  H  H13  1  0.119100  0.533300  0.433800  1.0  0.0924
  H  H14  1  0.110900  0.410400  0.525700  1.0  0.1047
  H  H15  1  0.672800  0.048900  0.605200  1.0  0.3558
  H  H16  1  0.630700  0.119700  0.671300  1.0  0.3599
  H  H17  1  0.481600  0.834100  0.804900  1.0  0.1646
  H  H18  1  0.631200  0.827500  0.755300  1.0  0.1365
  H  H19  1  0.031200  0.482400  0.908800  1.0  0.1003
  H  H20  1  0.078600  0.388300  0.009700  1.0  0.1116
  H  H21  1  0.132400  0.630200  0.163600  1.0  0.1586
  H  H22  1  0.030400  0.627200  0.253900  1.0  0.152
  H  H23  1  0.671000  0.616000  0.106000  1.0  0.3303
  H  H24  1  0.742000  0.520000  0.198000  1.0  0.2925
  H  H25  1  0.121300  0.055600  0.444100  1.0  0.0809
  H  H26  1  0.124400  0.933700  0.536800  1.0  0.0972
  H  H27  1  0.727300  0.651900  0.606000  1.0  0.3712
  H  H28  1  0.741600  0.714000  0.678200  1.0  0.3194
  H  H29  1  0.148800  0.893100  0.714500  1.0  0.1347
  H  H30  1  0.181800  0.769700  0.802000  1.0  0.1366
  H  H31  1  0.880900  0.466700  0.566200  1.0  0.0929
  H  H32  1  0.889100  0.589600  0.474300  1.0  0.1041
  H  H33  1  0.327200  0.951100  0.394800  1.0  0.3554
  H  H34  1  0.369300  0.880300  0.328700  1.0  0.3593
  H  H35  1  0.518400  0.165900  0.195100  1.0  0.165
  H  H36  1  0.368800  0.172500  0.244700  1.0  0.1359
  H  H37  1  0.968800  0.517600  0.091200  1.0  0.0995
  H  H38  1  0.921400  0.611700  0.990300  1.0  0.1109
  C  C39  1  0.923100  0.097600  0.149900  1.0  0.8194
  C  C40  1  0.888400  0.193400  0.680700  1.0  0.1975
  C  C41  1  0.007800  0.223600  0.868500  1.0  0.7868
  C  C42  1  0.912900  0.319200  0.801100  1.0  -0.3152
  C  C43  1  0.929400  0.018300  0.518600  1.0  -0.1698
  C  C44  1  0.985300  0.305600  0.316400  1.0  0.1693
  C  C45  1  0.888000  0.164300  0.223000  1.0  -0.3194
  C  C46  1  0.944000  0.093000  0.582400  1.0  0.2319
  C  C47  1  0.995600  0.407200  0.415400  1.0  0.2547
  C  C48  1  0.056600  0.470400  0.475700  1.0  -0.1823
  C  C49  1  0.575200  0.797300  0.817100  1.0  -0.3126
  C  C50  1  0.635500  0.844800  0.888800  1.0  0.7406
  C  C51  1  0.398800  0.612600  0.912700  1.0  0.2126
  C  C52  1  0.188600  0.545100  0.961000  1.0  0.2541
  C  C53  1  0.059500  0.475200  0.973000  1.0  -0.215
  C  C54  1  0.076900  0.902400  0.850100  1.0  0.821
  C  C55  1  0.111600  0.806600  0.319300  1.0  0.197
  C  C56  1  0.992200  0.776400  0.131500  1.0  0.7872
  C  C57  1  0.087100  0.680800  0.198900  1.0  -0.3185
  C  C58  1  0.070600  0.981700  0.481400  1.0  -0.1699
  C  C59  1  0.014700  0.694400  0.683600  1.0  0.1697
  C  C60  1  0.112000  0.835700  0.777000  1.0  -0.3204
  C  C61  1  0.056000  0.907000  0.417600  1.0  0.2338
  C  C62  1  0.004400  0.592800  0.584600  1.0  0.2546
  C  C63  1  0.943400  0.529600  0.524300  1.0  -0.1799
  C  C64  1  0.424800  0.202700  0.182900  1.0  -0.3154
  C  C65  1  0.364500  0.155200  0.111200  1.0  0.7401
  C  C66  1  0.601200  0.387400  0.087300  1.0  0.2136
  C  C67  1  0.811400  0.454900  0.039000  1.0  0.2568
  C  C68  1  0.940500  0.524800  0.027000  1.0  -0.2114
  S  S69  1  0.048460  0.226840  0.238680  1.0  0.0038
  S  S70  1  0.563900  0.631930  0.851240  1.0  -0.0211
  S  S71  1  0.780310  0.256580  0.754180  1.0  -0.0366
  S  S72  1  0.951540  0.773160  0.761320  1.0  0.0043
  S  S73  1  0.436100  0.368070  0.148760  1.0  -0.0202
  S  S74  1  0.219690  0.743420  0.245820  1.0  -0.037
  N  N75  1  0.306600  0.532600  0.905100  1.0  0.0862
  N  N76  1  0.206100  0.628800  0.999600  1.0  -0.2966
  N  N77  1  0.075700  0.348700  0.362600  1.0  0.1359
  N  N78  1  0.023200  0.201400  0.661800  1.0  -0.2963
  N  N79  1  0.341700  0.670600  0.969600  1.0  -0.3318
  N  N80  1  0.833500  0.126700  0.633300  1.0  0.1417
  N  N81  1  0.333700  0.454500  0.850000  1.0  -0.6018
  N  N82  1  0.221100  0.324500  0.359000  1.0  -0.6683
  N  N83  1  0.058600  0.135300  0.597300  1.0  -0.3312
  N  N84  1  0.866300  0.401500  0.402900  1.0  -0.3071
  N  N85  1  0.857400  0.335200  0.338500  1.0  -0.329
  N  N86  1  0.694500  0.094300  0.637100  1.0  -0.6518
  N  N87  1  0.693400  0.467400  0.094900  1.0  0.0872
  N  N88  1  0.793900  0.371200  0.000400  1.0  -0.2954
  N  N89  1  0.924300  0.651300  0.637400  1.0  0.1354
  N  N90  1  0.976800  0.798600  0.338200  1.0  -0.2979
  N  N91  1  0.658300  0.329400  0.030400  1.0  -0.3324
  N  N92  1  0.166500  0.873300  0.366700  1.0  0.1409
  N  N93  1  0.666300  0.545500  0.150000  1.0  -0.6018
  N  N94  1  0.778900  0.675500  0.641000  1.0  -0.6681
  N  N95  1  0.941400  0.864700  0.402700  1.0  -0.331
  N  N96  1  0.133700  0.598500  0.597100  1.0  -0.3075
  N  N97  1  0.142600  0.664800  0.661500  1.0  -0.3302
  N  N98  1  0.305500  0.905700  0.362900  1.0  -0.6534
  O  O99  1  0.825400  0.047600  0.129380  1.0  -0.7286
  O  O100  1  0.959500  0.121700  0.925070  1.0  -0.8548
  O  O101  1  0.131500  0.249100  0.869170  1.0  -0.6447
  O  O102  1  0.048900  0.099400  0.117400  1.0  -0.7021
  O  O103  1  0.682800  0.776200  0.966950  1.0  -0.6786
  O  O104  1  0.638300  0.962900  0.861460  1.0  -0.7837
  O  O105  1  0.174600  0.952400  0.870620  1.0  -0.7245
  O  O106  1  0.040500  0.878300  0.074930  1.0  -0.8537
  O  O107  1  0.868500  0.750900  0.130830  1.0  -0.6447
  O  O108  1  0.951100  0.900600  0.882600  1.0  -0.7021
  O  O109  1  0.317200  0.223800  0.033050  1.0  -0.6778
  O  O110  1  0.361700  0.037100  0.138540  1.0  -0.7838
