# generated using pymatgen
data_CdNiC7N6
_symmetry_space_group_name_H-M   'P 1'
_cell_length_a   14.08200000
_cell_length_b   26.94300000
_cell_length_c   7.60200000
_cell_angle_alpha   90.00000000
_cell_angle_beta   90.00000000
_cell_angle_gamma   90.43000000
_symmetry_Int_Tables_number   1
_chemical_formula_structural   CdNiC7N6
_chemical_formula_sum   'Cd8 Ni8 C56 N48'
_cell_volume   2884.20367375
_cell_formula_units_Z   8
loop_
 _symmetry_equiv_pos_site_id
 _symmetry_equiv_pos_as_xyz
  1  'x, y, z'
loop_
 _atom_site_type_symbol
 _atom_site_label
 _atom_site_symmetry_multiplicity
 _atom_site_fract_x
 _atom_site_fract_y
 _atom_site_fract_z
 _atom_site_occupancy
 _atom_site_charge
  Cd  Cd1  1  0.279330  0.135240  0.882500  1.0  1.0217
  Cd  Cd2  1  0.279330  0.635240  0.382500  1.0  1.0217
  Cd  Cd3  1  0.220670  0.864760  0.882500  1.0  1.0209
  Cd  Cd4  1  0.220670  0.364760  0.382500  1.0  1.0209
  Cd  Cd5  1  0.720670  0.864760  0.117500  1.0  1.0221
  Cd  Cd6  1  0.720670  0.364760  0.617500  1.0  1.0221
  Cd  Cd7  1  0.779330  0.135240  0.117500  1.0  1.023
  Cd  Cd8  1  0.779330  0.635240  0.617500  1.0  1.023
  Ni  Ni9  1  0.250000  0.000000  0.375800  1.0  0.1922
  Ni  Ni10  1  0.250000  0.500000  0.875800  1.0  0.1922
  Ni  Ni11  1  0.750000  0.000000  0.624200  1.0  0.1921
  Ni  Ni12  1  0.750000  0.500000  0.124200  1.0  0.1921
  Ni  Ni13  1  0.500000  0.250000  0.250000  1.0  0.3463
  Ni  Ni14  1  0.000000  0.750000  0.250000  1.0  0.3463
  Ni  Ni15  1  0.500000  0.750000  0.750000  1.0  0.3463
  Ni  Ni16  1  0.000000  0.250000  0.750000  1.0  0.3463
  C  C17  1  0.260000  0.049800  0.203000  1.0  0.1716
  C  C18  1  0.257000  0.049200  0.550000  1.0  0.1651
  C  C19  1  0.394000  0.219100  0.153000  1.0  0.1835
  C  C20  1  0.575000  0.199200  0.171000  1.0  0.1686
  C  C21  1  0.424000  0.192000  0.632000  1.0  0.1213
  C  C22  1  0.477000  0.156000  0.689000  1.0  0.2787
  C  C23  1  0.580000  0.156100  0.653000  1.0  0.0226
  C  C24  1  0.260000  0.549800  0.703000  1.0  0.1716
  C  C25  1  0.257000  0.549200  0.050000  1.0  0.1651
  C  C26  1  0.394000  0.719100  0.653000  1.0  0.1835
  C  C27  1  0.575000  0.699200  0.671000  1.0  0.1686
  C  C28  1  0.424000  0.692000  0.132000  1.0  0.1213
  C  C29  1  0.477000  0.656000  0.189000  1.0  0.2787
  C  C30  1  0.580000  0.656100  0.153000  1.0  0.0226
  C  C31  1  0.240000  0.950200  0.203000  1.0  0.172
  C  C32  1  0.243000  0.950800  0.550000  1.0  0.1655
  C  C33  1  0.106000  0.780900  0.153000  1.0  0.1839
  C  C34  1  0.925000  0.800800  0.171000  1.0  0.167
  C  C35  1  0.076000  0.808000  0.632000  1.0  0.12
  C  C36  1  0.023000  0.844000  0.689000  1.0  0.2792
  C  C37  1  0.920000  0.843900  0.653000  1.0  0.0264
  C  C38  1  0.240000  0.450200  0.703000  1.0  0.172
  C  C39  1  0.243000  0.450800  0.050000  1.0  0.1655
  C  C40  1  0.106000  0.280900  0.653000  1.0  0.1839
  C  C41  1  0.925000  0.300800  0.671000  1.0  0.167
  C  C42  1  0.076000  0.308000  0.132000  1.0  0.12
  C  C43  1  0.023000  0.344000  0.189000  1.0  0.2792
  C  C44  1  0.920000  0.343900  0.153000  1.0  0.0264
  C  C45  1  0.740000  0.950200  0.797000  1.0  0.1724
  C  C46  1  0.743000  0.950800  0.450000  1.0  0.1663
  C  C47  1  0.606000  0.780900  0.847000  1.0  0.1836
  C  C48  1  0.425000  0.800800  0.829000  1.0  0.1669
  C  C49  1  0.576000  0.808000  0.368000  1.0  0.1196
  C  C50  1  0.523000  0.844000  0.311000  1.0  0.2796
  C  C51  1  0.420000  0.843900  0.347000  1.0  0.0262
  C  C52  1  0.740000  0.450200  0.297000  1.0  0.1724
  C  C53  1  0.743000  0.450800  0.950000  1.0  0.1663
  C  C54  1  0.606000  0.280900  0.347000  1.0  0.1836
  C  C55  1  0.425000  0.300800  0.329000  1.0  0.1669
  C  C56  1  0.576000  0.308000  0.868000  1.0  0.1196
  C  C57  1  0.523000  0.344000  0.811000  1.0  0.2796
  C  C58  1  0.420000  0.343900  0.847000  1.0  0.0262
  C  C59  1  0.760000  0.049800  0.797000  1.0  0.1719
  C  C60  1  0.757000  0.049200  0.450000  1.0  0.1657
  C  C61  1  0.894000  0.219100  0.847000  1.0  0.183
  C  C62  1  0.075000  0.199200  0.829000  1.0  0.1687
  C  C63  1  0.924000  0.192000  0.368000  1.0  0.1204
  C  C64  1  0.977000  0.156000  0.311000  1.0  0.2792
  C  C65  1  0.080000  0.156100  0.347000  1.0  0.0225
  C  C66  1  0.760000  0.549800  0.297000  1.0  0.1719
  C  C67  1  0.757000  0.549200  0.950000  1.0  0.1657
  C  C68  1  0.894000  0.719100  0.347000  1.0  0.183
  C  C69  1  0.075000  0.699200  0.329000  1.0  0.1687
  C  C70  1  0.924000  0.692000  0.868000  1.0  0.1204
  C  C71  1  0.977000  0.656000  0.811000  1.0  0.2792
  C  C72  1  0.080000  0.656100  0.847000  1.0  0.0225
  N  N73  1  0.267000  0.081200  0.100000  1.0  -0.4674
  N  N74  1  0.261000  0.079500  0.656000  1.0  -0.4308
  N  N75  1  0.328000  0.198700  0.091000  1.0  -0.4774
  N  N76  1  0.624000  0.166200  0.125000  1.0  -0.4561
  N  N77  1  0.317000  0.191100  0.652000  1.0  -0.248
  N  N78  1  0.449000  0.126800  0.837000  1.0  -0.3198
  N  N79  1  0.267000  0.581200  0.600000  1.0  -0.4674
  N  N80  1  0.261000  0.579500  0.156000  1.0  -0.4308
  N  N81  1  0.328000  0.698700  0.591000  1.0  -0.4774
  N  N82  1  0.624000  0.666200  0.625000  1.0  -0.4561
  N  N83  1  0.317000  0.691100  0.152000  1.0  -0.248
  N  N84  1  0.449000  0.626800  0.337000  1.0  -0.3198
  N  N85  1  0.233000  0.918800  0.100000  1.0  -0.466
  N  N86  1  0.239000  0.920500  0.656000  1.0  -0.4309
  N  N87  1  0.172000  0.801300  0.091000  1.0  -0.4781
  N  N88  1  0.876000  0.833800  0.125000  1.0  -0.46
  N  N89  1  0.183000  0.808900  0.652000  1.0  -0.2497
  N  N90  1  0.051000  0.873200  0.837000  1.0  -0.3234
  N  N91  1  0.233000  0.418800  0.600000  1.0  -0.466
  N  N92  1  0.239000  0.420500  0.156000  1.0  -0.4309
  N  N93  1  0.172000  0.301300  0.591000  1.0  -0.4781
  N  N94  1  0.876000  0.333800  0.625000  1.0  -0.46
  N  N95  1  0.183000  0.308900  0.152000  1.0  -0.2497
  N  N96  1  0.051000  0.373200  0.337000  1.0  -0.3234
  N  N97  1  0.733000  0.918800  0.900000  1.0  -0.4665
  N  N98  1  0.739000  0.920500  0.344000  1.0  -0.4292
  N  N99  1  0.672000  0.801300  0.909000  1.0  -0.4788
  N  N100  1  0.376000  0.833800  0.875000  1.0  -0.4598
  N  N101  1  0.683000  0.808900  0.348000  1.0  -0.2503
  N  N102  1  0.551000  0.873200  0.163000  1.0  -0.3235
  N  N103  1  0.733000  0.418800  0.400000  1.0  -0.4665
  N  N104  1  0.739000  0.420500  0.844000  1.0  -0.4292
  N  N105  1  0.672000  0.301300  0.409000  1.0  -0.4788
  N  N106  1  0.376000  0.333800  0.375000  1.0  -0.4598
  N  N107  1  0.683000  0.308900  0.848000  1.0  -0.2503
  N  N108  1  0.551000  0.373200  0.663000  1.0  -0.3235
  N  N109  1  0.767000  0.081200  0.900000  1.0  -0.4676
  N  N110  1  0.761000  0.079500  0.344000  1.0  -0.4295
  N  N111  1  0.828000  0.198700  0.909000  1.0  -0.4782
  N  N112  1  0.124000  0.166200  0.875000  1.0  -0.4559
  N  N113  1  0.817000  0.191100  0.348000  1.0  -0.2489
  N  N114  1  0.949000  0.126800  0.163000  1.0  -0.3203
  N  N115  1  0.767000  0.581200  0.400000  1.0  -0.4676
  N  N116  1  0.761000  0.579500  0.844000  1.0  -0.4295
  N  N117  1  0.828000  0.698700  0.409000  1.0  -0.4782
  N  N118  1  0.124000  0.666200  0.375000  1.0  -0.4559
  N  N119  1  0.817000  0.691100  0.848000  1.0  -0.2489
  N  N120  1  0.949000  0.626800  0.663000  1.0  -0.3203
