# generated using pymatgen
data_CdNi(CN)6
_symmetry_space_group_name_H-M   'P 1'
_cell_length_a   14.11600000
_cell_length_b   26.83900000
_cell_length_c   7.64200000
_cell_angle_alpha   90.00000000
_cell_angle_beta   90.00000000
_cell_angle_gamma   90.19000000
_symmetry_Int_Tables_number   1
_chemical_formula_structural   CdNi(CN)6
_chemical_formula_sum   'Cd8 Ni8 C48 N48'
_cell_volume   2895.22703498
_cell_formula_units_Z   8
loop_
 _symmetry_equiv_pos_site_id
 _symmetry_equiv_pos_as_xyz
  1  'x, y, z'
loop_
 _atom_site_type_symbol
 _atom_site_label
 _atom_site_symmetry_multiplicity
 _atom_site_fract_x
 _atom_site_fract_y
 _atom_site_fract_z
 _atom_site_occupancy
 _atom_site_charge
  Cd  Cd1  1  0.279800  0.135180  0.885200  1.0  1.0287
  Cd  Cd2  1  0.279800  0.635180  0.385200  1.0  1.0287
  Cd  Cd3  1  0.220200  0.864820  0.885200  1.0  1.0293
  Cd  Cd4  1  0.220200  0.364820  0.385200  1.0  1.0293
  Cd  Cd5  1  0.720200  0.864820  0.114800  1.0  1.029
  Cd  Cd6  1  0.720200  0.364820  0.614800  1.0  1.029
  Cd  Cd7  1  0.779800  0.135180  0.114800  1.0  1.0284
  Cd  Cd8  1  0.779800  0.635180  0.614800  1.0  1.0284
  Ni  Ni9  1  0.250000  0.000000  0.379900  1.0  0.124
  Ni  Ni10  1  0.250000  0.500000  0.879900  1.0  0.124
  Ni  Ni11  1  0.750000  0.000000  0.620100  1.0  0.1238
  Ni  Ni12  1  0.750000  0.500000  0.120100  1.0  0.1238
  Ni  Ni13  1  0.500000  0.250000  0.250000  1.0  0.3217
  Ni  Ni14  1  0.000000  0.750000  0.250000  1.0  0.3217
  Ni  Ni15  1  0.500000  0.750000  0.750000  1.0  0.3217
  Ni  Ni16  1  0.000000  0.250000  0.750000  1.0  0.3217
  C  C17  1  0.258000  0.048700  0.207000  1.0  0.1223
  C  C18  1  0.252000  0.047800  0.554000  1.0  0.15
  C  C19  1  0.391000  0.217900  0.153000  1.0  0.2856
  C  C20  1  0.579000  0.199100  0.168000  1.0  0.1902
  C  C21  1  0.417000  0.189000  0.622000  1.0  0.1799
  C  C22  1  0.465000  0.148000  0.669000  1.0  0.0932
  C  C23  1  0.258000  0.548700  0.707000  1.0  0.1223
  C  C24  1  0.252000  0.547800  0.054000  1.0  0.15
  C  C25  1  0.391000  0.717900  0.653000  1.0  0.2856
  C  C26  1  0.579000  0.699100  0.668000  1.0  0.1902
  C  C27  1  0.417000  0.689000  0.122000  1.0  0.1799
  C  C28  1  0.465000  0.648000  0.169000  1.0  0.0932
  C  C29  1  0.242000  0.951300  0.207000  1.0  0.1215
  C  C30  1  0.248000  0.952200  0.554000  1.0  0.1503
  C  C31  1  0.109000  0.782100  0.153000  1.0  0.2863
  C  C32  1  0.921000  0.800900  0.168000  1.0  0.1895
  C  C33  1  0.083000  0.811000  0.622000  1.0  0.1777
  C  C34  1  0.035000  0.852000  0.669000  1.0  0.0924
  C  C35  1  0.242000  0.451300  0.707000  1.0  0.1215
  C  C36  1  0.248000  0.452200  0.054000  1.0  0.1503
  C  C37  1  0.109000  0.282100  0.653000  1.0  0.2863
  C  C38  1  0.921000  0.300900  0.668000  1.0  0.1895
  C  C39  1  0.083000  0.311000  0.122000  1.0  0.1777
  C  C40  1  0.035000  0.352000  0.169000  1.0  0.0924
  C  C41  1  0.742000  0.951300  0.793000  1.0  0.1215
  C  C42  1  0.748000  0.952200  0.446000  1.0  0.1518
  C  C43  1  0.609000  0.782100  0.847000  1.0  0.2863
  C  C44  1  0.421000  0.800900  0.832000  1.0  0.1894
  C  C45  1  0.583000  0.811000  0.378000  1.0  0.1779
  C  C46  1  0.535000  0.852000  0.331000  1.0  0.0913
  C  C47  1  0.742000  0.451300  0.293000  1.0  0.1215
  C  C48  1  0.748000  0.452200  0.946000  1.0  0.1518
  C  C49  1  0.609000  0.282100  0.347000  1.0  0.2863
  C  C50  1  0.421000  0.300900  0.332000  1.0  0.1894
  C  C51  1  0.583000  0.311000  0.878000  1.0  0.1779
  C  C52  1  0.535000  0.352000  0.831000  1.0  0.0913
  C  C53  1  0.758000  0.048700  0.793000  1.0  0.121
  C  C54  1  0.752000  0.047800  0.446000  1.0  0.1503
  C  C55  1  0.891000  0.217900  0.847000  1.0  0.2855
  C  C56  1  0.079000  0.199100  0.832000  1.0  0.1902
  C  C57  1  0.917000  0.189000  0.378000  1.0  0.1795
  C  C58  1  0.965000  0.148000  0.331000  1.0  0.0923
  C  C59  1  0.758000  0.548700  0.293000  1.0  0.121
  C  C60  1  0.752000  0.547800  0.946000  1.0  0.1503
  C  C61  1  0.891000  0.717900  0.347000  1.0  0.2855
  C  C62  1  0.079000  0.699100  0.332000  1.0  0.1902
  C  C63  1  0.917000  0.689000  0.878000  1.0  0.1795
  C  C64  1  0.965000  0.648000  0.831000  1.0  0.0923
  N  N65  1  0.266000  0.082400  0.104000  1.0  -0.452
  N  N66  1  0.257000  0.080800  0.661000  1.0  -0.4272
  N  N67  1  0.336000  0.199700  0.085000  1.0  -0.332
  N  N68  1  0.631000  0.168700  0.120000  1.0  -0.4324
  N  N69  1  0.321000  0.193700  0.656000  1.0  -0.3039
  N  N70  1  0.446000  0.126200  0.831000  1.0  -0.3238
  N  N71  1  0.266000  0.582400  0.604000  1.0  -0.452
  N  N72  1  0.257000  0.580800  0.161000  1.0  -0.4272
  N  N73  1  0.336000  0.699700  0.585000  1.0  -0.332
  N  N74  1  0.631000  0.668700  0.620000  1.0  -0.4324
  N  N75  1  0.321000  0.693700  0.156000  1.0  -0.3039
  N  N76  1  0.446000  0.626200  0.331000  1.0  -0.3238
  N  N77  1  0.234000  0.917600  0.104000  1.0  -0.452
  N  N78  1  0.243000  0.919200  0.661000  1.0  -0.4261
  N  N79  1  0.164000  0.800300  0.085000  1.0  -0.3298
  N  N80  1  0.869000  0.831300  0.120000  1.0  -0.4356
  N  N81  1  0.179000  0.806300  0.656000  1.0  -0.3016
  N  N82  1  0.054000  0.873800  0.831000  1.0  -0.3262
  N  N83  1  0.234000  0.417600  0.604000  1.0  -0.452
  N  N84  1  0.243000  0.419200  0.161000  1.0  -0.4261
  N  N85  1  0.164000  0.300300  0.585000  1.0  -0.3298
  N  N86  1  0.869000  0.331300  0.620000  1.0  -0.4356
  N  N87  1  0.179000  0.306300  0.156000  1.0  -0.3016
  N  N88  1  0.054000  0.373800  0.331000  1.0  -0.3262
  N  N89  1  0.734000  0.917600  0.896000  1.0  -0.4524
  N  N90  1  0.743000  0.919200  0.339000  1.0  -0.4242
  N  N91  1  0.664000  0.800300  0.915000  1.0  -0.3303
  N  N92  1  0.369000  0.831300  0.880000  1.0  -0.4357
  N  N93  1  0.679000  0.806300  0.344000  1.0  -0.3023
  N  N94  1  0.554000  0.873800  0.169000  1.0  -0.3265
  N  N95  1  0.734000  0.417600  0.396000  1.0  -0.4524
  N  N96  1  0.743000  0.419200  0.839000  1.0  -0.4242
  N  N97  1  0.664000  0.300300  0.415000  1.0  -0.3303
  N  N98  1  0.369000  0.331300  0.380000  1.0  -0.4357
  N  N99  1  0.679000  0.306300  0.844000  1.0  -0.3023
  N  N100  1  0.554000  0.373800  0.669000  1.0  -0.3265
  N  N101  1  0.766000  0.082400  0.896000  1.0  -0.4524
  N  N102  1  0.757000  0.080800  0.339000  1.0  -0.4253
  N  N103  1  0.836000  0.199700  0.915000  1.0  -0.3323
  N  N104  1  0.131000  0.168700  0.880000  1.0  -0.4318
  N  N105  1  0.821000  0.193700  0.344000  1.0  -0.3041
  N  N106  1  0.946000  0.126200  0.169000  1.0  -0.3231
  N  N107  1  0.766000  0.582400  0.396000  1.0  -0.4524
  N  N108  1  0.757000  0.580800  0.839000  1.0  -0.4253
  N  N109  1  0.836000  0.699700  0.415000  1.0  -0.3323
  N  N110  1  0.131000  0.668700  0.380000  1.0  -0.4318
  N  N111  1  0.821000  0.693700  0.844000  1.0  -0.3041
  N  N112  1  0.946000  0.626200  0.669000  1.0  -0.3231
