# generated using pymatgen
data_CdNiC7N6
_symmetry_space_group_name_H-M   'P 1'
_cell_length_a   13.89700000
_cell_length_b   26.89000000
_cell_length_c   7.60700000
_cell_angle_alpha   90.00000000
_cell_angle_beta   90.00000000
_cell_angle_gamma   88.88000000
_symmetry_Int_Tables_number   1
_chemical_formula_structural   CdNiC7N6
_chemical_formula_sum   'Cd8 Ni8 C56 N48'
_cell_volume   2842.11924978
_cell_formula_units_Z   8
loop_
 _symmetry_equiv_pos_site_id
 _symmetry_equiv_pos_as_xyz
  1  'x, y, z'
loop_
 _atom_site_type_symbol
 _atom_site_label
 _atom_site_symmetry_multiplicity
 _atom_site_fract_x
 _atom_site_fract_y
 _atom_site_fract_z
 _atom_site_occupancy
 _atom_site_charge
  Cd  Cd1  1  0.287800  0.134760  0.878960  1.0  1.0685
  Cd  Cd2  1  0.287800  0.634760  0.378960  1.0  1.0685
  Cd  Cd3  1  0.212200  0.865240  0.878960  1.0  1.0674
  Cd  Cd4  1  0.212200  0.365240  0.378960  1.0  1.0674
  Cd  Cd5  1  0.712200  0.865240  0.121040  1.0  1.0674
  Cd  Cd6  1  0.712200  0.365240  0.621040  1.0  1.0674
  Cd  Cd7  1  0.787800  0.134760  0.121040  1.0  1.0684
  Cd  Cd8  1  0.787800  0.634760  0.621040  1.0  1.0684
  Ni  Ni9  1  0.250000  0.000000  0.372600  1.0  0.0352
  Ni  Ni10  1  0.250000  0.500000  0.872600  1.0  0.0352
  Ni  Ni11  1  0.750000  0.000000  0.627400  1.0  0.0352
  Ni  Ni12  1  0.750000  0.500000  0.127400  1.0  0.0352
  Ni  Ni13  1  0.500000  0.250000  0.250000  1.0  0.3572
  Ni  Ni14  1  0.000000  0.750000  0.250000  1.0  0.3572
  Ni  Ni15  1  0.500000  0.750000  0.750000  1.0  0.3572
  Ni  Ni16  1  0.000000  0.250000  0.750000  1.0  0.3572
  C  C17  1  0.258600  0.048200  0.198700  1.0  0.1613
  C  C18  1  0.255400  0.048300  0.547400  1.0  0.1547
  C  C19  1  0.394800  0.218100  0.152300  1.0  0.1503
  C  C20  1  0.081300  0.198500  0.826300  1.0  0.1793
  C  C21  1  0.428000  0.189500  0.626000  1.0  0.1503
  C  C22  1  0.484900  0.155500  0.692000  1.0  0.1957
  C  C23  1  0.592100  0.155200  0.653000  1.0  -0.0117
  C  C24  1  0.258600  0.548200  0.698700  1.0  0.1613
  C  C25  1  0.255400  0.548300  0.047400  1.0  0.1547
  C  C26  1  0.394800  0.718100  0.652300  1.0  0.1503
  C  C27  1  0.081300  0.698500  0.326300  1.0  0.1793
  C  C28  1  0.428000  0.689500  0.126000  1.0  0.1503
  C  C29  1  0.484900  0.655500  0.192000  1.0  0.1957
  C  C30  1  0.592100  0.655200  0.153000  1.0  -0.0117
  C  C31  1  0.241400  0.951800  0.198700  1.0  0.1612
  C  C32  1  0.244600  0.951700  0.547400  1.0  0.1553
  C  C33  1  0.105200  0.781900  0.152300  1.0  0.151
  C  C34  1  0.418700  0.801500  0.826300  1.0  0.1783
  C  C35  1  0.072000  0.810500  0.626000  1.0  0.1523
  C  C36  1  0.015100  0.844500  0.692000  1.0  0.1984
  C  C37  1  0.907900  0.844800  0.653000  1.0  -0.0105
  C  C38  1  0.241400  0.451800  0.698700  1.0  0.1612
  C  C39  1  0.244600  0.451700  0.047400  1.0  0.1553
  C  C40  1  0.105200  0.281900  0.652300  1.0  0.151
  C  C41  1  0.418700  0.301500  0.326300  1.0  0.1783
  C  C42  1  0.072000  0.310500  0.126000  1.0  0.1523
  C  C43  1  0.015100  0.344500  0.192000  1.0  0.1984
  C  C44  1  0.907900  0.344800  0.153000  1.0  -0.0105
  C  C45  1  0.741400  0.951800  0.801300  1.0  0.1611
  C  C46  1  0.744600  0.951700  0.452600  1.0  0.1562
  C  C47  1  0.605200  0.781900  0.847700  1.0  0.151
  C  C48  1  0.918700  0.801500  0.173700  1.0  0.1781
  C  C49  1  0.572000  0.810500  0.374000  1.0  0.1533
  C  C50  1  0.515100  0.844500  0.308000  1.0  0.1984
  C  C51  1  0.407900  0.844800  0.347000  1.0  -0.0109
  C  C52  1  0.741400  0.451800  0.301300  1.0  0.1611
  C  C53  1  0.744600  0.451700  0.952600  1.0  0.1562
  C  C54  1  0.605200  0.281900  0.347700  1.0  0.151
  C  C55  1  0.918700  0.301500  0.673700  1.0  0.1781
  C  C56  1  0.572000  0.310500  0.874000  1.0  0.1533
  C  C57  1  0.515100  0.344500  0.808000  1.0  0.1984
  C  C58  1  0.407900  0.344800  0.847000  1.0  -0.0109
  C  C59  1  0.758600  0.048200  0.801300  1.0  0.1608
  C  C60  1  0.755400  0.048300  0.452600  1.0  0.1557
  C  C61  1  0.894800  0.218100  0.847700  1.0  0.1503
  C  C62  1  0.581300  0.198500  0.173700  1.0  0.1791
  C  C63  1  0.928000  0.189500  0.374000  1.0  0.1515
  C  C64  1  0.984900  0.155500  0.308000  1.0  0.1956
  C  C65  1  0.092100  0.155200  0.347000  1.0  -0.0119
  C  C66  1  0.758600  0.548200  0.301300  1.0  0.1608
  C  C67  1  0.755400  0.548300  0.952600  1.0  0.1557
  C  C68  1  0.894800  0.718100  0.347700  1.0  0.1503
  C  C69  1  0.581300  0.698500  0.673700  1.0  0.1791
  C  C70  1  0.928000  0.689500  0.874000  1.0  0.1515
  C  C71  1  0.984900  0.655500  0.808000  1.0  0.1956
  C  C72  1  0.092100  0.655200  0.847000  1.0  -0.0119
  N  N73  1  0.266500  0.078700  0.092700  1.0  -0.4414
  N  N74  1  0.256800  0.077000  0.656800  1.0  -0.3776
  N  N75  1  0.330900  0.198800  0.088800  1.0  -0.4371
  N  N76  1  0.131600  0.167600  0.871800  1.0  -0.4256
  N  N77  1  0.325300  0.191800  0.651600  1.0  -0.2809
  N  N78  1  0.454500  0.121900  0.830800  1.0  -0.2878
  N  N79  1  0.266500  0.578700  0.592700  1.0  -0.4414
  N  N80  1  0.256800  0.577000  0.156800  1.0  -0.3776
  N  N81  1  0.330900  0.698800  0.588800  1.0  -0.4371
  N  N82  1  0.131600  0.667600  0.371800  1.0  -0.4256
  N  N83  1  0.325300  0.691800  0.151600  1.0  -0.2809
  N  N84  1  0.454500  0.621900  0.330800  1.0  -0.2878
  N  N85  1  0.233500  0.921300  0.092700  1.0  -0.4393
  N  N86  1  0.243200  0.923000  0.656800  1.0  -0.3762
  N  N87  1  0.169100  0.801200  0.088800  1.0  -0.437
  N  N88  1  0.368400  0.832400  0.871800  1.0  -0.4279
  N  N89  1  0.174700  0.808200  0.651600  1.0  -0.2786
  N  N90  1  0.045500  0.878100  0.830800  1.0  -0.2896
  N  N91  1  0.233500  0.421300  0.592700  1.0  -0.4393
  N  N92  1  0.243200  0.423000  0.156800  1.0  -0.3762
  N  N93  1  0.169100  0.301200  0.588800  1.0  -0.437
  N  N94  1  0.368400  0.332400  0.371800  1.0  -0.4279
  N  N95  1  0.174700  0.308200  0.151600  1.0  -0.2786
  N  N96  1  0.045500  0.378100  0.330800  1.0  -0.2896
  N  N97  1  0.733500  0.921300  0.907300  1.0  -0.4397
  N  N98  1  0.743200  0.923000  0.343200  1.0  -0.3746
  N  N99  1  0.669100  0.801200  0.911200  1.0  -0.437
  N  N100  1  0.868400  0.832400  0.128200  1.0  -0.4271
  N  N101  1  0.674700  0.808200  0.348400  1.0  -0.2784
  N  N102  1  0.545500  0.878100  0.169200  1.0  -0.2883
  N  N103  1  0.733500  0.421300  0.407300  1.0  -0.4397
  N  N104  1  0.743200  0.423000  0.843200  1.0  -0.3746
  N  N105  1  0.669100  0.301200  0.411200  1.0  -0.437
  N  N106  1  0.868400  0.332400  0.628200  1.0  -0.4271
  N  N107  1  0.674700  0.308200  0.848400  1.0  -0.2784
  N  N108  1  0.545500  0.378100  0.669200  1.0  -0.2883
  N  N109  1  0.766500  0.078700  0.907300  1.0  -0.4409
  N  N110  1  0.756800  0.077000  0.343200  1.0  -0.3763
  N  N111  1  0.830900  0.198800  0.911200  1.0  -0.4372
  N  N112  1  0.631600  0.167600  0.128200  1.0  -0.4253
  N  N113  1  0.825300  0.191800  0.348400  1.0  -0.2804
  N  N114  1  0.954500  0.121900  0.169200  1.0  -0.2864
  N  N115  1  0.766500  0.578700  0.407300  1.0  -0.4409
  N  N116  1  0.756800  0.577000  0.843200  1.0  -0.3763
  N  N117  1  0.830900  0.698800  0.411200  1.0  -0.4372
  N  N118  1  0.631600  0.667600  0.628200  1.0  -0.4253
  N  N119  1  0.825300  0.691800  0.848400  1.0  -0.2804
  N  N120  1  0.954500  0.621900  0.669200  1.0  -0.2864
