# generated using pymatgen
data_CdNiC7N6
_symmetry_space_group_name_H-M   'P 1'
_cell_length_a   13.98100000
_cell_length_b   26.68500000
_cell_length_c   7.69800000
_cell_angle_alpha   90.00000000
_cell_angle_beta   90.00000000
_cell_angle_gamma   90.00000000
_symmetry_Int_Tables_number   1
_chemical_formula_structural   CdNiC7N6
_chemical_formula_sum   'Cd8 Ni8 C56 N48'
_cell_volume   2871.99281853
_cell_formula_units_Z   8
loop_
 _symmetry_equiv_pos_site_id
 _symmetry_equiv_pos_as_xyz
  1  'x, y, z'
loop_
 _atom_site_type_symbol
 _atom_site_label
 _atom_site_symmetry_multiplicity
 _atom_site_fract_x
 _atom_site_fract_y
 _atom_site_fract_z
 _atom_site_occupancy
 _atom_site_charge
  Cd  Cd1  1  0.217970  0.114870  0.133900  1.0  1.0226
  Cd  Cd2  1  0.282030  0.885130  0.633900  1.0  1.0233
  Cd  Cd3  1  0.782030  0.614870  0.866100  1.0  1.0234
  Cd  Cd4  1  0.717970  0.385130  0.366100  1.0  1.0236
  Cd  Cd5  1  0.782030  0.885130  0.866100  1.0  1.0237
  Cd  Cd6  1  0.717970  0.114870  0.366100  1.0  1.0233
  Cd  Cd7  1  0.217970  0.385130  0.133900  1.0  1.023
  Cd  Cd8  1  0.282030  0.614870  0.633900  1.0  1.023
  Ni  Ni9  1  0.242400  0.250000  0.628500  1.0  0.078
  Ni  Ni10  1  0.257600  0.750000  0.128500  1.0  0.0781
  Ni  Ni11  1  0.757600  0.750000  0.371500  1.0  0.0781
  Ni  Ni12  1  0.742400  0.250000  0.871500  1.0  0.078
  Ni  Ni13  1  0.000000  0.000000  0.500000  1.0  0.3471
  Ni  Ni14  1  0.500000  0.000000  0.000000  1.0  0.3471
  Ni  Ni15  1  0.000000  0.500000  0.500000  1.0  0.3471
  Ni  Ni16  1  0.500000  0.500000  0.000000  1.0  0.3471
  C  C17  1  0.244500  0.201300  0.801000  1.0  0.1756
  C  C18  1  0.238000  0.200500  0.458000  1.0  0.1674
  C  C19  1  0.107000  0.030400  0.400000  1.0  0.1839
  C  C20  1  0.077600  0.947500  0.577000  1.0  0.1527
  C  C21  1  0.081000  0.060200  0.871000  1.0  0.1545
  C  C22  1  0.023000  0.092700  0.939000  1.0  0.1713
  C  C23  1  0.916000  0.094800  0.899000  1.0  0.0138
  C  C24  1  0.255500  0.798700  0.301000  1.0  0.1746
  C  C25  1  0.262000  0.799500  0.958000  1.0  0.1672
  C  C26  1  0.393000  0.969600  0.900000  1.0  0.1837
  C  C27  1  0.422400  0.052500  0.077000  1.0  0.1519
  C  C28  1  0.419000  0.939800  0.371000  1.0  0.154
  C  C29  1  0.477000  0.907300  0.439000  1.0  0.1723
  C  C30  1  0.584000  0.905200  0.399000  1.0  0.0108
  C  C31  1  0.755500  0.701300  0.199000  1.0  0.1755
  C  C32  1  0.762000  0.700500  0.542000  1.0  0.1667
  C  C33  1  0.893000  0.530400  0.600000  1.0  0.1838
  C  C34  1  0.922400  0.447500  0.423000  1.0  0.1519
  C  C35  1  0.919000  0.560200  0.129000  1.0  0.1548
  C  C36  1  0.977000  0.592700  0.061000  1.0  0.172
  C  C37  1  0.084000  0.594800  0.101000  1.0  0.0103
  C  C38  1  0.744500  0.298700  0.699000  1.0  0.1746
  C  C39  1  0.738000  0.299500  0.042000  1.0  0.1662
  C  C40  1  0.607000  0.469600  0.100000  1.0  0.1849
  C  C41  1  0.577600  0.552500  0.923000  1.0  0.1517
  C  C42  1  0.581000  0.439800  0.629000  1.0  0.1538
  C  C43  1  0.523000  0.407300  0.561000  1.0  0.1713
  C  C44  1  0.416000  0.405200  0.601000  1.0  0.0133
  C  C45  1  0.755500  0.798700  0.199000  1.0  0.1746
  C  C46  1  0.762000  0.799500  0.542000  1.0  0.1662
  C  C47  1  0.893000  0.969600  0.600000  1.0  0.1841
  C  C48  1  0.922400  0.052500  0.423000  1.0  0.1517
  C  C49  1  0.919000  0.939800  0.129000  1.0  0.1539
  C  C50  1  0.977000  0.907300  0.061000  1.0  0.1721
  C  C51  1  0.084000  0.905200  0.101000  1.0  0.0103
  C  C52  1  0.744500  0.201300  0.699000  1.0  0.1754
  C  C53  1  0.738000  0.200500  0.042000  1.0  0.1667
  C  C54  1  0.607000  0.030400  0.100000  1.0  0.1844
  C  C55  1  0.577600  0.947500  0.923000  1.0  0.1525
  C  C56  1  0.581000  0.060200  0.629000  1.0  0.1546
  C  C57  1  0.523000  0.092700  0.561000  1.0  0.1711
  C  C58  1  0.416000  0.094800  0.601000  1.0  0.0131
  C  C59  1  0.244500  0.298700  0.801000  1.0  0.1746
  C  C60  1  0.238000  0.299500  0.458000  1.0  0.167
  C  C61  1  0.107000  0.469600  0.400000  1.0  0.1843
  C  C62  1  0.077600  0.552500  0.577000  1.0  0.1521
  C  C63  1  0.081000  0.439800  0.871000  1.0  0.1539
  C  C64  1  0.023000  0.407300  0.939000  1.0  0.1714
  C  C65  1  0.916000  0.405200  0.899000  1.0  0.0139
  C  C66  1  0.255500  0.701300  0.301000  1.0  0.1757
  C  C67  1  0.262000  0.700500  0.958000  1.0  0.1676
  C  C68  1  0.393000  0.530400  0.900000  1.0  0.1833
  C  C69  1  0.422400  0.447500  0.077000  1.0  0.1524
  C  C70  1  0.419000  0.560200  0.371000  1.0  0.1547
  C  C71  1  0.477000  0.592700  0.439000  1.0  0.1723
  C  C72  1  0.584000  0.594800  0.399000  1.0  0.011
  N  N73  1  0.245900  0.172400  0.910000  1.0  -0.4091
  N  N74  1  0.232900  0.170300  0.352000  1.0  -0.4012
  N  N75  1  0.170400  0.048500  0.334000  1.0  -0.4238
  N  N76  1  0.125900  0.916400  0.629000  1.0  -0.4168
  N  N77  1  0.180900  0.057700  0.905000  1.0  -0.3009
  N  N78  1  0.052300  0.125800  0.083000  1.0  -0.2983
  N  N79  1  0.254100  0.827600  0.410000  1.0  -0.409
  N  N80  1  0.267100  0.829700  0.852000  1.0  -0.4028
  N  N81  1  0.329600  0.951500  0.834000  1.0  -0.4241
  N  N82  1  0.374100  0.083600  0.129000  1.0  -0.4214
  N  N83  1  0.319100  0.942300  0.405000  1.0  -0.303
  N  N84  1  0.447700  0.874200  0.583000  1.0  -0.296
  N  N85  1  0.754100  0.672400  0.090000  1.0  -0.4073
  N  N86  1  0.767100  0.670300  0.648000  1.0  -0.4021
  N  N87  1  0.829600  0.548500  0.666000  1.0  -0.4242
  N  N88  1  0.874100  0.416400  0.371000  1.0  -0.4172
  N  N89  1  0.819100  0.557700  0.095000  1.0  -0.3024
  N  N90  1  0.947700  0.625800  0.917000  1.0  -0.2972
  N  N91  1  0.745900  0.327600  0.590000  1.0  -0.407
  N  N92  1  0.732900  0.329700  0.148000  1.0  -0.4034
  N  N93  1  0.670400  0.451500  0.166000  1.0  -0.4238
  N  N94  1  0.625900  0.583600  0.871000  1.0  -0.4193
  N  N95  1  0.680900  0.442300  0.595000  1.0  -0.3013
  N  N96  1  0.552300  0.374200  0.417000  1.0  -0.2959
  N  N97  1  0.754100  0.827600  0.090000  1.0  -0.4077
  N  N98  1  0.767100  0.829700  0.648000  1.0  -0.4034
  N  N99  1  0.829600  0.951500  0.666000  1.0  -0.4241
  N  N100  1  0.874100  0.083600  0.371000  1.0  -0.4201
  N  N101  1  0.819100  0.942300  0.095000  1.0  -0.3029
  N  N102  1  0.947700  0.874200  0.917000  1.0  -0.2957
  N  N103  1  0.745900  0.172400  0.590000  1.0  -0.4069
  N  N104  1  0.732900  0.170300  0.148000  1.0  -0.4022
  N  N105  1  0.670400  0.048500  0.166000  1.0  -0.4237
  N  N106  1  0.625900  0.916400  0.871000  1.0  -0.4161
  N  N107  1  0.680900  0.057700  0.595000  1.0  -0.3008
  N  N108  1  0.552300  0.125800  0.417000  1.0  -0.2979
  N  N109  1  0.245900  0.327600  0.910000  1.0  -0.409
  N  N110  1  0.232900  0.329700  0.352000  1.0  -0.4029
  N  N111  1  0.170400  0.451500  0.334000  1.0  -0.4238
  N  N112  1  0.125900  0.583600  0.629000  1.0  -0.4205
  N  N113  1  0.180900  0.442300  0.905000  1.0  -0.3011
  N  N114  1  0.052300  0.374200  0.083000  1.0  -0.2961
  N  N115  1  0.254100  0.672400  0.410000  1.0  -0.4092
  N  N116  1  0.267100  0.670300  0.852000  1.0  -0.4011
  N  N117  1  0.329600  0.548500  0.834000  1.0  -0.4243
  N  N118  1  0.374100  0.416400  0.129000  1.0  -0.418
  N  N119  1  0.319100  0.557700  0.405000  1.0  -0.3031
  N  N120  1  0.447700  0.625800  0.583000  1.0  -0.2978
