# generated using pymatgen
data_CdNiC7N6
_symmetry_space_group_name_H-M   'P 1'
_cell_length_a   14.10400000
_cell_length_b   26.65400000
_cell_length_c   7.64500000
_cell_angle_alpha   90.00000000
_cell_angle_beta   90.00000000
_cell_angle_gamma   90.00000000
_symmetry_Int_Tables_number   1
_chemical_formula_structural   CdNiC7N6
_chemical_formula_sum   'Cd8 Ni8 C56 N48'
_cell_volume   2873.96968232
_cell_formula_units_Z   8
loop_
 _symmetry_equiv_pos_site_id
 _symmetry_equiv_pos_as_xyz
  1  'x, y, z'
loop_
 _atom_site_type_symbol
 _atom_site_label
 _atom_site_symmetry_multiplicity
 _atom_site_fract_x
 _atom_site_fract_y
 _atom_site_fract_z
 _atom_site_occupancy
 _atom_site_charge
  Cd  Cd1  1  0.219890  0.114150  0.136200  1.0  1.0336
  Cd  Cd2  1  0.280110  0.885850  0.636200  1.0  1.0345
  Cd  Cd3  1  0.780110  0.614150  0.863800  1.0  1.0343
  Cd  Cd4  1  0.719890  0.385850  0.363800  1.0  1.0344
  Cd  Cd5  1  0.780110  0.885850  0.863800  1.0  1.0347
  Cd  Cd6  1  0.719890  0.114150  0.363800  1.0  1.0341
  Cd  Cd7  1  0.219890  0.385850  0.136200  1.0  1.034
  Cd  Cd8  1  0.280110  0.614150  0.636200  1.0  1.0341
  Ni  Ni9  1  0.243800  0.250000  0.631600  1.0  0.0601
  Ni  Ni10  1  0.256200  0.750000  0.131600  1.0  0.0602
  Ni  Ni11  1  0.756200  0.750000  0.368400  1.0  0.0604
  Ni  Ni12  1  0.743800  0.250000  0.868400  1.0  0.0602
  Ni  Ni13  1  0.000000  0.000000  0.500000  1.0  0.3445
  Ni  Ni14  1  0.500000  0.000000  0.000000  1.0  0.3445
  Ni  Ni15  1  0.000000  0.500000  0.500000  1.0  0.3445
  Ni  Ni16  1  0.500000  0.500000  0.000000  1.0  0.3445
  C  C17  1  0.247200  0.200800  0.805000  1.0  0.1865
  C  C18  1  0.240100  0.200700  0.462000  1.0  0.174
  C  C19  1  0.104700  0.030400  0.404000  1.0  0.1788
  C  C20  1  0.076800  0.948500  0.584000  1.0  0.1767
  C  C21  1  0.080000  0.057700  0.878000  1.0  0.1051
  C  C22  1  0.027000  0.094000  0.940000  1.0  0.2245
  C  C23  1  0.923000  0.096000  0.895000  1.0  0.0388
  C  C24  1  0.252800  0.799200  0.305000  1.0  0.186
  C  C25  1  0.259900  0.799300  0.962000  1.0  0.1736
  C  C26  1  0.395300  0.969600  0.904000  1.0  0.1779
  C  C27  1  0.423200  0.051500  0.084000  1.0  0.1755
  C  C28  1  0.420000  0.942300  0.378000  1.0  0.1043
  C  C29  1  0.473000  0.906000  0.440000  1.0  0.2234
  C  C30  1  0.577000  0.904000  0.395000  1.0  0.0346
  C  C31  1  0.752800  0.700800  0.195000  1.0  0.1875
  C  C32  1  0.759900  0.700700  0.538000  1.0  0.1723
  C  C33  1  0.895300  0.530400  0.596000  1.0  0.1779
  C  C34  1  0.923200  0.448500  0.416000  1.0  0.1758
  C  C35  1  0.920000  0.557700  0.122000  1.0  0.106
  C  C36  1  0.973000  0.594000  0.060000  1.0  0.224
  C  C37  1  0.077000  0.596000  0.105000  1.0  0.0343
  C  C38  1  0.747200  0.299200  0.695000  1.0  0.1871
  C  C39  1  0.740100  0.299300  0.038000  1.0  0.172
  C  C40  1  0.604700  0.469600  0.096000  1.0  0.1787
  C  C41  1  0.576800  0.551500  0.916000  1.0  0.1764
  C  C42  1  0.580000  0.442300  0.622000  1.0  0.1051
  C  C43  1  0.527000  0.406000  0.560000  1.0  0.2242
  C  C44  1  0.423000  0.404000  0.605000  1.0  0.0389
  C  C45  1  0.752800  0.799200  0.195000  1.0  0.187
  C  C46  1  0.759900  0.799300  0.538000  1.0  0.1718
  C  C47  1  0.895300  0.969600  0.596000  1.0  0.1779
  C  C48  1  0.923200  0.051500  0.416000  1.0  0.1755
  C  C49  1  0.920000  0.942300  0.122000  1.0  0.1052
  C  C50  1  0.973000  0.906000  0.060000  1.0  0.2236
  C  C51  1  0.077000  0.904000  0.105000  1.0  0.0344
  C  C52  1  0.747200  0.200800  0.695000  1.0  0.1874
  C  C53  1  0.740100  0.200700  0.038000  1.0  0.1722
  C  C54  1  0.604700  0.030400  0.096000  1.0  0.1789
  C  C55  1  0.576800  0.948500  0.916000  1.0  0.1769
  C  C56  1  0.580000  0.057700  0.622000  1.0  0.1059
  C  C57  1  0.527000  0.094000  0.560000  1.0  0.2247
  C  C58  1  0.423000  0.096000  0.605000  1.0  0.0385
  C  C59  1  0.247200  0.299200  0.805000  1.0  0.1858
  C  C60  1  0.240100  0.299300  0.462000  1.0  0.1736
  C  C61  1  0.104700  0.469600  0.404000  1.0  0.1789
  C  C62  1  0.076800  0.551500  0.584000  1.0  0.1761
  C  C63  1  0.080000  0.442300  0.878000  1.0  0.1041
  C  C64  1  0.027000  0.406000  0.940000  1.0  0.224
  C  C65  1  0.923000  0.404000  0.895000  1.0  0.039
  C  C66  1  0.252800  0.700800  0.305000  1.0  0.1865
  C  C67  1  0.259900  0.700700  0.962000  1.0  0.1739
  C  C68  1  0.395300  0.530400  0.904000  1.0  0.1781
  C  C69  1  0.423200  0.448500  0.084000  1.0  0.1756
  C  C70  1  0.420000  0.557700  0.378000  1.0  0.1053
  C  C71  1  0.473000  0.594000  0.440000  1.0  0.2239
  C  C72  1  0.577000  0.596000  0.395000  1.0  0.0346
  N  N73  1  0.248100  0.171600  0.914000  1.0  -0.4196
  N  N74  1  0.237100  0.169400  0.357000  1.0  -0.4243
  N  N75  1  0.170600  0.049400  0.339000  1.0  -0.4602
  N  N76  1  0.125300  0.917600  0.631000  1.0  -0.4094
  N  N77  1  0.183200  0.056800  0.905000  1.0  -0.2926
  N  N78  1  0.055700  0.125300  0.082000  1.0  -0.3115
  N  N79  1  0.251900  0.828400  0.414000  1.0  -0.4193
  N  N80  1  0.262900  0.830600  0.857000  1.0  -0.4252
  N  N81  1  0.329400  0.950600  0.839000  1.0  -0.4598
  N  N82  1  0.374700  0.082400  0.131000  1.0  -0.4137
  N  N83  1  0.316800  0.943200  0.405000  1.0  -0.2896
  N  N84  1  0.444300  0.874700  0.582000  1.0  -0.3097
  N  N85  1  0.751900  0.671600  0.086000  1.0  -0.4184
  N  N86  1  0.762900  0.669400  0.643000  1.0  -0.4246
  N  N87  1  0.829400  0.549400  0.661000  1.0  -0.4601
  N  N88  1  0.874700  0.417600  0.369000  1.0  -0.4102
  N  N89  1  0.816800  0.556800  0.095000  1.0  -0.2916
  N  N90  1  0.944300  0.625300  0.918000  1.0  -0.3117
  N  N91  1  0.748100  0.328400  0.586000  1.0  -0.4176
  N  N92  1  0.737100  0.330600  0.143000  1.0  -0.4252
  N  N93  1  0.670600  0.450600  0.161000  1.0  -0.4604
  N  N94  1  0.625300  0.582400  0.869000  1.0  -0.4115
  N  N95  1  0.683200  0.443200  0.595000  1.0  -0.291
  N  N96  1  0.555700  0.374700  0.418000  1.0  -0.3089
  N  N97  1  0.751900  0.828400  0.086000  1.0  -0.4182
  N  N98  1  0.762900  0.830600  0.643000  1.0  -0.4252
  N  N99  1  0.829400  0.950600  0.661000  1.0  -0.4599
  N  N100  1  0.874700  0.082400  0.369000  1.0  -0.4127
  N  N101  1  0.816800  0.943200  0.095000  1.0  -0.2899
  N  N102  1  0.944300  0.874700  0.918000  1.0  -0.3097
  N  N103  1  0.748100  0.171600  0.586000  1.0  -0.4178
  N  N104  1  0.737100  0.169400  0.143000  1.0  -0.4245
  N  N105  1  0.670600  0.049400  0.161000  1.0  -0.4605
  N  N106  1  0.625300  0.917600  0.869000  1.0  -0.4086
  N  N107  1  0.683200  0.056800  0.595000  1.0  -0.2926
  N  N108  1  0.555700  0.125300  0.418000  1.0  -0.3117
  N  N109  1  0.248100  0.328400  0.914000  1.0  -0.419
  N  N110  1  0.237100  0.330600  0.357000  1.0  -0.4252
  N  N111  1  0.170600  0.450600  0.339000  1.0  -0.4601
  N  N112  1  0.125300  0.582400  0.631000  1.0  -0.4125
  N  N113  1  0.183200  0.443200  0.905000  1.0  -0.2909
  N  N114  1  0.055700  0.374700  0.082000  1.0  -0.3088
  N  N115  1  0.251900  0.671600  0.414000  1.0  -0.4197
  N  N116  1  0.262900  0.669400  0.857000  1.0  -0.4243
  N  N117  1  0.329400  0.549400  0.839000  1.0  -0.4601
  N  N118  1  0.374700  0.417600  0.131000  1.0  -0.411
  N  N119  1  0.316800  0.556800  0.405000  1.0  -0.2915
  N  N120  1  0.444300  0.625300  0.582000  1.0  -0.3114
