# generated using pymatgen
data_SmH2C8NO6
_symmetry_space_group_name_H-M   'P 1'
_cell_length_a   6.90820000
_cell_length_b   18.42600000
_cell_length_c   18.58300000
_cell_angle_alpha   111.98000000
_cell_angle_beta   90.00000000
_cell_angle_gamma   90.00000000
_symmetry_Int_Tables_number   1
_chemical_formula_structural   SmH2C8NO6
_chemical_formula_sum   'Sm8 H16 C64 N8 O48'
_cell_volume   2193.50624459
_cell_formula_units_Z   8
loop_
 _symmetry_equiv_pos_site_id
 _symmetry_equiv_pos_as_xyz
  1  'x, y, z'
loop_
 _atom_site_type_symbol
 _atom_site_label
 _atom_site_symmetry_multiplicity
 _atom_site_fract_x
 _atom_site_fract_y
 _atom_site_fract_z
 _atom_site_occupancy
 _atom_site_charge
  Sm  Sm1  1  0.777220  0.626690  0.621880  1.0  2.2386
  Sm  Sm2  1  0.749970  0.625030  0.103280  1.0  2.2566
  Sm  Sm3  1  0.277220  0.873310  0.878120  1.0  2.2388
  Sm  Sm4  1  0.249970  0.874970  0.396720  1.0  2.2591
  Sm  Sm5  1  0.222780  0.373310  0.378120  1.0  2.2382
  Sm  Sm6  1  0.250030  0.374970  0.896720  1.0  2.2591
  Sm  Sm7  1  0.722780  0.126690  0.121880  1.0  2.2381
  Sm  Sm8  1  0.750030  0.125030  0.603280  1.0  2.258
  H  H9  1  0.513900  0.626500  0.897700  1.0  0.132
  H  H10  1  0.729300  0.416000  0.762300  1.0  0.1258
  H  H11  1  0.598300  0.727400  0.411200  1.0  0.1154
  H  H12  1  0.799600  0.506200  0.330100  1.0  0.1154
  H  H13  1  0.013900  0.873500  0.602300  1.0  0.1318
  H  H14  1  0.229300  0.084000  0.737700  1.0  0.1265
  H  H15  1  0.098300  0.772600  0.088800  1.0  0.1142
  H  H16  1  0.299600  0.993800  0.169900  1.0  0.115
  H  H17  1  0.486100  0.373500  0.102300  1.0  0.1317
  H  H18  1  0.270700  0.584000  0.237700  1.0  0.1266
  H  H19  1  0.401700  0.272600  0.588800  1.0  0.1142
  H  H20  1  0.200400  0.493800  0.669900  1.0  0.115
  H  H21  1  0.986100  0.126500  0.397700  1.0  0.1316
  H  H22  1  0.770700  0.916000  0.262300  1.0  0.1259
  H  H23  1  0.901700  0.227400  0.911200  1.0  0.1152
  H  H24  1  0.700400  0.006200  0.830100  1.0  0.1154
  C  C25  1  0.589500  0.616450  0.788530  1.0  0.1482
  C  C26  1  0.567700  0.593060  0.851230  1.0  -0.067
  C  C27  1  0.629000  0.518240  0.842260  1.0  -0.0723
  C  C28  1  0.697100  0.467540  0.770520  1.0  -0.0689
  C  C29  1  0.715400  0.496430  0.711410  1.0  0.1361
  C  C30  1  0.536000  0.696810  0.790360  1.0  0.7055
  C  C31  1  0.628100  0.492030  0.910410  1.0  0.8012
  C  C32  1  0.791800  0.449140  0.631640  1.0  0.6355
  C  C33  1  0.650600  0.680650  0.294890  1.0  0.1014
  C  C34  1  0.641200  0.682830  0.370690  1.0  -0.0478
  C  C35  1  0.697700  0.616650  0.383860  1.0  -0.0209
  C  C36  1  0.764000  0.551440  0.322490  1.0  -0.048
  C  C37  1  0.775800  0.555390  0.249270  1.0  0.1261
  C  C38  1  0.585400  0.747690  0.271950  1.0  0.7444
  C  C39  1  0.696200  0.616880  0.465330  1.0  0.6604
  C  C40  1  0.853900  0.490400  0.177670  1.0  0.6201
  C  C41  1  0.089500  0.883550  0.711470  1.0  0.1477
  C  C42  1  0.067700  0.906940  0.648770  1.0  -0.0657
  C  C43  1  0.129000  0.981760  0.657740  1.0  -0.0722
  C  C44  1  0.197100  0.032460  0.729480  1.0  -0.0694
  C  C45  1  0.215400  0.003570  0.788590  1.0  0.1351
  C  C46  1  0.036000  0.803190  0.709640  1.0  0.705
  C  C47  1  0.128100  0.007970  0.589590  1.0  0.8024
  C  C48  1  0.291800  0.050860  0.868360  1.0  0.6364
  C  C49  1  0.150600  0.819350  0.205110  1.0  0.1007
  C  C50  1  0.141200  0.817170  0.129310  1.0  -0.0483
  C  C51  1  0.197700  0.883350  0.116140  1.0  -0.024
  C  C52  1  0.264000  0.948560  0.177510  1.0  -0.0489
  C  C53  1  0.275800  0.944610  0.250730  1.0  0.1256
  C  C54  1  0.085400  0.752310  0.228050  1.0  0.7467
  C  C55  1  0.196200  0.883120  0.034670  1.0  0.6616
  C  C56  1  0.353900  0.009600  0.322330  1.0  0.6214
  C  C57  1  0.410500  0.383550  0.211470  1.0  0.1478
  C  C58  1  0.432300  0.406940  0.148770  1.0  -0.0654
  C  C59  1  0.371000  0.481760  0.157740  1.0  -0.0731
  C  C60  1  0.302900  0.532460  0.229480  1.0  -0.0683
  C  C61  1  0.284600  0.503570  0.288590  1.0  0.1343
  C  C62  1  0.464000  0.303190  0.209640  1.0  0.7041
  C  C63  1  0.371900  0.507970  0.089590  1.0  0.8024
  C  C64  1  0.208200  0.550860  0.368360  1.0  0.6363
  C  C65  1  0.349400  0.319350  0.705110  1.0  0.1008
  C  C66  1  0.358800  0.317170  0.629310  1.0  -0.048
  C  C67  1  0.302300  0.383350  0.616140  1.0  -0.0242
  C  C68  1  0.236000  0.448560  0.677510  1.0  -0.0486
  C  C69  1  0.224200  0.444610  0.750730  1.0  0.1254
  C  C70  1  0.414600  0.252310  0.728050  1.0  0.746
  C  C71  1  0.303800  0.383120  0.534670  1.0  0.6613
  C  C72  1  0.146100  0.509600  0.822330  1.0  0.6209
  C  C73  1  0.910500  0.116450  0.288530  1.0  0.1479
  C  C74  1  0.932300  0.093060  0.351230  1.0  -0.066
  C  C75  1  0.871000  0.018240  0.342260  1.0  -0.0728
  C  C76  1  0.802900  0.967540  0.270520  1.0  -0.0677
  C  C77  1  0.784600  0.996430  0.211410  1.0  0.1351
  C  C78  1  0.964000  0.196810  0.290360  1.0  0.705
  C  C79  1  0.871900  0.992030  0.410410  1.0  0.7996
  C  C80  1  0.708200  0.949140  0.131640  1.0  0.6371
  C  C81  1  0.849400  0.180650  0.794890  1.0  0.1014
  C  C82  1  0.858800  0.182830  0.870690  1.0  -0.0461
  C  C83  1  0.802300  0.116650  0.883860  1.0  -0.0207
  C  C84  1  0.736000  0.051440  0.822490  1.0  -0.0486
  C  C85  1  0.724200  0.055390  0.749270  1.0  0.1259
  C  C86  1  0.914600  0.247690  0.771950  1.0  0.7438
  C  C87  1  0.803800  0.116880  0.965330  1.0  0.6606
  C  C88  1  0.646100  0.990400  0.677670  1.0  0.6211
  N  N89  1  0.667800  0.570040  0.721980  1.0  -0.5386
  N  N90  1  0.717800  0.618530  0.236340  1.0  -0.4694
  N  N91  1  0.167800  0.929960  0.778020  1.0  -0.5365
  N  N92  1  0.217800  0.881470  0.263660  1.0  -0.4708
  N  N93  1  0.332200  0.429960  0.278020  1.0  -0.5379
  N  N94  1  0.282200  0.381470  0.763660  1.0  -0.4718
  N  N95  1  0.832200  0.070040  0.221980  1.0  -0.5392
  N  N96  1  0.782200  0.118530  0.736340  1.0  -0.4711
  O  O97  1  0.428100  0.739560  0.841930  1.0  -0.6749
  O  O98  1  0.608800  0.713820  0.735730  1.0  -0.7542
  O  O99  1  0.684000  0.540620  0.973290  1.0  -0.7767
  O  O100  1  0.576400  0.422630  0.897220  1.0  -0.7267
  O  O101  1  0.814800  0.378660  0.611930  1.0  -0.5533
  O  O102  1  0.828400  0.488900  0.589310  1.0  -0.7623
  O  O103  1  0.518500  0.806800  0.324170  1.0  -0.7471
  O  O104  1  0.605000  0.738250  0.202050  1.0  -0.692
  O  O105  1  0.716800  0.553420  0.474960  1.0  -0.6766
  O  O106  1  0.682700  0.681020  0.521520  1.0  -0.6807
  O  O107  1  0.912000  0.428880  0.182120  1.0  -0.5438
  O  O108  1  0.853300  0.505420  0.116100  1.0  -0.7398
  O  O109  1  0.928100  0.760440  0.658070  1.0  -0.6762
  O  O110  1  0.108800  0.786180  0.764270  1.0  -0.755
  O  O111  1  0.184000  0.959380  0.526710  1.0  -0.7772
  O  O112  1  0.076400  0.077370  0.602780  1.0  -0.726
  O  O113  1  0.314800  0.121340  0.888070  1.0  -0.5459
  O  O114  1  0.328400  0.011100  0.910690  1.0  -0.7635
  O  O115  1  0.018500  0.693200  0.175830  1.0  -0.7476
  O  O116  1  0.105000  0.761750  0.297950  1.0  -0.693
  O  O117  1  0.216800  0.946580  0.025040  1.0  -0.6772
  O  O118  1  0.182700  0.818980  0.978480  1.0  -0.681
  O  O119  1  0.412000  0.071120  0.317880  1.0  -0.5461
  O  O120  1  0.353300  0.994580  0.383900  1.0  -0.7409
  O  O121  1  0.571900  0.260440  0.158070  1.0  -0.6752
  O  O122  1  0.391200  0.286180  0.264270  1.0  -0.7537
  O  O123  1  0.316000  0.459380  0.026710  1.0  -0.7765
  O  O124  1  0.423600  0.577370  0.102780  1.0  -0.7264
  O  O125  1  0.185200  0.621340  0.388070  1.0  -0.5462
  O  O126  1  0.171600  0.511100  0.410690  1.0  -0.7643
  O  O127  1  0.481500  0.193200  0.675830  1.0  -0.7478
  O  O128  1  0.395000  0.261750  0.797950  1.0  -0.6928
  O  O129  1  0.283200  0.446580  0.525040  1.0  -0.6775
  O  O130  1  0.317300  0.318980  0.478480  1.0  -0.6813
  O  O131  1  0.088000  0.571120  0.817880  1.0  -0.5469
  O  O132  1  0.146700  0.494580  0.883900  1.0  -0.7424
  O  O133  1  0.071900  0.239560  0.341930  1.0  -0.6743
  O  O134  1  0.891200  0.213820  0.235730  1.0  -0.7533
  O  O135  1  0.816000  0.040620  0.473290  1.0  -0.7765
  O  O136  1  0.923600  0.922630  0.397220  1.0  -0.7272
  O  O137  1  0.685200  0.878660  0.111930  1.0  -0.5538
  O  O138  1  0.671600  0.988900  0.089310  1.0  -0.7626
  O  O139  1  0.981500  0.306800  0.824170  1.0  -0.7476
  O  O140  1  0.895000  0.238250  0.702050  1.0  -0.692
  O  O141  1  0.783200  0.053420  0.974960  1.0  -0.6768
  O  O142  1  0.817300  0.181020  0.021520  1.0  -0.6808
  O  O143  1  0.588000  0.928880  0.682120  1.0  -0.5451
  O  O144  1  0.646700  0.005420  0.616100  1.0  -0.7398
