# generated using pymatgen
data_Cu2H24C44N2O9
_symmetry_space_group_name_H-M   'P 1'
_cell_length_a   18.47600000
_cell_length_b   18.47600000
_cell_length_c   59.99900000
_cell_angle_alpha   90.00000000
_cell_angle_beta   90.00000000
_cell_angle_gamma   90.00000000
_symmetry_Int_Tables_number   1
_chemical_formula_structural   Cu2H24C44N2O9
_chemical_formula_sum   'Cu16 H192 C352 N16 O72'
_cell_volume   20481.41319742
_cell_formula_units_Z   8
loop_
 _symmetry_equiv_pos_site_id
 _symmetry_equiv_pos_as_xyz
  1  'x, y, z'
loop_
 _atom_site_type_symbol
 _atom_site_label
 _atom_site_symmetry_multiplicity
 _atom_site_fract_x
 _atom_site_fract_y
 _atom_site_fract_z
 _atom_site_occupancy
 _atom_site_charge
  Cu  Cu1  1  0.285830  0.285830  0.234090  1.0  0.905
  Cu  Cu2  1  0.785830  0.785830  0.734090  1.0  0.905
  Cu  Cu3  1  0.714170  0.714170  0.234090  1.0  0.9069
  Cu  Cu4  1  0.214170  0.214170  0.734090  1.0  0.9069
  Cu  Cu5  1  0.714170  0.285830  0.234090  1.0  0.9057
  Cu  Cu6  1  0.214170  0.785830  0.734090  1.0  0.9057
  Cu  Cu7  1  0.285830  0.714170  0.234090  1.0  0.9054
  Cu  Cu8  1  0.785830  0.214170  0.734090  1.0  0.9054
  Cu  Cu9  1  0.714170  0.285830  0.765910  1.0  0.9055
  Cu  Cu10  1  0.214170  0.785830  0.265910  1.0  0.9055
  Cu  Cu11  1  0.285830  0.714170  0.765910  1.0  0.9056
  Cu  Cu12  1  0.785830  0.214170  0.265910  1.0  0.9056
  Cu  Cu13  1  0.285830  0.285830  0.765910  1.0  0.9059
  Cu  Cu14  1  0.785830  0.785830  0.265910  1.0  0.9059
  Cu  Cu15  1  0.714170  0.714170  0.765910  1.0  0.9061
  Cu  Cu16  1  0.214170  0.214170  0.265910  1.0  0.9061
  H  H17  1  0.353500  0.916300  0.112700  1.0  0.0652
  H  H18  1  0.306300  0.914600  0.149300  1.0  0.0499
  H  H19  1  0.315900  0.108600  0.187000  1.0  0.0885
  H  H20  1  0.459700  0.903000  0.127700  1.0  0.0838
  H  H21  1  0.412000  0.896400  0.163100  1.0  0.105
  H  H22  1  0.853500  0.416300  0.612700  1.0  0.0652
  H  H23  1  0.806300  0.414600  0.649300  1.0  0.0499
  H  H24  1  0.815900  0.608600  0.687000  1.0  0.0885
  H  H25  1  0.959700  0.403000  0.627700  1.0  0.0838
  H  H26  1  0.912000  0.396400  0.663100  1.0  0.105
  H  H27  1  0.646500  0.083700  0.112700  1.0  0.0678
  H  H28  1  0.693700  0.085400  0.149300  1.0  0.0532
  H  H29  1  0.684100  0.891400  0.187000  1.0  0.0884
  H  H30  1  0.540300  0.097000  0.127700  1.0  0.0844
  H  H31  1  0.588000  0.103600  0.163100  1.0  0.1037
  H  H32  1  0.146500  0.583700  0.612700  1.0  0.0678
  H  H33  1  0.193700  0.585400  0.649300  1.0  0.0532
  H  H34  1  0.184100  0.391400  0.687000  1.0  0.0884
  H  H35  1  0.040300  0.597000  0.627700  1.0  0.0844
  H  H36  1  0.088000  0.603600  0.663100  1.0  0.1037
  H  H37  1  0.083700  0.353500  0.112700  1.0  0.0679
  H  H38  1  0.085400  0.306300  0.149300  1.0  0.0486
  H  H39  1  0.891400  0.315900  0.187000  1.0  0.0884
  H  H40  1  0.097000  0.459700  0.127700  1.0  0.0849
  H  H41  1  0.103600  0.412000  0.163100  1.0  0.1055
  H  H42  1  0.583700  0.853500  0.612700  1.0  0.0679
  H  H43  1  0.585400  0.806300  0.649300  1.0  0.0486
  H  H44  1  0.391400  0.815900  0.687000  1.0  0.0884
  H  H45  1  0.597000  0.959700  0.627700  1.0  0.0849
  H  H46  1  0.603600  0.912000  0.663100  1.0  0.1055
  H  H47  1  0.916300  0.646500  0.112700  1.0  0.065
  H  H48  1  0.914600  0.693700  0.149300  1.0  0.0525
  H  H49  1  0.108600  0.684100  0.187000  1.0  0.0891
  H  H50  1  0.903000  0.540300  0.127700  1.0  0.0822
  H  H51  1  0.896400  0.588000  0.163100  1.0  0.1043
  H  H52  1  0.416300  0.146500  0.612700  1.0  0.065
  H  H53  1  0.414600  0.193700  0.649300  1.0  0.0525
  H  H54  1  0.608600  0.184100  0.687000  1.0  0.0891
  H  H55  1  0.403000  0.040300  0.627700  1.0  0.0822
  H  H56  1  0.396400  0.088000  0.663100  1.0  0.1043
  H  H57  1  0.646500  0.916300  0.887300  1.0  0.0687
  H  H58  1  0.693700  0.914600  0.850700  1.0  0.0524
  H  H59  1  0.684100  0.108600  0.813000  1.0  0.0884
  H  H60  1  0.540300  0.903000  0.872300  1.0  0.0821
  H  H61  1  0.588000  0.896400  0.836900  1.0  0.1033
  H  H62  1  0.146500  0.416300  0.387300  1.0  0.0687
  H  H63  1  0.193700  0.414600  0.350700  1.0  0.0524
  H  H64  1  0.184100  0.608600  0.313000  1.0  0.0884
  H  H65  1  0.040300  0.403000  0.372300  1.0  0.0821
  H  H66  1  0.088000  0.396400  0.336900  1.0  0.1033
  H  H67  1  0.353500  0.083700  0.887300  1.0  0.0664
  H  H68  1  0.306300  0.085400  0.850700  1.0  0.0518
  H  H69  1  0.315900  0.891400  0.813000  1.0  0.0884
  H  H70  1  0.459700  0.097000  0.872300  1.0  0.0869
  H  H71  1  0.412000  0.103600  0.836900  1.0  0.1044
  H  H72  1  0.853500  0.583700  0.387300  1.0  0.0664
  H  H73  1  0.806300  0.585400  0.350700  1.0  0.0518
  H  H74  1  0.815900  0.391400  0.313000  1.0  0.0884
  H  H75  1  0.959700  0.597000  0.372300  1.0  0.0869
  H  H76  1  0.912000  0.603600  0.336900  1.0  0.1044
  H  H77  1  0.916300  0.353500  0.887300  1.0  0.0678
  H  H78  1  0.914600  0.306300  0.850700  1.0  0.0482
  H  H79  1  0.108600  0.315900  0.813000  1.0  0.0898
  H  H80  1  0.903000  0.459700  0.872300  1.0  0.0805
  H  H81  1  0.896400  0.412000  0.836900  1.0  0.1049
  H  H82  1  0.416300  0.853500  0.387300  1.0  0.0678
  H  H83  1  0.414600  0.806300  0.350700  1.0  0.0482
  H  H84  1  0.608600  0.815900  0.313000  1.0  0.0898
  H  H85  1  0.403000  0.959700  0.372300  1.0  0.0805
  H  H86  1  0.396400  0.912000  0.336900  1.0  0.1049
  H  H87  1  0.083700  0.646500  0.887300  1.0  0.0671
  H  H88  1  0.085400  0.693700  0.850700  1.0  0.0508
  H  H89  1  0.891400  0.684100  0.813000  1.0  0.0881
  H  H90  1  0.097000  0.540300  0.872300  1.0  0.0845
  H  H91  1  0.103600  0.588000  0.836900  1.0  0.1051
  H  H92  1  0.583700  0.146500  0.387300  1.0  0.0671
  H  H93  1  0.585400  0.193700  0.350700  1.0  0.0508
  H  H94  1  0.391400  0.184100  0.313000  1.0  0.0881
  H  H95  1  0.597000  0.040300  0.372300  1.0  0.0845
  H  H96  1  0.603600  0.088000  0.336900  1.0  0.1051
  H  H97  1  0.646500  0.083700  0.887300  1.0  0.0669
  H  H98  1  0.693700  0.085400  0.850700  1.0  0.0526
  H  H99  1  0.684100  0.891400  0.813000  1.0  0.0883
  H  H100  1  0.540300  0.097000  0.872300  1.0  0.0842
  H  H101  1  0.588000  0.103600  0.836900  1.0  0.104
  H  H102  1  0.146500  0.583700  0.387300  1.0  0.0669
  H  H103  1  0.193700  0.585400  0.350700  1.0  0.0526
  H  H104  1  0.184100  0.391400  0.313000  1.0  0.0883
  H  H105  1  0.040300  0.597000  0.372300  1.0  0.0842
  H  H106  1  0.088000  0.603600  0.336900  1.0  0.104
  H  H107  1  0.353500  0.916300  0.887300  1.0  0.0679
  H  H108  1  0.306300  0.914600  0.850700  1.0  0.0496
  H  H109  1  0.315900  0.108600  0.813000  1.0  0.0887
  H  H110  1  0.459700  0.903000  0.872300  1.0  0.0845
  H  H111  1  0.412000  0.896400  0.836900  1.0  0.1039
  H  H112  1  0.853500  0.416300  0.387300  1.0  0.0679
  H  H113  1  0.806300  0.414600  0.350700  1.0  0.0496
  H  H114  1  0.815900  0.608600  0.313000  1.0  0.0887
  H  H115  1  0.959700  0.403000  0.372300  1.0  0.0845
  H  H116  1  0.912000  0.396400  0.336900  1.0  0.1039
  H  H117  1  0.916300  0.646500  0.887300  1.0  0.0662
  H  H118  1  0.914600  0.693700  0.850700  1.0  0.0524
  H  H119  1  0.108600  0.684100  0.813000  1.0  0.0895
  H  H120  1  0.903000  0.540300  0.872300  1.0  0.082
  H  H121  1  0.896400  0.588000  0.836900  1.0  0.1047
  H  H122  1  0.416300  0.146500  0.387300  1.0  0.0662
  H  H123  1  0.414600  0.193700  0.350700  1.0  0.0524
  H  H124  1  0.608600  0.184100  0.313000  1.0  0.0895
  H  H125  1  0.403000  0.040300  0.372300  1.0  0.082
  H  H126  1  0.396400  0.088000  0.336900  1.0  0.1047
  H  H127  1  0.083700  0.353500  0.887300  1.0  0.0687
  H  H128  1  0.085400  0.306300  0.850700  1.0  0.0479
  H  H129  1  0.891400  0.315900  0.813000  1.0  0.0883
  H  H130  1  0.097000  0.459700  0.872300  1.0  0.0844
  H  H131  1  0.103600  0.412000  0.836900  1.0  0.1062
  H  H132  1  0.583700  0.853500  0.387300  1.0  0.0687
  H  H133  1  0.585400  0.806300  0.350700  1.0  0.0479
  H  H134  1  0.391400  0.815900  0.313000  1.0  0.0883
  H  H135  1  0.597000  0.959700  0.372300  1.0  0.0844
  H  H136  1  0.603600  0.912000  0.336900  1.0  0.1062
  H  H137  1  0.353500  0.083700  0.112700  1.0  0.0655
  H  H138  1  0.306300  0.085400  0.149300  1.0  0.0519
  H  H139  1  0.315900  0.891400  0.187000  1.0  0.0885
  H  H140  1  0.459700  0.097000  0.127700  1.0  0.0869
  H  H141  1  0.412000  0.103600  0.163100  1.0  0.1043
  H  H142  1  0.853500  0.583700  0.612700  1.0  0.0655
  H  H143  1  0.806300  0.585400  0.649300  1.0  0.0519
  H  H144  1  0.815900  0.391400  0.687000  1.0  0.0885
  H  H145  1  0.959700  0.597000  0.627700  1.0  0.0869
  H  H146  1  0.912000  0.603600  0.663100  1.0  0.1043
  H  H147  1  0.646500  0.916300  0.112700  1.0  0.0677
  H  H148  1  0.693700  0.914600  0.149300  1.0  0.0524
  H  H149  1  0.684100  0.108600  0.187000  1.0  0.0883
  H  H150  1  0.540300  0.903000  0.127700  1.0  0.0812
  H  H151  1  0.588000  0.896400  0.163100  1.0  0.1038
  H  H152  1  0.146500  0.416300  0.612700  1.0  0.0677
  H  H153  1  0.193700  0.414600  0.649300  1.0  0.0524
  H  H154  1  0.184100  0.608600  0.687000  1.0  0.0883
  H  H155  1  0.040300  0.403000  0.627700  1.0  0.0812
  H  H156  1  0.088000  0.396400  0.663100  1.0  0.1038
  H  H157  1  0.083700  0.646500  0.112700  1.0  0.0679
  H  H158  1  0.085400  0.693700  0.149300  1.0  0.0512
  H  H159  1  0.891400  0.684100  0.187000  1.0  0.0882
  H  H160  1  0.097000  0.540300  0.127700  1.0  0.0854
  H  H161  1  0.103600  0.588000  0.163100  1.0  0.1046
  H  H162  1  0.583700  0.146500  0.612700  1.0  0.0679
  H  H163  1  0.585400  0.193700  0.649300  1.0  0.0512
  H  H164  1  0.391400  0.184100  0.687000  1.0  0.0882
  H  H165  1  0.597000  0.040300  0.627700  1.0  0.0854
  H  H166  1  0.603600  0.088000  0.663100  1.0  0.1046
  H  H167  1  0.916300  0.353500  0.112700  1.0  0.0655
  H  H168  1  0.914600  0.306300  0.149300  1.0  0.0486
  H  H169  1  0.108600  0.315900  0.187000  1.0  0.0893
  H  H170  1  0.903000  0.459700  0.127700  1.0  0.0808
  H  H171  1  0.896400  0.412000  0.163100  1.0  0.1047
  H  H172  1  0.416300  0.853500  0.612700  1.0  0.0655
  H  H173  1  0.414600  0.806300  0.649300  1.0  0.0486
  H  H174  1  0.608600  0.815900  0.687000  1.0  0.0893
  H  H175  1  0.403000  0.959700  0.627700  1.0  0.0808
  H  H176  1  0.396400  0.912000  0.663100  1.0  0.1047
  H  H177  1  0.376500  0.000000  0.039600  1.0  0.108
  H  H178  1  0.251200  0.000000  0.241600  1.0  0.1034
  H  H179  1  0.876500  0.500000  0.539600  1.0  0.108
  H  H180  1  0.751200  0.500000  0.741600  1.0  0.1034
  H  H181  1  0.623500  0.000000  0.039600  1.0  0.1061
  H  H182  1  0.748800  0.000000  0.241600  1.0  0.1031
  H  H183  1  0.123500  0.500000  0.539600  1.0  0.1061
  H  H184  1  0.248800  0.500000  0.741600  1.0  0.1031
  H  H185  1  0.000000  0.376500  0.039600  1.0  0.1079
  H  H186  1  0.000000  0.251200  0.241600  1.0  0.1034
  H  H187  1  0.500000  0.876500  0.539600  1.0  0.1079
  H  H188  1  0.500000  0.751200  0.741600  1.0  0.1034
  H  H189  1  0.000000  0.623500  0.039600  1.0  0.1067
  H  H190  1  0.000000  0.748800  0.241600  1.0  0.1032
  H  H191  1  0.500000  0.123500  0.539600  1.0  0.1067
  H  H192  1  0.500000  0.248800  0.741600  1.0  0.1032
  H  H193  1  0.623500  0.000000  0.960400  1.0  0.1062
  H  H194  1  0.748800  0.000000  0.758400  1.0  0.1034
  H  H195  1  0.123500  0.500000  0.460400  1.0  0.1062
  H  H196  1  0.248800  0.500000  0.258400  1.0  0.1034
  H  H197  1  0.376500  0.000000  0.960400  1.0  0.1079
  H  H198  1  0.251200  0.000000  0.758400  1.0  0.1036
  H  H199  1  0.876500  0.500000  0.460400  1.0  0.1079
  H  H200  1  0.751200  0.500000  0.258400  1.0  0.1036
  H  H201  1  0.000000  0.376500  0.960400  1.0  0.1085
  H  H202  1  0.000000  0.251200  0.758400  1.0  0.1036
  H  H203  1  0.500000  0.876500  0.460400  1.0  0.1085
  H  H204  1  0.500000  0.751200  0.258400  1.0  0.1036
  H  H205  1  0.000000  0.623500  0.960400  1.0  0.107
  H  H206  1  0.000000  0.748800  0.758400  1.0  0.1034
  H  H207  1  0.500000  0.123500  0.460400  1.0  0.107
  H  H208  1  0.500000  0.248800  0.258400  1.0  0.1034
  C  C209  1  0.368400  0.949700  0.123300  1.0  -0.0767
  C  C210  1  0.338900  0.950700  0.145300  1.0  -0.0647
  C  C211  1  0.308600  0.065400  0.194550  1.0  -0.0986
  C  C212  1  0.283800  0.066600  0.216560  1.0  -0.1413
  C  C213  1  0.271400  0.135100  0.229150  1.0  0.6407
  C  C214  1  0.431000  0.940700  0.132900  1.0  -0.1038
  C  C215  1  0.403200  0.935300  0.153700  1.0  -0.0715
  C  C216  1  0.868400  0.449700  0.623300  1.0  -0.0767
  C  C217  1  0.838900  0.450700  0.645300  1.0  -0.0647
  C  C218  1  0.808600  0.565400  0.694550  1.0  -0.0986
  C  C219  1  0.783800  0.566600  0.716560  1.0  -0.1413
  C  C220  1  0.771400  0.635100  0.729150  1.0  0.6407
  C  C221  1  0.931000  0.440700  0.632900  1.0  -0.1038
  C  C222  1  0.903200  0.435300  0.653700  1.0  -0.0715
  C  C223  1  0.631600  0.050300  0.123300  1.0  -0.0731
  C  C224  1  0.661100  0.049300  0.145300  1.0  -0.0616
  C  C225  1  0.691400  0.934600  0.194550  1.0  -0.0971
  C  C226  1  0.716200  0.933400  0.216560  1.0  -0.1408
  C  C227  1  0.728600  0.864900  0.229150  1.0  0.6408
  C  C228  1  0.569000  0.059300  0.132900  1.0  -0.104
  C  C229  1  0.596800  0.064700  0.153700  1.0  -0.0697
  C  C230  1  0.131600  0.550300  0.623300  1.0  -0.0731
  C  C231  1  0.161100  0.549300  0.645300  1.0  -0.0616
  C  C232  1  0.191400  0.434600  0.694550  1.0  -0.0971
  C  C233  1  0.216200  0.433400  0.716560  1.0  -0.1408
  C  C234  1  0.228600  0.364900  0.729150  1.0  0.6408
  C  C235  1  0.069000  0.559300  0.632900  1.0  -0.104
  C  C236  1  0.096800  0.564700  0.653700  1.0  -0.0697
  C  C237  1  0.050300  0.368400  0.123300  1.0  -0.0755
  C  C238  1  0.049300  0.338900  0.145300  1.0  -0.0639
  C  C239  1  0.934600  0.308600  0.194550  1.0  -0.099
  C  C240  1  0.933400  0.283800  0.216560  1.0  -0.1418
  C  C241  1  0.864900  0.271400  0.229150  1.0  0.6402
  C  C242  1  0.059300  0.431000  0.132900  1.0  -0.1084
  C  C243  1  0.064700  0.403200  0.153700  1.0  -0.0699
  C  C244  1  0.550300  0.868400  0.623300  1.0  -0.0755
  C  C245  1  0.549300  0.838900  0.645300  1.0  -0.0639
  C  C246  1  0.434600  0.808600  0.694550  1.0  -0.099
  C  C247  1  0.433400  0.783800  0.716560  1.0  -0.1418
  C  C248  1  0.364900  0.771400  0.729150  1.0  0.6402
  C  C249  1  0.559300  0.931000  0.632900  1.0  -0.1084
  C  C250  1  0.564700  0.903200  0.653700  1.0  -0.0699
  C  C251  1  0.949700  0.631600  0.123300  1.0  -0.0743
  C  C252  1  0.950700  0.661100  0.145300  1.0  -0.0643
  C  C253  1  0.065400  0.691400  0.194550  1.0  -0.0982
  C  C254  1  0.066600  0.716200  0.216560  1.0  -0.1418
  C  C255  1  0.135100  0.728600  0.229150  1.0  0.6407
  C  C256  1  0.940700  0.569000  0.132900  1.0  -0.1086
  C  C257  1  0.935300  0.596800  0.153700  1.0  -0.0734
  C  C258  1  0.449700  0.131600  0.623300  1.0  -0.0743
  C  C259  1  0.450700  0.161100  0.645300  1.0  -0.0643
  C  C260  1  0.565400  0.191400  0.694550  1.0  -0.0982
  C  C261  1  0.566600  0.216200  0.716560  1.0  -0.1418
  C  C262  1  0.635100  0.228600  0.729150  1.0  0.6407
  C  C263  1  0.440700  0.069000  0.632900  1.0  -0.1086
  C  C264  1  0.435300  0.096800  0.653700  1.0  -0.0734
  C  C265  1  0.631600  0.949700  0.876700  1.0  -0.0718
  C  C266  1  0.661100  0.950700  0.854700  1.0  -0.0624
  C  C267  1  0.691400  0.065400  0.805450  1.0  -0.0982
  C  C268  1  0.716200  0.066600  0.783440  1.0  -0.142
  C  C269  1  0.728600  0.135100  0.770850  1.0  0.6407
  C  C270  1  0.569000  0.940700  0.867100  1.0  -0.104
  C  C271  1  0.596800  0.935300  0.846300  1.0  -0.0688
  C  C272  1  0.131600  0.449700  0.376700  1.0  -0.0718
  C  C273  1  0.161100  0.450700  0.354700  1.0  -0.0624
  C  C274  1  0.191400  0.565400  0.305450  1.0  -0.0982
  C  C275  1  0.216200  0.566600  0.283440  1.0  -0.142
  C  C276  1  0.228600  0.635100  0.270850  1.0  0.6407
  C  C277  1  0.069000  0.440700  0.367100  1.0  -0.104
  C  C278  1  0.096800  0.435300  0.346300  1.0  -0.0688
  C  C279  1  0.368400  0.050300  0.876700  1.0  -0.0746
  C  C280  1  0.338900  0.049300  0.854700  1.0  -0.0648
  C  C281  1  0.308600  0.934600  0.805450  1.0  -0.0974
  C  C282  1  0.283800  0.933400  0.783440  1.0  -0.1423
  C  C283  1  0.271400  0.864900  0.770850  1.0  0.6409
  C  C284  1  0.431000  0.059300  0.867100  1.0  -0.103
  C  C285  1  0.403200  0.064700  0.846300  1.0  -0.0687
  C  C286  1  0.868400  0.550300  0.376700  1.0  -0.0746
  C  C287  1  0.838900  0.549300  0.354700  1.0  -0.0648
  C  C288  1  0.808600  0.434600  0.305450  1.0  -0.0974
  C  C289  1  0.783800  0.433400  0.283440  1.0  -0.1423
  C  C290  1  0.771400  0.364900  0.270850  1.0  0.6409
  C  C291  1  0.931000  0.559300  0.367100  1.0  -0.103
  C  C292  1  0.903200  0.564700  0.346300  1.0  -0.0687
  C  C293  1  0.949700  0.368400  0.876700  1.0  -0.0755
  C  C294  1  0.950700  0.338900  0.854700  1.0  -0.0676
  C  C295  1  0.065400  0.308600  0.805450  1.0  -0.0984
  C  C296  1  0.066600  0.283800  0.783440  1.0  -0.1427
  C  C297  1  0.135100  0.271400  0.770850  1.0  0.6406
  C  C298  1  0.940700  0.431000  0.867100  1.0  -0.1079
  C  C299  1  0.935300  0.403200  0.846300  1.0  -0.071
  C  C300  1  0.449700  0.868400  0.376700  1.0  -0.0755
  C  C301  1  0.450700  0.838900  0.354700  1.0  -0.0676
  C  C302  1  0.565400  0.808600  0.305450  1.0  -0.0984
  C  C303  1  0.566600  0.783800  0.283440  1.0  -0.1427
  C  C304  1  0.635100  0.771400  0.270850  1.0  0.6406
  C  C305  1  0.440700  0.931000  0.367100  1.0  -0.1079
  C  C306  1  0.435300  0.903200  0.346300  1.0  -0.071
  C  C307  1  0.050300  0.631600  0.876700  1.0  -0.0741
  C  C308  1  0.049300  0.661100  0.854700  1.0  -0.0617
  C  C309  1  0.934600  0.691400  0.805450  1.0  -0.0991
  C  C310  1  0.933400  0.716200  0.783440  1.0  -0.1426
  C  C311  1  0.864900  0.728600  0.770850  1.0  0.6404
  C  C312  1  0.059300  0.569000  0.867100  1.0  -0.1097
  C  C313  1  0.064700  0.596800  0.846300  1.0  -0.0728
  C  C314  1  0.550300  0.131600  0.376700  1.0  -0.0741
  C  C315  1  0.549300  0.161100  0.354700  1.0  -0.0617
  C  C316  1  0.434600  0.191400  0.305450  1.0  -0.0991
  C  C317  1  0.433400  0.216200  0.283440  1.0  -0.1426
  C  C318  1  0.364900  0.228600  0.270850  1.0  0.6404
  C  C319  1  0.559300  0.069000  0.367100  1.0  -0.1097
  C  C320  1  0.564700  0.096800  0.346300  1.0  -0.0728
  C  C321  1  0.631600  0.050300  0.876700  1.0  -0.072
  C  C322  1  0.661100  0.049300  0.854700  1.0  -0.0622
  C  C323  1  0.691400  0.934600  0.805450  1.0  -0.097
  C  C324  1  0.716200  0.933400  0.783440  1.0  -0.1422
  C  C325  1  0.728600  0.864900  0.770850  1.0  0.6409
  C  C326  1  0.569000  0.059300  0.867100  1.0  -0.1035
  C  C327  1  0.596800  0.064700  0.846300  1.0  -0.068
  C  C328  1  0.131600  0.550300  0.376700  1.0  -0.072
  C  C329  1  0.161100  0.549300  0.354700  1.0  -0.0622
  C  C330  1  0.191400  0.434600  0.305450  1.0  -0.097
  C  C331  1  0.216200  0.433400  0.283440  1.0  -0.1422
  C  C332  1  0.228600  0.364900  0.270850  1.0  0.6409
  C  C333  1  0.069000  0.559300  0.367100  1.0  -0.1035
  C  C334  1  0.096800  0.564700  0.346300  1.0  -0.068
  C  C335  1  0.368400  0.949700  0.876700  1.0  -0.074
  C  C336  1  0.338900  0.950700  0.854700  1.0  -0.0662
  C  C337  1  0.308600  0.065400  0.805450  1.0  -0.0984
  C  C338  1  0.283800  0.066600  0.783440  1.0  -0.1419
  C  C339  1  0.271400  0.135100  0.770850  1.0  0.6408
  C  C340  1  0.431000  0.940700  0.867100  1.0  -0.1043
  C  C341  1  0.403200  0.935300  0.846300  1.0  -0.0703
  C  C342  1  0.868400  0.449700  0.376700  1.0  -0.074
  C  C343  1  0.838900  0.450700  0.354700  1.0  -0.0662
  C  C344  1  0.808600  0.565400  0.305450  1.0  -0.0984
  C  C345  1  0.783800  0.566600  0.283440  1.0  -0.1419
  C  C346  1  0.771400  0.635100  0.270850  1.0  0.6408
  C  C347  1  0.931000  0.440700  0.367100  1.0  -0.1043
  C  C348  1  0.903200  0.435300  0.346300  1.0  -0.0703
  C  C349  1  0.949700  0.631600  0.876700  1.0  -0.0729
  C  C350  1  0.950700  0.661100  0.854700  1.0  -0.0648
  C  C351  1  0.065400  0.691400  0.805450  1.0  -0.0982
  C  C352  1  0.066600  0.716200  0.783440  1.0  -0.1427
  C  C353  1  0.135100  0.728600  0.770850  1.0  0.6408
  C  C354  1  0.940700  0.569000  0.867100  1.0  -0.1083
  C  C355  1  0.935300  0.596800  0.846300  1.0  -0.0722
  C  C356  1  0.449700  0.131600  0.376700  1.0  -0.0729
  C  C357  1  0.450700  0.161100  0.354700  1.0  -0.0648
  C  C358  1  0.565400  0.191400  0.305450  1.0  -0.0982
  C  C359  1  0.566600  0.216200  0.283440  1.0  -0.1427
  C  C360  1  0.635100  0.228600  0.270850  1.0  0.6408
  C  C361  1  0.440700  0.069000  0.367100  1.0  -0.1083
  C  C362  1  0.435300  0.096800  0.346300  1.0  -0.0722
  C  C363  1  0.050300  0.368400  0.876700  1.0  -0.0737
  C  C364  1  0.049300  0.338900  0.854700  1.0  -0.0652
  C  C365  1  0.934600  0.308600  0.805450  1.0  -0.099
  C  C366  1  0.933400  0.283800  0.783440  1.0  -0.1428
  C  C367  1  0.864900  0.271400  0.770850  1.0  0.6402
  C  C368  1  0.059300  0.431000  0.867100  1.0  -0.1081
  C  C369  1  0.064700  0.403200  0.846300  1.0  -0.0705
  C  C370  1  0.550300  0.868400  0.376700  1.0  -0.0737
  C  C371  1  0.549300  0.838900  0.354700  1.0  -0.0652
  C  C372  1  0.434600  0.808600  0.305450  1.0  -0.099
  C  C373  1  0.433400  0.783800  0.283440  1.0  -0.1428
  C  C374  1  0.364900  0.771400  0.270850  1.0  0.6402
  C  C375  1  0.559300  0.931000  0.367100  1.0  -0.1081
  C  C376  1  0.564700  0.903200  0.346300  1.0  -0.0705
  C  C377  1  0.368400  0.050300  0.123300  1.0  -0.0732
  C  C378  1  0.338900  0.049300  0.145300  1.0  -0.0641
  C  C379  1  0.308600  0.934600  0.194550  1.0  -0.098
  C  C380  1  0.283800  0.933400  0.216560  1.0  -0.1412
  C  C381  1  0.271400  0.864900  0.229150  1.0  0.6407
  C  C382  1  0.431000  0.059300  0.132900  1.0  -0.103
  C  C383  1  0.403200  0.064700  0.153700  1.0  -0.0708
  C  C384  1  0.868400  0.550300  0.623300  1.0  -0.0732
  C  C385  1  0.838900  0.549300  0.645300  1.0  -0.0641
  C  C386  1  0.808600  0.434600  0.694550  1.0  -0.098
  C  C387  1  0.783800  0.433400  0.716560  1.0  -0.1412
  C  C388  1  0.771400  0.364900  0.729150  1.0  0.6407
  C  C389  1  0.931000  0.559300  0.632900  1.0  -0.103
  C  C390  1  0.903200  0.564700  0.653700  1.0  -0.0708
  C  C391  1  0.631600  0.949700  0.123300  1.0  -0.0722
  C  C392  1  0.661100  0.950700  0.145300  1.0  -0.0623
  C  C393  1  0.691400  0.065400  0.194550  1.0  -0.0983
  C  C394  1  0.716200  0.066600  0.216560  1.0  -0.1411
  C  C395  1  0.728600  0.135100  0.229150  1.0  0.6407
  C  C396  1  0.569000  0.940700  0.132900  1.0  -0.1038
  C  C397  1  0.596800  0.935300  0.153700  1.0  -0.0707
  C  C398  1  0.131600  0.449700  0.623300  1.0  -0.0722
  C  C399  1  0.161100  0.450700  0.645300  1.0  -0.0623
  C  C400  1  0.191400  0.565400  0.694550  1.0  -0.0983
  C  C401  1  0.216200  0.566600  0.716560  1.0  -0.1411
  C  C402  1  0.228600  0.635100  0.729150  1.0  0.6407
  C  C403  1  0.069000  0.440700  0.632900  1.0  -0.1038
  C  C404  1  0.096800  0.435300  0.653700  1.0  -0.0707
  C  C405  1  0.050300  0.631600  0.123300  1.0  -0.0732
  C  C406  1  0.049300  0.661100  0.145300  1.0  -0.062
  C  C407  1  0.934600  0.691400  0.194550  1.0  -0.0993
  C  C408  1  0.933400  0.716200  0.216560  1.0  -0.1414
  C  C409  1  0.864900  0.728600  0.229150  1.0  0.6403
  C  C410  1  0.059300  0.569000  0.132900  1.0  -0.1099
  C  C411  1  0.064700  0.596800  0.153700  1.0  -0.073
  C  C412  1  0.550300  0.131600  0.623300  1.0  -0.0732
  C  C413  1  0.549300  0.161100  0.645300  1.0  -0.062
  C  C414  1  0.434600  0.191400  0.694550  1.0  -0.0993
  C  C415  1  0.433400  0.216200  0.716560  1.0  -0.1414
  C  C416  1  0.364900  0.228600  0.729150  1.0  0.6403
  C  C417  1  0.559300  0.069000  0.632900  1.0  -0.1099
  C  C418  1  0.564700  0.096800  0.653700  1.0  -0.073
  C  C419  1  0.949700  0.368400  0.123300  1.0  -0.0757
  C  C420  1  0.950700  0.338900  0.145300  1.0  -0.0667
  C  C421  1  0.065400  0.308600  0.194550  1.0  -0.0983
  C  C422  1  0.066600  0.283800  0.216560  1.0  -0.142
  C  C423  1  0.135100  0.271400  0.229150  1.0  0.6405
  C  C424  1  0.940700  0.431000  0.132900  1.0  -0.1084
  C  C425  1  0.935300  0.403200  0.153700  1.0  -0.0721
  C  C426  1  0.449700  0.868400  0.623300  1.0  -0.0757
  C  C427  1  0.450700  0.838900  0.645300  1.0  -0.0667
  C  C428  1  0.565400  0.808600  0.694550  1.0  -0.0983
  C  C429  1  0.566600  0.783800  0.716560  1.0  -0.142
  C  C430  1  0.635100  0.771400  0.729150  1.0  0.6405
  C  C431  1  0.440700  0.931000  0.632900  1.0  -0.1084
  C  C432  1  0.435300  0.903200  0.653700  1.0  -0.0721
  C  C433  1  0.461800  0.000000  0.020290  1.0  0.151
  C  C434  1  0.426800  0.000000  0.039550  1.0  -0.1067
  C  C435  1  0.463600  0.000000  0.059260  1.0  0.3012
  C  C436  1  0.462000  0.000000  0.097170  1.0  0.0643
  C  C437  1  0.418900  0.000000  0.118900  1.0  0.1472
  C  C438  1  0.355900  0.000000  0.160050  1.0  0.1375
  C  C439  1  0.322300  0.000000  0.183960  1.0  -0.0095
  C  C440  1  0.269900  0.000000  0.227200  1.0  0.0115
  C  C441  1  0.961800  0.500000  0.520290  1.0  0.1524
  C  C442  1  0.926800  0.500000  0.539550  1.0  -0.1099
  C  C443  1  0.963600  0.500000  0.559260  1.0  0.3012
  C  C444  1  0.962000  0.500000  0.597170  1.0  0.0643
  C  C445  1  0.918900  0.500000  0.618900  1.0  0.1472
  C  C446  1  0.855900  0.500000  0.660050  1.0  0.1375
  C  C447  1  0.822300  0.500000  0.683960  1.0  -0.0095
  C  C448  1  0.769900  0.500000  0.727200  1.0  0.0115
  C  C449  1  0.538200  0.000000  0.020290  1.0  0.1511
  C  C450  1  0.573200  0.000000  0.039550  1.0  -0.1036
  C  C451  1  0.536400  0.000000  0.059260  1.0  0.3011
  C  C452  1  0.538000  0.000000  0.097170  1.0  0.0652
  C  C453  1  0.581100  0.000000  0.118900  1.0  0.146
  C  C454  1  0.644100  0.000000  0.160050  1.0  0.1368
  C  C455  1  0.677700  0.000000  0.183960  1.0  -0.0069
  C  C456  1  0.730100  0.000000  0.227200  1.0  0.0125
  C  C457  1  0.038200  0.500000  0.520290  1.0  0.1521
  C  C458  1  0.073200  0.500000  0.539550  1.0  -0.1072
  C  C459  1  0.036400  0.500000  0.559260  1.0  0.3011
  C  C460  1  0.038000  0.500000  0.597170  1.0  0.0652
  C  C461  1  0.081100  0.500000  0.618900  1.0  0.146
  C  C462  1  0.144100  0.500000  0.660050  1.0  0.1368
  C  C463  1  0.177700  0.500000  0.683960  1.0  -0.0069
  C  C464  1  0.230100  0.500000  0.727200  1.0  0.0125
  C  C465  1  0.000000  0.461800  0.020290  1.0  0.1476
  C  C466  1  0.000000  0.426800  0.039550  1.0  -0.1087
  C  C467  1  0.000000  0.463600  0.059260  1.0  0.3
  C  C468  1  0.000000  0.462000  0.097170  1.0  0.0624
  C  C469  1  0.000000  0.418900  0.118900  1.0  0.1423
  C  C470  1  0.000000  0.355900  0.160050  1.0  0.1393
  C  C471  1  0.000000  0.322300  0.183960  1.0  -0.0062
  C  C472  1  0.000000  0.269900  0.227200  1.0  0.0125
  C  C473  1  0.500000  0.961800  0.520290  1.0  0.1493
  C  C474  1  0.500000  0.926800  0.539550  1.0  -0.1108
  C  C475  1  0.500000  0.963600  0.559260  1.0  0.3
  C  C476  1  0.500000  0.962000  0.597170  1.0  0.0624
  C  C477  1  0.500000  0.918900  0.618900  1.0  0.1423
  C  C478  1  0.500000  0.855900  0.660050  1.0  0.1393
  C  C479  1  0.500000  0.822300  0.683960  1.0  -0.0062
  C  C480  1  0.500000  0.769900  0.727200  1.0  0.0125
  C  C481  1  0.000000  0.538200  0.020290  1.0  0.1484
  C  C482  1  0.000000  0.573200  0.039550  1.0  -0.1046
  C  C483  1  0.000000  0.536400  0.059260  1.0  0.2997
  C  C484  1  0.000000  0.538000  0.097170  1.0  0.0638
  C  C485  1  0.000000  0.581100  0.118900  1.0  0.1455
  C  C486  1  0.000000  0.644100  0.160050  1.0  0.1366
  C  C487  1  0.000000  0.677700  0.183960  1.0  -0.0073
  C  C488  1  0.000000  0.730100  0.227200  1.0  0.0119
  C  C489  1  0.500000  0.038200  0.520290  1.0  0.1485
  C  C490  1  0.500000  0.073200  0.539550  1.0  -0.1065
  C  C491  1  0.500000  0.036400  0.559260  1.0  0.2997
  C  C492  1  0.500000  0.038000  0.597170  1.0  0.0638
  C  C493  1  0.500000  0.081100  0.618900  1.0  0.1455
  C  C494  1  0.500000  0.144100  0.660050  1.0  0.1366
  C  C495  1  0.500000  0.177700  0.683960  1.0  -0.0073
  C  C496  1  0.500000  0.230100  0.727200  1.0  0.0119
  C  C497  1  0.538200  0.000000  0.979710  1.0  0.1506
  C  C498  1  0.573200  0.000000  0.960450  1.0  -0.1065
  C  C499  1  0.536400  0.000000  0.940740  1.0  0.3009
  C  C500  1  0.538000  0.000000  0.902830  1.0  0.0637
  C  C501  1  0.581100  0.000000  0.881100  1.0  0.1455
  C  C502  1  0.644100  0.000000  0.839950  1.0  0.1348
  C  C503  1  0.677700  0.000000  0.816040  1.0  -0.0111
  C  C504  1  0.730100  0.000000  0.772800  1.0  0.0126
  C  C505  1  0.038200  0.500000  0.479710  1.0  0.1516
  C  C506  1  0.073200  0.500000  0.460450  1.0  -0.1108
  C  C507  1  0.036400  0.500000  0.440740  1.0  0.3009
  C  C508  1  0.038000  0.500000  0.402830  1.0  0.0637
  C  C509  1  0.081100  0.500000  0.381100  1.0  0.1455
  C  C510  1  0.144100  0.500000  0.339950  1.0  0.1348
  C  C511  1  0.177700  0.500000  0.316040  1.0  -0.0111
  C  C512  1  0.230100  0.500000  0.272800  1.0  0.0126
  C  C513  1  0.461800  0.000000  0.979710  1.0  0.1507
  C  C514  1  0.426800  0.000000  0.960450  1.0  -0.1029
  C  C515  1  0.463600  0.000000  0.940740  1.0  0.2991
  C  C516  1  0.462000  0.000000  0.902830  1.0  0.0606
  C  C517  1  0.418900  0.000000  0.881100  1.0  0.1477
  C  C518  1  0.355900  0.000000  0.839950  1.0  0.1356
  C  C519  1  0.322300  0.000000  0.816040  1.0  -0.0123
  C  C520  1  0.269900  0.000000  0.772800  1.0  0.0129
  C  C521  1  0.961800  0.500000  0.479710  1.0  0.152
  C  C522  1  0.926800  0.500000  0.460450  1.0  -0.1059
  C  C523  1  0.963600  0.500000  0.440740  1.0  0.2991
  C  C524  1  0.962000  0.500000  0.402830  1.0  0.0606
  C  C525  1  0.918900  0.500000  0.381100  1.0  0.1477
  C  C526  1  0.855900  0.500000  0.339950  1.0  0.1356
  C  C527  1  0.822300  0.500000  0.316040  1.0  -0.0123
  C  C528  1  0.769900  0.500000  0.272800  1.0  0.0129
  C  C529  1  0.000000  0.461800  0.979710  1.0  0.1478
  C  C530  1  0.000000  0.426800  0.960450  1.0  -0.1084
  C  C531  1  0.000000  0.463600  0.940740  1.0  0.2995
  C  C532  1  0.000000  0.462000  0.902830  1.0  0.0629
  C  C533  1  0.000000  0.418900  0.881100  1.0  0.1435
  C  C534  1  0.000000  0.355900  0.839950  1.0  0.1361
  C  C535  1  0.000000  0.322300  0.816040  1.0  -0.0101
  C  C536  1  0.000000  0.269900  0.772800  1.0  0.013
  C  C537  1  0.500000  0.961800  0.479710  1.0  0.1497
  C  C538  1  0.500000  0.926800  0.460450  1.0  -0.1108
  C  C539  1  0.500000  0.963600  0.440740  1.0  0.2995
  C  C540  1  0.500000  0.962000  0.402830  1.0  0.0629
  C  C541  1  0.500000  0.918900  0.381100  1.0  0.1435
  C  C542  1  0.500000  0.855900  0.339950  1.0  0.1361
  C  C543  1  0.500000  0.822300  0.316040  1.0  -0.0101
  C  C544  1  0.500000  0.769900  0.272800  1.0  0.013
  C  C545  1  0.000000  0.538200  0.979710  1.0  0.148
  C  C546  1  0.000000  0.573200  0.960450  1.0  -0.1038
  C  C547  1  0.000000  0.536400  0.940740  1.0  0.2984
  C  C548  1  0.000000  0.538000  0.902830  1.0  0.0621
  C  C549  1  0.000000  0.581100  0.881100  1.0  0.1468
  C  C550  1  0.000000  0.644100  0.839950  1.0  0.1352
  C  C551  1  0.000000  0.677700  0.816040  1.0  -0.0111
  C  C552  1  0.000000  0.730100  0.772800  1.0  0.0123
  C  C553  1  0.500000  0.038200  0.479710  1.0  0.1481
  C  C554  1  0.500000  0.073200  0.460450  1.0  -0.106
  C  C555  1  0.500000  0.036400  0.440740  1.0  0.2984
  C  C556  1  0.500000  0.038000  0.402830  1.0  0.0621
  C  C557  1  0.500000  0.081100  0.381100  1.0  0.1468
  C  C558  1  0.500000  0.144100  0.339950  1.0  0.1352
  C  C559  1  0.500000  0.177700  0.316040  1.0  -0.0111
  C  C560  1  0.500000  0.230100  0.272800  1.0  0.0123
  N  N561  1  0.423900  0.000000  0.078230  1.0  -0.3302
  N  N562  1  0.923900  0.500000  0.578230  1.0  -0.3302
  N  N563  1  0.576100  0.000000  0.078230  1.0  -0.3239
  N  N564  1  0.076100  0.500000  0.578230  1.0  -0.3239
  N  N565  1  0.000000  0.423900  0.078230  1.0  -0.3304
  N  N566  1  0.500000  0.923900  0.578230  1.0  -0.3304
  N  N567  1  0.000000  0.576100  0.078230  1.0  -0.3284
  N  N568  1  0.500000  0.076100  0.578230  1.0  -0.3284
  N  N569  1  0.576100  0.000000  0.921770  1.0  -0.3265
  N  N570  1  0.076100  0.500000  0.421770  1.0  -0.3265
  N  N571  1  0.423900  0.000000  0.921770  1.0  -0.3251
  N  N572  1  0.923900  0.500000  0.421770  1.0  -0.3251
  N  N573  1  0.000000  0.423900  0.921770  1.0  -0.3322
  N  N574  1  0.500000  0.923900  0.421770  1.0  -0.3322
  N  N575  1  0.000000  0.576100  0.921770  1.0  -0.3277
  N  N576  1  0.500000  0.076100  0.421770  1.0  -0.3277
  O  O577  1  0.295400  0.194200  0.219780  1.0  -0.581
  O  O578  1  0.236800  0.130600  0.247360  1.0  -0.5766
  O  O579  1  0.795400  0.694200  0.719780  1.0  -0.581
  O  O580  1  0.736800  0.630600  0.747360  1.0  -0.5766
  O  O581  1  0.704600  0.805800  0.219780  1.0  -0.5808
  O  O582  1  0.763200  0.869400  0.247360  1.0  -0.5773
  O  O583  1  0.204600  0.305800  0.719780  1.0  -0.5808
  O  O584  1  0.263200  0.369400  0.747360  1.0  -0.5773
  O  O585  1  0.805800  0.295400  0.219780  1.0  -0.5817
  O  O586  1  0.869400  0.236800  0.247360  1.0  -0.5776
  O  O587  1  0.305800  0.795400  0.719780  1.0  -0.5817
  O  O588  1  0.369400  0.736800  0.747360  1.0  -0.5776
  O  O589  1  0.194200  0.704600  0.219780  1.0  -0.5815
  O  O590  1  0.130600  0.763200  0.247360  1.0  -0.5772
  O  O591  1  0.694200  0.204600  0.719780  1.0  -0.5815
  O  O592  1  0.630600  0.263200  0.747360  1.0  -0.5772
  O  O593  1  0.704600  0.194200  0.780220  1.0  -0.5814
  O  O594  1  0.763200  0.130600  0.752640  1.0  -0.5774
  O  O595  1  0.204600  0.694200  0.280220  1.0  -0.5814
  O  O596  1  0.263200  0.630600  0.252640  1.0  -0.5774
  O  O597  1  0.295400  0.805800  0.780220  1.0  -0.5805
  O  O598  1  0.236800  0.869400  0.752640  1.0  -0.5771
  O  O599  1  0.795400  0.305800  0.280220  1.0  -0.5805
  O  O600  1  0.736800  0.369400  0.252640  1.0  -0.5771
  O  O601  1  0.194200  0.295400  0.780220  1.0  -0.5818
  O  O602  1  0.130600  0.236800  0.752640  1.0  -0.5769
  O  O603  1  0.694200  0.795400  0.280220  1.0  -0.5818
  O  O604  1  0.630600  0.736800  0.252640  1.0  -0.5769
  O  O605  1  0.805800  0.704600  0.780220  1.0  -0.5803
  O  O606  1  0.869400  0.763200  0.752640  1.0  -0.5772
  O  O607  1  0.305800  0.204600  0.280220  1.0  -0.5803
  O  O608  1  0.369400  0.263200  0.252640  1.0  -0.5772
  O  O609  1  0.704600  0.805800  0.780220  1.0  -0.5801
  O  O610  1  0.763200  0.869400  0.752640  1.0  -0.5779
  O  O611  1  0.204600  0.305800  0.280220  1.0  -0.5801
  O  O612  1  0.263200  0.369400  0.252640  1.0  -0.5779
  O  O613  1  0.295400  0.194200  0.780220  1.0  -0.5806
  O  O614  1  0.236800  0.130600  0.752640  1.0  -0.5767
  O  O615  1  0.795400  0.694200  0.280220  1.0  -0.5806
  O  O616  1  0.736800  0.630600  0.252640  1.0  -0.5767
  O  O617  1  0.194200  0.704600  0.780220  1.0  -0.5811
  O  O618  1  0.130600  0.763200  0.752640  1.0  -0.5773
  O  O619  1  0.694200  0.204600  0.280220  1.0  -0.5811
  O  O620  1  0.630600  0.263200  0.252640  1.0  -0.5773
  O  O621  1  0.805800  0.295400  0.780220  1.0  -0.5811
  O  O622  1  0.869400  0.236800  0.752640  1.0  -0.5773
  O  O623  1  0.305800  0.795400  0.280220  1.0  -0.5811
  O  O624  1  0.369400  0.736800  0.252640  1.0  -0.5773
  O  O625  1  0.295400  0.805800  0.219780  1.0  -0.5809
  O  O626  1  0.236800  0.869400  0.247360  1.0  -0.5769
  O  O627  1  0.795400  0.305800  0.719780  1.0  -0.5809
  O  O628  1  0.736800  0.369400  0.747360  1.0  -0.5769
  O  O629  1  0.704600  0.194200  0.219780  1.0  -0.5816
  O  O630  1  0.763200  0.130600  0.247360  1.0  -0.5773
  O  O631  1  0.204600  0.694200  0.719780  1.0  -0.5816
  O  O632  1  0.263200  0.630600  0.747360  1.0  -0.5773
  O  O633  1  0.805800  0.704600  0.219780  1.0  -0.5809
  O  O634  1  0.869400  0.763200  0.247360  1.0  -0.5775
  O  O635  1  0.305800  0.204600  0.719780  1.0  -0.5809
  O  O636  1  0.369400  0.263200  0.747360  1.0  -0.5775
  O  O637  1  0.194200  0.295400  0.219780  1.0  -0.5824
  O  O638  1  0.130600  0.236800  0.247360  1.0  -0.5766
  O  O639  1  0.694200  0.795400  0.719780  1.0  -0.5824
  O  O640  1  0.630600  0.736800  0.747360  1.0  -0.5766
  O  O641  1  0.427100  0.000000  0.000000  1.0  -0.2455
  O  O642  1  0.927100  0.500000  0.500000  1.0  -0.2456
  O  O643  1  0.572900  0.000000  0.000000  1.0  -0.2483
  O  O644  1  0.072900  0.500000  0.500000  1.0  -0.2484
  O  O645  1  0.000000  0.427100  0.000000  1.0  -0.2462
  O  O646  1  0.500000  0.927100  0.500000  1.0  -0.2463
  O  O647  1  0.000000  0.572900  0.000000  1.0  -0.2466
  O  O648  1  0.500000  0.072900  0.500000  1.0  -0.2466
