# generated using pymatgen
data_Cu2H14C29O8
_symmetry_space_group_name_H-M   'P 1'
_cell_length_a   18.69240000
_cell_length_b   18.69240000
_cell_length_c   35.91960000
_cell_angle_alpha   90.00000000
_cell_angle_beta   90.00000000
_cell_angle_gamma   90.00000000
_symmetry_Int_Tables_number   1
_chemical_formula_structural   Cu2H14C29O8
_chemical_formula_sum   'Cu16 H112 C232 O64'
_cell_volume   12550.51721161
_cell_formula_units_Z   8
loop_
 _symmetry_equiv_pos_site_id
 _symmetry_equiv_pos_as_xyz
  1  'x, y, z'
loop_
 _atom_site_type_symbol
 _atom_site_label
 _atom_site_symmetry_multiplicity
 _atom_site_fract_x
 _atom_site_fract_y
 _atom_site_fract_z
 _atom_site_occupancy
 _atom_site_charge
  Cu  Cu1  1  0.220910  0.779090  0.720970  1.0  0.9111
  Cu  Cu2  1  0.720910  0.279090  0.220970  1.0  0.9111
  Cu  Cu3  1  0.779090  0.220910  0.720970  1.0  0.9106
  Cu  Cu4  1  0.279090  0.720910  0.220970  1.0  0.9106
  Cu  Cu5  1  0.779090  0.779090  0.279030  1.0  0.9108
  Cu  Cu6  1  0.279090  0.279090  0.779030  1.0  0.9108
  Cu  Cu7  1  0.220910  0.220910  0.279030  1.0  0.9103
  Cu  Cu8  1  0.720910  0.720910  0.779030  1.0  0.9103
  Cu  Cu9  1  0.788870  0.788870  0.724570  1.0  0.9054
  Cu  Cu10  1  0.288870  0.288870  0.224570  1.0  0.9139
  Cu  Cu11  1  0.211130  0.211130  0.724570  1.0  0.9056
  Cu  Cu12  1  0.711130  0.711130  0.224570  1.0  0.9147
  Cu  Cu13  1  0.788870  0.211130  0.275430  1.0  0.9055
  Cu  Cu14  1  0.288870  0.711130  0.775430  1.0  0.9144
  Cu  Cu15  1  0.211130  0.788870  0.275430  1.0  0.9058
  Cu  Cu16  1  0.711130  0.288870  0.775430  1.0  0.9141
  H  H17  1  0.594700  0.971000  0.554900  1.0  0.1171
  H  H18  1  0.597500  0.914000  0.612500  1.0  0.1232
  H  H19  1  0.421900  0.800000  0.583800  1.0  0.1211
  H  H20  1  0.421200  0.855800  0.525900  1.0  0.1116
  H  H21  1  0.614800  0.821000  0.650600  1.0  0.1136
  H  H22  1  0.504400  0.744700  0.738900  1.0  0.1183
  H  H23  1  0.399200  0.814000  0.647200  1.0  0.1116
  H  H24  1  0.094700  0.471000  0.054900  1.0  0.1172
  H  H25  1  0.097500  0.414000  0.112500  1.0  0.1232
  H  H26  1  0.921900  0.300000  0.083800  1.0  0.1211
  H  H27  1  0.921200  0.355800  0.025900  1.0  0.1116
  H  H28  1  0.114800  0.321000  0.150600  1.0  0.1136
  H  H29  1  0.004400  0.244700  0.238900  1.0  0.1183
  H  H30  1  0.899200  0.314000  0.147200  1.0  0.1116
  H  H31  1  0.405300  0.029000  0.554900  1.0  0.117
  H  H32  1  0.402500  0.086000  0.612500  1.0  0.1231
  H  H33  1  0.578100  0.200000  0.583800  1.0  0.1212
  H  H34  1  0.578800  0.144200  0.525900  1.0  0.1117
  H  H35  1  0.385200  0.179000  0.650600  1.0  0.114
  H  H36  1  0.495600  0.255300  0.738900  1.0  0.1182
  H  H37  1  0.600800  0.186000  0.647200  1.0  0.111
  H  H38  1  0.905300  0.529000  0.054900  1.0  0.1177
  H  H39  1  0.902500  0.586000  0.112500  1.0  0.1231
  H  H40  1  0.078100  0.700000  0.083800  1.0  0.1212
  H  H41  1  0.078800  0.644200  0.025900  1.0  0.1117
  H  H42  1  0.885200  0.679000  0.150600  1.0  0.114
  H  H43  1  0.995600  0.755300  0.238900  1.0  0.1182
  H  H44  1  0.100800  0.686000  0.147200  1.0  0.111
  H  H45  1  0.971000  0.405300  0.445100  1.0  0.1168
  H  H46  1  0.914000  0.402500  0.387500  1.0  0.1224
  H  H47  1  0.800000  0.578100  0.416200  1.0  0.1216
  H  H48  1  0.855800  0.578800  0.474100  1.0  0.1113
  H  H49  1  0.821000  0.385200  0.349400  1.0  0.1134
  H  H50  1  0.744700  0.495600  0.261100  1.0  0.118
  H  H51  1  0.814000  0.600800  0.352800  1.0  0.1122
  H  H52  1  0.471000  0.905300  0.945100  1.0  0.1173
  H  H53  1  0.414000  0.902500  0.887500  1.0  0.1224
  H  H54  1  0.300000  0.078100  0.916200  1.0  0.1216
  H  H55  1  0.355800  0.078800  0.974100  1.0  0.1113
  H  H56  1  0.321000  0.885200  0.849400  1.0  0.1134
  H  H57  1  0.244700  0.995600  0.761100  1.0  0.118
  H  H58  1  0.314000  0.100800  0.852800  1.0  0.1122
  H  H59  1  0.029000  0.594700  0.445100  1.0  0.1159
  H  H60  1  0.086000  0.597500  0.387500  1.0  0.1231
  H  H61  1  0.200000  0.421900  0.416200  1.0  0.1214
  H  H62  1  0.144200  0.421200  0.474100  1.0  0.1111
  H  H63  1  0.179000  0.614800  0.349400  1.0  0.1136
  H  H64  1  0.255300  0.504400  0.261100  1.0  0.1182
  H  H65  1  0.186000  0.399200  0.352800  1.0  0.1129
  H  H66  1  0.529000  0.094700  0.945100  1.0  0.1169
  H  H67  1  0.586000  0.097500  0.887500  1.0  0.1231
  H  H68  1  0.700000  0.921900  0.916200  1.0  0.1214
  H  H69  1  0.644200  0.921200  0.974100  1.0  0.1111
  H  H70  1  0.679000  0.114800  0.849400  1.0  0.1136
  H  H71  1  0.755300  0.004400  0.761100  1.0  0.1182
  H  H72  1  0.686000  0.899200  0.852800  1.0  0.1129
  H  H73  1  0.405300  0.971000  0.445100  1.0  0.1174
  H  H74  1  0.402500  0.914000  0.387500  1.0  0.123
  H  H75  1  0.578100  0.800000  0.416200  1.0  0.1214
  H  H76  1  0.578800  0.855800  0.474100  1.0  0.1113
  H  H77  1  0.385200  0.821000  0.349400  1.0  0.1137
  H  H78  1  0.495600  0.744700  0.261100  1.0  0.1182
  H  H79  1  0.600800  0.814000  0.352800  1.0  0.1112
  H  H80  1  0.905300  0.471000  0.945100  1.0  0.118
  H  H81  1  0.902500  0.414000  0.887500  1.0  0.123
  H  H82  1  0.078100  0.300000  0.916200  1.0  0.1214
  H  H83  1  0.078800  0.355800  0.974100  1.0  0.1113
  H  H84  1  0.885200  0.321000  0.849400  1.0  0.1137
  H  H85  1  0.995600  0.244700  0.761100  1.0  0.1182
  H  H86  1  0.100800  0.314000  0.852800  1.0  0.1112
  H  H87  1  0.594700  0.029000  0.445100  1.0  0.1169
  H  H88  1  0.597500  0.086000  0.387500  1.0  0.1225
  H  H89  1  0.421900  0.200000  0.416200  1.0  0.1216
  H  H90  1  0.421200  0.144200  0.474100  1.0  0.1116
  H  H91  1  0.614800  0.179000  0.349400  1.0  0.1134
  H  H92  1  0.504400  0.255300  0.261100  1.0  0.1183
  H  H93  1  0.399200  0.186000  0.352800  1.0  0.1116
  H  H94  1  0.094700  0.529000  0.945100  1.0  0.1172
  H  H95  1  0.097500  0.586000  0.887500  1.0  0.1225
  H  H96  1  0.921900  0.700000  0.916200  1.0  0.1216
  H  H97  1  0.921200  0.644200  0.974100  1.0  0.1116
  H  H98  1  0.114800  0.679000  0.849400  1.0  0.1134
  H  H99  1  0.004400  0.755300  0.761100  1.0  0.1183
  H  H100  1  0.899200  0.686000  0.852800  1.0  0.1116
  H  H101  1  0.029000  0.405300  0.554900  1.0  0.1164
  H  H102  1  0.086000  0.402500  0.612500  1.0  0.1232
  H  H103  1  0.200000  0.578100  0.583800  1.0  0.1212
  H  H104  1  0.144200  0.578800  0.525900  1.0  0.1118
  H  H105  1  0.179000  0.385200  0.650600  1.0  0.1138
  H  H106  1  0.255300  0.495600  0.738900  1.0  0.1178
  H  H107  1  0.186000  0.600800  0.647200  1.0  0.1125
  H  H108  1  0.529000  0.905300  0.054900  1.0  0.117
  H  H109  1  0.586000  0.902500  0.112500  1.0  0.1232
  H  H110  1  0.700000  0.078100  0.083800  1.0  0.1212
  H  H111  1  0.644200  0.078800  0.025900  1.0  0.1118
  H  H112  1  0.679000  0.885200  0.150600  1.0  0.1138
  H  H113  1  0.755300  0.995600  0.238900  1.0  0.1178
  H  H114  1  0.686000  0.100800  0.147200  1.0  0.1125
  H  H115  1  0.971000  0.594700  0.554900  1.0  0.1159
  H  H116  1  0.914000  0.597500  0.612500  1.0  0.123
  H  H117  1  0.800000  0.421900  0.583800  1.0  0.121
  H  H118  1  0.855800  0.421200  0.525900  1.0  0.1111
  H  H119  1  0.821000  0.614800  0.650600  1.0  0.1134
  H  H120  1  0.744700  0.504400  0.738900  1.0  0.118
  H  H121  1  0.814000  0.399200  0.647200  1.0  0.1122
  H  H122  1  0.471000  0.094700  0.054900  1.0  0.1165
  H  H123  1  0.414000  0.097500  0.112500  1.0  0.123
  H  H124  1  0.300000  0.921900  0.083800  1.0  0.121
  H  H125  1  0.355800  0.921200  0.025900  1.0  0.1111
  H  H126  1  0.321000  0.114800  0.150600  1.0  0.1134
  H  H127  1  0.244700  0.004400  0.238900  1.0  0.118
  H  H128  1  0.314000  0.899200  0.147200  1.0  0.1122
  C  C129  1  0.505210  0.922330  0.535380  1.0  0.0622
  C  C130  1  0.558660  0.937130  0.560930  1.0  -0.1422
  C  C131  1  0.560330  0.903230  0.595290  1.0  -0.1446
  C  C132  1  0.508400  0.854050  0.604650  1.0  0.0451
  C  C133  1  0.456530  0.835560  0.578230  1.0  -0.1267
  C  C134  1  0.455890  0.869200  0.543890  1.0  -0.0961
  C  C135  1  0.506510  0.822390  0.643000  1.0  0.0056
  C  C136  1  0.570380  0.810000  0.662110  1.0  -0.0852
  C  C137  1  0.569480  0.781760  0.697700  1.0  -0.1354
  C  C138  1  0.504820  0.764830  0.714630  1.0  0.0157
  C  C139  1  0.441470  0.777230  0.696280  1.0  -0.1327
  C  C140  1  0.442860  0.805910  0.660010  1.0  -0.0632
  C  C141  1  0.371650  0.763810  0.714820  1.0  0.6761
  C  C142  1  0.638480  0.771690  0.718200  1.0  0.6792
  C  C143  1  0.005210  0.422330  0.035380  1.0  0.0622
  C  C144  1  0.058660  0.437130  0.060930  1.0  -0.1422
  C  C145  1  0.060330  0.403230  0.095290  1.0  -0.1446
  C  C146  1  0.008400  0.354050  0.104650  1.0  0.0451
  C  C147  1  0.956530  0.335560  0.078230  1.0  -0.1264
  C  C148  1  0.955890  0.369200  0.043890  1.0  -0.0961
  C  C149  1  0.006510  0.322390  0.143000  1.0  0.0056
  C  C150  1  0.070380  0.310000  0.162110  1.0  -0.0852
  C  C151  1  0.069480  0.281760  0.197700  1.0  -0.1354
  C  C152  1  0.004820  0.264830  0.214630  1.0  0.0157
  C  C153  1  0.941470  0.277230  0.196280  1.0  -0.1327
  C  C154  1  0.942860  0.305910  0.160010  1.0  -0.0632
  C  C155  1  0.871650  0.263810  0.214820  1.0  0.6761
  C  C156  1  0.138480  0.271690  0.218200  1.0  0.6792
  C  C157  1  0.494790  0.077670  0.535380  1.0  0.0621
  C  C158  1  0.441340  0.062870  0.560930  1.0  -0.1412
  C  C159  1  0.439670  0.096770  0.595290  1.0  -0.1463
  C  C160  1  0.491600  0.145950  0.604650  1.0  0.0457
  C  C161  1  0.543470  0.164440  0.578230  1.0  -0.1275
  C  C162  1  0.544110  0.130800  0.543890  1.0  -0.0954
  C  C163  1  0.493490  0.177610  0.643000  1.0  0.0054
  C  C164  1  0.429620  0.190000  0.662110  1.0  -0.0855
  C  C165  1  0.430520  0.218240  0.697700  1.0  -0.1358
  C  C166  1  0.495180  0.235170  0.714630  1.0  0.0149
  C  C167  1  0.558530  0.222770  0.696280  1.0  -0.1328
  C  C168  1  0.557140  0.194090  0.660010  1.0  -0.0621
  C  C169  1  0.628350  0.236190  0.714820  1.0  0.676
  C  C170  1  0.361520  0.228310  0.718200  1.0  0.68
  C  C171  1  0.994790  0.577670  0.035380  1.0  0.0621
  C  C172  1  0.941340  0.562870  0.060930  1.0  -0.1412
  C  C173  1  0.939670  0.596770  0.095290  1.0  -0.1463
  C  C174  1  0.991600  0.645950  0.104650  1.0  0.0457
  C  C175  1  0.043470  0.664440  0.078230  1.0  -0.1268
  C  C176  1  0.044110  0.630800  0.043890  1.0  -0.0954
  C  C177  1  0.993490  0.677610  0.143000  1.0  0.0054
  C  C178  1  0.929620  0.690000  0.162110  1.0  -0.0855
  C  C179  1  0.930520  0.718240  0.197700  1.0  -0.1358
  C  C180  1  0.995180  0.735170  0.214630  1.0  0.0149
  C  C181  1  0.058530  0.722770  0.196280  1.0  -0.1328
  C  C182  1  0.057140  0.694090  0.160010  1.0  -0.0621
  C  C183  1  0.128350  0.736190  0.214820  1.0  0.676
  C  C184  1  0.861520  0.728310  0.218200  1.0  0.68
  C  C185  1  0.922330  0.494790  0.464620  1.0  0.0627
  C  C186  1  0.937130  0.441340  0.439070  1.0  -0.1447
  C  C187  1  0.903230  0.439670  0.404710  1.0  -0.149
  C  C188  1  0.854050  0.491600  0.395350  1.0  0.044
  C  C189  1  0.835560  0.543470  0.421770  1.0  -0.1265
  C  C190  1  0.869200  0.544110  0.456110  1.0  -0.0994
  C  C191  1  0.822390  0.493490  0.357000  1.0  0.0038
  C  C192  1  0.810000  0.429620  0.337890  1.0  -0.0842
  C  C193  1  0.781760  0.430520  0.302300  1.0  -0.136
  C  C194  1  0.764830  0.495180  0.285370  1.0  0.0155
  C  C195  1  0.777230  0.558530  0.303720  1.0  -0.1326
  C  C196  1  0.805910  0.557140  0.339990  1.0  -0.063
  C  C197  1  0.763810  0.628350  0.285180  1.0  0.6762
  C  C198  1  0.771690  0.361520  0.281800  1.0  0.6801
  C  C199  1  0.422330  0.994790  0.964620  1.0  0.0627
  C  C200  1  0.437130  0.941340  0.939070  1.0  -0.1447
  C  C201  1  0.403230  0.939670  0.904710  1.0  -0.149
  C  C202  1  0.354050  0.991600  0.895350  1.0  0.044
  C  C203  1  0.335560  0.043470  0.921770  1.0  -0.1254
  C  C204  1  0.369200  0.044110  0.956110  1.0  -0.0994
  C  C205  1  0.322390  0.993490  0.857000  1.0  0.0038
  C  C206  1  0.310000  0.929620  0.837890  1.0  -0.0842
  C  C207  1  0.281760  0.930520  0.802300  1.0  -0.136
  C  C208  1  0.264830  0.995180  0.785370  1.0  0.0155
  C  C209  1  0.277230  0.058530  0.803720  1.0  -0.1326
  C  C210  1  0.305910  0.057140  0.839990  1.0  -0.063
  C  C211  1  0.263810  0.128350  0.785180  1.0  0.6762
  C  C212  1  0.271690  0.861520  0.781800  1.0  0.6801
  C  C213  1  0.077670  0.505210  0.464620  1.0  0.0616
  C  C214  1  0.062870  0.558660  0.439070  1.0  -0.1412
  C  C215  1  0.096770  0.560330  0.404710  1.0  -0.1494
  C  C216  1  0.145950  0.508400  0.395350  1.0  0.0439
  C  C217  1  0.164440  0.456530  0.421770  1.0  -0.1255
  C  C218  1  0.130800  0.455890  0.456110  1.0  -0.0978
  C  C219  1  0.177610  0.506510  0.357000  1.0  0.0044
  C  C220  1  0.190000  0.570380  0.337890  1.0  -0.0865
  C  C221  1  0.218240  0.569480  0.302300  1.0  -0.1358
  C  C222  1  0.235170  0.504820  0.285370  1.0  0.0147
  C  C223  1  0.222770  0.441470  0.303720  1.0  -0.133
  C  C224  1  0.194090  0.442860  0.339990  1.0  -0.0611
  C  C225  1  0.236190  0.371650  0.285180  1.0  0.6763
  C  C226  1  0.228310  0.638480  0.281800  1.0  0.6801
  C  C227  1  0.577670  0.005210  0.964620  1.0  0.0616
  C  C228  1  0.562870  0.058660  0.939070  1.0  -0.1412
  C  C229  1  0.596770  0.060330  0.904710  1.0  -0.1494
  C  C230  1  0.645950  0.008400  0.895350  1.0  0.0439
  C  C231  1  0.664440  0.956530  0.921770  1.0  -0.1254
  C  C232  1  0.630800  0.955890  0.956110  1.0  -0.0978
  C  C233  1  0.677610  0.006510  0.857000  1.0  0.0044
  C  C234  1  0.690000  0.070380  0.837890  1.0  -0.0865
  C  C235  1  0.718240  0.069480  0.802300  1.0  -0.1358
  C  C236  1  0.735170  0.004820  0.785370  1.0  0.0147
  C  C237  1  0.722770  0.941470  0.803720  1.0  -0.133
  C  C238  1  0.694090  0.942860  0.839990  1.0  -0.0611
  C  C239  1  0.736190  0.871650  0.785180  1.0  0.6763
  C  C240  1  0.728310  0.138480  0.781800  1.0  0.6801
  C  C241  1  0.494790  0.922330  0.464620  1.0  0.0623
  C  C242  1  0.441340  0.937130  0.439070  1.0  -0.1426
  C  C243  1  0.439670  0.903230  0.404710  1.0  -0.1472
  C  C244  1  0.491600  0.854050  0.395350  1.0  0.0452
  C  C245  1  0.543470  0.835560  0.421770  1.0  -0.1256
  C  C246  1  0.544110  0.869200  0.456110  1.0  -0.0952
  C  C247  1  0.493490  0.822390  0.357000  1.0  0.0055
  C  C248  1  0.429620  0.810000  0.337890  1.0  -0.0857
  C  C249  1  0.430520  0.781760  0.302300  1.0  -0.1358
  C  C250  1  0.495180  0.764830  0.285370  1.0  0.0148
  C  C251  1  0.558530  0.777230  0.303720  1.0  -0.1328
  C  C252  1  0.557140  0.805910  0.339990  1.0  -0.0624
  C  C253  1  0.628350  0.763810  0.285180  1.0  0.6758
  C  C254  1  0.361520  0.771690  0.281800  1.0  0.68
  C  C255  1  0.994790  0.422330  0.964620  1.0  0.0623
  C  C256  1  0.941340  0.437130  0.939070  1.0  -0.1426
  C  C257  1  0.939670  0.403230  0.904710  1.0  -0.1472
  C  C258  1  0.991600  0.354050  0.895350  1.0  0.0452
  C  C259  1  0.043470  0.335560  0.921770  1.0  -0.1256
  C  C260  1  0.044110  0.369200  0.956110  1.0  -0.0952
  C  C261  1  0.993490  0.322390  0.857000  1.0  0.0055
  C  C262  1  0.929620  0.310000  0.837890  1.0  -0.0857
  C  C263  1  0.930520  0.281760  0.802300  1.0  -0.1358
  C  C264  1  0.995180  0.264830  0.785370  1.0  0.0148
  C  C265  1  0.058530  0.277230  0.803720  1.0  -0.1328
  C  C266  1  0.057140  0.305910  0.839990  1.0  -0.0624
  C  C267  1  0.128350  0.263810  0.785180  1.0  0.6758
  C  C268  1  0.861520  0.271690  0.781800  1.0  0.68
  C  C269  1  0.505210  0.077670  0.464620  1.0  0.0624
  C  C270  1  0.558660  0.062870  0.439070  1.0  -0.1415
  C  C271  1  0.560330  0.096770  0.404710  1.0  -0.1443
  C  C272  1  0.508400  0.145950  0.395350  1.0  0.0456
  C  C273  1  0.456530  0.164440  0.421770  1.0  -0.1284
  C  C274  1  0.455890  0.130800  0.456110  1.0  -0.0958
  C  C275  1  0.506510  0.177610  0.357000  1.0  0.0053
  C  C276  1  0.570380  0.190000  0.337890  1.0  -0.0848
  C  C277  1  0.569480  0.218240  0.302300  1.0  -0.1354
  C  C278  1  0.504820  0.235170  0.285370  1.0  0.0144
  C  C279  1  0.441470  0.222770  0.303720  1.0  -0.1324
  C  C280  1  0.442860  0.194090  0.339990  1.0  -0.0633
  C  C281  1  0.371650  0.236190  0.285180  1.0  0.676
  C  C282  1  0.638480  0.228310  0.281800  1.0  0.6792
  C  C283  1  0.005210  0.577670  0.964620  1.0  0.0624
  C  C284  1  0.058660  0.562870  0.939070  1.0  -0.1415
  C  C285  1  0.060330  0.596770  0.904710  1.0  -0.1443
  C  C286  1  0.008400  0.645950  0.895350  1.0  0.0456
  C  C287  1  0.956530  0.664440  0.921770  1.0  -0.1269
  C  C288  1  0.955890  0.630800  0.956110  1.0  -0.0958
  C  C289  1  0.006510  0.677610  0.857000  1.0  0.0053
  C  C290  1  0.070380  0.690000  0.837890  1.0  -0.0848
  C  C291  1  0.069480  0.718240  0.802300  1.0  -0.1354
  C  C292  1  0.004820  0.735170  0.785370  1.0  0.0144
  C  C293  1  0.941470  0.722770  0.803720  1.0  -0.1324
  C  C294  1  0.942860  0.694090  0.839990  1.0  -0.0633
  C  C295  1  0.871650  0.736190  0.785180  1.0  0.676
  C  C296  1  0.138480  0.728310  0.781800  1.0  0.6792
  C  C297  1  0.077670  0.494790  0.535380  1.0  0.0623
  C  C298  1  0.062870  0.441340  0.560930  1.0  -0.1426
  C  C299  1  0.096770  0.439670  0.595290  1.0  -0.1481
  C  C300  1  0.145950  0.491600  0.604650  1.0  0.0439
  C  C301  1  0.164440  0.543470  0.578230  1.0  -0.126
  C  C302  1  0.130800  0.544110  0.543890  1.0  -0.0981
  C  C303  1  0.177610  0.493490  0.643000  1.0  0.0046
  C  C304  1  0.190000  0.429620  0.662110  1.0  -0.0844
  C  C305  1  0.218240  0.430520  0.697700  1.0  -0.136
  C  C306  1  0.235170  0.495180  0.714630  1.0  0.0152
  C  C307  1  0.222770  0.558530  0.696280  1.0  -0.1328
  C  C308  1  0.194090  0.557140  0.660010  1.0  -0.0626
  C  C309  1  0.236190  0.628350  0.714820  1.0  0.6763
  C  C310  1  0.228310  0.361520  0.718200  1.0  0.6801
  C  C311  1  0.577670  0.994790  0.035380  1.0  0.0623
  C  C312  1  0.562870  0.941340  0.060930  1.0  -0.1426
  C  C313  1  0.596770  0.939670  0.095290  1.0  -0.1481
  C  C314  1  0.645950  0.991600  0.104650  1.0  0.0439
  C  C315  1  0.664440  0.043470  0.078230  1.0  -0.1254
  C  C316  1  0.630800  0.044110  0.043890  1.0  -0.0981
  C  C317  1  0.677610  0.993490  0.143000  1.0  0.0046
  C  C318  1  0.690000  0.929620  0.162110  1.0  -0.0844
  C  C319  1  0.718240  0.930520  0.197700  1.0  -0.136
  C  C320  1  0.735170  0.995180  0.214630  1.0  0.0152
  C  C321  1  0.722770  0.058530  0.196280  1.0  -0.1328
  C  C322  1  0.694090  0.057140  0.160010  1.0  -0.0626
  C  C323  1  0.736190  0.128350  0.214820  1.0  0.6763
  C  C324  1  0.728310  0.861520  0.218200  1.0  0.6801
  C  C325  1  0.922330  0.505210  0.535380  1.0  0.0624
  C  C326  1  0.937130  0.558660  0.560930  1.0  -0.1415
  C  C327  1  0.903230  0.560330  0.595290  1.0  -0.1493
  C  C328  1  0.854050  0.508400  0.604650  1.0  0.0442
  C  C329  1  0.835560  0.456530  0.578230  1.0  -0.125
  C  C330  1  0.869200  0.455890  0.543890  1.0  -0.0996
  C  C331  1  0.822390  0.506510  0.643000  1.0  0.004
  C  C332  1  0.810000  0.570380  0.662110  1.0  -0.0861
  C  C333  1  0.781760  0.569480  0.697700  1.0  -0.1358
  C  C334  1  0.764830  0.504820  0.714630  1.0  0.0155
  C  C335  1  0.777230  0.441470  0.696280  1.0  -0.133
  C  C336  1  0.805910  0.442860  0.660010  1.0  -0.0609
  C  C337  1  0.763810  0.371650  0.714820  1.0  0.6765
  C  C338  1  0.771690  0.638480  0.718200  1.0  0.6802
  C  C339  1  0.422330  0.005210  0.035380  1.0  0.0624
  C  C340  1  0.437130  0.058660  0.060930  1.0  -0.1415
  C  C341  1  0.403230  0.060330  0.095290  1.0  -0.1493
  C  C342  1  0.354050  0.008400  0.104650  1.0  0.0442
  C  C343  1  0.335560  0.956530  0.078230  1.0  -0.1244
  C  C344  1  0.369200  0.955890  0.043890  1.0  -0.0996
  C  C345  1  0.322390  0.006510  0.143000  1.0  0.004
  C  C346  1  0.310000  0.070380  0.162110  1.0  -0.0861
  C  C347  1  0.281760  0.069480  0.197700  1.0  -0.1358
  C  C348  1  0.264830  0.004820  0.214630  1.0  0.0155
  C  C349  1  0.277230  0.941470  0.196280  1.0  -0.133
  C  C350  1  0.305910  0.942860  0.160010  1.0  -0.0609
  C  C351  1  0.263810  0.871650  0.214820  1.0  0.6765
  C  C352  1  0.271690  0.138480  0.218200  1.0  0.6802
  C  C353  1  0.500000  0.964100  0.500000  1.0  -0.0119
  C  C354  1  0.000000  0.464100  0.000000  1.0  -0.0119
  C  C355  1  0.500000  0.035900  0.500000  1.0  -0.0115
  C  C356  1  0.000000  0.535900  0.000000  1.0  -0.0115
  C  C357  1  0.964100  0.500000  0.500000  1.0  -0.0126
  C  C358  1  0.464100  0.000000  0.000000  1.0  -0.0126
  C  C359  1  0.035900  0.500000  0.500000  1.0  -0.0121
  C  C360  1  0.535900  0.000000  0.000000  1.0  -0.0121
  O  O361  1  0.316330  0.786760  0.699070  1.0  -0.5681
  O  O362  1  0.373930  0.730490  0.745530  1.0  -0.5743
  O  O363  1  0.693650  0.796300  0.702900  1.0  -0.5664
  O  O364  1  0.635690  0.739740  0.748960  1.0  -0.5657
  O  O365  1  0.816330  0.286760  0.199070  1.0  -0.5681
  O  O366  1  0.873930  0.230490  0.245530  1.0  -0.5743
  O  O367  1  0.193650  0.296300  0.202900  1.0  -0.5664
  O  O368  1  0.135690  0.239740  0.248960  1.0  -0.5657
  O  O369  1  0.683670  0.213240  0.699070  1.0  -0.5686
  O  O370  1  0.626070  0.269510  0.745530  1.0  -0.5739
  O  O371  1  0.306350  0.203700  0.702900  1.0  -0.5665
  O  O372  1  0.364310  0.260260  0.748960  1.0  -0.5662
  O  O373  1  0.183670  0.713240  0.199070  1.0  -0.5686
  O  O374  1  0.126070  0.769510  0.245530  1.0  -0.5739
  O  O375  1  0.806350  0.703700  0.202900  1.0  -0.5665
  O  O376  1  0.864310  0.760260  0.248960  1.0  -0.5662
  O  O377  1  0.786760  0.683670  0.300930  1.0  -0.5693
  O  O378  1  0.730490  0.626070  0.254470  1.0  -0.5736
  O  O379  1  0.796300  0.306350  0.297100  1.0  -0.5663
  O  O380  1  0.739740  0.364310  0.251040  1.0  -0.5651
  O  O381  1  0.286760  0.183670  0.800930  1.0  -0.5693
  O  O382  1  0.230490  0.126070  0.754470  1.0  -0.5736
  O  O383  1  0.296300  0.806350  0.797100  1.0  -0.5663
  O  O384  1  0.239740  0.864310  0.751040  1.0  -0.5651
  O  O385  1  0.213240  0.316330  0.300930  1.0  -0.5683
  O  O386  1  0.269510  0.373930  0.254470  1.0  -0.5731
  O  O387  1  0.203700  0.693650  0.297100  1.0  -0.5661
  O  O388  1  0.260260  0.635690  0.251040  1.0  -0.5667
  O  O389  1  0.713240  0.816330  0.800930  1.0  -0.5683
  O  O390  1  0.769510  0.873930  0.754470  1.0  -0.5731
  O  O391  1  0.703700  0.193650  0.797100  1.0  -0.5661
  O  O392  1  0.760260  0.135690  0.751040  1.0  -0.5667
  O  O393  1  0.683670  0.786760  0.300930  1.0  -0.569
  O  O394  1  0.626070  0.730490  0.254470  1.0  -0.5746
  O  O395  1  0.306350  0.796300  0.297100  1.0  -0.566
  O  O396  1  0.364310  0.739740  0.251040  1.0  -0.5663
  O  O397  1  0.183670  0.286760  0.800930  1.0  -0.569
  O  O398  1  0.126070  0.230490  0.754470  1.0  -0.5746
  O  O399  1  0.806350  0.296300  0.797100  1.0  -0.566
  O  O400  1  0.864310  0.239740  0.751040  1.0  -0.5663
  O  O401  1  0.316330  0.213240  0.300930  1.0  -0.5682
  O  O402  1  0.373930  0.269510  0.254470  1.0  -0.5734
  O  O403  1  0.693650  0.203700  0.297100  1.0  -0.5662
  O  O404  1  0.635690  0.260260  0.251040  1.0  -0.566
  O  O405  1  0.816330  0.713240  0.800930  1.0  -0.5682
  O  O406  1  0.873930  0.769510  0.754470  1.0  -0.5734
  O  O407  1  0.193650  0.703700  0.797100  1.0  -0.5662
  O  O408  1  0.135690  0.760260  0.751040  1.0  -0.566
  O  O409  1  0.213240  0.683670  0.699070  1.0  -0.5683
  O  O410  1  0.269510  0.626070  0.745530  1.0  -0.5744
  O  O411  1  0.203700  0.306350  0.702900  1.0  -0.5664
  O  O412  1  0.260260  0.364310  0.748960  1.0  -0.5661
  O  O413  1  0.713240  0.183670  0.199070  1.0  -0.5683
  O  O414  1  0.769510  0.126070  0.245530  1.0  -0.5744
  O  O415  1  0.703700  0.806350  0.202900  1.0  -0.5664
  O  O416  1  0.760260  0.864310  0.248960  1.0  -0.5661
  O  O417  1  0.786760  0.316330  0.699070  1.0  -0.5686
  O  O418  1  0.730490  0.373930  0.745530  1.0  -0.5734
  O  O419  1  0.796300  0.693650  0.702900  1.0  -0.5659
  O  O420  1  0.739740  0.635690  0.748960  1.0  -0.5657
  O  O421  1  0.286760  0.816330  0.199070  1.0  -0.5686
  O  O422  1  0.230490  0.873930  0.245530  1.0  -0.5734
  O  O423  1  0.296300  0.193650  0.202900  1.0  -0.5659
  O  O424  1  0.239740  0.135690  0.248960  1.0  -0.5657
