# generated using pymatgen
data_CeH5C11NO7
_symmetry_space_group_name_H-M   'P 1'
_cell_length_a   25.51470000
_cell_length_b   13.41370000
_cell_length_c   14.63290000
_cell_angle_alpha   90.00000000
_cell_angle_beta   101.96600000
_cell_angle_gamma   90.00000000
_symmetry_Int_Tables_number   1
_chemical_formula_structural   CeH5C11NO7
_chemical_formula_sum   'Ce8 H40 C88 N8 O56'
_cell_volume   4899.23817668
_cell_formula_units_Z   8
loop_
 _symmetry_equiv_pos_site_id
 _symmetry_equiv_pos_as_xyz
  1  'x, y, z'
loop_
 _atom_site_type_symbol
 _atom_site_label
 _atom_site_symmetry_multiplicity
 _atom_site_fract_x
 _atom_site_fract_y
 _atom_site_fract_z
 _atom_site_occupancy
 _atom_site_charge
  Ce  Ce1  1  0.325950  0.308950  0.548660  1.0  2.2099
  Ce  Ce2  1  0.825950  0.808950  0.548660  1.0  2.2099
  Ce  Ce3  1  0.674050  0.308950  0.951340  1.0  2.2122
  Ce  Ce4  1  0.174050  0.808950  0.951340  1.0  2.2122
  Ce  Ce5  1  0.674050  0.691050  0.451340  1.0  2.2126
  Ce  Ce6  1  0.174050  0.191050  0.451340  1.0  2.2126
  Ce  Ce7  1  0.325950  0.691050  0.048660  1.0  2.2099
  Ce  Ce8  1  0.825950  0.191050  0.048660  1.0  2.2099
  H  H9  1  0.263200  0.553200  0.295000  1.0  0.1282
  H  H10  1  0.115400  0.634100  0.165000  1.0  0.1017
  H  H11  1  0.135100  0.443700  0.381200  1.0  0.1169
  H  H12  1  0.054600  0.530800  0.396700  1.0  0.1301
  H  H13  1  0.962700  0.531300  0.378900  1.0  0.1138
  H  H14  1  0.763200  0.053200  0.295000  1.0  0.1282
  H  H15  1  0.615400  0.134100  0.165000  1.0  0.1017
  H  H16  1  0.635100  0.943700  0.381200  1.0  0.1169
  H  H17  1  0.554600  0.030800  0.396700  1.0  0.1301
  H  H18  1  0.462700  0.031300  0.378900  1.0  0.1138
  H  H19  1  0.736800  0.553200  0.205000  1.0  0.1271
  H  H20  1  0.884600  0.634100  0.335000  1.0  0.1013
  H  H21  1  0.864900  0.443700  0.118800  1.0  0.117
  H  H22  1  0.945400  0.530800  0.103300  1.0  0.1307
  H  H23  1  0.037300  0.531300  0.121100  1.0  0.1136
  H  H24  1  0.236800  0.053200  0.205000  1.0  0.1271
  H  H25  1  0.384600  0.134100  0.335000  1.0  0.1013
  H  H26  1  0.364900  0.943700  0.118800  1.0  0.117
  H  H27  1  0.445400  0.030800  0.103300  1.0  0.1307
  H  H28  1  0.537300  0.031300  0.121100  1.0  0.1136
  H  H29  1  0.736800  0.446800  0.705000  1.0  0.1273
  H  H30  1  0.884600  0.365900  0.835000  1.0  0.102
  H  H31  1  0.864900  0.556300  0.618800  1.0  0.1169
  H  H32  1  0.945400  0.469200  0.603300  1.0  0.1307
  H  H33  1  0.037300  0.468700  0.621100  1.0  0.1137
  H  H34  1  0.236800  0.946800  0.705000  1.0  0.1273
  H  H35  1  0.384600  0.865900  0.835000  1.0  0.102
  H  H36  1  0.364900  0.056300  0.618800  1.0  0.1169
  H  H37  1  0.445400  0.969200  0.603300  1.0  0.1307
  H  H38  1  0.537300  0.968700  0.621100  1.0  0.1137
  H  H39  1  0.263200  0.446800  0.795000  1.0  0.1283
  H  H40  1  0.115400  0.365900  0.665000  1.0  0.1018
  H  H41  1  0.135100  0.556300  0.881200  1.0  0.1161
  H  H42  1  0.054600  0.469200  0.896700  1.0  0.1307
  H  H43  1  0.962700  0.468700  0.878900  1.0  0.1137
  H  H44  1  0.763200  0.946800  0.795000  1.0  0.1283
  H  H45  1  0.615400  0.865900  0.665000  1.0  0.1018
  H  H46  1  0.635100  0.056300  0.881200  1.0  0.1161
  H  H47  1  0.554600  0.969200  0.896700  1.0  0.1305
  H  H48  1  0.462700  0.968700  0.878900  1.0  0.1137
  C  C49  1  0.242000  0.425600  0.417900  1.0  0.771
  C  C50  1  0.204400  0.486600  0.347700  1.0  -0.1432
  C  C51  1  0.226300  0.548300  0.288100  1.0  0.0382
  C  C52  1  0.192700  0.602600  0.218300  1.0  -0.1482
  C  C53  1  0.137600  0.596700  0.210700  1.0  -0.0369
  C  C54  1  0.114800  0.537300  0.268700  1.0  0.0345
  C  C55  1  0.149500  0.482500  0.339800  1.0  -0.0654
  C  C56  1  0.215700  0.663500  0.151500  1.0  0.8046
  C  C57  1  0.055900  0.534400  0.260600  1.0  0.0927
  C  C58  1  0.033000  0.532300  0.337100  1.0  -0.1252
  C  C59  1  0.977600  0.532500  0.326100  1.0  -0.1421
  C  C60  1  0.742000  0.925600  0.417900  1.0  0.7707
  C  C61  1  0.704400  0.986600  0.347700  1.0  -0.1432
  C  C62  1  0.726300  0.048300  0.288100  1.0  0.0382
  C  C63  1  0.692700  0.102600  0.218300  1.0  -0.1482
  C  C64  1  0.637600  0.096700  0.210700  1.0  -0.0369
  C  C65  1  0.614800  0.037300  0.268700  1.0  0.0345
  C  C66  1  0.649500  0.982500  0.339800  1.0  -0.0654
  C  C67  1  0.715700  0.163500  0.151500  1.0  0.8046
  C  C68  1  0.555900  0.034400  0.260600  1.0  0.0927
  C  C69  1  0.533000  0.032300  0.337100  1.0  -0.1252
  C  C70  1  0.477600  0.032500  0.326100  1.0  -0.1421
  C  C71  1  0.758000  0.425600  0.082100  1.0  0.7702
  C  C72  1  0.795600  0.486600  0.152300  1.0  -0.1425
  C  C73  1  0.773700  0.548300  0.211900  1.0  0.035
  C  C74  1  0.807300  0.602600  0.281700  1.0  -0.1478
  C  C75  1  0.862400  0.596700  0.289300  1.0  -0.0363
  C  C76  1  0.885200  0.537300  0.231300  1.0  0.0355
  C  C77  1  0.850500  0.482500  0.160200  1.0  -0.0629
  C  C78  1  0.784300  0.663500  0.348500  1.0  0.7894
  C  C79  1  0.944100  0.534400  0.239400  1.0  0.0921
  C  C80  1  0.967000  0.532300  0.162900  1.0  -0.1257
  C  C81  1  0.022400  0.532500  0.173900  1.0  -0.1431
  C  C82  1  0.258000  0.925600  0.082100  1.0  0.7702
  C  C83  1  0.295600  0.986600  0.152300  1.0  -0.1425
  C  C84  1  0.273700  0.048300  0.211900  1.0  0.035
  C  C85  1  0.307300  0.102600  0.281700  1.0  -0.1478
  C  C86  1  0.362400  0.096700  0.289300  1.0  -0.0363
  C  C87  1  0.385200  0.037300  0.231300  1.0  0.0355
  C  C88  1  0.350500  0.982500  0.160200  1.0  -0.0629
  C  C89  1  0.284300  0.163500  0.348500  1.0  0.7894
  C  C90  1  0.444100  0.034400  0.239400  1.0  0.0921
  C  C91  1  0.467000  0.032300  0.162900  1.0  -0.1257
  C  C92  1  0.522400  0.032500  0.173900  1.0  -0.1431
  C  C93  1  0.758000  0.574400  0.582100  1.0  0.7686
  C  C94  1  0.795600  0.513400  0.652300  1.0  -0.1422
  C  C95  1  0.773700  0.451700  0.711900  1.0  0.0349
  C  C96  1  0.807300  0.397400  0.781700  1.0  -0.1479
  C  C97  1  0.862400  0.403300  0.789300  1.0  -0.0365
  C  C98  1  0.885200  0.462700  0.731300  1.0  0.0355
  C  C99  1  0.850500  0.517500  0.660200  1.0  -0.0634
  C  C100  1  0.784300  0.336500  0.848500  1.0  0.7832
  C  C101  1  0.944100  0.465600  0.739400  1.0  0.0921
  C  C102  1  0.967000  0.467700  0.662900  1.0  -0.1257
  C  C103  1  0.022400  0.467500  0.673900  1.0  -0.144
  C  C104  1  0.258000  0.074400  0.582100  1.0  0.7706
  C  C105  1  0.295600  0.013400  0.652300  1.0  -0.1422
  C  C106  1  0.273700  0.951700  0.711900  1.0  0.0349
  C  C107  1  0.307300  0.897400  0.781700  1.0  -0.1479
  C  C108  1  0.362400  0.903300  0.789300  1.0  -0.0365
  C  C109  1  0.385200  0.962700  0.731300  1.0  0.0355
  C  C110  1  0.350500  0.017500  0.660200  1.0  -0.0634
  C  C111  1  0.284300  0.836500  0.848500  1.0  0.7832
  C  C112  1  0.444100  0.965600  0.739400  1.0  0.0921
  C  C113  1  0.467000  0.967700  0.662900  1.0  -0.1257
  C  C114  1  0.522400  0.967500  0.673900  1.0  -0.144
  C  C115  1  0.242000  0.574400  0.917900  1.0  0.7682
  C  C116  1  0.204400  0.513400  0.847700  1.0  -0.1432
  C  C117  1  0.226300  0.451700  0.788100  1.0  0.0385
  C  C118  1  0.192700  0.397400  0.718300  1.0  -0.1482
  C  C119  1  0.137600  0.403300  0.710700  1.0  -0.0369
  C  C120  1  0.114800  0.462700  0.768700  1.0  0.0345
  C  C121  1  0.149500  0.517500  0.839800  1.0  -0.0657
  C  C122  1  0.215700  0.336500  0.651500  1.0  0.804
  C  C123  1  0.055900  0.465600  0.760600  1.0  0.0926
  C  C124  1  0.033000  0.467700  0.837100  1.0  -0.1251
  C  C125  1  0.977600  0.467500  0.826100  1.0  -0.1432
  C  C126  1  0.742000  0.074400  0.917900  1.0  0.7708
  C  C127  1  0.704400  0.013400  0.847700  1.0  -0.1432
  C  C128  1  0.726300  0.951700  0.788100  1.0  0.0385
  C  C129  1  0.692700  0.897400  0.718300  1.0  -0.1482
  C  C130  1  0.637600  0.903300  0.710700  1.0  -0.0369
  C  C131  1  0.614800  0.962700  0.768700  1.0  0.0345
  C  C132  1  0.649500  0.017500  0.839800  1.0  -0.0657
  C  C133  1  0.715700  0.836500  0.651500  1.0  0.804
  C  C134  1  0.555900  0.965600  0.760600  1.0  0.0926
  C  C135  1  0.533000  0.967700  0.837100  1.0  -0.1251
  C  C136  1  0.477600  0.967500  0.826100  1.0  -0.1432
  N  N137  1  0.431400  0.259400  0.494100  1.0  0.7044
  N  N138  1  0.931400  0.759400  0.494100  1.0  0.7044
  N  N139  1  0.568600  0.259400  0.005900  1.0  0.7031
  N  N140  1  0.068600  0.759400  0.005900  1.0  0.7031
  N  N141  1  0.568600  0.740600  0.505900  1.0  0.7007
  N  N142  1  0.068600  0.240600  0.505900  1.0  0.7007
  N  N143  1  0.431400  0.740600  0.994100  1.0  0.7044
  N  N144  1  0.931400  0.240600  0.994100  1.0  0.7044
  O  O145  1  0.223800  0.346800  0.447900  1.0  -0.8345
  O  O146  1  0.289100  0.450700  0.442900  1.0  -0.641
  O  O147  1  0.262800  0.644400  0.145100  1.0  -0.7055
  O  O148  1  0.187100  0.729300  0.105600  1.0  -0.6812
  O  O149  1  0.409900  0.344700  0.476700  1.0  -0.6329
  O  O150  1  0.411700  0.200800  0.539500  1.0  -0.6276
  O  O151  1  0.471800  0.233500  0.463800  1.0  -0.4517
  O  O152  1  0.723800  0.846800  0.447900  1.0  -0.8345
  O  O153  1  0.789100  0.950700  0.442900  1.0  -0.6404
  O  O154  1  0.762800  0.144400  0.145100  1.0  -0.7055
  O  O155  1  0.687100  0.229300  0.105600  1.0  -0.6812
  O  O156  1  0.909900  0.844700  0.476700  1.0  -0.6329
  O  O157  1  0.911700  0.700800  0.539500  1.0  -0.6276
  O  O158  1  0.971800  0.733500  0.463800  1.0  -0.4532
  O  O159  1  0.776200  0.346800  0.052100  1.0  -0.8348
  O  O160  1  0.710900  0.450700  0.057100  1.0  -0.6414
  O  O161  1  0.737200  0.644400  0.354900  1.0  -0.7051
  O  O162  1  0.812900  0.729300  0.394400  1.0  -0.6817
  O  O163  1  0.590100  0.344700  0.023300  1.0  -0.6346
  O  O164  1  0.588300  0.200800  0.960500  1.0  -0.6258
  O  O165  1  0.528200  0.233500  0.036200  1.0  -0.4538
  O  O166  1  0.276200  0.846800  0.052100  1.0  -0.8348
  O  O167  1  0.210900  0.950700  0.057100  1.0  -0.6414
  O  O168  1  0.237200  0.144400  0.354900  1.0  -0.7051
  O  O169  1  0.312900  0.229300  0.394400  1.0  -0.6817
  O  O170  1  0.090100  0.844700  0.023300  1.0  -0.6346
  O  O171  1  0.088300  0.700800  0.960500  1.0  -0.6258
  O  O172  1  0.028200  0.733500  0.036200  1.0  -0.4538
  O  O173  1  0.776200  0.653200  0.552100  1.0  -0.835
  O  O174  1  0.710900  0.549300  0.557100  1.0  -0.6396
  O  O175  1  0.737200  0.355600  0.854900  1.0  -0.7044
  O  O176  1  0.812900  0.270700  0.894400  1.0  -0.6817
  O  O177  1  0.590100  0.655300  0.523300  1.0  -0.6306
  O  O178  1  0.588300  0.799200  0.460500  1.0  -0.6262
  O  O179  1  0.528200  0.766500  0.536200  1.0  -0.4502
  O  O180  1  0.276200  0.153200  0.552100  1.0  -0.835
  O  O181  1  0.210900  0.049300  0.557100  1.0  -0.6406
  O  O182  1  0.237200  0.855600  0.854900  1.0  -0.7044
  O  O183  1  0.312900  0.770700  0.894400  1.0  -0.6817
  O  O184  1  0.090100  0.155300  0.523300  1.0  -0.6306
  O  O185  1  0.088300  0.299200  0.460500  1.0  -0.6262
  O  O186  1  0.028200  0.266500  0.536200  1.0  -0.4502
  O  O187  1  0.223800  0.653200  0.947900  1.0  -0.8349
  O  O188  1  0.289100  0.549300  0.942900  1.0  -0.6421
  O  O189  1  0.262800  0.355600  0.645100  1.0  -0.7049
  O  O190  1  0.187100  0.270700  0.605600  1.0  -0.6812
  O  O191  1  0.409900  0.655300  0.976700  1.0  -0.6341
  O  O192  1  0.411700  0.799200  0.039500  1.0  -0.6272
  O  O193  1  0.471800  0.766500  0.963800  1.0  -0.4514
  O  O194  1  0.723800  0.153200  0.947900  1.0  -0.8349
  O  O195  1  0.789100  0.049300  0.942900  1.0  -0.6407
  O  O196  1  0.762800  0.855600  0.645100  1.0  -0.7049
  O  O197  1  0.687100  0.770700  0.605600  1.0  -0.6812
  O  O198  1  0.909900  0.155300  0.976700  1.0  -0.6341
  O  O199  1  0.911700  0.299200  0.039500  1.0  -0.6272
  O  O200  1  0.971800  0.266500  0.963800  1.0  -0.4509
