# generated using pymatgen
data_Mn3H8(C6O5)4
_symmetry_space_group_name_H-M   'P 1'
_cell_length_a   9.40780000
_cell_length_b   11.65380000
_cell_length_c   32.66210000
_cell_angle_alpha   90.00000000
_cell_angle_beta   90.00000000
_cell_angle_gamma   90.00000000
_symmetry_Int_Tables_number   1
_chemical_formula_structural   Mn3H8(C6O5)4
_chemical_formula_sum   'Mn12 H32 C96 O80'
_cell_volume   3580.96223434
_cell_formula_units_Z   4
loop_
 _symmetry_equiv_pos_site_id
 _symmetry_equiv_pos_as_xyz
  1  'x, y, z'
loop_
 _atom_site_type_symbol
 _atom_site_label
 _atom_site_symmetry_multiplicity
 _atom_site_fract_x
 _atom_site_fract_y
 _atom_site_fract_z
 _atom_site_occupancy
 _atom_site_charge
  Mn  Mn1  1  0.193160  0.093820  0.637590  1.0  1.1873
  Mn  Mn2  1  0.240420  0.714620  0.599620  1.0  1.1834
  Mn  Mn3  1  0.216170  0.408780  0.625890  1.0  1.1955
  Mn  Mn4  1  0.306840  0.906180  0.137590  1.0  1.1863
  Mn  Mn5  1  0.259580  0.285380  0.099620  1.0  1.1834
  Mn  Mn6  1  0.283830  0.591220  0.125890  1.0  1.1959
  Mn  Mn7  1  0.806840  0.593820  0.862410  1.0  1.1862
  Mn  Mn8  1  0.759580  0.214620  0.900380  1.0  1.1829
  Mn  Mn9  1  0.783830  0.908780  0.874110  1.0  1.1963
  Mn  Mn10  1  0.693160  0.406180  0.362410  1.0  1.1865
  Mn  Mn11  1  0.740420  0.785380  0.400380  1.0  1.1814
  Mn  Mn12  1  0.716170  0.091220  0.374110  1.0  1.1959
  H  H13  1  0.520400  0.388600  0.566600  1.0  0.1474
  H  H14  1  0.787900  0.409700  0.559900  1.0  0.138
  H  H15  1  0.916100  0.450900  0.681200  1.0  0.1479
  H  H16  1  0.650200  0.424100  0.690200  1.0  0.1637
  H  H17  1  0.571900  0.203700  0.482800  1.0  0.1389
  H  H18  1  0.365000  0.190600  0.534500  1.0  0.1496
  H  H19  1  0.970300  0.577800  0.759500  1.0  0.1433
  H  H20  1  0.136700  0.616000  0.699900  1.0  0.1376
  H  H21  1  0.979600  0.611400  0.066600  1.0  0.1482
  H  H22  1  0.712100  0.590300  0.059900  1.0  0.1384
  H  H23  1  0.583900  0.549100  0.181200  1.0  0.1471
  H  H24  1  0.849800  0.575900  0.190200  1.0  0.1632
  H  H25  1  0.928100  0.796300  0.982800  1.0  0.1394
  H  H26  1  0.135000  0.809400  0.034500  1.0  0.1507
  H  H27  1  0.529700  0.422200  0.259500  1.0  0.1424
  H  H28  1  0.363300  0.384000  0.199900  1.0  0.1378
  H  H29  1  0.479600  0.888600  0.933400  1.0  0.1487
  H  H30  1  0.212100  0.909700  0.940100  1.0  0.1383
  H  H31  1  0.083900  0.950900  0.818800  1.0  0.1477
  H  H32  1  0.349800  0.924100  0.809800  1.0  0.1625
  H  H33  1  0.428100  0.703700  0.017200  1.0  0.1393
  H  H34  1  0.635000  0.690600  0.965500  1.0  0.1498
  H  H35  1  0.029700  0.077800  0.740500  1.0  0.1435
  H  H36  1  0.863300  0.116000  0.800100  1.0  0.1382
  H  H37  1  0.020400  0.111400  0.433400  1.0  0.148
  H  H38  1  0.287900  0.090300  0.440100  1.0  0.1384
  H  H39  1  0.416100  0.049100  0.318800  1.0  0.1475
  H  H40  1  0.150200  0.075900  0.309800  1.0  0.1626
  H  H41  1  0.071900  0.296300  0.517200  1.0  0.1391
  H  H42  1  0.865000  0.309400  0.465500  1.0  0.1503
  H  H43  1  0.470300  0.922200  0.240500  1.0  0.1433
  H  H44  1  0.636700  0.884000  0.300100  1.0  0.1377
  C  C45  1  0.438000  0.196800  0.618500  1.0  0.6949
  C  C46  1  0.569200  0.253200  0.604700  1.0  0.1208
  C  C47  1  0.590800  0.342700  0.579500  1.0  -0.0971
  C  C48  1  0.739200  0.354600  0.576100  1.0  -0.0501
  C  C49  1  0.800300  0.273500  0.599900  1.0  0.0674
  C  C50  1  0.949200  0.250200  0.610200  1.0  0.7013
  C  C51  1  0.989500  0.626000  0.619700  1.0  0.6716
  C  C52  1  0.861700  0.574600  0.638400  1.0  0.0549
  C  C53  1  0.843200  0.491200  0.667100  1.0  -0.0571
  C  C54  1  0.695700  0.475900  0.672000  1.0  -0.059
  C  C55  1  0.630600  0.549800  0.645600  1.0  0.0705
  C  C56  1  0.480900  0.566700  0.634800  1.0  0.7058
  C  C57  1  0.690300  0.975700  0.460800  1.0  0.7286
  C  C58  1  0.584100  0.029500  0.488700  1.0  0.0739
  C  C59  1  0.536200  0.135600  0.495100  1.0  -0.0899
  C  C60  1  0.420400  0.128900  0.524100  1.0  -0.1451
  C  C61  1  0.407700  0.017100  0.533400  1.0  0.0751
  C  C62  1  0.311500  0.952500  0.560400  1.0  0.7362
  C  C63  1  0.852800  0.776800  0.796500  1.0  0.7531
  C  C64  1  0.944900  0.750500  0.761400  1.0  0.1504
  C  C65  1  0.993300  0.650900  0.748400  1.0  -0.1258
  C  C66  1  0.085600  0.672000  0.715100  1.0  -0.1546
  C  C67  1  0.087500  0.786200  0.709000  1.0  0.0643
  C  C68  1  0.154200  0.857900  0.677300  1.0  0.7173
  C  C69  1  0.062000  0.803200  0.118500  1.0  0.6963
  C  C70  1  0.930800  0.746800  0.104700  1.0  0.1205
  C  C71  1  0.909200  0.657300  0.079500  1.0  -0.0976
  C  C72  1  0.760800  0.645400  0.076100  1.0  -0.0501
  C  C73  1  0.699700  0.726500  0.099900  1.0  0.0668
  C  C74  1  0.550800  0.749800  0.110200  1.0  0.6996
  C  C75  1  0.510500  0.374000  0.119700  1.0  0.6678
  C  C76  1  0.638300  0.425400  0.138400  1.0  0.054
  C  C77  1  0.656800  0.508800  0.167100  1.0  -0.0561
  C  C78  1  0.804300  0.524100  0.172000  1.0  -0.0577
  C  C79  1  0.869400  0.450200  0.145600  1.0  0.0717
  C  C80  1  0.019100  0.433300  0.134800  1.0  0.7033
  C  C81  1  0.809700  0.024300  0.960800  1.0  0.7263
  C  C82  1  0.915900  0.970500  0.988700  1.0  0.0732
  C  C83  1  0.963800  0.864400  0.995100  1.0  -0.0889
  C  C84  1  0.079600  0.871100  0.024100  1.0  -0.145
  C  C85  1  0.092300  0.982900  0.033400  1.0  0.0751
  C  C86  1  0.188500  0.047500  0.060400  1.0  0.7363
  C  C87  1  0.647200  0.223200  0.296500  1.0  0.7537
  C  C88  1  0.555100  0.249500  0.261400  1.0  0.1503
  C  C89  1  0.506700  0.349100  0.248400  1.0  -0.1258
  C  C90  1  0.414400  0.328000  0.215100  1.0  -0.1557
  C  C91  1  0.412500  0.213800  0.209000  1.0  0.0647
  C  C92  1  0.345800  0.142100  0.177300  1.0  0.7177
  C  C93  1  0.562000  0.696800  0.881500  1.0  0.6949
  C  C94  1  0.430800  0.753200  0.895300  1.0  0.1201
  C  C95  1  0.409200  0.842700  0.920500  1.0  -0.0959
  C  C96  1  0.260800  0.854600  0.923900  1.0  -0.0489
  C  C97  1  0.199700  0.773500  0.900100  1.0  0.0665
  C  C98  1  0.050800  0.750200  0.889800  1.0  0.6997
  C  C99  1  0.010500  0.126000  0.880300  1.0  0.668
  C  C100  1  0.138300  0.074600  0.861600  1.0  0.0554
  C  C101  1  0.156800  0.991200  0.832900  1.0  -0.056
  C  C102  1  0.304300  0.975900  0.828000  1.0  -0.0586
  C  C103  1  0.369400  0.049800  0.854400  1.0  0.071
  C  C104  1  0.519100  0.066700  0.865200  1.0  0.706
  C  C105  1  0.309700  0.475700  0.039200  1.0  0.728
  C  C106  1  0.415900  0.529500  0.011300  1.0  0.0716
  C  C107  1  0.463800  0.635600  0.004900  1.0  -0.0906
  C  C108  1  0.579600  0.628900  0.975900  1.0  -0.1441
  C  C109  1  0.592300  0.517100  0.966600  1.0  0.0754
  C  C110  1  0.688500  0.452500  0.939600  1.0  0.735
  C  C111  1  0.147200  0.276800  0.703500  1.0  0.7529
  C  C112  1  0.055100  0.250500  0.738600  1.0  0.15
  C  C113  1  0.006700  0.150900  0.751600  1.0  -0.126
  C  C114  1  0.914400  0.172000  0.784900  1.0  -0.1558
  C  C115  1  0.912500  0.286200  0.791000  1.0  0.064
  C  C116  1  0.845800  0.357900  0.822700  1.0  0.7174
  C  C117  1  0.938000  0.303200  0.381500  1.0  0.6922
  C  C118  1  0.069200  0.246800  0.395300  1.0  0.1203
  C  C119  1  0.090800  0.157300  0.420500  1.0  -0.0978
  C  C120  1  0.239200  0.145400  0.423900  1.0  -0.0477
  C  C121  1  0.300300  0.226500  0.400100  1.0  0.068
  C  C122  1  0.449200  0.249800  0.389800  1.0  0.7004
  C  C123  1  0.489500  0.874000  0.380300  1.0  0.6702
  C  C124  1  0.361700  0.925400  0.361600  1.0  0.0552
  C  C125  1  0.343200  0.008800  0.332900  1.0  -0.057
  C  C126  1  0.195700  0.024100  0.328000  1.0  -0.0597
  C  C127  1  0.130600  0.950200  0.354400  1.0  0.0698
  C  C128  1  0.980900  0.933300  0.365200  1.0  0.7038
  C  C129  1  0.190300  0.524300  0.539200  1.0  0.7285
  C  C130  1  0.084100  0.470500  0.511300  1.0  0.0729
  C  C131  1  0.036200  0.364400  0.504900  1.0  -0.0883
  C  C132  1  0.920400  0.371100  0.475900  1.0  -0.1459
  C  C133  1  0.907700  0.482900  0.466600  1.0  0.0737
  C  C134  1  0.811500  0.547500  0.439600  1.0  0.7362
  C  C135  1  0.352800  0.723200  0.203500  1.0  0.7529
  C  C136  1  0.444900  0.749500  0.238600  1.0  0.1498
  C  C137  1  0.493300  0.849100  0.251600  1.0  -0.1263
  C  C138  1  0.585600  0.828000  0.284900  1.0  -0.1553
  C  C139  1  0.587500  0.713800  0.291000  1.0  0.0648
  C  C140  1  0.654200  0.642100  0.322700  1.0  0.718
  O  O141  1  0.321900  0.246500  0.609880  1.0  -0.6389
  O  O142  1  0.441700  0.100800  0.635960  1.0  -0.5869
  O  O143  1  0.695700  0.206100  0.617400  1.0  -0.1233
  O  O144  1  0.032600  0.329400  0.600740  1.0  -0.5873
  O  O145  1  0.981300  0.155900  0.626600  1.0  -0.5618
  O  O146  1  0.105600  0.575800  0.626430  1.0  -0.6513
  O  O147  1  0.982100  0.718800  0.600200  1.0  -0.5984
  O  O148  1  0.731400  0.613300  0.624680  1.0  -0.1952
  O  O149  1  0.396800  0.493000  0.650110  1.0  -0.6228
  O  O150  1  0.447300  0.648600  0.612150  1.0  -0.5753
  O  O151  1  0.698400  0.869200  0.460080  1.0  -0.5649
  O  O152  1  0.762700  0.045400  0.439620  1.0  -0.6734
  O  O153  1  0.506200  0.953200  0.512210  1.0  -0.109
  O  O154  1  0.217300  0.006300  0.580000  1.0  -0.6392
  O  O155  1  0.325200  0.844100  0.560300  1.0  -0.6019
  O  O156  1  0.854000  0.877600  0.811710  1.0  -0.5911
  O  O157  1  0.779300  0.695000  0.808900  1.0  -0.5883
  O  O158  1  0.000800  0.839300  0.737970  1.0  -0.2244
  O  O159  1  0.239300  0.809900  0.653890  1.0  -0.6189
  O  O160  1  0.122100  0.963200  0.676930  1.0  -0.5824
  O  O161  1  0.178100  0.753500  0.109880  1.0  -0.6398
  O  O162  1  0.058300  0.899200  0.135960  1.0  -0.5865
  O  O163  1  0.804300  0.793900  0.117400  1.0  -0.1214
  O  O164  1  0.467400  0.670600  0.100740  1.0  -0.5866
  O  O165  1  0.518700  0.844100  0.126600  1.0  -0.5638
  O  O166  1  0.394400  0.424200  0.126430  1.0  -0.6518
  O  O167  1  0.517900  0.281200  0.100200  1.0  -0.5977
  O  O168  1  0.768600  0.386700  0.124680  1.0  -0.1939
  O  O169  1  0.103200  0.507000  0.150110  1.0  -0.6222
  O  O170  1  0.052700  0.351400  0.112150  1.0  -0.5754
  O  O171  1  0.801600  0.130800  0.960080  1.0  -0.5634
  O  O172  1  0.737300  0.954600  0.939620  1.0  -0.6749
  O  O173  1  0.993800  0.046800  0.012210  1.0  -0.109
  O  O174  1  0.282700  0.993700  0.080000  1.0  -0.6393
  O  O175  1  0.174800  0.155900  0.060300  1.0  -0.6014
  O  O176  1  0.646000  0.122400  0.311710  1.0  -0.5918
  O  O177  1  0.720700  0.305000  0.308900  1.0  -0.5882
  O  O178  1  0.499200  0.160700  0.237970  1.0  -0.2254
  O  O179  1  0.260700  0.190100  0.153890  1.0  -0.6202
  O  O180  1  0.377900  0.036800  0.176930  1.0  -0.5823
  O  O181  1  0.678100  0.746500  0.890120  1.0  -0.6391
  O  O182  1  0.558300  0.600800  0.864040  1.0  -0.5858
  O  O183  1  0.304300  0.706100  0.882600  1.0  -0.1208
  O  O184  1  0.967400  0.829400  0.899260  1.0  -0.5866
  O  O185  1  0.018700  0.655900  0.873400  1.0  -0.5617
  O  O186  1  0.894400  0.075800  0.873570  1.0  -0.6526
  O  O187  1  0.017900  0.218800  0.899800  1.0  -0.597
  O  O188  1  0.268600  0.113300  0.875320  1.0  -0.1953
  O  O189  1  0.603200  0.993000  0.849890  1.0  -0.6253
  O  O190  1  0.552700  0.148600  0.887850  1.0  -0.5754
  O  O191  1  0.301600  0.369200  0.039920  1.0  -0.5644
  O  O192  1  0.237300  0.545400  0.060380  1.0  -0.6747
  O  O193  1  0.493800  0.453200  0.987790  1.0  -0.1095
  O  O194  1  0.782700  0.506300  0.920000  1.0  -0.6384
  O  O195  1  0.674800  0.344100  0.939700  1.0  -0.6002
  O  O196  1  0.146000  0.377600  0.688290  1.0  -0.59
  O  O197  1  0.220700  0.195000  0.691100  1.0  -0.5887
  O  O198  1  0.999200  0.339300  0.762030  1.0  -0.2247
  O  O199  1  0.760700  0.309900  0.846110  1.0  -0.6199
  O  O200  1  0.877900  0.463200  0.823070  1.0  -0.5822
  O  O201  1  0.821900  0.253500  0.390120  1.0  -0.6396
  O  O202  1  0.941700  0.399200  0.364040  1.0  -0.5854
  O  O203  1  0.195700  0.293900  0.382600  1.0  -0.1225
  O  O204  1  0.532600  0.170600  0.399260  1.0  -0.5866
  O  O205  1  0.481300  0.344100  0.373400  1.0  -0.5625
  O  O206  1  0.605600  0.924200  0.373570  1.0  -0.6508
  O  O207  1  0.482100  0.781200  0.399800  1.0  -0.5984
  O  O208  1  0.231400  0.886700  0.375320  1.0  -0.1961
  O  O209  1  0.896800  0.007000  0.349890  1.0  -0.6244
  O  O210  1  0.947300  0.851400  0.387850  1.0  -0.5753
  O  O211  1  0.198400  0.630800  0.539920  1.0  -0.5615
  O  O212  1  0.262700  0.454600  0.560380  1.0  -0.674
  O  O213  1  0.006200  0.546800  0.487790  1.0  -0.1092
  O  O214  1  0.717300  0.493700  0.420000  1.0  -0.6393
  O  O215  1  0.825200  0.655900  0.439700  1.0  -0.6005
  O  O216  1  0.354000  0.622400  0.188290  1.0  -0.5913
  O  O217  1  0.279300  0.805000  0.191100  1.0  -0.5886
  O  O218  1  0.500800  0.660700  0.262030  1.0  -0.2258
  O  O219  1  0.739300  0.690100  0.346110  1.0  -0.6193
  O  O220  1  0.622100  0.536800  0.323070  1.0  -0.5827
