# generated using pymatgen
data_Cd3H8(C6O5)4
_symmetry_space_group_name_H-M   'P 1'
_cell_length_a   9.43780000
_cell_length_b   10.19200000
_cell_length_c   11.23400000
_cell_angle_alpha   64.11000000
_cell_angle_beta   73.10000000
_cell_angle_gamma   83.18000000
_symmetry_Int_Tables_number   1
_chemical_formula_structural   Cd3H8(C6O5)4
_chemical_formula_sum   'Cd3 H8 C24 O20'
_cell_volume   930.11826476
_cell_formula_units_Z   1
loop_
 _symmetry_equiv_pos_site_id
 _symmetry_equiv_pos_as_xyz
  1  'x, y, z'
loop_
 _atom_site_type_symbol
 _atom_site_label
 _atom_site_symmetry_multiplicity
 _atom_site_fract_x
 _atom_site_fract_y
 _atom_site_fract_z
 _atom_site_occupancy
 _atom_site_charge
  Cd  Cd1  1  0.053250  0.167320  0.299760  1.0  1.1368
  Cd  Cd2  1  0.047730  0.821510  0.608920  1.0  1.1098
  Cd  Cd3  1  0.076740  0.503180  0.982530  1.0  1.1588
  H  H4  1  0.590800  0.121100  0.118700  1.0  0.167
  H  H5  1  0.838000  0.065500  0.171100  1.0  0.1585
  H  H6  1  0.284900  0.306600  0.423500  1.0  0.1498
  H  H7  1  0.532000  0.258500  0.469300  1.0  0.1575
  H  H8  1  0.815200  0.065800  0.909900  1.0  0.1727
  H  H9  1  0.816100  0.292900  0.949600  1.0  0.1665
  H  H10  1  0.333600  0.027300  0.653800  1.0  0.1614
  H  H11  1  0.341400  0.247000  0.696800  1.0  0.1574
  C  C12  1  0.333600  0.987800  0.366900  1.0  0.7463
  C  C13  1  0.500400  0.994900  0.327500  1.0  0.0403
  C  C14  1  0.607700  0.065100  0.204300  1.0  -0.0581
  C  C15  1  0.745800  0.035700  0.233800  1.0  -0.0775
  C  C16  1  0.717800  0.952300  0.376700  1.0  0.0351
  C  C17  1  0.814300  0.897200  0.466500  1.0  0.747
  C  C18  1  0.295400  0.444300  0.131500  1.0  0.6806
  C  C19  1  0.396700  0.394000  0.223100  1.0  0.1233
  C  C20  1  0.375800  0.329700  0.357800  1.0  -0.1056
  C  C21  1  0.513500  0.302800  0.383400  1.0  -0.1074
  C  C22  1  0.614500  0.351900  0.262800  1.0  0.1056
  C  C23  1  0.777000  0.356400  0.222300  1.0  0.7583
  C  C24  1  0.977600  0.099200  0.636200  1.0  0.6767
  C  C25  1  0.938900  0.191200  0.715000  1.0  0.1401
  C  C26  1  0.860800  0.154900  0.847100  1.0  -0.1288
  C  C27  1  0.862900  0.280800  0.870000  1.0  -0.1256
  C  C28  1  0.947500  0.379400  0.751200  1.0  0.0681
  C  C29  1  0.998900  0.534900  0.704800  1.0  0.7129
  C  C30  1  0.151000  0.792900  0.876100  1.0  0.702
  C  C31  1  0.197400  0.936000  0.850700  1.0  0.1344
  C  C32  1  0.285600  0.037600  0.734200  1.0  -0.1179
  C  C33  1  0.290100  0.160600  0.758900  1.0  -0.0876
  C  C34  1  0.205700  0.132000  0.890400  1.0  0.008
  C  C35  1  0.158200  0.211000  0.975800  1.0  0.75
  O  O36  1  0.276000  0.911100  0.485300  1.0  -0.6507
  O  O37  1  0.279900  0.073200  0.267400  1.0  -0.555
  O  O38  1  0.566900  0.930100  0.431600  1.0  -0.1833
  O  O39  1  0.757800  0.796700  0.588500  1.0  -0.5023
  O  O40  1  0.942200  0.936900  0.422900  1.0  -0.648
  O  O41  1  0.156900  0.402800  0.192900  1.0  -0.6586
  O  O42  1  0.342300  0.523200  0.009000  1.0  -0.5557
  O  O43  1  0.544200  0.419300  0.158900  1.0  -0.1051
  O  O44  1  0.842500  0.286700  0.314300  1.0  -0.5814
  O  O45  1  0.842300  0.427200  0.098100  1.0  -0.6102
  O  O46  1  0.940700  0.967500  0.703900  1.0  -0.5474
  O  O47  1  0.043900  0.169100  0.506400  1.0  -0.6655
  O  O48  1  0.997100  0.326000  0.656300  1.0  -0.1096
  O  O49  1  0.963000  0.587000  0.794000  1.0  -0.718
  O  O50  1  0.068900  0.603300  0.588200  1.0  -0.4972
  O  O51  1  0.065800  0.721400  0.995400  1.0  -0.625
  O  O52  1  0.204400  0.748300  0.786200  1.0  -0.6489
  O  O53  1  0.148300  0.988600  0.948400  1.0  -0.1961
  O  O54  1  0.201700  0.345500  0.907100  1.0  -0.6606
  O  O55  1  0.077900  0.161900  0.087900  1.0  -0.598
