# generated using pymatgen
data_ZnHC5O4
_symmetry_space_group_name_H-M   'P 1'
_cell_length_a   19.05300000
_cell_length_b   18.80100000
_cell_length_c   22.94340000
_cell_angle_alpha   90.00000000
_cell_angle_beta   90.00000000
_cell_angle_gamma   90.00000000
_symmetry_Int_Tables_number   1
_chemical_formula_structural   ZnHC5O4
_chemical_formula_sum   'Zn32 H32 C160 O128'
_cell_volume   8218.68042436
_cell_formula_units_Z   32
loop_
 _symmetry_equiv_pos_site_id
 _symmetry_equiv_pos_as_xyz
  1  'x, y, z'
loop_
 _atom_site_type_symbol
 _atom_site_label
 _atom_site_symmetry_multiplicity
 _atom_site_fract_x
 _atom_site_fract_y
 _atom_site_fract_z
 _atom_site_occupancy
 _atom_site_charge
  Zn  Zn1  1  0.354430  0.762800  0.216580  1.0  1.0659
  Zn  Zn2  1  0.228370  0.737720  0.374210  1.0  1.0515
  Zn  Zn3  1  0.228640  0.733810  0.121110  1.0  1.0499
  Zn  Zn4  1  0.254610  0.107660  0.468960  1.0  1.0258
  Zn  Zn5  1  0.145570  0.237200  0.716580  1.0  1.0638
  Zn  Zn6  1  0.271630  0.262280  0.874210  1.0  1.0519
  Zn  Zn7  1  0.271360  0.266190  0.621110  1.0  1.0563
  Zn  Zn8  1  0.245390  0.892340  0.968960  1.0  1.0249
  Zn  Zn9  1  0.645570  0.262800  0.283420  1.0  1.0636
  Zn  Zn10  1  0.771630  0.237720  0.125790  1.0  1.0514
  Zn  Zn11  1  0.771360  0.233810  0.378890  1.0  1.0564
  Zn  Zn12  1  0.745390  0.607660  0.031040  1.0  1.0258
  Zn  Zn13  1  0.854430  0.737200  0.783420  1.0  1.0656
  Zn  Zn14  1  0.728370  0.762280  0.625790  1.0  1.052
  Zn  Zn15  1  0.728640  0.766190  0.878890  1.0  1.0496
  Zn  Zn16  1  0.754610  0.392340  0.531040  1.0  1.0264
  Zn  Zn17  1  0.645570  0.237200  0.783420  1.0  1.0631
  Zn  Zn18  1  0.771630  0.262280  0.625790  1.0  1.0519
  Zn  Zn19  1  0.771360  0.266190  0.878890  1.0  1.0497
  Zn  Zn20  1  0.745390  0.892340  0.531040  1.0  1.0255
  Zn  Zn21  1  0.854430  0.762800  0.283420  1.0  1.0668
  Zn  Zn22  1  0.728370  0.737720  0.125790  1.0  1.0515
  Zn  Zn23  1  0.728640  0.733810  0.378890  1.0  1.0566
  Zn  Zn24  1  0.754610  0.107660  0.031040  1.0  1.0269
  Zn  Zn25  1  0.354430  0.737200  0.716580  1.0  1.0649
  Zn  Zn26  1  0.228370  0.762280  0.874210  1.0  1.0519
  Zn  Zn27  1  0.228640  0.766190  0.621110  1.0  1.056
  Zn  Zn28  1  0.254610  0.392340  0.968960  1.0  1.0255
  Zn  Zn29  1  0.145570  0.262800  0.216580  1.0  1.0639
  Zn  Zn30  1  0.271630  0.237720  0.374210  1.0  1.0515
  Zn  Zn31  1  0.271360  0.233810  0.121110  1.0  1.0501
  Zn  Zn32  1  0.245390  0.607660  0.468960  1.0  1.0247
  H  H33  1  0.258900  0.957000  0.348400  1.0  0.1204
  H  H34  1  0.251700  0.006400  0.152600  1.0  0.1042
  H  H35  1  0.506400  0.704200  0.092800  1.0  0.1034
  H  H36  1  0.457900  0.745600  0.899800  1.0  0.1052
  H  H37  1  0.241100  0.043000  0.848400  1.0  0.12
  H  H38  1  0.248300  0.993600  0.652600  1.0  0.1045
  H  H39  1  0.993600  0.295800  0.592800  1.0  0.1033
  H  H40  1  0.042100  0.254400  0.399800  1.0  0.1054
  H  H41  1  0.741100  0.457000  0.151600  1.0  0.1212
  H  H42  1  0.748300  0.506400  0.347400  1.0  0.1044
  H  H43  1  0.493600  0.204200  0.407200  1.0  0.104
  H  H44  1  0.542100  0.245600  0.600200  1.0  0.1047
  H  H45  1  0.758900  0.543000  0.651600  1.0  0.1213
  H  H46  1  0.751700  0.493600  0.847400  1.0  0.1043
  H  H47  1  0.006400  0.795800  0.907200  1.0  0.1037
  H  H48  1  0.957900  0.754400  0.100200  1.0  0.1044
  H  H49  1  0.741100  0.043000  0.651600  1.0  0.121
  H  H50  1  0.748300  0.993600  0.847400  1.0  0.1045
  H  H51  1  0.493600  0.295800  0.907200  1.0  0.1039
  H  H52  1  0.542100  0.254400  0.100200  1.0  0.1049
  H  H53  1  0.758900  0.957000  0.151600  1.0  0.1215
  H  H54  1  0.751700  0.006400  0.347400  1.0  0.1042
  H  H55  1  0.006400  0.704200  0.407200  1.0  0.1037
  H  H56  1  0.957900  0.745600  0.600200  1.0  0.1042
  H  H57  1  0.258900  0.543000  0.848400  1.0  0.1203
  H  H58  1  0.251700  0.493600  0.652600  1.0  0.1045
  H  H59  1  0.506400  0.795800  0.592800  1.0  0.1031
  H  H60  1  0.457900  0.754400  0.399800  1.0  0.1053
  H  H61  1  0.241100  0.457000  0.348400  1.0  0.1201
  H  H62  1  0.248300  0.506400  0.152600  1.0  0.1043
  H  H63  1  0.993600  0.204200  0.092800  1.0  0.1037
  H  H64  1  0.042100  0.245600  0.899800  1.0  0.1053
  C  C65  1  0.256100  0.910200  0.269300  1.0  -0.0807
  C  C66  1  0.256700  0.966900  0.308700  1.0  -0.0476
  C  C67  1  0.254100  0.037700  0.290700  1.0  -0.0903
  C  C68  1  0.250900  0.052600  0.231500  1.0  -0.0285
  C  C69  1  0.252100  0.996200  0.192200  1.0  0.0038
  C  C70  1  0.253800  0.925600  0.209500  1.0  -0.106
  C  C71  1  0.255700  0.838100  0.297900  1.0  0.7068
  C  C72  1  0.257600  0.093000  0.338600  1.0  0.7105
  C  C73  1  0.239600  0.127000  0.206700  1.0  0.6966
  C  C74  1  0.249500  0.869400  0.162800  1.0  0.7089
  C  C75  1  0.428000  0.728500  0.038600  1.0  -0.0897
  C  C76  1  0.496100  0.713500  0.053900  1.0  -0.0395
  C  C77  1  0.549800  0.711600  0.013600  1.0  -0.0279
  C  C78  1  0.535600  0.725300  0.955200  1.0  -0.1041
  C  C79  1  0.467900  0.739100  0.939100  1.0  -0.0096
  C  C80  1  0.413700  0.743800  0.978900  1.0  -0.0643
  C  C81  1  0.371300  0.730000  0.083700  1.0  0.714
  C  C82  1  0.621900  0.695300  0.035600  1.0  0.711
  C  C83  1  0.594300  0.733100  0.910500  1.0  0.7043
  C  C84  1  0.343700  0.773600  0.959700  1.0  0.6871
  C  C85  1  0.243900  0.089800  0.769300  1.0  -0.0802
  C  C86  1  0.243300  0.033100  0.808700  1.0  -0.048
  C  C87  1  0.245900  0.962300  0.790700  1.0  -0.0912
  C  C88  1  0.249100  0.947400  0.731500  1.0  -0.0283
  C  C89  1  0.247900  0.003800  0.692200  1.0  0.0049
  C  C90  1  0.246200  0.074400  0.709500  1.0  -0.1056
  C  C91  1  0.244300  0.161900  0.797900  1.0  0.7063
  C  C92  1  0.242400  0.907000  0.838600  1.0  0.7092
  C  C93  1  0.260400  0.873000  0.706700  1.0  0.6957
  C  C94  1  0.250500  0.130600  0.662800  1.0  0.7096
  C  C95  1  0.072000  0.271500  0.538600  1.0  -0.0895
  C  C96  1  0.003900  0.286500  0.553900  1.0  -0.0414
  C  C97  1  0.950200  0.288400  0.513600  1.0  -0.0274
  C  C98  1  0.964400  0.274700  0.455200  1.0  -0.1041
  C  C99  1  0.032100  0.260900  0.439100  1.0  -0.009
  C  C100  1  0.086300  0.256200  0.478900  1.0  -0.0643
  C  C101  1  0.128700  0.270000  0.583700  1.0  0.7136
  C  C102  1  0.878100  0.304700  0.535600  1.0  0.7105
  C  C103  1  0.905700  0.266900  0.410500  1.0  0.7047
  C  C104  1  0.156300  0.226400  0.459700  1.0  0.6864
  C  C105  1  0.743900  0.410200  0.230700  1.0  -0.0803
  C  C106  1  0.743300  0.466900  0.191300  1.0  -0.0481
  C  C107  1  0.745900  0.537700  0.209300  1.0  -0.0902
  C  C108  1  0.749100  0.552600  0.268500  1.0  -0.0292
  C  C109  1  0.747900  0.496200  0.307800  1.0  0.0042
  C  C110  1  0.746200  0.425600  0.290500  1.0  -0.1059
  C  C111  1  0.744300  0.338100  0.202100  1.0  0.7066
  C  C112  1  0.742400  0.593000  0.161400  1.0  0.7094
  C  C113  1  0.760400  0.627000  0.293300  1.0  0.6965
  C  C114  1  0.750500  0.369400  0.337200  1.0  0.7095
  C  C115  1  0.572000  0.228500  0.461400  1.0  -0.0888
  C  C116  1  0.503900  0.213500  0.446100  1.0  -0.0413
  C  C117  1  0.450200  0.211600  0.486400  1.0  -0.0278
  C  C118  1  0.464400  0.225300  0.544800  1.0  -0.1016
  C  C119  1  0.532100  0.239100  0.560900  1.0  -0.0063
  C  C120  1  0.586300  0.243800  0.521100  1.0  -0.0639
  C  C121  1  0.628700  0.230000  0.416300  1.0  0.7138
  C  C122  1  0.378100  0.195300  0.464400  1.0  0.7112
  C  C123  1  0.405700  0.233100  0.589500  1.0  0.7043
  C  C124  1  0.656300  0.273600  0.540300  1.0  0.6869
  C  C125  1  0.756100  0.589800  0.730700  1.0  -0.08
  C  C126  1  0.756700  0.533100  0.691300  1.0  -0.0482
  C  C127  1  0.754100  0.462300  0.709300  1.0  -0.0904
  C  C128  1  0.750900  0.447400  0.768500  1.0  -0.0284
  C  C129  1  0.752100  0.503800  0.807800  1.0  0.0043
  C  C130  1  0.753800  0.574400  0.790500  1.0  -0.1058
  C  C131  1  0.755700  0.661900  0.702100  1.0  0.7072
  C  C132  1  0.757600  0.407000  0.661400  1.0  0.7089
  C  C133  1  0.739600  0.373000  0.793300  1.0  0.696
  C  C134  1  0.749500  0.630600  0.837200  1.0  0.7092
  C  C135  1  0.928000  0.771500  0.961400  1.0  -0.0888
  C  C136  1  0.996100  0.786500  0.946100  1.0  -0.0423
  C  C137  1  0.049800  0.788400  0.986400  1.0  -0.0282
  C  C138  1  0.035600  0.774700  0.044800  1.0  -0.1024
  C  C139  1  0.967900  0.760900  0.060900  1.0  -0.0079
  C  C140  1  0.913700  0.756200  0.021100  1.0  -0.0638
  C  C141  1  0.871300  0.770000  0.916300  1.0  0.7136
  C  C142  1  0.121900  0.804700  0.964400  1.0  0.7106
  C  C143  1  0.094300  0.766900  0.089500  1.0  0.7039
  C  C144  1  0.843700  0.726400  0.040300  1.0  0.6873
  C  C145  1  0.743900  0.089800  0.730700  1.0  -0.08
  C  C146  1  0.743300  0.033100  0.691300  1.0  -0.0483
  C  C147  1  0.745900  0.962300  0.709300  1.0  -0.0905
  C  C148  1  0.749100  0.947400  0.768500  1.0  -0.0288
  C  C149  1  0.747900  0.003800  0.807800  1.0  0.004
  C  C150  1  0.746200  0.074400  0.790500  1.0  -0.1057
  C  C151  1  0.744300  0.161900  0.702100  1.0  0.7067
  C  C152  1  0.742400  0.907000  0.661400  1.0  0.7085
  C  C153  1  0.760400  0.873000  0.793300  1.0  0.6957
  C  C154  1  0.750500  0.130600  0.837200  1.0  0.7097
  C  C155  1  0.572000  0.271500  0.961400  1.0  -0.0886
  C  C156  1  0.503900  0.286500  0.946100  1.0  -0.0429
  C  C157  1  0.450200  0.288400  0.986400  1.0  -0.0278
  C  C158  1  0.464400  0.274700  0.044800  1.0  -0.1017
  C  C159  1  0.532100  0.260900  0.060900  1.0  -0.0065
  C  C160  1  0.586300  0.256200  0.021100  1.0  -0.0639
  C  C161  1  0.628700  0.270000  0.916300  1.0  0.7132
  C  C162  1  0.378100  0.304700  0.964400  1.0  0.711
  C  C163  1  0.405700  0.266900  0.089500  1.0  0.7041
  C  C164  1  0.656300  0.226400  0.040300  1.0  0.6867
  C  C165  1  0.756100  0.910200  0.230700  1.0  -0.0802
  C  C166  1  0.756700  0.966900  0.191300  1.0  -0.048
  C  C167  1  0.754100  0.037700  0.209300  1.0  -0.0902
  C  C168  1  0.750900  0.052600  0.268500  1.0  -0.0289
  C  C169  1  0.752100  0.996200  0.307800  1.0  0.0046
  C  C170  1  0.753800  0.925600  0.290500  1.0  -0.1059
  C  C171  1  0.755700  0.838100  0.202100  1.0  0.7071
  C  C172  1  0.757600  0.093000  0.161400  1.0  0.7098
  C  C173  1  0.739600  0.127000  0.293300  1.0  0.6967
  C  C174  1  0.749500  0.869400  0.337200  1.0  0.709
  C  C175  1  0.928000  0.728500  0.461400  1.0  -0.0894
  C  C176  1  0.996100  0.713500  0.446100  1.0  -0.0408
  C  C177  1  0.049800  0.711600  0.486400  1.0  -0.0279
  C  C178  1  0.035600  0.725300  0.544800  1.0  -0.1024
  C  C179  1  0.967900  0.739100  0.560900  1.0  -0.0078
  C  C180  1  0.913700  0.743800  0.521100  1.0  -0.0638
  C  C181  1  0.871300  0.730000  0.416300  1.0  0.7141
  C  C182  1  0.121900  0.695300  0.464400  1.0  0.7108
  C  C183  1  0.094300  0.733100  0.589500  1.0  0.7041
  C  C184  1  0.843700  0.773600  0.540300  1.0  0.6874
  C  C185  1  0.256100  0.589800  0.769300  1.0  -0.0802
  C  C186  1  0.256700  0.533100  0.808700  1.0  -0.0478
  C  C187  1  0.254100  0.462300  0.790700  1.0  -0.0911
  C  C188  1  0.250900  0.447400  0.731500  1.0  -0.028
  C  C189  1  0.252100  0.503800  0.692200  1.0  0.005
  C  C190  1  0.253800  0.574400  0.709500  1.0  -0.1058
  C  C191  1  0.255700  0.661900  0.797900  1.0  0.7068
  C  C192  1  0.257600  0.407000  0.838600  1.0  0.7097
  C  C193  1  0.239600  0.373000  0.706700  1.0  0.6962
  C  C194  1  0.249500  0.630600  0.662800  1.0  0.7092
  C  C195  1  0.428000  0.771500  0.538600  1.0  -0.0894
  C  C196  1  0.496100  0.786500  0.553900  1.0  -0.0402
  C  C197  1  0.549800  0.788400  0.513600  1.0  -0.0281
  C  C198  1  0.535600  0.774700  0.455200  1.0  -0.104
  C  C199  1  0.467900  0.760900  0.439100  1.0  -0.0096
  C  C200  1  0.413700  0.756200  0.478900  1.0  -0.0642
  C  C201  1  0.371300  0.770000  0.583700  1.0  0.7134
  C  C202  1  0.621900  0.804700  0.535600  1.0  0.7105
  C  C203  1  0.594300  0.766900  0.410500  1.0  0.7039
  C  C204  1  0.343700  0.726400  0.459700  1.0  0.687
  C  C205  1  0.243900  0.410200  0.269300  1.0  -0.0807
  C  C206  1  0.243300  0.466900  0.308700  1.0  -0.0479
  C  C207  1  0.245900  0.537700  0.290700  1.0  -0.0904
  C  C208  1  0.249100  0.552600  0.231500  1.0  -0.0288
  C  C209  1  0.247900  0.496200  0.192200  1.0  0.0035
  C  C210  1  0.246200  0.425600  0.209500  1.0  -0.1061
  C  C211  1  0.244300  0.338100  0.297900  1.0  0.7063
  C  C212  1  0.242400  0.593000  0.338600  1.0  0.71
  C  C213  1  0.260400  0.627000  0.206700  1.0  0.6962
  C  C214  1  0.250500  0.369400  0.162800  1.0  0.7092
  C  C215  1  0.072000  0.228500  0.038600  1.0  -0.0896
  C  C216  1  0.003900  0.213500  0.053900  1.0  -0.0407
  C  C217  1  0.950200  0.211600  0.013600  1.0  -0.0273
  C  C218  1  0.964400  0.225300  0.955200  1.0  -0.1043
  C  C219  1  0.032100  0.239100  0.939100  1.0  -0.009
  C  C220  1  0.086300  0.243800  0.978900  1.0  -0.0644
  C  C221  1  0.128700  0.230000  0.083700  1.0  0.7142
  C  C222  1  0.878100  0.195300  0.035600  1.0  0.7109
  C  C223  1  0.905700  0.233100  0.910500  1.0  0.7051
  C  C224  1  0.156300  0.273600  0.959700  1.0  0.6866
  O  O225  1  0.305300  0.794300  0.292200  1.0  -0.6431
  O  O226  1  0.206200  0.826800  0.332500  1.0  -0.5787
  O  O227  1  0.256700  0.804300  0.180200  1.0  -0.6575
  O  O228  1  0.237100  0.885600  0.112700  1.0  -0.4716
  O  O229  1  0.277800  0.153800  0.324500  1.0  -0.5746
  O  O230  1  0.241000  0.073600  0.388400  1.0  -0.6469
  O  O231  1  0.281700  0.145100  0.166700  1.0  -0.6023
  O  O232  1  0.188400  0.161400  0.224600  1.0  -0.6299
  O  O233  1  0.309300  0.719600  0.068400  1.0  -0.5791
  O  O234  1  0.392600  0.741000  0.135000  1.0  -0.6885
  O  O235  1  0.645300  0.735400  0.074900  1.0  -0.6085
  O  O236  1  0.651900  0.641100  0.015300  1.0  -0.6145
  O  O237  1  0.650000  0.759000  0.930900  1.0  -0.5898
  O  O238  1  0.584700  0.716400  0.860200  1.0  -0.4568
  O  O239  1  0.325400  0.831100  0.983100  1.0  -0.6357
  O  O240  1  0.312300  0.742200  0.920700  1.0  -0.6057
  O  O241  1  0.194700  0.205700  0.792200  1.0  -0.6425
  O  O242  1  0.293800  0.173200  0.832500  1.0  -0.5776
  O  O243  1  0.243300  0.195700  0.680200  1.0  -0.6576
  O  O244  1  0.262900  0.114400  0.612700  1.0  -0.4716
  O  O245  1  0.222200  0.846200  0.824500  1.0  -0.5738
  O  O246  1  0.259000  0.926400  0.888400  1.0  -0.6469
  O  O247  1  0.218300  0.854900  0.666667  1.0  -0.6016
  O  O248  1  0.311600  0.838600  0.724600  1.0  -0.6292
  O  O249  1  0.190700  0.280400  0.568400  1.0  -0.5799
  O  O250  1  0.107400  0.259000  0.635000  1.0  -0.6881
  O  O251  1  0.854700  0.264600  0.574900  1.0  -0.609
  O  O252  1  0.848100  0.358900  0.515300  1.0  -0.6152
  O  O253  1  0.850000  0.241000  0.430900  1.0  -0.5891
  O  O254  1  0.915300  0.283600  0.360200  1.0  -0.455
  O  O255  1  0.174600  0.168900  0.483100  1.0  -0.633
  O  O256  1  0.187700  0.257800  0.420700  1.0  -0.6055
  O  O257  1  0.694700  0.294300  0.207800  1.0  -0.644
  O  O258  1  0.793800  0.326800  0.167500  1.0  -0.5777
  O  O259  1  0.743300  0.304300  0.319800  1.0  -0.6573
  O  O260  1  0.762900  0.385600  0.387300  1.0  -0.4748
  O  O261  1  0.722200  0.653800  0.175500  1.0  -0.5742
  O  O262  1  0.759000  0.573600  0.111600  1.0  -0.6446
  O  O263  1  0.718300  0.645100  0.333333  1.0  -0.6014
  O  O264  1  0.811600  0.661400  0.275400  1.0  -0.6285
  O  O265  1  0.690700  0.219600  0.431600  1.0  -0.5798
  O  O266  1  0.607400  0.241000  0.365000  1.0  -0.6867
  O  O267  1  0.354700  0.235400  0.425100  1.0  -0.6084
  O  O268  1  0.348100  0.141100  0.484700  1.0  -0.6147
  O  O269  1  0.350000  0.259000  0.569100  1.0  -0.5897
  O  O270  1  0.415300  0.216400  0.639800  1.0  -0.4638
  O  O271  1  0.674600  0.331100  0.516900  1.0  -0.6368
  O  O272  1  0.687700  0.242200  0.579300  1.0  -0.6055
  O  O273  1  0.805300  0.705700  0.707800  1.0  -0.642
  O  O274  1  0.706200  0.673200  0.667500  1.0  -0.5789
  O  O275  1  0.756700  0.695700  0.819800  1.0  -0.6579
  O  O276  1  0.737100  0.614400  0.887300  1.0  -0.4744
  O  O277  1  0.777800  0.346200  0.675500  1.0  -0.5735
  O  O278  1  0.741000  0.426400  0.611600  1.0  -0.6472
  O  O279  1  0.781700  0.354900  0.833300  1.0  -0.6014
  O  O280  1  0.688400  0.338600  0.775400  1.0  -0.6303
  O  O281  1  0.809300  0.780400  0.931600  1.0  -0.5793
  O  O282  1  0.892600  0.759000  0.865000  1.0  -0.6863
  O  O283  1  0.145300  0.764600  0.925100  1.0  -0.6096
  O  O284  1  0.151900  0.858900  0.984700  1.0  -0.6154
  O  O285  1  0.150000  0.741000  0.069100  1.0  -0.5887
  O  O286  1  0.084700  0.783600  0.139800  1.0  -0.4651
  O  O287  1  0.825400  0.668900  0.016900  1.0  -0.6328
  O  O288  1  0.812300  0.757800  0.079300  1.0  -0.6057
  O  O289  1  0.694700  0.205700  0.707800  1.0  -0.6429
  O  O290  1  0.793800  0.173200  0.667500  1.0  -0.5781
  O  O291  1  0.743300  0.195700  0.819800  1.0  -0.6577
  O  O292  1  0.762900  0.114400  0.887300  1.0  -0.474
  O  O293  1  0.722200  0.846200  0.675500  1.0  -0.5735
  O  O294  1  0.759000  0.926400  0.611600  1.0  -0.6461
  O  O295  1  0.718300  0.854900  0.833300  1.0  -0.6017
  O  O296  1  0.811600  0.838600  0.775400  1.0  -0.6281
  O  O297  1  0.690700  0.280400  0.931600  1.0  -0.5807
  O  O298  1  0.607400  0.259000  0.865000  1.0  -0.6873
  O  O299  1  0.354700  0.264600  0.925100  1.0  -0.609
  O  O300  1  0.348100  0.358900  0.984700  1.0  -0.6146
  O  O301  1  0.350000  0.241000  0.069100  1.0  -0.5884
  O  O302  1  0.415300  0.283600  0.139800  1.0  -0.4595
  O  O303  1  0.674600  0.168900  0.016900  1.0  -0.6335
  O  O304  1  0.687700  0.257800  0.079300  1.0  -0.6057
  O  O305  1  0.805300  0.794300  0.207800  1.0  -0.642
  O  O306  1  0.706200  0.826800  0.167500  1.0  -0.5787
  O  O307  1  0.756700  0.804300  0.319800  1.0  -0.6576
  O  O308  1  0.737100  0.885600  0.387300  1.0  -0.4753
  O  O309  1  0.777800  0.153800  0.175500  1.0  -0.5743
  O  O310  1  0.741000  0.073600  0.111600  1.0  -0.6456
  O  O311  1  0.781700  0.145100  0.333333  1.0  -0.6012
  O  O312  1  0.688400  0.161400  0.275400  1.0  -0.6304
  O  O313  1  0.809300  0.719600  0.431600  1.0  -0.5794
  O  O314  1  0.892600  0.741000  0.365000  1.0  -0.6864
  O  O315  1  0.145300  0.735400  0.425100  1.0  -0.6091
  O  O316  1  0.151900  0.641100  0.484700  1.0  -0.6147
  O  O317  1  0.150000  0.759000  0.569100  1.0  -0.5894
  O  O318  1  0.084700  0.716400  0.639800  1.0  -0.4617
  O  O319  1  0.825400  0.831100  0.516900  1.0  -0.6358
  O  O320  1  0.812300  0.742200  0.579300  1.0  -0.6058
  O  O321  1  0.305300  0.705700  0.792200  1.0  -0.642
  O  O322  1  0.206200  0.673200  0.832500  1.0  -0.5789
  O  O323  1  0.256700  0.695700  0.680200  1.0  -0.658
  O  O324  1  0.237100  0.614400  0.612700  1.0  -0.4719
  O  O325  1  0.277800  0.346200  0.824500  1.0  -0.5738
  O  O326  1  0.241000  0.426400  0.888400  1.0  -0.6484
  O  O327  1  0.281700  0.354900  0.666667  1.0  -0.6011
  O  O328  1  0.188400  0.338600  0.724600  1.0  -0.6305
  O  O329  1  0.309300  0.780400  0.568400  1.0  -0.5788
  O  O330  1  0.392600  0.759000  0.635000  1.0  -0.689
  O  O331  1  0.645300  0.764600  0.574900  1.0  -0.6098
  O  O332  1  0.651900  0.858900  0.515300  1.0  -0.6159
  O  O333  1  0.650000  0.741000  0.430900  1.0  -0.5896
  O  O334  1  0.584700  0.783600  0.360200  1.0  -0.4603
  O  O335  1  0.325400  0.668900  0.483100  1.0  -0.6329
  O  O336  1  0.312300  0.757800  0.420700  1.0  -0.6051
  O  O337  1  0.194700  0.294300  0.292200  1.0  -0.6432
  O  O338  1  0.293800  0.326800  0.332500  1.0  -0.5776
  O  O339  1  0.243300  0.304300  0.180200  1.0  -0.6572
  O  O340  1  0.262900  0.385600  0.112700  1.0  -0.4713
  O  O341  1  0.222200  0.653800  0.324500  1.0  -0.5745
  O  O342  1  0.259000  0.573600  0.388400  1.0  -0.6463
  O  O343  1  0.218300  0.645100  0.166700  1.0  -0.6024
  O  O344  1  0.311600  0.661400  0.224600  1.0  -0.629
  O  O345  1  0.190700  0.219600  0.068400  1.0  -0.5791
  O  O346  1  0.107400  0.241000  0.135000  1.0  -0.6878
  O  O347  1  0.854700  0.235400  0.074900  1.0  -0.6076
  O  O348  1  0.848100  0.141100  0.015300  1.0  -0.6145
  O  O349  1  0.850000  0.259000  0.930900  1.0  -0.5896
  O  O350  1  0.915300  0.216400  0.860200  1.0  -0.4579
  O  O351  1  0.174600  0.331100  0.983100  1.0  -0.6365
  O  O352  1  0.187700  0.242200  0.920700  1.0  -0.6057
