# generated using pymatgen
data_Fe3H33C35N2O19
_symmetry_space_group_name_H-M   'P 1'
_cell_length_a   14.37120000
_cell_length_b   18.12580000
_cell_length_c   19.90700000
_cell_angle_alpha   90.99180000
_cell_angle_beta   90.00000000
_cell_angle_gamma   90.00000000
_symmetry_Int_Tables_number   1
_chemical_formula_structural   Fe3H33C35N2O19
_chemical_formula_sum   'Fe12 H132 C140 N8 O76'
_cell_volume   5184.78752848
_cell_formula_units_Z   4
loop_
 _symmetry_equiv_pos_site_id
 _symmetry_equiv_pos_as_xyz
  1  'x, y, z'
loop_
 _atom_site_type_symbol
 _atom_site_label
 _atom_site_symmetry_multiplicity
 _atom_site_fract_x
 _atom_site_fract_y
 _atom_site_fract_z
 _atom_site_occupancy
 _atom_site_charge
  Fe  Fe1  1  0.815230  0.701070  0.409280  1.0  1.0582
  Fe  Fe2  1  0.052340  0.750410  0.425220  1.0  1.0215
  Fe  Fe3  1  0.199360  0.803180  0.562400  1.0  1.1515
  Fe  Fe4  1  0.315230  0.798930  0.090720  1.0  1.0585
  Fe  Fe5  1  0.552340  0.749590  0.074780  1.0  1.0211
  Fe  Fe6  1  0.699360  0.696820  0.937600  1.0  1.1502
  Fe  Fe7  1  0.184770  0.298930  0.590720  1.0  1.0602
  Fe  Fe8  1  0.947660  0.249590  0.574780  1.0  1.0223
  Fe  Fe9  1  0.800640  0.196820  0.437600  1.0  1.1528
  Fe  Fe10  1  0.684770  0.201070  0.909280  1.0  1.0599
  Fe  Fe11  1  0.447660  0.250410  0.925220  1.0  1.0226
  Fe  Fe12  1  0.300640  0.303180  0.062400  1.0  1.1539
  H  H13  1  0.133500  0.534500  0.423600  1.0  0.1348
  H  H14  1  0.813200  0.964700  0.481000  1.0  0.1326
  H  H15  1  0.869300  0.462200  0.401000  1.0  0.1351
  H  H16  1  0.995300  0.033200  0.623100  1.0  0.1264
  H  H17  1  0.981800  0.816300  0.571500  1.0  0.1193
  H  H18  1  0.439500  0.707200  0.465500  1.0  0.1314
  H  H19  1  0.296700  0.746200  0.296900  1.0  0.1172
  H  H20  1  0.573100  0.706200  0.288100  1.0  0.119
  H  H21  1  0.074800  0.320200  0.447000  1.0  0.1206
  H  H22  1  0.633500  0.965500  0.076400  1.0  0.1359
  H  H23  1  0.313200  0.535300  0.019000  1.0  0.1328
  H  H24  1  0.369300  0.037800  0.099000  1.0  0.1351
  H  H25  1  0.495300  0.466800  0.876900  1.0  0.1273
  H  H26  1  0.481800  0.683700  0.928500  1.0  0.1191
  H  H27  1  0.939500  0.792800  0.034500  1.0  0.1325
  H  H28  1  0.796700  0.753800  0.203100  1.0  0.1174
  H  H29  1  0.073100  0.793800  0.211900  1.0  0.1195
  H  H30  1  0.574800  0.179800  0.053000  1.0  0.1204
  H  H31  1  0.866500  0.465500  0.576400  1.0  0.1356
  H  H32  1  0.186800  0.035300  0.519000  1.0  0.1327
  H  H33  1  0.130700  0.537800  0.599000  1.0  0.1346
  H  H34  1  0.004700  0.966800  0.376900  1.0  0.127
  H  H35  1  0.018200  0.183700  0.428500  1.0  0.1193
  H  H36  1  0.560500  0.292800  0.534500  1.0  0.1323
  H  H37  1  0.703300  0.253800  0.703100  1.0  0.1174
  H  H38  1  0.426900  0.293800  0.711900  1.0  0.1199
  H  H39  1  0.925200  0.679800  0.553000  1.0  0.1208
  H  H40  1  0.366500  0.034500  0.923600  1.0  0.1354
  H  H41  1  0.686800  0.464700  0.981000  1.0  0.1324
  H  H42  1  0.630700  0.962200  0.901000  1.0  0.1345
  H  H43  1  0.504700  0.533200  0.123100  1.0  0.1264
  H  H44  1  0.518200  0.316300  0.071500  1.0  0.1193
  H  H45  1  0.060500  0.207200  0.965500  1.0  0.1312
  H  H46  1  0.203300  0.246200  0.796900  1.0  0.1169
  H  H47  1  0.926900  0.206200  0.788100  1.0  0.1189
  H  H48  1  0.425200  0.820200  0.947000  1.0  0.1208
  H  H49  1  0.707600  0.903100  0.362300  1.0  0.1127
  H  H50  1  0.783300  0.869000  0.311600  1.0  0.1104
  H  H51  1  0.792300  0.952800  0.337300  1.0  0.1205
  H  H52  1  0.584000  0.867300  0.278800  1.0  0.1203
  H  H53  1  0.595300  0.894800  0.203300  1.0  0.1276
  H  H54  1  0.664800  0.834000  0.232000  1.0  0.11
  H  H55  1  0.596200  0.997100  0.319600  1.0  0.1229
  H  H56  1  0.684000  0.045200  0.297300  1.0  0.1253
  H  H57  1  0.606200  0.022300  0.243300  1.0  0.1329
  H  H58  1  0.794500  0.908100  0.199400  1.0  0.1166
  H  H59  1  0.723100  0.967300  0.170300  1.0  0.1212
  H  H60  1  0.801000  0.992800  0.223100  1.0  0.1227
  H  H61  1  0.240600  0.855800  0.282900  1.0  0.1178
  H  H62  1  0.169100  0.915900  0.312300  1.0  0.1246
  H  H63  1  0.194200  0.914500  0.234000  1.0  0.1248
  H  H64  1  0.399000  0.895500  0.247100  1.0  0.1171
  H  H65  1  0.355000  0.955200  0.198000  1.0  0.1254
  H  H66  1  0.427600  0.980500  0.254800  1.0  0.1183
  H  H67  1  0.358200  0.897700  0.367600  1.0  0.1299
  H  H68  1  0.387700  0.982800  0.370900  1.0  0.1262
  H  H69  1  0.286800  0.958300  0.396100  1.0  0.1251
  H  H70  1  0.238000  0.044600  0.240500  1.0  0.1317
  H  H71  1  0.214600  0.047900  0.319100  1.0  0.1351
  H  H72  1  0.315300  0.072000  0.293100  1.0  0.1279
  H  H73  1  0.207600  0.596900  0.137700  1.0  0.1124
  H  H74  1  0.283300  0.631000  0.188400  1.0  0.111
  H  H75  1  0.292300  0.547200  0.162700  1.0  0.1206
  H  H76  1  0.084000  0.632700  0.221200  1.0  0.1197
  H  H77  1  0.095300  0.605200  0.296700  1.0  0.1286
  H  H78  1  0.164800  0.666000  0.268000  1.0  0.1115
  H  H79  1  0.096200  0.502900  0.180400  1.0  0.1227
  H  H80  1  0.184000  0.454800  0.202700  1.0  0.1229
  H  H81  1  0.106200  0.477700  0.256700  1.0  0.1328
  H  H82  1  0.294500  0.591900  0.300600  1.0  0.1154
  H  H83  1  0.223100  0.532700  0.329700  1.0  0.1224
  H  H84  1  0.301000  0.507200  0.276900  1.0  0.1223
  H  H85  1  0.740600  0.644200  0.217100  1.0  0.1204
  H  H86  1  0.669100  0.584100  0.187700  1.0  0.1237
  H  H87  1  0.694200  0.585500  0.266000  1.0  0.1252
  H  H88  1  0.899000  0.604500  0.252900  1.0  0.1174
  H  H89  1  0.855000  0.544800  0.302000  1.0  0.1244
  H  H90  1  0.927600  0.519500  0.245200  1.0  0.1177
  H  H91  1  0.858200  0.602300  0.132400  1.0  0.1298
  H  H92  1  0.887700  0.517200  0.129100  1.0  0.1264
  H  H93  1  0.786800  0.541700  0.103900  1.0  0.1258
  H  H94  1  0.738000  0.455400  0.259500  1.0  0.1329
  H  H95  1  0.714600  0.452100  0.180900  1.0  0.1364
  H  H96  1  0.815300  0.428000  0.206900  1.0  0.1289
  H  H97  1  0.292400  0.096900  0.637700  1.0  0.112
  H  H98  1  0.216700  0.131000  0.688400  1.0  0.1109
  H  H99  1  0.207700  0.047200  0.662700  1.0  0.1207
  H  H100  1  0.416000  0.132700  0.721200  1.0  0.1201
  H  H101  1  0.404700  0.105200  0.796700  1.0  0.1276
  H  H102  1  0.335200  0.166000  0.768000  1.0  0.1117
  H  H103  1  0.403800  0.002900  0.680400  1.0  0.1233
  H  H104  1  0.316000  0.954800  0.702700  1.0  0.1237
  H  H105  1  0.393800  0.977700  0.756700  1.0  0.1324
  H  H106  1  0.205500  0.091900  0.800600  1.0  0.1158
  H  H107  1  0.276900  0.032700  0.829700  1.0  0.1219
  H  H108  1  0.199000  0.007200  0.776900  1.0  0.1222
  H  H109  1  0.759400  0.144200  0.717100  1.0  0.1199
  H  H110  1  0.830900  0.084100  0.687700  1.0  0.1233
  H  H111  1  0.805800  0.085500  0.766000  1.0  0.1248
  H  H112  1  0.601000  0.104500  0.752900  1.0  0.1179
  H  H113  1  0.645000  0.044800  0.802000  1.0  0.1251
  H  H114  1  0.572400  0.019500  0.745200  1.0  0.117
  H  H115  1  0.641800  0.102300  0.632400  1.0  0.1307
  H  H116  1  0.612300  0.017200  0.629100  1.0  0.1238
  H  H117  1  0.713200  0.041700  0.603900  1.0  0.1243
  H  H118  1  0.762000  0.955400  0.759500  1.0  0.1318
  H  H119  1  0.785400  0.952100  0.680900  1.0  0.1366
  H  H120  1  0.684700  0.928000  0.706900  1.0  0.1279
  H  H121  1  0.792400  0.403100  0.862300  1.0  0.1124
  H  H122  1  0.716700  0.369000  0.811600  1.0  0.11
  H  H123  1  0.707700  0.452800  0.837300  1.0  0.1213
  H  H124  1  0.916000  0.367300  0.778800  1.0  0.1209
  H  H125  1  0.904700  0.394800  0.703300  1.0  0.1277
  H  H126  1  0.835200  0.334000  0.732000  1.0  0.1099
  H  H127  1  0.903800  0.497100  0.819600  1.0  0.1227
  H  H128  1  0.816000  0.545200  0.797300  1.0  0.1254
  H  H129  1  0.893800  0.522300  0.743300  1.0  0.1318
  H  H130  1  0.705500  0.408100  0.699400  1.0  0.1158
  H  H131  1  0.776900  0.467300  0.670300  1.0  0.1205
  H  H132  1  0.699000  0.492800  0.723100  1.0  0.122
  H  H133  1  0.259400  0.355800  0.782900  1.0  0.1196
  H  H134  1  0.330900  0.415900  0.812300  1.0  0.1248
  H  H135  1  0.305800  0.414500  0.734000  1.0  0.1258
  H  H136  1  0.101000  0.395500  0.747100  1.0  0.1176
  H  H137  1  0.145000  0.455200  0.698000  1.0  0.1252
  H  H138  1  0.072400  0.480500  0.754800  1.0  0.1176
  H  H139  1  0.141800  0.397700  0.867600  1.0  0.1298
  H  H140  1  0.112300  0.482800  0.870900  1.0  0.1253
  H  H141  1  0.213200  0.458300  0.896100  1.0  0.1246
  H  H142  1  0.262000  0.544600  0.740500  1.0  0.1329
  H  H143  1  0.285400  0.547900  0.819100  1.0  0.1363
  H  H144  1  0.184700  0.572000  0.793100  1.0  0.1286
  C  C145  1  0.089300  0.495500  0.424000  1.0  -0.0501
  C  C146  1  0.996100  0.511200  0.412100  1.0  -0.1203
  C  C147  1  0.901200  0.010500  0.550100  1.0  -0.1298
  C  C148  1  0.076400  0.902500  0.654800  1.0  0.7696
  C  C149  1  0.860900  0.954000  0.512400  1.0  -0.0269
  C  C150  1  0.932800  0.453100  0.411300  1.0  -0.0495
  C  C151  1  0.432200  0.740900  0.205200  1.0  0.6976
  C  C152  1  0.968800  0.994400  0.596900  1.0  -0.0139
  C  C153  1  0.267800  0.737500  0.427100  1.0  0.7066
  C  C154  1  0.890400  0.881300  0.520400  1.0  -0.1019
  C  C155  1  0.433700  0.728300  0.280000  1.0  -0.0905
  C  C156  1  0.960500  0.865600  0.566900  1.0  -0.0436
  C  C157  1  0.438200  0.711800  0.418100  1.0  0.0174
  C  C158  1  0.354900  0.727200  0.386700  1.0  -0.101
  C  C159  1  0.520000  0.702900  0.382100  1.0  -0.1355
  C  C160  1  0.353900  0.735400  0.318500  1.0  -0.0797
  C  C161  1  0.517400  0.711600  0.313400  1.0  -0.0247
  C  C162  1  0.963700  0.589500  0.406300  1.0  0.6877
  C  C163  1  0.854400  0.821000  0.476800  1.0  0.6956
  C  C164  1  0.877600  0.090500  0.535300  1.0  0.6937
  C  C165  1  0.998900  0.922100  0.606300  1.0  -0.1064
  C  C166  1  0.608500  0.687000  0.417000  1.0  0.7434
  C  C167  1  0.119300  0.424600  0.436500  1.0  -0.1022
  C  C168  1  0.055100  0.368900  0.437600  1.0  -0.0611
  C  C169  1  0.218800  0.410100  0.451900  1.0  0.72
  C  C170  1  0.961000  0.382700  0.425100  1.0  -0.0899
  C  C171  1  0.894100  0.319200  0.427900  1.0  0.6893
  C  C172  1  0.589300  0.004500  0.076000  1.0  -0.0494
  C  C173  1  0.496100  0.988800  0.087900  1.0  -0.1207
  C  C174  1  0.401200  0.489500  0.949900  1.0  -0.1305
  C  C175  1  0.576400  0.597500  0.845200  1.0  0.7688
  C  C176  1  0.360900  0.546000  0.987600  1.0  -0.0265
  C  C177  1  0.432800  0.046900  0.088700  1.0  -0.0495
  C  C178  1  0.932200  0.759100  0.294800  1.0  0.6972
  C  C179  1  0.468800  0.505600  0.903100  1.0  -0.0159
  C  C180  1  0.767800  0.762500  0.072900  1.0  0.7069
  C  C181  1  0.390400  0.618700  0.979600  1.0  -0.1024
  C  C182  1  0.933700  0.771700  0.220000  1.0  -0.0899
  C  C183  1  0.460500  0.634400  0.933100  1.0  -0.0433
  C  C184  1  0.938200  0.788200  0.081900  1.0  0.018
  C  C185  1  0.854900  0.772800  0.113300  1.0  -0.1022
  C  C186  1  0.020000  0.797100  0.117900  1.0  -0.1338
  C  C187  1  0.853900  0.764600  0.181500  1.0  -0.079
  C  C188  1  0.017400  0.788400  0.186600  1.0  -0.0241
  C  C189  1  0.463700  0.910500  0.093700  1.0  0.6874
  C  C190  1  0.354400  0.679000  0.023200  1.0  0.6964
  C  C191  1  0.377600  0.409500  0.964700  1.0  0.6942
  C  C192  1  0.498900  0.577900  0.893700  1.0  -0.1081
  C  C193  1  0.108500  0.813000  0.083000  1.0  0.7417
  C  C194  1  0.619300  0.075400  0.063500  1.0  -0.1034
  C  C195  1  0.555100  0.131100  0.062400  1.0  -0.0595
  C  C196  1  0.718800  0.089900  0.048100  1.0  0.7197
  C  C197  1  0.461000  0.117300  0.074900  1.0  -0.0898
  C  C198  1  0.394100  0.180800  0.072100  1.0  0.6855
  C  C199  1  0.910700  0.504500  0.576000  1.0  -0.0493
  C  C200  1  0.003900  0.488800  0.587900  1.0  -0.1216
  C  C201  1  0.098800  0.989500  0.449900  1.0  -0.1303
  C  C202  1  0.923600  0.097500  0.345200  1.0  0.7704
  C  C203  1  0.139100  0.046000  0.487600  1.0  -0.0259
  C  C204  1  0.067200  0.546900  0.588700  1.0  -0.0497
  C  C205  1  0.567800  0.259100  0.794800  1.0  0.6972
  C  C206  1  0.031200  0.005600  0.403100  1.0  -0.0163
  C  C207  1  0.732200  0.262500  0.572900  1.0  0.7079
  C  C208  1  0.109600  0.118700  0.479600  1.0  -0.1031
  C  C209  1  0.566300  0.271700  0.720000  1.0  -0.0891
  C  C210  1  0.039500  0.134400  0.433100  1.0  -0.045
  C  C211  1  0.561800  0.288200  0.581900  1.0  0.018
  C  C212  1  0.645100  0.272800  0.613300  1.0  -0.1016
  C  C213  1  0.480000  0.297100  0.617900  1.0  -0.1325
  C  C214  1  0.646100  0.264600  0.681500  1.0  -0.0793
  C  C215  1  0.482600  0.288400  0.686600  1.0  -0.0252
  C  C216  1  0.036300  0.410500  0.593700  1.0  0.6855
  C  C217  1  0.145600  0.179000  0.523200  1.0  0.6974
  C  C218  1  0.122400  0.909500  0.464700  1.0  0.6948
  C  C219  1  0.001100  0.077900  0.393700  1.0  -0.1079
  C  C220  1  0.391500  0.313000  0.583000  1.0  0.7434
  C  C221  1  0.880700  0.575400  0.563500  1.0  -0.102
  C  C222  1  0.944900  0.631100  0.562400  1.0  -0.0604
  C  C223  1  0.781200  0.589900  0.548100  1.0  0.7213
  C  C224  1  0.039000  0.617300  0.574900  1.0  -0.0887
  C  C225  1  0.105900  0.680800  0.572100  1.0  0.6876
  C  C226  1  0.410700  0.995500  0.924000  1.0  -0.0498
  C  C227  1  0.503900  0.011200  0.912100  1.0  -0.1213
  C  C228  1  0.598800  0.510500  0.050100  1.0  -0.13
  C  C229  1  0.423600  0.402500  0.154800  1.0  0.7689
  C  C230  1  0.639100  0.454000  0.012400  1.0  -0.0263
  C  C231  1  0.567200  0.953100  0.911300  1.0  -0.0503
  C  C232  1  0.067800  0.240900  0.705200  1.0  0.6978
  C  C233  1  0.531200  0.494400  0.096900  1.0  -0.0154
  C  C234  1  0.232200  0.237500  0.927100  1.0  0.7082
  C  C235  1  0.609600  0.381300  0.020400  1.0  -0.1024
  C  C236  1  0.066300  0.228300  0.780000  1.0  -0.0907
  C  C237  1  0.539500  0.365600  0.066900  1.0  -0.0445
  C  C238  1  0.061800  0.211800  0.918100  1.0  0.016
  C  C239  1  0.145100  0.227200  0.886700  1.0  -0.1014
  C  C240  1  0.980000  0.202900  0.882100  1.0  -0.1356
  C  C241  1  0.146100  0.235400  0.818500  1.0  -0.0804
  C  C242  1  0.982600  0.211600  0.813400  1.0  -0.0256
  C  C243  1  0.536300  0.089500  0.906300  1.0  0.6861
  C  C244  1  0.645600  0.321000  0.976800  1.0  0.6964
  C  C245  1  0.622400  0.590500  0.035300  1.0  0.6939
  C  C246  1  0.501100  0.422100  0.106300  1.0  -0.1068
  C  C247  1  0.891500  0.187000  0.917000  1.0  0.7434
  C  C248  1  0.380700  0.924600  0.936500  1.0  -0.1027
  C  C249  1  0.444900  0.868900  0.937600  1.0  -0.0607
  C  C250  1  0.281200  0.910100  0.951900  1.0  0.7206
  C  C251  1  0.539000  0.882700  0.925100  1.0  -0.0889
  C  C252  1  0.605900  0.819200  0.927900  1.0  0.689
  C  C253  1  0.748600  0.913700  0.324300  1.0  -0.1823
  C  C254  1  0.628800  0.878500  0.243300  1.0  -0.1898
  C  C255  1  0.640300  0.006400  0.283200  1.0  -0.1781
  C  C256  1  0.758600  0.952800  0.210000  1.0  -0.1882
  C  C257  1  0.218600  0.906800  0.279300  1.0  -0.1811
  C  C258  1  0.376700  0.946500  0.243900  1.0  -0.1919
  C  C259  1  0.336000  0.948500  0.363100  1.0  -0.1951
  C  C260  1  0.263300  0.037900  0.285700  1.0  -0.1883
  C  C261  1  0.248600  0.586300  0.175700  1.0  -0.1811
  C  C262  1  0.128800  0.621500  0.256700  1.0  -0.1902
  C  C263  1  0.140300  0.493600  0.216800  1.0  -0.1753
  C  C264  1  0.258600  0.547200  0.290000  1.0  -0.1891
  C  C265  1  0.718600  0.593200  0.220700  1.0  -0.1827
  C  C266  1  0.876700  0.553500  0.256100  1.0  -0.1916
  C  C267  1  0.836000  0.551500  0.136900  1.0  -0.1948
  C  C268  1  0.763300  0.462100  0.214300  1.0  -0.1862
  C  C269  1  0.251400  0.086300  0.675700  1.0  -0.1811
  C  C270  1  0.371200  0.121500  0.756700  1.0  -0.189
  C  C271  1  0.359700  0.993600  0.716800  1.0  -0.1768
  C  C272  1  0.241400  0.047200  0.790000  1.0  -0.189
  C  C273  1  0.781400  0.093200  0.720700  1.0  -0.1809
  C  C274  1  0.623300  0.053500  0.756100  1.0  -0.1915
  C  C275  1  0.664000  0.051500  0.636900  1.0  -0.1944
  C  C276  1  0.736700  0.962100  0.714300  1.0  -0.1877
  C  C277  1  0.751400  0.413700  0.824300  1.0  -0.1827
  C  C278  1  0.871200  0.378500  0.743300  1.0  -0.1901
  C  C279  1  0.859700  0.506400  0.783200  1.0  -0.1778
  C  C280  1  0.741400  0.452800  0.710000  1.0  -0.188
  C  C281  1  0.281400  0.406800  0.779300  1.0  -0.1814
  C  C282  1  0.123300  0.446500  0.743900  1.0  -0.1915
  C  C283  1  0.164000  0.448500  0.863100  1.0  -0.1955
  C  C284  1  0.236700  0.537900  0.785700  1.0  -0.1889
  N  N285  1  0.692500  0.937800  0.267000  1.0  -0.0765
  N  N286  1  0.297600  0.958800  0.292600  1.0  -0.0613
  N  N287  1  0.192500  0.562200  0.233000  1.0  -0.0756
  N  N288  1  0.797600  0.541200  0.207400  1.0  -0.06
  N  N289  1  0.307500  0.062200  0.733000  1.0  -0.0737
  N  N290  1  0.702400  0.041200  0.707400  1.0  -0.0596
  N  N291  1  0.807500  0.437800  0.767000  1.0  -0.0747
  N  N292  1  0.202400  0.458800  0.792600  1.0  -0.0606
  O  O293  1  0.682300  0.684200  0.382000  1.0  -0.5868
  O  O294  1  0.908000  0.765400  0.463800  1.0  -0.6488
  O  O295  1  0.192200  0.733300  0.397200  1.0  -0.5775
  O  O296  1  0.507000  0.732200  0.173000  1.0  -0.5811
  O  O297  1  0.774600  0.822100  0.453600  1.0  -0.5929
  O  O298  1  0.877300  0.600700  0.400800  1.0  -0.5812
  O  O299  1  0.279600  0.751900  0.488600  1.0  -0.5897
  O  O300  1  0.236700  0.346600  0.478900  1.0  -0.6345
  O  O301  1  0.354200  0.759300  0.181300  1.0  -0.576
  O  O302  1  0.025000  0.638500  0.410200  1.0  -0.591
  O  O303  1  0.817300  0.102000  0.491100  1.0  -0.572
  O  O304  1  0.923800  0.138000  0.566600  1.0  -0.5921
  O  O305  1  0.124000  0.845800  0.643600  1.0  -0.6274
  O  O306  1  0.279000  0.454000  0.439700  1.0  -0.4711
  O  O307  1  0.087300  0.944700  0.704300  1.0  -0.5668
  O  O308  1  0.605400  0.677200  0.478700  1.0  -0.4754
  O  O309  1  0.912600  0.266700  0.468800  1.0  -0.667
  O  O310  1  0.824800  0.316600  0.390600  1.0  -0.5962
  O  O311  1  0.325500  0.828800  0.613900  1.0  -0.2526
  O  O312  1  0.182300  0.815800  0.118000  1.0  -0.5855
  O  O313  1  0.408000  0.734600  0.036200  1.0  -0.6477
  O  O314  1  0.692200  0.766700  0.102800  1.0  -0.5786
  O  O315  1  0.007000  0.767800  0.327000  1.0  -0.5819
  O  O316  1  0.274600  0.677900  0.046400  1.0  -0.5909
  O  O317  1  0.377300  0.899300  0.099200  1.0  -0.5816
  O  O318  1  0.779600  0.748100  0.011400  1.0  -0.5924
  O  O319  1  0.736700  0.153400  0.021100  1.0  -0.6338
  O  O320  1  0.854200  0.740700  0.318700  1.0  -0.5762
  O  O321  1  0.525000  0.861500  0.089800  1.0  -0.5916
  O  O322  1  0.317300  0.398000  0.008900  1.0  -0.5715
  O  O323  1  0.423800  0.362000  0.933400  1.0  -0.592
  O  O324  1  0.624000  0.654200  0.856400  1.0  -0.6271
  O  O325  1  0.779000  0.046000  0.060300  1.0  -0.4721
  O  O326  1  0.587300  0.555300  0.795700  1.0  -0.5701
  O  O327  1  0.105400  0.822800  0.021300  1.0  -0.4788
  O  O328  1  0.412600  0.233300  0.031200  1.0  -0.6653
  O  O329  1  0.324800  0.183400  0.109400  1.0  -0.5955
  O  O330  1  0.825500  0.671200  0.886100  1.0  -0.2522
  O  O331  1  0.317700  0.315800  0.618000  1.0  -0.5842
  O  O332  1  0.092000  0.234600  0.536200  1.0  -0.6476
  O  O333  1  0.807800  0.266700  0.602800  1.0  -0.5791
  O  O334  1  0.493000  0.267800  0.827000  1.0  -0.5824
  O  O335  1  0.225400  0.177900  0.546400  1.0  -0.591
  O  O336  1  0.122700  0.399300  0.599200  1.0  -0.5801
  O  O337  1  0.720400  0.248100  0.511400  1.0  -0.5942
  O  O338  1  0.763300  0.653400  0.521100  1.0  -0.6385
  O  O339  1  0.645800  0.240700  0.818700  1.0  -0.5763
  O  O340  1  0.975000  0.361500  0.589800  1.0  -0.5921
  O  O341  1  0.182700  0.898000  0.508900  1.0  -0.5713
  O  O342  1  0.076200  0.862000  0.433400  1.0  -0.5921
  O  O343  1  0.876000  0.154200  0.356400  1.0  -0.6262
  O  O344  1  0.721000  0.546000  0.560300  1.0  -0.4689
  O  O345  1  0.912700  0.055300  0.295700  1.0  -0.5704
  O  O346  1  0.394600  0.322800  0.521300  1.0  -0.4784
  O  O347  1  0.087400  0.733300  0.531200  1.0  -0.6657
  O  O348  1  0.175200  0.683400  0.609400  1.0  -0.5964
  O  O349  1  0.674500  0.171200  0.386100  1.0  -0.2537
  O  O350  1  0.817700  0.184200  0.882000  1.0  -0.5849
  O  O351  1  0.592000  0.265400  0.963800  1.0  -0.6483
  O  O352  1  0.307800  0.233300  0.897200  1.0  -0.578
  O  O353  1  0.993000  0.232200  0.673000  1.0  -0.5816
  O  O354  1  0.725400  0.322100  0.953600  1.0  -0.5919
  O  O355  1  0.622700  0.100700  0.900800  1.0  -0.5802
  O  O356  1  0.220400  0.251900  0.988600  1.0  -0.5901
  O  O357  1  0.263300  0.846600  0.978900  1.0  -0.6355
  O  O358  1  0.145800  0.259300  0.681300  1.0  -0.5759
  O  O359  1  0.475000  0.138500  0.910200  1.0  -0.5917
  O  O360  1  0.682700  0.602000  0.991100  1.0  -0.5719
  O  O361  1  0.576200  0.638000  0.066600  1.0  -0.592
  O  O362  1  0.376000  0.345800  0.143600  1.0  -0.6264
  O  O363  1  0.221000  0.954000  0.939700  1.0  -0.4683
  O  O364  1  0.412700  0.444700  0.204300  1.0  -0.5665
  O  O365  1  0.894600  0.177200  0.978700  1.0  -0.4759
  O  O366  1  0.587400  0.766700  0.968800  1.0  -0.6674
  O  O367  1  0.675200  0.816600  0.890600  1.0  -0.5946
  O  O368  1  0.174500  0.328800  0.113900  1.0  -0.2529
