# generated using pymatgen
data_Fe3C24Cl12O13
_symmetry_space_group_name_H-M   'P 1'
_cell_length_a   30.80990000
_cell_length_b   30.80990000
_cell_length_c   16.46050000
_cell_angle_alpha   90.00000000
_cell_angle_beta   90.00000000
_cell_angle_gamma   120.00000000
_symmetry_Int_Tables_number   1
_chemical_formula_structural   Fe3C24Cl12O13
_chemical_formula_sum   'Fe24 C192 Cl96 O104'
_cell_volume   13531.75830899
_cell_formula_units_Z   8
loop_
 _symmetry_equiv_pos_site_id
 _symmetry_equiv_pos_as_xyz
  1  'x, y, z'
loop_
 _atom_site_type_symbol
 _atom_site_label
 _atom_site_symmetry_multiplicity
 _atom_site_fract_x
 _atom_site_fract_y
 _atom_site_fract_z
 _atom_site_occupancy
 _atom_site_charge
  Fe  Fe1  1  0.797680  0.169590  0.754170  1.0  1.2578
  Fe  Fe2  1  0.908110  0.274330  0.752490  1.0  1.0859
  Fe  Fe3  1  0.898550  0.161020  0.746730  1.0  1.1315
  Fe  Fe4  1  0.643250  0.262750  0.253540  1.0  1.1199
  Fe  Fe5  1  0.830410  0.628090  0.754170  1.0  1.2548
  Fe  Fe6  1  0.725670  0.633780  0.752490  1.0  1.0835
  Fe  Fe7  1  0.838980  0.737530  0.746730  1.0  1.1363
  Fe  Fe8  1  0.737250  0.380500  0.253540  1.0  1.1204
  Fe  Fe9  1  0.371910  0.202320  0.754170  1.0  1.2632
  Fe  Fe10  1  0.366220  0.091890  0.752490  1.0  1.0809
  Fe  Fe11  1  0.262470  0.101450  0.746730  1.0  1.134
  Fe  Fe12  1  0.619500  0.356750  0.253540  1.0  1.1171
  Fe  Fe13  1  0.202320  0.830410  0.245830  1.0  1.2572
  Fe  Fe14  1  0.091890  0.725670  0.247510  1.0  1.0827
  Fe  Fe15  1  0.101450  0.838980  0.253270  1.0  1.1352
  Fe  Fe16  1  0.356750  0.737250  0.746460  1.0  1.1203
  Fe  Fe17  1  0.169590  0.371910  0.245830  1.0  1.2602
  Fe  Fe18  1  0.274330  0.366220  0.247510  1.0  1.0847
  Fe  Fe19  1  0.161020  0.262470  0.253270  1.0  1.1322
  Fe  Fe20  1  0.262750  0.619500  0.746460  1.0  1.1189
  Fe  Fe21  1  0.628090  0.797680  0.245830  1.0  1.2587
  Fe  Fe22  1  0.633780  0.908110  0.247510  1.0  1.0881
  Fe  Fe23  1  0.737530  0.898550  0.253270  1.0  1.1342
  Fe  Fe24  1  0.380500  0.643250  0.746460  1.0  1.1174
  C  C25  1  0.728700  0.296600  0.138300  1.0  0.7126
  C  C26  1  0.817900  0.252800  0.642300  1.0  0.676
  C  C27  1  0.796000  0.265650  0.570700  1.0  -0.1135
  C  C28  1  0.750500  0.264730  0.578200  1.0  0.1066
  C  C29  1  0.730600  0.276620  0.511800  1.0  0.1219
  C  C30  1  0.755800  0.289400  0.438000  1.0  -0.123
  C  C31  1  0.801200  0.290200  0.430800  1.0  0.1574
  C  C32  1  0.821500  0.278500  0.497100  1.0  0.1396
  C  C33  1  0.731700  0.301500  0.365400  1.0  0.6416
  C  C34  1  0.814400  0.104200  0.635400  1.0  0.7037
  C  C35  1  0.788750  0.067200  0.565100  1.0  -0.1264
  C  C36  1  0.781020  0.084300  0.491500  1.0  0.1842
  C  C37  1  0.757900  0.051300  0.427700  1.0  0.1421
  C  C38  1  0.742400  0.000800  0.436800  1.0  -0.1255
  C  C39  1  0.749900  0.983500  0.510600  1.0  0.2007
  C  C40  1  0.773000  0.016500  0.575000  1.0  0.1284
  C  C41  1  0.719400  0.964200  0.367600  1.0  0.6799
  C  C42  1  0.814100  0.104800  0.865500  1.0  0.6674
  C  C43  1  0.791900  0.067900  0.936100  1.0  -0.1174
  C  C44  1  0.746400  0.023500  0.928500  1.0  0.1271
  C  C45  1  0.726100  0.991600  0.994800  1.0  0.1368
  C  C46  1  0.751400  0.004100  0.068900  1.0  -0.0823
  C  C47  1  0.796900  0.048600  0.076400  1.0  0.1135
  C  C48  1  0.817100  0.080500  0.009600  1.0  0.1236
  C  C49  1  0.726800  0.968000  0.137100  1.0  0.6991
  C  C50  1  0.824800  0.255500  0.868500  1.0  0.676
  C  C51  1  0.801500  0.267700  0.941800  1.0  -0.1208
  C  C52  1  0.794050  0.243470  0.016000  1.0  0.1737
  C  C53  1  0.770670  0.253600  0.079400  1.0  0.1348
  C  C54  1  0.754500  0.288100  0.068800  1.0  -0.0841
  C  C55  1  0.761900  0.312500  0.994600  1.0  0.2374
  C  C56  1  0.785600  0.302400  0.931300  1.0  0.1759
  C  C57  1  0.703400  0.432100  0.138300  1.0  0.7123
  C  C58  1  0.747200  0.565100  0.642300  1.0  0.6758
  C  C59  1  0.734350  0.530350  0.570700  1.0  -0.1145
  C  C60  1  0.735270  0.485770  0.578200  1.0  0.1071
  C  C61  1  0.723380  0.453980  0.511800  1.0  0.1239
  C  C62  1  0.710600  0.466400  0.438000  1.0  -0.1235
  C  C63  1  0.709800  0.511000  0.430800  1.0  0.1578
  C  C64  1  0.721500  0.543000  0.497100  1.0  0.1435
  C  C65  1  0.698500  0.430200  0.365400  1.0  0.6419
  C  C66  1  0.895800  0.710200  0.635400  1.0  0.7027
  C  C67  1  0.932800  0.721550  0.565100  1.0  -0.1258
  C  C68  1  0.915700  0.696720  0.491500  1.0  0.1833
  C  C69  1  0.948700  0.706600  0.427700  1.0  0.142
  C  C70  1  0.999200  0.741600  0.436800  1.0  -0.1246
  C  C71  1  0.016500  0.766400  0.510600  1.0  0.2024
  C  C72  1  0.983500  0.756500  0.575000  1.0  0.13
  C  C73  1  0.035800  0.755200  0.367600  1.0  0.6809
  C  C74  1  0.895200  0.709300  0.865500  1.0  0.668
  C  C75  1  0.932100  0.724000  0.936100  1.0  -0.1161
  C  C76  1  0.976500  0.722900  0.928500  1.0  0.129
  C  C77  1  0.008400  0.734500  0.994800  1.0  0.1359
  C  C78  1  0.995900  0.747300  0.068900  1.0  -0.0832
  C  C79  1  0.951400  0.748300  0.076400  1.0  0.1148
  C  C80  1  0.919500  0.736600  0.009600  1.0  0.1219
  C  C81  1  0.032000  0.758800  0.137100  1.0  0.6997
  C  C82  1  0.744500  0.569300  0.868500  1.0  0.6766
  C  C83  1  0.732300  0.533800  0.941800  1.0  -0.1214
  C  C84  1  0.756530  0.550580  0.016000  1.0  0.1723
  C  C85  1  0.746400  0.517070  0.079400  1.0  0.1369
  C  C86  1  0.711900  0.466400  0.068800  1.0  -0.0827
  C  C87  1  0.687500  0.449400  0.994600  1.0  0.238
  C  C88  1  0.697600  0.483200  0.931300  1.0  0.1754
  C  C89  1  0.567900  0.271300  0.138300  1.0  0.7151
  C  C90  1  0.434900  0.182100  0.642300  1.0  0.677
  C  C91  1  0.469650  0.204000  0.570700  1.0  -0.1135
  C  C92  1  0.514230  0.249500  0.578200  1.0  0.1081
  C  C93  1  0.546020  0.269400  0.511800  1.0  0.1221
  C  C94  1  0.533600  0.244200  0.438000  1.0  -0.1232
  C  C95  1  0.489000  0.198800  0.430800  1.0  0.1569
  C  C96  1  0.457000  0.178500  0.497100  1.0  0.1381
  C  C97  1  0.569800  0.268300  0.365400  1.0  0.6433
  C  C98  1  0.289800  0.185600  0.635400  1.0  0.7065
  C  C99  1  0.278450  0.211250  0.565100  1.0  -0.1265
  C  C100  1  0.303280  0.218980  0.491500  1.0  0.1847
  C  C101  1  0.293400  0.242100  0.427700  1.0  0.1441
  C  C102  1  0.258400  0.257600  0.436800  1.0  -0.1254
  C  C103  1  0.233600  0.250100  0.510600  1.0  0.2008
  C  C104  1  0.243500  0.227000  0.575000  1.0  0.1324
  C  C105  1  0.244800  0.280600  0.367600  1.0  0.6806
  C  C106  1  0.290700  0.185900  0.865500  1.0  0.6668
  C  C107  1  0.276000  0.208100  0.936100  1.0  -0.1167
  C  C108  1  0.277100  0.253600  0.928500  1.0  0.1266
  C  C109  1  0.265500  0.273900  0.994800  1.0  0.1333
  C  C110  1  0.252700  0.248600  0.068900  1.0  -0.0831
  C  C111  1  0.251700  0.203100  0.076400  1.0  0.1107
  C  C112  1  0.263400  0.182900  0.009600  1.0  0.1216
  C  C113  1  0.241200  0.273200  0.137100  1.0  0.7004
  C  C114  1  0.430700  0.175200  0.868500  1.0  0.6783
  C  C115  1  0.466200  0.198500  0.941800  1.0  -0.1208
  C  C116  1  0.449420  0.205950  0.016000  1.0  0.1716
  C  C117  1  0.482930  0.229330  0.079400  1.0  0.1378
  C  C118  1  0.533600  0.245500  0.068800  1.0  -0.0823
  C  C119  1  0.550600  0.238100  0.994600  1.0  0.2376
  C  C120  1  0.516800  0.214400  0.931300  1.0  0.1769
  C  C121  1  0.271300  0.703400  0.861700  1.0  0.7128
  C  C122  1  0.182100  0.747200  0.357700  1.0  0.6743
  C  C123  1  0.204000  0.734350  0.429300  1.0  -0.1139
  C  C124  1  0.249500  0.735270  0.421800  1.0  0.1077
  C  C125  1  0.269400  0.723380  0.488200  1.0  0.1219
  C  C126  1  0.244200  0.710600  0.562000  1.0  -0.1227
  C  C127  1  0.198800  0.709800  0.569200  1.0  0.1597
  C  C128  1  0.178500  0.721500  0.502900  1.0  0.1412
  C  C129  1  0.268300  0.698500  0.634600  1.0  0.6428
  C  C130  1  0.185600  0.895800  0.364600  1.0  0.702
  C  C131  1  0.211250  0.932800  0.434900  1.0  -0.1263
  C  C132  1  0.218980  0.915700  0.508500  1.0  0.1868
  C  C133  1  0.242100  0.948700  0.572300  1.0  0.1432
  C  C134  1  0.257600  0.999200  0.563200  1.0  -0.1258
  C  C135  1  0.250100  0.016500  0.489400  1.0  0.1988
  C  C136  1  0.227000  0.983500  0.425000  1.0  0.128
  C  C137  1  0.280600  0.035800  0.632400  1.0  0.6805
  C  C138  1  0.185900  0.895200  0.134500  1.0  0.6673
  C  C139  1  0.208100  0.932100  0.063900  1.0  -0.1171
  C  C140  1  0.253600  0.976500  0.071500  1.0  0.1286
  C  C141  1  0.273900  0.008400  0.005200  1.0  0.1375
  C  C142  1  0.248600  0.995900  0.931100  1.0  -0.0823
  C  C143  1  0.203100  0.951400  0.923600  1.0  0.1134
  C  C144  1  0.182900  0.919500  0.990400  1.0  0.1229
  C  C145  1  0.273200  0.032000  0.862900  1.0  0.7
  C  C146  1  0.175200  0.744500  0.131500  1.0  0.6771
  C  C147  1  0.198500  0.732300  0.058200  1.0  -0.122
  C  C148  1  0.205950  0.756530  0.984000  1.0  0.173
  C  C149  1  0.229330  0.746400  0.920600  1.0  0.1349
  C  C150  1  0.245500  0.711900  0.931200  1.0  -0.0826
  C  C151  1  0.238100  0.687500  0.005400  1.0  0.2387
  C  C152  1  0.214400  0.697600  0.068700  1.0  0.1772
  C  C153  1  0.296600  0.567900  0.861700  1.0  0.7128
  C  C154  1  0.252800  0.434900  0.357700  1.0  0.6764
  C  C155  1  0.265650  0.469650  0.429300  1.0  -0.1144
  C  C156  1  0.264730  0.514230  0.421800  1.0  0.1081
  C  C157  1  0.276620  0.546020  0.488200  1.0  0.1242
  C  C158  1  0.289400  0.533600  0.562000  1.0  -0.1233
  C  C159  1  0.290200  0.489000  0.569200  1.0  0.1588
  C  C160  1  0.278500  0.457000  0.502900  1.0  0.142
  C  C161  1  0.301500  0.569800  0.634600  1.0  0.642
  C  C162  1  0.104200  0.289800  0.364600  1.0  0.7061
  C  C163  1  0.067200  0.278450  0.434900  1.0  -0.1256
  C  C164  1  0.084300  0.303280  0.508500  1.0  0.1869
  C  C165  1  0.051300  0.293400  0.572300  1.0  0.1457
  C  C166  1  0.000800  0.258400  0.563200  1.0  -0.1249
  C  C167  1  0.983500  0.233600  0.489400  1.0  0.1991
  C  C168  1  0.016500  0.243500  0.425000  1.0  0.1273
  C  C169  1  0.964200  0.244800  0.632400  1.0  0.6804
  C  C170  1  0.104800  0.290700  0.134500  1.0  0.6677
  C  C171  1  0.067900  0.276000  0.063900  1.0  -0.1161
  C  C172  1  0.023500  0.277100  0.071500  1.0  0.1287
  C  C173  1  0.991600  0.265500  0.005200  1.0  0.1372
  C  C174  1  0.004100  0.252700  0.931100  1.0  -0.0829
  C  C175  1  0.048600  0.251700  0.923600  1.0  0.1131
  C  C176  1  0.080500  0.263400  0.990400  1.0  0.1218
  C  C177  1  0.968000  0.241200  0.862900  1.0  0.697
  C  C178  1  0.255500  0.430700  0.131500  1.0  0.6772
  C  C179  1  0.267700  0.466200  0.058200  1.0  -0.1214
  C  C180  1  0.243470  0.449420  0.984000  1.0  0.173
  C  C181  1  0.253600  0.482930  0.920600  1.0  0.134
  C  C182  1  0.288100  0.533600  0.931200  1.0  -0.0832
  C  C183  1  0.312500  0.550600  0.005400  1.0  0.2374
  C  C184  1  0.302400  0.516800  0.068700  1.0  0.1781
  C  C185  1  0.432100  0.728700  0.861700  1.0  0.713
  C  C186  1  0.565100  0.817900  0.357700  1.0  0.678
  C  C187  1  0.530350  0.796000  0.429300  1.0  -0.1137
  C  C188  1  0.485770  0.750500  0.421800  1.0  0.1065
  C  C189  1  0.453980  0.730600  0.488200  1.0  0.122
  C  C190  1  0.466400  0.755800  0.562000  1.0  -0.123
  C  C191  1  0.511000  0.801200  0.569200  1.0  0.159
  C  C192  1  0.543000  0.821500  0.502900  1.0  0.1394
  C  C193  1  0.430200  0.731700  0.634600  1.0  0.6431
  C  C194  1  0.710200  0.814400  0.364600  1.0  0.7052
  C  C195  1  0.721550  0.788750  0.434900  1.0  -0.1259
  C  C196  1  0.696720  0.781020  0.508500  1.0  0.1844
  C  C197  1  0.706600  0.757900  0.572300  1.0  0.1458
  C  C198  1  0.741600  0.742400  0.563200  1.0  -0.1251
  C  C199  1  0.766400  0.749900  0.489400  1.0  0.2009
  C  C200  1  0.756500  0.773000  0.425000  1.0  0.1302
  C  C201  1  0.755200  0.719400  0.632400  1.0  0.6797
  C  C202  1  0.709300  0.814100  0.134500  1.0  0.667
  C  C203  1  0.724000  0.791900  0.063900  1.0  -0.1165
  C  C204  1  0.722900  0.746400  0.071500  1.0  0.1265
  C  C205  1  0.734500  0.726100  0.005200  1.0  0.1329
  C  C206  1  0.747300  0.751400  0.931100  1.0  -0.0829
  C  C207  1  0.748300  0.796900  0.923600  1.0  0.1105
  C  C208  1  0.736600  0.817100  0.990400  1.0  0.1231
  C  C209  1  0.758800  0.726800  0.862900  1.0  0.7002
  C  C210  1  0.569300  0.824800  0.131500  1.0  0.6782
  C  C211  1  0.533800  0.801500  0.058200  1.0  -0.1204
  C  C212  1  0.550580  0.794050  0.984000  1.0  0.173
  C  C213  1  0.517070  0.770670  0.920600  1.0  0.1364
  C  C214  1  0.466400  0.754500  0.931200  1.0  -0.0837
  C  C215  1  0.449400  0.761900  0.005400  1.0  0.2384
  C  C216  1  0.483200  0.785600  0.068700  1.0  0.1792
  Cl  Cl217  1  0.720420  0.249290  0.670530  1.0  -0.059
  Cl  Cl218  1  0.674240  0.274930  0.521040  1.0  -0.0436
  Cl  Cl219  1  0.830990  0.306740  0.338860  1.0  -0.0746
  Cl  Cl220  1  0.877500  0.279220  0.486530  1.0  -0.0719
  Cl  Cl221  1  0.800160  0.146670  0.481530  1.0  -0.0515
  Cl  Cl222  1  0.747830  0.071060  0.335520  1.0  -0.0505
  Cl  Cl223  1  0.730480  0.921850  0.523000  1.0  -0.0618
  Cl  Cl224  1  0.783770  0.996660  0.667070  1.0  -0.0611
  Cl  Cl225  1  0.715910  0.008820  0.836840  1.0  -0.0615
  Cl  Cl226  1  0.669580  0.936770  0.984550  1.0  -0.044
  Cl  Cl227  1  0.827690  0.063320  0.168770  1.0  -0.0658
  Cl  Cl228  1  0.873610  0.135450  0.019720  1.0  -0.0446
  Cl  Cl229  1  0.813890  0.201140  0.027760  1.0  -0.0681
  Cl  Cl230  1  0.761360  0.223960  0.171250  1.0  -0.0485
  Cl  Cl231  1  0.741730  0.355070  0.982770  1.0  -0.0529
  Cl  Cl232  1  0.795000  0.331780  0.839020  1.0  -0.0615
  Cl  Cl233  1  0.750710  0.471130  0.670530  1.0  -0.0603
  Cl  Cl234  1  0.725070  0.399310  0.521040  1.0  -0.0427
  Cl  Cl235  1  0.693260  0.524250  0.338860  1.0  -0.0747
  Cl  Cl236  1  0.720780  0.598280  0.486530  1.0  -0.0782
  Cl  Cl237  1  0.853330  0.653490  0.481530  1.0  -0.0504
  Cl  Cl238  1  0.928940  0.676770  0.335520  1.0  -0.0499
  Cl  Cl239  1  0.078150  0.808630  0.523000  1.0  -0.0595
  Cl  Cl240  1  0.003340  0.787110  0.667070  1.0  -0.0645
  Cl  Cl241  1  0.991180  0.707090  0.836840  1.0  -0.0623
  Cl  Cl242  1  0.063230  0.732810  0.984550  1.0  -0.0435
  Cl  Cl243  1  0.936680  0.764370  0.168770  1.0  -0.0613
  Cl  Cl244  1  0.864550  0.738160  0.019720  1.0  -0.0483
  Cl  Cl245  1  0.798860  0.612750  0.027760  1.0  -0.0682
  Cl  Cl246  1  0.776040  0.537400  0.171250  1.0  -0.0451
  Cl  Cl247  1  0.644930  0.386660  0.982770  1.0  -0.0527
  Cl  Cl248  1  0.668220  0.463220  0.839020  1.0  -0.0603
  Cl  Cl249  1  0.528870  0.279580  0.670530  1.0  -0.0603
  Cl  Cl250  1  0.600690  0.325760  0.521040  1.0  -0.0422
  Cl  Cl251  1  0.475750  0.169010  0.338860  1.0  -0.0758
  Cl  Cl252  1  0.401720  0.122500  0.486530  1.0  -0.0723
  Cl  Cl253  1  0.346510  0.199840  0.481530  1.0  -0.0497
  Cl  Cl254  1  0.323230  0.252170  0.335520  1.0  -0.0497
  Cl  Cl255  1  0.191370  0.269520  0.523000  1.0  -0.059
  Cl  Cl256  1  0.212890  0.216230  0.667070  1.0  -0.0576
  Cl  Cl257  1  0.292910  0.284090  0.836840  1.0  -0.0631
  Cl  Cl258  1  0.267190  0.330420  0.984550  1.0  -0.0549
  Cl  Cl259  1  0.235630  0.172310  0.168770  1.0  -0.0656
  Cl  Cl260  1  0.261840  0.126390  0.019720  1.0  -0.0484
  Cl  Cl261  1  0.387250  0.186110  0.027760  1.0  -0.0668
  Cl  Cl262  1  0.462600  0.238640  0.171250  1.0  -0.0453
  Cl  Cl263  1  0.613340  0.258270  0.982770  1.0  -0.0518
  Cl  Cl264  1  0.536780  0.205000  0.839020  1.0  -0.0599
  Cl  Cl265  1  0.279580  0.750710  0.329470  1.0  -0.0598
  Cl  Cl266  1  0.325760  0.725070  0.478960  1.0  -0.0414
  Cl  Cl267  1  0.169010  0.693260  0.661140  1.0  -0.073
  Cl  Cl268  1  0.122500  0.720780  0.513470  1.0  -0.0721
  Cl  Cl269  1  0.199840  0.853330  0.518470  1.0  -0.0516
  Cl  Cl270  1  0.252170  0.928940  0.664480  1.0  -0.0495
  Cl  Cl271  1  0.269520  0.078150  0.477000  1.0  -0.0599
  Cl  Cl272  1  0.216230  0.003340  0.332930  1.0  -0.0595
  Cl  Cl273  1  0.284090  0.991180  0.163160  1.0  -0.0604
  Cl  Cl274  1  0.330420  0.063230  0.015450  1.0  -0.0426
  Cl  Cl275  1  0.172310  0.936680  0.831230  1.0  -0.0662
  Cl  Cl276  1  0.126390  0.864550  0.980280  1.0  -0.0432
  Cl  Cl277  1  0.186110  0.798860  0.972240  1.0  -0.0714
  Cl  Cl278  1  0.238640  0.776040  0.828750  1.0  -0.0478
  Cl  Cl279  1  0.258270  0.644930  0.017230  1.0  -0.0523
  Cl  Cl280  1  0.205000  0.668220  0.160980  1.0  -0.061
  Cl  Cl281  1  0.249290  0.528870  0.329470  1.0  -0.0609
  Cl  Cl282  1  0.274930  0.600690  0.478960  1.0  -0.0406
  Cl  Cl283  1  0.306740  0.475750  0.661140  1.0  -0.0748
  Cl  Cl284  1  0.279220  0.401720  0.513470  1.0  -0.0784
  Cl  Cl285  1  0.146670  0.346510  0.518470  1.0  -0.0486
  Cl  Cl286  1  0.071060  0.323230  0.664480  1.0  -0.0502
  Cl  Cl287  1  0.921850  0.191370  0.477000  1.0  -0.0581
  Cl  Cl288  1  0.996660  0.212890  0.332930  1.0  -0.0671
  Cl  Cl289  1  0.008820  0.292910  0.163160  1.0  -0.0596
  Cl  Cl290  1  0.936770  0.267190  0.015450  1.0  -0.0449
  Cl  Cl291  1  0.063320  0.235630  0.831230  1.0  -0.0631
  Cl  Cl292  1  0.135450  0.261840  0.980280  1.0  -0.0482
  Cl  Cl293  1  0.201140  0.387250  0.972240  1.0  -0.0721
  Cl  Cl294  1  0.223960  0.462600  0.828750  1.0  -0.0458
  Cl  Cl295  1  0.355070  0.613340  0.017230  1.0  -0.0525
  Cl  Cl296  1  0.331780  0.536780  0.160980  1.0  -0.058
  Cl  Cl297  1  0.471130  0.720420  0.329470  1.0  -0.0609
  Cl  Cl298  1  0.399310  0.674240  0.478960  1.0  -0.0441
  Cl  Cl299  1  0.524250  0.830990  0.661140  1.0  -0.0741
  Cl  Cl300  1  0.598280  0.877500  0.513470  1.0  -0.0727
  Cl  Cl301  1  0.653490  0.800160  0.518470  1.0  -0.0499
  Cl  Cl302  1  0.676770  0.747830  0.664480  1.0  -0.0495
  Cl  Cl303  1  0.808630  0.730480  0.477000  1.0  -0.0577
  Cl  Cl304  1  0.787110  0.783770  0.332930  1.0  -0.059
  Cl  Cl305  1  0.707090  0.715910  0.163160  1.0  -0.0626
  Cl  Cl306  1  0.732810  0.669580  0.015450  1.0  -0.0563
  Cl  Cl307  1  0.764370  0.827690  0.831230  1.0  -0.0665
  Cl  Cl308  1  0.738160  0.873610  0.980280  1.0  -0.0502
  Cl  Cl309  1  0.612750  0.813890  0.972240  1.0  -0.0723
  Cl  Cl310  1  0.537400  0.761360  0.828750  1.0  -0.0465
  Cl  Cl311  1  0.386660  0.741730  0.017230  1.0  -0.0507
  Cl  Cl312  1  0.463220  0.795000  0.160980  1.0  -0.0591
  O  O313  1  0.863900  0.198200  0.753000  1.0  -0.9434
  O  O314  1  0.792500  0.205000  0.658600  1.0  -0.6076
  O  O315  1  0.856400  0.283000  0.675200  1.0  -0.5523
  O  O316  1  0.697100  0.266800  0.330100  1.0  -0.5651
  O  O317  1  0.751500  0.349100  0.353200  1.0  -0.5916
  O  O318  1  0.784100  0.113200  0.676600  1.0  -0.6307
  O  O319  1  0.857000  0.117500  0.650200  1.0  -0.5132
  O  O320  1  0.673700  0.949400  0.351500  1.0  -0.5747
  O  O321  1  0.748400  0.953200  0.332700  1.0  -0.6022
  O  O322  1  0.790700  0.127200  0.851700  1.0  -0.5774
  O  O323  1  0.849800  0.105500  0.824900  1.0  -0.5999
  O  O324  1  0.750900  0.945800  0.155600  1.0  -0.6285
  O  O325  1  0.691800  0.964300  0.171900  1.0  -0.578
  O  O326  1  0.792500  0.216900  0.831000  1.0  -0.6174
  O  O327  1  0.870500  0.281400  0.853900  1.0  -0.5577
  O  O328  1  0.685400  0.266700  0.151600  1.0  -0.5462
  O  O329  1  0.756100  0.337600  0.174000  1.0  -0.6218
  O  O330  1  0.801800  0.665700  0.753000  1.0  -0.9422
  O  O331  1  0.795000  0.587500  0.658600  1.0  -0.6049
  O  O332  1  0.717000  0.573400  0.675200  1.0  -0.5535
  O  O333  1  0.733200  0.430300  0.330100  1.0  -0.5669
  O  O334  1  0.650900  0.402400  0.353200  1.0  -0.5887
  O  O335  1  0.886800  0.670900  0.676600  1.0  -0.6325
  O  O336  1  0.882500  0.739500  0.650200  1.0  -0.5142
  O  O337  1  0.050600  0.724300  0.351500  1.0  -0.5776
  O  O338  1  0.046800  0.795200  0.332700  1.0  -0.6053
  O  O339  1  0.872800  0.663500  0.851700  1.0  -0.5812
  O  O340  1  0.894500  0.744300  0.824900  1.0  -0.5991
  O  O341  1  0.054200  0.805100  0.155600  1.0  -0.6363
  O  O342  1  0.035700  0.727500  0.171900  1.0  -0.5796
  O  O343  1  0.783100  0.575600  0.831000  1.0  -0.6177
  O  O344  1  0.718600  0.589100  0.853900  1.0  -0.5567
  O  O345  1  0.733300  0.418700  0.151600  1.0  -0.5434
  O  O346  1  0.662400  0.418500  0.174000  1.0  -0.621
  O  O347  1  0.334300  0.136100  0.753000  1.0  -0.942
  O  O348  1  0.412500  0.207500  0.658600  1.0  -0.6066
  O  O349  1  0.426600  0.143600  0.675200  1.0  -0.5548
  O  O350  1  0.569700  0.302900  0.330100  1.0  -0.5644
  O  O351  1  0.597600  0.248500  0.353200  1.0  -0.5927
  O  O352  1  0.329100  0.215900  0.676600  1.0  -0.6315
  O  O353  1  0.260500  0.143000  0.650200  1.0  -0.5147
  O  O354  1  0.275700  0.326300  0.351500  1.0  -0.5777
  O  O355  1  0.204800  0.251600  0.332700  1.0  -0.6043
  O  O356  1  0.336500  0.209300  0.851700  1.0  -0.5787
  O  O357  1  0.255700  0.150200  0.824900  1.0  -0.5983
  O  O358  1  0.194900  0.249100  0.155600  1.0  -0.6315
  O  O359  1  0.272500  0.308200  0.171900  1.0  -0.5804
  O  O360  1  0.424400  0.207500  0.831000  1.0  -0.6177
  O  O361  1  0.410900  0.129500  0.853900  1.0  -0.5597
  O  O362  1  0.581300  0.314600  0.151600  1.0  -0.5448
  O  O363  1  0.581500  0.243900  0.174000  1.0  -0.6207
  O  O364  1  0.136100  0.801800  0.247000  1.0  -0.9425
  O  O365  1  0.207500  0.795000  0.341400  1.0  -0.6082
  O  O366  1  0.143600  0.717000  0.324800  1.0  -0.5515
  O  O367  1  0.302900  0.733200  0.669900  1.0  -0.5653
  O  O368  1  0.248500  0.650900  0.646800  1.0  -0.5928
  O  O369  1  0.215900  0.886800  0.323400  1.0  -0.6299
  O  O370  1  0.143000  0.882500  0.349800  1.0  -0.5137
  O  O371  1  0.326300  0.050600  0.648500  1.0  -0.5747
  O  O372  1  0.251600  0.046800  0.667300  1.0  -0.6049
  O  O373  1  0.209300  0.872800  0.148300  1.0  -0.5786
  O  O374  1  0.150200  0.894500  0.175100  1.0  -0.5992
  O  O375  1  0.249100  0.054200  0.844400  1.0  -0.6284
  O  O376  1  0.308200  0.035700  0.828100  1.0  -0.5808
  O  O377  1  0.207500  0.783100  0.169000  1.0  -0.6195
  O  O378  1  0.129500  0.718600  0.146100  1.0  -0.5589
  O  O379  1  0.314600  0.733300  0.848400  1.0  -0.5441
  O  O380  1  0.243900  0.662400  0.826000  1.0  -0.6198
  O  O381  1  0.198200  0.334300  0.247000  1.0  -0.9426
  O  O382  1  0.205000  0.412500  0.341400  1.0  -0.6069
  O  O383  1  0.283000  0.426600  0.324800  1.0  -0.552
  O  O384  1  0.266800  0.569700  0.669900  1.0  -0.5655
  O  O385  1  0.349100  0.597600  0.646800  1.0  -0.5887
  O  O386  1  0.113200  0.329100  0.323400  1.0  -0.6313
  O  O387  1  0.117500  0.260500  0.349800  1.0  -0.5161
  O  O388  1  0.949400  0.275700  0.648500  1.0  -0.5768
  O  O389  1  0.953200  0.204800  0.667300  1.0  -0.6053
  O  O390  1  0.127200  0.336500  0.148300  1.0  -0.5802
  O  O391  1  0.105500  0.255700  0.175100  1.0  -0.5988
  O  O392  1  0.945800  0.194900  0.844400  1.0  -0.6346
  O  O393  1  0.964300  0.272500  0.828100  1.0  -0.5776
  O  O394  1  0.216900  0.424400  0.169000  1.0  -0.6185
  O  O395  1  0.281400  0.410900  0.146100  1.0  -0.5562
  O  O396  1  0.266700  0.581300  0.848400  1.0  -0.5442
  O  O397  1  0.337600  0.581500  0.826000  1.0  -0.6187
  O  O398  1  0.665700  0.863900  0.247000  1.0  -0.9422
  O  O399  1  0.587500  0.792500  0.341400  1.0  -0.6031
  O  O400  1  0.573400  0.856400  0.324800  1.0  -0.554
  O  O401  1  0.430300  0.697100  0.669900  1.0  -0.566
  O  O402  1  0.402400  0.751500  0.646800  1.0  -0.5935
  O  O403  1  0.670900  0.784100  0.323400  1.0  -0.631
  O  O404  1  0.739500  0.857000  0.349800  1.0  -0.5154
  O  O405  1  0.724300  0.673700  0.648500  1.0  -0.5788
  O  O406  1  0.795200  0.748400  0.667300  1.0  -0.605
  O  O407  1  0.663500  0.790700  0.148300  1.0  -0.5766
  O  O408  1  0.744300  0.849800  0.175100  1.0  -0.5987
  O  O409  1  0.805100  0.750900  0.844400  1.0  -0.6294
  O  O410  1  0.727500  0.691800  0.828100  1.0  -0.5801
  O  O411  1  0.575600  0.792500  0.169000  1.0  -0.6178
  O  O412  1  0.589100  0.870500  0.146100  1.0  -0.5589
  O  O413  1  0.418700  0.685400  0.848400  1.0  -0.5457
  O  O414  1  0.418500  0.756100  0.826000  1.0  -0.6186
  O  O415  1  0.666667  0.333333  0.253000  1.0  -1.0113
  O  O416  1  0.333333  0.666667  0.747000  1.0  -1.0112
