# generated using pymatgen
data_CdH3C6(NO2)2
_symmetry_space_group_name_H-M   'P 1'
_cell_length_a   16.31800000
_cell_length_b   16.31800000
_cell_length_c   6.50800000
_cell_angle_alpha   90.00000000
_cell_angle_beta   90.00000000
_cell_angle_gamma   90.00000000
_symmetry_Int_Tables_number   1
_chemical_formula_structural   CdH3C6(NO2)2
_chemical_formula_sum   'Cd8 H24 C48 N16 O32'
_cell_volume   1732.93152299
_cell_formula_units_Z   8
loop_
 _symmetry_equiv_pos_site_id
 _symmetry_equiv_pos_as_xyz
  1  'x, y, z'
loop_
 _atom_site_type_symbol
 _atom_site_label
 _atom_site_symmetry_multiplicity
 _atom_site_fract_x
 _atom_site_fract_y
 _atom_site_fract_z
 _atom_site_occupancy
 _atom_site_charge
  Cd  Cd1  1  0.705380  0.294620  0.000000  1.0  1.0384
  Cd  Cd2  1  0.294620  0.705380  0.000000  1.0  1.039
  Cd  Cd3  1  0.794620  0.205380  0.500000  1.0  1.0391
  Cd  Cd4  1  0.205380  0.794620  0.500000  1.0  1.0382
  Cd  Cd5  1  0.794620  0.794620  0.500000  1.0  1.056
  Cd  Cd6  1  0.205380  0.205380  0.500000  1.0  1.0155
  Cd  Cd7  1  0.294620  0.294620  0.000000  1.0  1.056
  Cd  Cd8  1  0.705380  0.705380  0.000000  1.0  1.0155
  H  H9  1  0.564850  0.619320  0.709410  1.0  0.1572
  H  H10  1  0.477540  0.681080  0.609800  1.0  0.1645
  H  H11  1  0.457610  0.586610  0.762170  1.0  0.1571
  H  H12  1  0.564850  0.361320  0.678180  1.0  0.1664
  H  H13  1  0.477540  0.423070  0.777780  1.0  0.1516
  H  H14  1  0.457610  0.328600  0.625420  1.0  0.1663
  H  H15  1  0.619320  0.564850  0.290590  1.0  0.1585
  H  H16  1  0.681080  0.477540  0.390200  1.0  0.1643
  H  H17  1  0.586610  0.457610  0.237830  1.0  0.1566
  H  H18  1  0.361320  0.564850  0.321820  1.0  0.1651
  H  H19  1  0.423070  0.477540  0.222220  1.0  0.1501
  H  H20  1  0.328600  0.457610  0.374580  1.0  0.1671
  H  H21  1  0.119320  0.064850  0.209410  1.0  0.1576
  H  H22  1  0.181080  0.977540  0.109800  1.0  0.1651
  H  H23  1  0.086610  0.957610  0.262170  1.0  0.1566
  H  H24  1  0.861320  0.064850  0.178180  1.0  0.1651
  H  H25  1  0.923070  0.977540  0.277780  1.0  0.1503
  H  H26  1  0.828600  0.957610  0.125420  1.0  0.1665
  H  H27  1  0.064850  0.119320  0.790590  1.0  0.1584
  H  H28  1  0.977540  0.181080  0.890200  1.0  0.1638
  H  H29  1  0.957610  0.086610  0.737830  1.0  0.1571
  H  H30  1  0.064850  0.861320  0.821820  1.0  0.1669
  H  H31  1  0.977540  0.923070  0.722220  1.0  0.1515
  H  H32  1  0.957610  0.828600  0.874580  1.0  0.167
  C  C33  1  0.602200  0.784600  0.361600  1.0  0.7133
  C  C34  1  0.542200  0.754000  0.210200  1.0  0.0732
  C  C35  1  0.397800  0.215400  0.361600  1.0  0.7292
  C  C36  1  0.457800  0.246000  0.210200  1.0  0.0647
  C  C37  1  0.715400  0.102200  0.861600  1.0  0.6861
  C  C38  1  0.746000  0.042200  0.710200  1.0  0.0595
  C  C39  1  0.284600  0.897800  0.861600  1.0  0.7171
  C  C40  1  0.254000  0.957800  0.710200  1.0  0.0544
  C  C41  1  0.500000  0.691600  0.937800  1.0  0.4054
  C  C42  1  0.500000  0.641600  0.742900  1.0  -0.4278
  C  C43  1  0.500000  0.308400  0.937800  1.0  0.4146
  C  C44  1  0.500000  0.358400  0.742900  1.0  -0.4238
  C  C45  1  0.784600  0.602200  0.638400  1.0  0.7143
  C  C46  1  0.754000  0.542200  0.789800  1.0  0.0735
  C  C47  1  0.215400  0.397800  0.638400  1.0  0.7297
  C  C48  1  0.246000  0.457800  0.789800  1.0  0.0656
  C  C49  1  0.102200  0.715400  0.138400  1.0  0.6827
  C  C50  1  0.042200  0.746000  0.289800  1.0  0.0589
  C  C51  1  0.897800  0.284600  0.138400  1.0  0.7153
  C  C52  1  0.957800  0.254000  0.289800  1.0  0.0547
  C  C53  1  0.691600  0.500000  0.062200  1.0  0.4047
  C  C54  1  0.641600  0.500000  0.257100  1.0  -0.4293
  C  C55  1  0.308400  0.500000  0.062200  1.0  0.4147
  C  C56  1  0.358400  0.500000  0.257100  1.0  -0.4253
  C  C57  1  0.284600  0.102200  0.861600  1.0  0.7148
  C  C58  1  0.254000  0.042200  0.710200  1.0  0.074
  C  C59  1  0.715400  0.897800  0.861600  1.0  0.7305
  C  C60  1  0.746000  0.957800  0.710200  1.0  0.066
  C  C61  1  0.602200  0.215400  0.361600  1.0  0.6835
  C  C62  1  0.542200  0.246000  0.210200  1.0  0.0584
  C  C63  1  0.397800  0.784600  0.361600  1.0  0.7149
  C  C64  1  0.457800  0.754000  0.210200  1.0  0.0542
  C  C65  1  0.191600  0.000000  0.437800  1.0  0.4045
  C  C66  1  0.141600  0.000000  0.242900  1.0  -0.4294
  C  C67  1  0.808400  0.000000  0.437800  1.0  0.4153
  C  C68  1  0.858400  0.000000  0.242900  1.0  -0.4253
  C  C69  1  0.102200  0.284600  0.138400  1.0  0.7131
  C  C70  1  0.042200  0.254000  0.289800  1.0  0.0738
  C  C71  1  0.897800  0.715400  0.138400  1.0  0.7279
  C  C72  1  0.957800  0.746000  0.289800  1.0  0.0654
  C  C73  1  0.215400  0.602200  0.638400  1.0  0.6861
  C  C74  1  0.246000  0.542200  0.789800  1.0  0.0592
  C  C75  1  0.784600  0.397800  0.638400  1.0  0.7166
  C  C76  1  0.754000  0.457800  0.789800  1.0  0.0542
  C  C77  1  0.000000  0.191600  0.562200  1.0  0.4041
  C  C78  1  0.000000  0.141600  0.757100  1.0  -0.4277
  C  C79  1  0.000000  0.808400  0.562200  1.0  0.4141
  C  C80  1  0.000000  0.858400  0.757100  1.0  -0.4238
  N  N81  1  0.568600  0.714100  0.037500  1.0  -0.4053
  N  N82  1  0.431400  0.285900  0.037500  1.0  -0.4297
  N  N83  1  0.785900  0.068600  0.537500  1.0  -0.4046
  N  N84  1  0.214100  0.931400  0.537500  1.0  -0.4389
  N  N85  1  0.714100  0.568600  0.962500  1.0  -0.4093
  N  N86  1  0.285900  0.431400  0.962500  1.0  -0.4298
  N  N87  1  0.068600  0.785900  0.462500  1.0  -0.4012
  N  N88  1  0.931400  0.214100  0.462500  1.0  -0.4387
  N  N89  1  0.214100  0.068600  0.537500  1.0  -0.4086
  N  N90  1  0.785900  0.931400  0.537500  1.0  -0.4348
  N  N91  1  0.568600  0.285900  0.037500  1.0  -0.4007
  N  N92  1  0.431400  0.714100  0.037500  1.0  -0.4362
  N  N93  1  0.068600  0.214100  0.462500  1.0  -0.4058
  N  N94  1  0.931400  0.785900  0.462500  1.0  -0.4352
  N  N95  1  0.285900  0.568600  0.962500  1.0  -0.4052
  N  N96  1  0.714100  0.431400  0.962500  1.0  -0.4366
  O  O97  1  0.676860  0.767150  0.326800  1.0  -0.595
  O  O98  1  0.579300  0.825300  0.517100  1.0  -0.4704
  O  O99  1  0.323140  0.232850  0.326800  1.0  -0.6035
  O  O100  1  0.420700  0.174700  0.517100  1.0  -0.5452
  O  O101  1  0.732850  0.176860  0.826800  1.0  -0.5978
  O  O102  1  0.674700  0.079300  0.017100  1.0  -0.4464
  O  O103  1  0.267150  0.823140  0.826800  1.0  -0.6112
  O  O104  1  0.325300  0.920700  0.017100  1.0  -0.5491
  O  O105  1  0.767150  0.676860  0.673200  1.0  -0.6006
  O  O106  1  0.825300  0.579300  0.482900  1.0  -0.472
  O  O107  1  0.232850  0.323140  0.673200  1.0  -0.6083
  O  O108  1  0.174700  0.420700  0.482900  1.0  -0.5452
  O  O109  1  0.176860  0.732850  0.173200  1.0  -0.5927
  O  O110  1  0.079300  0.674700  0.982900  1.0  -0.4471
  O  O111  1  0.823140  0.267150  0.173200  1.0  -0.6069
  O  O112  1  0.920700  0.325300  0.982900  1.0  -0.5455
  O  O113  1  0.267150  0.176860  0.826800  1.0  -0.6007
  O  O114  1  0.325300  0.079300  0.017100  1.0  -0.4777
  O  O115  1  0.732850  0.823140  0.826800  1.0  -0.6087
  O  O116  1  0.674700  0.920700  0.017100  1.0  -0.5461
  O  O117  1  0.676860  0.232850  0.326800  1.0  -0.5924
  O  O118  1  0.579300  0.174700  0.517100  1.0  -0.4473
  O  O119  1  0.323140  0.767150  0.326800  1.0  -0.6073
  O  O120  1  0.420700  0.825300  0.517100  1.0  -0.5462
  O  O121  1  0.176860  0.267150  0.173200  1.0  -0.5953
  O  O122  1  0.079300  0.325300  0.982900  1.0  -0.4687
  O  O123  1  0.823140  0.732850  0.173200  1.0  -0.604
  O  O124  1  0.920700  0.674700  0.982900  1.0  -0.5443
  O  O125  1  0.232850  0.676860  0.673200  1.0  -0.598
  O  O126  1  0.174700  0.579300  0.482900  1.0  -0.4471
  O  O127  1  0.767150  0.323140  0.673200  1.0  -0.6116
  O  O128  1  0.825300  0.420700  0.482900  1.0  -0.5457
