# generated using pymatgen
data_Co12H66C90N15O43
_symmetry_space_group_name_H-M   'P 1'
_cell_length_a   16.36930000
_cell_length_b   24.80300000
_cell_length_c   24.80300000
_cell_angle_alpha   120.00000000
_cell_angle_beta   90.00000000
_cell_angle_gamma   90.00000000
_symmetry_Int_Tables_number   1
_chemical_formula_structural   Co12H66C90N15O43
_chemical_formula_sum   'Co24 H132 C180 N30 O86'
_cell_volume   8721.05782968
_cell_formula_units_Z   2
loop_
 _symmetry_equiv_pos_site_id
 _symmetry_equiv_pos_as_xyz
  1  'x, y, z'
loop_
 _atom_site_type_symbol
 _atom_site_label
 _atom_site_symmetry_multiplicity
 _atom_site_fract_x
 _atom_site_fract_y
 _atom_site_fract_z
 _atom_site_occupancy
 _atom_site_charge
  Co  Co1  1  0.346380  0.343450  0.107630  1.0  1.0064
  Co  Co2  1  0.346380  0.764180  0.656550  1.0  1.0068
  Co  Co3  1  0.346380  0.892370  0.235820  1.0  1.0065
  Co  Co4  1  0.846380  0.656550  0.892370  1.0  1.0072
  Co  Co5  1  0.846380  0.235820  0.343450  1.0  1.0093
  Co  Co6  1  0.846380  0.107630  0.764180  1.0  1.0062
  Co  Co7  1  0.653620  0.656550  0.892370  1.0  1.0064
  Co  Co8  1  0.653620  0.235820  0.343450  1.0  1.0082
  Co  Co9  1  0.653620  0.107630  0.764180  1.0  1.0052
  Co  Co10  1  0.153620  0.343450  0.107630  1.0  1.0052
  Co  Co11  1  0.153620  0.764180  0.656550  1.0  1.006
  Co  Co12  1  0.153620  0.892370  0.235820  1.0  1.0054
  Co  Co13  1  0.750000  0.641020  0.241820  1.0  0.9867
  Co  Co14  1  0.750000  0.600800  0.358980  1.0  0.9862
  Co  Co15  1  0.750000  0.758180  0.399200  1.0  0.9864
  Co  Co16  1  0.250000  0.358980  0.758180  1.0  0.9865
  Co  Co17  1  0.250000  0.399200  0.641020  1.0  0.9865
  Co  Co18  1  0.250000  0.241820  0.600800  1.0  0.9869
  Co  Co19  1  0.250000  0.201570  0.080080  1.0  1.0079
  Co  Co20  1  0.250000  0.878510  0.798430  1.0  1.0085
  Co  Co21  1  0.250000  0.919920  0.121490  1.0  1.0088
  Co  Co22  1  0.750000  0.798430  0.919920  1.0  1.0057
  Co  Co23  1  0.750000  0.121490  0.201570  1.0  1.0121
  Co  Co24  1  0.750000  0.080080  0.878510  1.0  1.0089
  H  H25  1  0.631600  0.615500  0.135500  1.0  0.0887
  H  H26  1  0.625900  0.614100  0.042600  1.0  0.1332
  H  H27  1  0.419700  0.427300  0.238500  1.0  0.1037
  H  H28  1  0.524600  0.494300  0.286500  1.0  0.112
  H  H29  1  0.570400  0.494400  0.127900  1.0  0.1382
  H  H30  1  0.465100  0.425400  0.083400  1.0  0.0845
  H  H31  1  0.379900  0.275500  0.965300  1.0  0.0878
  H  H32  1  0.476600  0.216800  0.893100  1.0  0.1094
  H  H33  1  0.615500  0.228500  0.032800  1.0  0.1347
  H  H34  1  0.514500  0.285200  0.099500  1.0  0.0818
  H  H35  1  0.631600  0.520000  0.384500  1.0  0.0881
  H  H36  1  0.625900  0.428500  0.385900  1.0  0.134
  H  H37  1  0.419700  0.811200  0.572700  1.0  0.1066
  H  H38  1  0.524600  0.792200  0.505700  1.0  0.1119
  H  H39  1  0.570400  0.633500  0.505600  1.0  0.1391
  H  H40  1  0.465100  0.658000  0.574600  1.0  0.085
  H  H41  1  0.379900  0.689800  0.724500  1.0  0.0884
  H  H42  1  0.476600  0.676300  0.783200  1.0  0.1087
  H  H43  1  0.615500  0.804300  0.771500  1.0  0.1345
  H  H44  1  0.514500  0.814300  0.714800  1.0  0.0814
  H  H45  1  0.631600  0.864500  0.480000  1.0  0.0885
  H  H46  1  0.625900  0.957400  0.571500  1.0  0.1356
  H  H47  1  0.419700  0.761500  0.188800  1.0  0.1041
  H  H48  1  0.524600  0.713500  0.207800  1.0  0.1112
  H  H49  1  0.570400  0.872100  0.366500  1.0  0.1384
  H  H50  1  0.465100  0.916600  0.342000  1.0  0.0875
  H  H51  1  0.379900  0.034700  0.310200  1.0  0.0885
  H  H52  1  0.476600  0.106900  0.323700  1.0  0.1085
  H  H53  1  0.615500  0.967200  0.195700  1.0  0.1342
  H  H54  1  0.514500  0.900500  0.185700  1.0  0.0816
  H  H55  1  0.131600  0.384500  0.864500  1.0  0.0885
  H  H56  1  0.125900  0.385900  0.957400  1.0  0.1329
  H  H57  1  0.919700  0.572700  0.761500  1.0  0.1036
  H  H58  1  0.024600  0.505700  0.713500  1.0  0.1118
  H  H59  1  0.070400  0.505600  0.872100  1.0  0.1384
  H  H60  1  0.965100  0.574600  0.916600  1.0  0.0851
  H  H61  1  0.879900  0.724500  0.034700  1.0  0.0872
  H  H62  1  0.976600  0.783200  0.106900  1.0  0.1093
  H  H63  1  0.115500  0.771500  0.967200  1.0  0.1346
  H  H64  1  0.014500  0.714800  0.900500  1.0  0.0829
  H  H65  1  0.131600  0.480000  0.615500  1.0  0.0884
  H  H66  1  0.125900  0.571500  0.614100  1.0  0.134
  H  H67  1  0.919700  0.188800  0.427300  1.0  0.1056
  H  H68  1  0.024600  0.207800  0.494300  1.0  0.1125
  H  H69  1  0.070400  0.366500  0.494400  1.0  0.139
  H  H70  1  0.965100  0.342000  0.425400  1.0  0.0856
  H  H71  1  0.879900  0.310200  0.275500  1.0  0.089
  H  H72  1  0.976600  0.323700  0.216800  1.0  0.1083
  H  H73  1  0.115500  0.195700  0.228500  1.0  0.134
  H  H74  1  0.014500  0.185700  0.285200  1.0  0.0811
  H  H75  1  0.131600  0.135500  0.520000  1.0  0.0886
  H  H76  1  0.125900  0.042600  0.428500  1.0  0.1351
  H  H77  1  0.919700  0.238500  0.811200  1.0  0.1051
  H  H78  1  0.024600  0.286500  0.792200  1.0  0.1108
  H  H79  1  0.070400  0.127900  0.633500  1.0  0.1384
  H  H80  1  0.965100  0.083400  0.658000  1.0  0.0874
  H  H81  1  0.879900  0.965300  0.689800  1.0  0.0883
  H  H82  1  0.976600  0.893100  0.676300  1.0  0.1083
  H  H83  1  0.115500  0.032800  0.804300  1.0  0.1345
  H  H84  1  0.014500  0.099500  0.814300  1.0  0.0819
  H  H85  1  0.368400  0.384500  0.864500  1.0  0.0886
  H  H86  1  0.374100  0.385900  0.957400  1.0  0.1332
  H  H87  1  0.580300  0.572700  0.761500  1.0  0.1038
  H  H88  1  0.475400  0.505700  0.713500  1.0  0.1122
  H  H89  1  0.429600  0.505600  0.872100  1.0  0.1383
  H  H90  1  0.534900  0.574600  0.916600  1.0  0.0854
  H  H91  1  0.620100  0.724500  0.034700  1.0  0.0877
  H  H92  1  0.523400  0.783200  0.106900  1.0  0.1096
  H  H93  1  0.384500  0.771500  0.967200  1.0  0.1348
  H  H94  1  0.485500  0.714800  0.900500  1.0  0.083
  H  H95  1  0.368400  0.480000  0.615500  1.0  0.0885
  H  H96  1  0.374100  0.571500  0.614100  1.0  0.1338
  H  H97  1  0.580300  0.188800  0.427300  1.0  0.1058
  H  H98  1  0.475400  0.207800  0.494300  1.0  0.1126
  H  H99  1  0.429600  0.366500  0.494400  1.0  0.1391
  H  H100  1  0.534900  0.342000  0.425400  1.0  0.0856
  H  H101  1  0.620100  0.310200  0.275500  1.0  0.0895
  H  H102  1  0.523400  0.323700  0.216800  1.0  0.1085
  H  H103  1  0.384500  0.195700  0.228500  1.0  0.1345
  H  H104  1  0.485500  0.185700  0.285200  1.0  0.0815
  H  H105  1  0.368400  0.135500  0.520000  1.0  0.0891
  H  H106  1  0.374100  0.042600  0.428500  1.0  0.1348
  H  H107  1  0.580300  0.238500  0.811200  1.0  0.1053
  H  H108  1  0.475400  0.286500  0.792200  1.0  0.1112
  H  H109  1  0.429600  0.127900  0.633500  1.0  0.1382
  H  H110  1  0.534900  0.083400  0.658000  1.0  0.0871
  H  H111  1  0.620100  0.965300  0.689800  1.0  0.0885
  H  H112  1  0.523400  0.893100  0.676300  1.0  0.1088
  H  H113  1  0.384500  0.032800  0.804300  1.0  0.1344
  H  H114  1  0.485500  0.099500  0.814300  1.0  0.0823
  H  H115  1  0.868400  0.615500  0.135500  1.0  0.0893
  H  H116  1  0.874100  0.614100  0.042600  1.0  0.1328
  H  H117  1  0.080300  0.427300  0.238500  1.0  0.1039
  H  H118  1  0.975400  0.494300  0.286500  1.0  0.1123
  H  H119  1  0.929600  0.494400  0.127900  1.0  0.1381
  H  H120  1  0.034900  0.425400  0.083400  1.0  0.0847
  H  H121  1  0.120100  0.275500  0.965300  1.0  0.0881
  H  H122  1  0.023400  0.216800  0.893100  1.0  0.1096
  H  H123  1  0.884500  0.228500  0.032800  1.0  0.1349
  H  H124  1  0.985500  0.285200  0.099500  1.0  0.0823
  H  H125  1  0.868400  0.520000  0.384500  1.0  0.0887
  H  H126  1  0.874100  0.428500  0.385900  1.0  0.1336
  H  H127  1  0.080300  0.811200  0.572700  1.0  0.107
  H  H128  1  0.975400  0.792200  0.505700  1.0  0.1124
  H  H129  1  0.929600  0.633500  0.505600  1.0  0.1389
  H  H130  1  0.034900  0.658000  0.574600  1.0  0.0854
  H  H131  1  0.120100  0.689800  0.724500  1.0  0.0888
  H  H132  1  0.023400  0.676300  0.783200  1.0  0.109
  H  H133  1  0.884500  0.804300  0.771500  1.0  0.1346
  H  H134  1  0.985500  0.814300  0.714800  1.0  0.0815
  H  H135  1  0.868400  0.864500  0.480000  1.0  0.0887
  H  H136  1  0.874100  0.957400  0.571500  1.0  0.1356
  H  H137  1  0.080300  0.761500  0.188800  1.0  0.1045
  H  H138  1  0.975400  0.713500  0.207800  1.0  0.1118
  H  H139  1  0.929600  0.872100  0.366500  1.0  0.1385
  H  H140  1  0.034900  0.916600  0.342000  1.0  0.0875
  H  H141  1  0.120100  0.034700  0.310200  1.0  0.0888
  H  H142  1  0.023400  0.106900  0.323700  1.0  0.1088
  H  H143  1  0.884500  0.967200  0.195700  1.0  0.1345
  H  H144  1  0.985500  0.900500  0.185700  1.0  0.0817
  H  H145  1  0.250000  0.264800  0.030500  1.0  0.4612
  H  H146  1  0.250000  0.409500  0.212400  1.0  0.4652
  H  H147  1  0.250000  0.765700  0.735200  1.0  0.4651
  H  H148  1  0.250000  0.802900  0.590500  1.0  0.4641
  H  H149  1  0.250000  0.969500  0.234300  1.0  0.4637
  H  H150  1  0.250000  0.787600  0.197100  1.0  0.4667
  H  H151  1  0.750000  0.735200  0.969500  1.0  0.4616
  H  H152  1  0.750000  0.590500  0.787600  1.0  0.4639
  H  H153  1  0.750000  0.234300  0.264800  1.0  0.4656
  H  H154  1  0.750000  0.197100  0.409500  1.0  0.4665
  H  H155  1  0.750000  0.030500  0.765700  1.0  0.464
  H  H156  1  0.750000  0.212400  0.802900  1.0  0.4669
  C  C157  1  0.680300  0.616400  0.116600  1.0  0.1931
  C  C158  1  0.676000  0.614500  0.060300  1.0  -0.083
  C  C159  1  0.451400  0.440200  0.215900  1.0  0.1526
  C  C160  1  0.513500  0.481100  0.244900  1.0  -0.0525
  C  C161  1  0.560200  0.503400  0.214200  1.0  -0.0957
  C  C162  1  0.541000  0.481100  0.151200  1.0  -0.1317
  C  C163  1  0.477900  0.439200  0.124800  1.0  0.1922
  C  C164  1  0.632600  0.546700  0.244200  1.0  0.7614
  C  C165  1  0.428000  0.266200  0.978800  1.0  0.1755
  C  C166  1  0.485900  0.230200  0.934900  1.0  -0.0954
  C  C167  1  0.555300  0.214400  0.952100  1.0  -0.0888
  C  C168  1  0.567800  0.237300  0.018300  1.0  -0.1353
  C  C169  1  0.507900  0.271700  0.057400  1.0  0.1751
  C  C170  1  0.617200  0.170500  0.904800  1.0  0.654
  C  C171  1  0.680300  0.500200  0.383600  1.0  0.1912
  C  C172  1  0.676000  0.445800  0.385500  1.0  -0.0841
  C  C173  1  0.451400  0.775700  0.559800  1.0  0.1555
  C  C174  1  0.513500  0.763800  0.518900  1.0  -0.049
  C  C175  1  0.560200  0.710800  0.496600  1.0  -0.0975
  C  C176  1  0.541000  0.670100  0.518900  1.0  -0.1261
  C  C177  1  0.477900  0.685600  0.560800  1.0  0.1941
  C  C178  1  0.632600  0.697500  0.453300  1.0  0.7607
  C  C179  1  0.428000  0.712600  0.733800  1.0  0.1762
  C  C180  1  0.485900  0.704700  0.769800  1.0  -0.0957
  C  C181  1  0.555300  0.737700  0.785600  1.0  -0.0892
  C  C182  1  0.567800  0.781000  0.762700  1.0  -0.1345
  C  C183  1  0.507900  0.785700  0.728300  1.0  0.1775
  C  C184  1  0.617200  0.734300  0.829500  1.0  0.6564
  C  C185  1  0.680300  0.883400  0.499800  1.0  0.1905
  C  C186  1  0.676000  0.939700  0.554200  1.0  -0.0814
  C  C187  1  0.451400  0.784100  0.224300  1.0  0.1558
  C  C188  1  0.513500  0.755100  0.236200  1.0  -0.0462
  C  C189  1  0.560200  0.785800  0.289200  1.0  -0.0984
  C  C190  1  0.541000  0.848800  0.329900  1.0  -0.1275
  C  C191  1  0.477900  0.875200  0.314400  1.0  0.1939
  C  C192  1  0.632600  0.755800  0.302500  1.0  0.7611
  C  C193  1  0.428000  0.021200  0.287400  1.0  0.1743
  C  C194  1  0.485900  0.065100  0.295300  1.0  -0.0971
  C  C195  1  0.555300  0.047900  0.262300  1.0  -0.0896
  C  C196  1  0.567800  0.981700  0.219000  1.0  -0.1352
  C  C197  1  0.507900  0.942600  0.214300  1.0  0.175
  C  C198  1  0.617200  0.095200  0.265700  1.0  0.6547
  C  C199  1  0.180300  0.383600  0.883400  1.0  0.193
  C  C200  1  0.176000  0.385500  0.939700  1.0  -0.0832
  C  C201  1  0.951400  0.559800  0.784100  1.0  0.1537
  C  C202  1  0.013500  0.518900  0.755100  1.0  -0.0505
  C  C203  1  0.060200  0.496600  0.785800  1.0  -0.0959
  C  C204  1  0.041000  0.518900  0.848800  1.0  -0.1295
  C  C205  1  0.977900  0.560800  0.875200  1.0  0.1924
  C  C206  1  0.132600  0.453300  0.755800  1.0  0.7603
  C  C207  1  0.928000  0.733800  0.021200  1.0  0.1764
  C  C208  1  0.985900  0.769800  0.065100  1.0  -0.0953
  C  C209  1  0.055300  0.785600  0.047900  1.0  -0.089
  C  C210  1  0.067800  0.762700  0.981700  1.0  -0.1353
  C  C211  1  0.007900  0.728300  0.942600  1.0  0.1749
  C  C212  1  0.117200  0.829500  0.095200  1.0  0.655
  C  C213  1  0.180300  0.499800  0.616400  1.0  0.1907
  C  C214  1  0.176000  0.554200  0.614500  1.0  -0.085
  C  C215  1  0.951400  0.224300  0.440200  1.0  0.1553
  C  C216  1  0.013500  0.236200  0.481100  1.0  -0.048
  C  C217  1  0.060200  0.289200  0.503400  1.0  -0.0972
  C  C218  1  0.041000  0.329900  0.481100  1.0  -0.1264
  C  C219  1  0.977900  0.314400  0.439200  1.0  0.1934
  C  C220  1  0.132600  0.302500  0.546700  1.0  0.7607
  C  C221  1  0.928000  0.287400  0.266200  1.0  0.1754
  C  C222  1  0.985900  0.295300  0.230200  1.0  -0.0954
  C  C223  1  0.055300  0.262300  0.214400  1.0  -0.0889
  C  C224  1  0.067800  0.219000  0.237300  1.0  -0.1345
  C  C225  1  0.007900  0.214300  0.271700  1.0  0.1789
  C  C226  1  0.117200  0.265700  0.170500  1.0  0.6553
  C  C227  1  0.180300  0.116600  0.500200  1.0  0.1915
  C  C228  1  0.176000  0.060300  0.445800  1.0  -0.0816
  C  C229  1  0.951400  0.215900  0.775700  1.0  0.1552
  C  C230  1  0.013500  0.244900  0.763800  1.0  -0.0474
  C  C231  1  0.060200  0.214200  0.710800  1.0  -0.0971
  C  C232  1  0.041000  0.151200  0.670100  1.0  -0.1274
  C  C233  1  0.977900  0.124800  0.685600  1.0  0.1951
  C  C234  1  0.132600  0.244200  0.697500  1.0  0.7616
  C  C235  1  0.928000  0.978800  0.712600  1.0  0.1746
  C  C236  1  0.985900  0.934900  0.704700  1.0  -0.0968
  C  C237  1  0.055300  0.952100  0.737700  1.0  -0.0894
  C  C238  1  0.067800  0.018300  0.781000  1.0  -0.1356
  C  C239  1  0.007900  0.057400  0.785700  1.0  0.1751
  C  C240  1  0.117200  0.904800  0.734300  1.0  0.6551
  C  C241  1  0.319700  0.383600  0.883400  1.0  0.1935
  C  C242  1  0.324000  0.385500  0.939700  1.0  -0.084
  C  C243  1  0.548600  0.559800  0.784100  1.0  0.1533
  C  C244  1  0.486500  0.518900  0.755100  1.0  -0.0513
  C  C245  1  0.439800  0.496600  0.785800  1.0  -0.096
  C  C246  1  0.459000  0.518900  0.848800  1.0  -0.1298
  C  C247  1  0.522100  0.560800  0.875200  1.0  0.1933
  C  C248  1  0.367400  0.453300  0.755800  1.0  0.7601
  C  C249  1  0.572000  0.733800  0.021200  1.0  0.1772
  C  C250  1  0.514100  0.769800  0.065100  1.0  -0.0951
  C  C251  1  0.444700  0.785600  0.047900  1.0  -0.0918
  C  C252  1  0.432200  0.762700  0.981700  1.0  -0.1376
  C  C253  1  0.492100  0.728300  0.942600  1.0  0.1744
  C  C254  1  0.382800  0.829500  0.095200  1.0  0.6554
  C  C255  1  0.319700  0.499800  0.616400  1.0  0.1911
  C  C256  1  0.324000  0.554200  0.614500  1.0  -0.0859
  C  C257  1  0.548600  0.224300  0.440200  1.0  0.1553
  C  C258  1  0.486500  0.236200  0.481100  1.0  -0.0487
  C  C259  1  0.439800  0.289200  0.503400  1.0  -0.0964
  C  C260  1  0.459000  0.329900  0.481100  1.0  -0.1268
  C  C261  1  0.522100  0.314400  0.439200  1.0  0.1948
  C  C262  1  0.367400  0.302500  0.546700  1.0  0.7603
  C  C263  1  0.572000  0.287400  0.266200  1.0  0.1761
  C  C264  1  0.514100  0.295300  0.230200  1.0  -0.0956
  C  C265  1  0.444700  0.262300  0.214400  1.0  -0.092
  C  C266  1  0.432200  0.219000  0.237300  1.0  -0.1355
  C  C267  1  0.492100  0.214300  0.271700  1.0  0.1784
  C  C268  1  0.382800  0.265700  0.170500  1.0  0.6552
  C  C269  1  0.319700  0.116600  0.500200  1.0  0.1918
  C  C270  1  0.324000  0.060300  0.445800  1.0  -0.0828
  C  C271  1  0.548600  0.215900  0.775700  1.0  0.1549
  C  C272  1  0.486500  0.244900  0.763800  1.0  -0.0476
  C  C273  1  0.439800  0.214200  0.710800  1.0  -0.097
  C  C274  1  0.459000  0.151200  0.670100  1.0  -0.1264
  C  C275  1  0.522100  0.124800  0.685600  1.0  0.1961
  C  C276  1  0.367400  0.244200  0.697500  1.0  0.7614
  C  C277  1  0.572000  0.978800  0.712600  1.0  0.1751
  C  C278  1  0.514100  0.934900  0.704700  1.0  -0.0968
  C  C279  1  0.444700  0.952100  0.737700  1.0  -0.0918
  C  C280  1  0.432200  0.018300  0.781000  1.0  -0.138
  C  C281  1  0.492100  0.057400  0.785700  1.0  0.175
  C  C282  1  0.382800  0.904800  0.734300  1.0  0.6558
  C  C283  1  0.819700  0.616400  0.116600  1.0  0.1934
  C  C284  1  0.824000  0.614500  0.060300  1.0  -0.0847
  C  C285  1  0.048600  0.440200  0.215900  1.0  0.1527
  C  C286  1  0.986500  0.481100  0.244900  1.0  -0.053
  C  C287  1  0.939800  0.503400  0.214200  1.0  -0.0954
  C  C288  1  0.959000  0.481100  0.151200  1.0  -0.1303
  C  C289  1  0.022100  0.439200  0.124800  1.0  0.1935
  C  C290  1  0.867400  0.546700  0.244200  1.0  0.7612
  C  C291  1  0.072000  0.266200  0.978800  1.0  0.176
  C  C292  1  0.014100  0.230200  0.934900  1.0  -0.0956
  C  C293  1  0.944700  0.214400  0.952100  1.0  -0.0913
  C  C294  1  0.932200  0.237300  0.018300  1.0  -0.1371
  C  C295  1  0.992100  0.271700  0.057400  1.0  0.1746
  C  C296  1  0.882800  0.170500  0.904800  1.0  0.6542
  C  C297  1  0.819700  0.500200  0.383600  1.0  0.1917
  C  C298  1  0.824000  0.445800  0.385500  1.0  -0.085
  C  C299  1  0.048600  0.775700  0.559800  1.0  0.1555
  C  C300  1  0.986500  0.763800  0.518900  1.0  -0.0492
  C  C301  1  0.939800  0.710800  0.496600  1.0  -0.0975
  C  C302  1  0.959000  0.670100  0.518900  1.0  -0.1251
  C  C303  1  0.022100  0.685600  0.560800  1.0  0.1949
  C  C304  1  0.867400  0.697500  0.453300  1.0  0.7602
  C  C305  1  0.072000  0.712600  0.733800  1.0  0.1768
  C  C306  1  0.014100  0.704700  0.769800  1.0  -0.0957
  C  C307  1  0.944700  0.737700  0.785600  1.0  -0.0915
  C  C308  1  0.932200  0.781000  0.762700  1.0  -0.1363
  C  C309  1  0.992100  0.785700  0.728300  1.0  0.1773
  C  C310  1  0.882800  0.734300  0.829500  1.0  0.657
  C  C311  1  0.819700  0.883400  0.499800  1.0  0.1911
  C  C312  1  0.824000  0.939700  0.554200  1.0  -0.0822
  C  C313  1  0.048600  0.784100  0.224300  1.0  0.1556
  C  C314  1  0.986500  0.755100  0.236200  1.0  -0.0467
  C  C315  1  0.939800  0.785800  0.289200  1.0  -0.0981
  C  C316  1  0.959000  0.848800  0.329900  1.0  -0.128
  C  C317  1  0.022100  0.875200  0.314400  1.0  0.195
  C  C318  1  0.867400  0.755800  0.302500  1.0  0.7607
  C  C319  1  0.072000  0.021200  0.287400  1.0  0.1752
  C  C320  1  0.014100  0.065100  0.295300  1.0  -0.0969
  C  C321  1  0.944700  0.047900  0.262300  1.0  -0.0932
  C  C322  1  0.932200  0.981700  0.219000  1.0  -0.1363
  C  C323  1  0.992100  0.942600  0.214300  1.0  0.1747
  C  C324  1  0.882800  0.095200  0.265700  1.0  0.6544
  C  C325  1  0.750000  0.613300  0.030300  1.0  -0.1345
  C  C326  1  0.750000  0.617300  0.971700  1.0  0.7434
  C  C327  1  0.750000  0.417000  0.386700  1.0  -0.1353
  C  C328  1  0.750000  0.354400  0.382700  1.0  0.7528
  C  C329  1  0.750000  0.969700  0.583000  1.0  -0.1292
  C  C330  1  0.750000  0.028300  0.645600  1.0  0.7466
  C  C331  1  0.250000  0.386700  0.969700  1.0  -0.1359
  C  C332  1  0.250000  0.382700  0.028300  1.0  0.7441
  C  C333  1  0.250000  0.583000  0.613300  1.0  -0.1325
  C  C334  1  0.250000  0.645600  0.617300  1.0  0.7516
  C  C335  1  0.250000  0.030300  0.417000  1.0  -0.1308
  C  C336  1  0.250000  0.971700  0.354400  1.0  0.7462
  N  N337  1  0.434500  0.417600  0.154300  1.0  -0.3178
  N  N338  1  0.437900  0.288000  0.039500  1.0  -0.3249
  N  N339  1  0.434500  0.736700  0.582400  1.0  -0.3186
  N  N340  1  0.437900  0.751500  0.712000  1.0  -0.3254
  N  N341  1  0.434500  0.845700  0.263300  1.0  -0.3172
  N  N342  1  0.437900  0.960500  0.248500  1.0  -0.3252
  N  N343  1  0.934500  0.582400  0.845700  1.0  -0.3181
  N  N344  1  0.937900  0.712000  0.960500  1.0  -0.3254
  N  N345  1  0.934500  0.263300  0.417600  1.0  -0.3177
  N  N346  1  0.937900  0.248500  0.288000  1.0  -0.3258
  N  N347  1  0.934500  0.154300  0.736700  1.0  -0.3179
  N  N348  1  0.937900  0.039500  0.751500  1.0  -0.3248
  N  N349  1  0.565500  0.582400  0.845700  1.0  -0.3181
  N  N350  1  0.562100  0.712000  0.960500  1.0  -0.3261
  N  N351  1  0.565500  0.263300  0.417600  1.0  -0.3184
  N  N352  1  0.562100  0.248500  0.288000  1.0  -0.3262
  N  N353  1  0.565500  0.154300  0.736700  1.0  -0.3182
  N  N354  1  0.562100  0.039500  0.751500  1.0  -0.3258
  N  N355  1  0.065500  0.417600  0.154300  1.0  -0.3177
  N  N356  1  0.062100  0.288000  0.039500  1.0  -0.3261
  N  N357  1  0.065500  0.736700  0.582400  1.0  -0.3185
  N  N358  1  0.062100  0.751500  0.712000  1.0  -0.3263
  N  N359  1  0.065500  0.845700  0.263300  1.0  -0.3173
  N  N360  1  0.062100  0.960500  0.248500  1.0  -0.3257
  N  N361  1  0.750000  0.619600  0.146000  1.0  -0.3182
  N  N362  1  0.750000  0.526400  0.380400  1.0  -0.3212
  N  N363  1  0.750000  0.854000  0.473600  1.0  -0.3196
  N  N364  1  0.250000  0.380400  0.854000  1.0  -0.3179
  N  N365  1  0.250000  0.473600  0.619600  1.0  -0.3215
  N  N366  1  0.250000  0.146000  0.526400  1.0  -0.3198
  O  O367  1  0.681500  0.621100  0.951100  1.0  -0.6049
  O  O368  1  0.658300  0.573700  0.218100  1.0  -0.5874
  O  O369  1  0.655500  0.552300  0.294200  1.0  -0.6031
  O  O370  1  0.615800  0.166800  0.853700  1.0  -0.5861
  O  O371  1  0.650400  0.128400  0.917100  1.0  -0.5995
  O  O372  1  0.134300  0.165800  0.036000  1.0  -0.6652
  O  O373  1  0.681500  0.330000  0.378900  1.0  -0.6031
  O  O374  1  0.658300  0.644400  0.426300  1.0  -0.5905
  O  O375  1  0.655500  0.741900  0.447700  1.0  -0.604
  O  O376  1  0.615800  0.686900  0.833200  1.0  -0.5872
  O  O377  1  0.650400  0.788700  0.871600  1.0  -0.5929
  O  O378  1  0.134300  0.870200  0.834200  1.0  -0.6472
  O  O379  1  0.681500  0.048900  0.670000  1.0  -0.6028
  O  O380  1  0.658300  0.781900  0.355600  1.0  -0.5882
  O  O381  1  0.655500  0.705800  0.258100  1.0  -0.6045
  O  O382  1  0.615800  0.146300  0.313100  1.0  -0.5874
  O  O383  1  0.650400  0.082900  0.211300  1.0  -0.5971
  O  O384  1  0.134300  0.964000  0.129800  1.0  -0.6629
  O  O385  1  0.181500  0.378900  0.048900  1.0  -0.6055
  O  O386  1  0.158300  0.426300  0.781900  1.0  -0.5887
  O  O387  1  0.155500  0.447700  0.705800  1.0  -0.6025
  O  O388  1  0.115800  0.833200  0.146300  1.0  -0.5875
  O  O389  1  0.150400  0.871600  0.082900  1.0  -0.6007
  O  O390  1  0.634300  0.834200  0.964000  1.0  -0.6672
  O  O391  1  0.181500  0.670000  0.621100  1.0  -0.6021
  O  O392  1  0.158300  0.355600  0.573700  1.0  -0.5908
  O  O393  1  0.155500  0.258100  0.552300  1.0  -0.6043
  O  O394  1  0.115800  0.313100  0.166800  1.0  -0.5875
  O  O395  1  0.150400  0.211300  0.128400  1.0  -0.5932
  O  O396  1  0.634300  0.129800  0.165800  1.0  -0.6572
  O  O397  1  0.181500  0.951100  0.330000  1.0  -0.6033
  O  O398  1  0.158300  0.218100  0.644400  1.0  -0.5881
  O  O399  1  0.155500  0.294200  0.741900  1.0  -0.6052
  O  O400  1  0.115800  0.853700  0.686900  1.0  -0.5865
  O  O401  1  0.150400  0.917100  0.788700  1.0  -0.5973
  O  O402  1  0.634300  0.036000  0.870200  1.0  -0.6543
  O  O403  1  0.318500  0.378900  0.048900  1.0  -0.6096
  O  O404  1  0.341700  0.426300  0.781900  1.0  -0.5878
  O  O405  1  0.344500  0.447700  0.705800  1.0  -0.6015
  O  O406  1  0.384200  0.833200  0.146300  1.0  -0.5888
  O  O407  1  0.349600  0.871600  0.082900  1.0  -0.6018
  O  O408  1  0.865700  0.834200  0.964000  1.0  -0.6665
  O  O409  1  0.318500  0.670000  0.621100  1.0  -0.6065
  O  O410  1  0.341700  0.355600  0.573700  1.0  -0.5898
  O  O411  1  0.344500  0.258100  0.552300  1.0  -0.6032
  O  O412  1  0.384200  0.313100  0.166800  1.0  -0.5889
  O  O413  1  0.349600  0.211300  0.128400  1.0  -0.5936
  O  O414  1  0.865700  0.129800  0.165800  1.0  -0.6584
  O  O415  1  0.318500  0.951100  0.330000  1.0  -0.6068
  O  O416  1  0.341700  0.218100  0.644400  1.0  -0.5871
  O  O417  1  0.344500  0.294200  0.741900  1.0  -0.6038
  O  O418  1  0.384200  0.853700  0.686900  1.0  -0.5882
  O  O419  1  0.349600  0.917100  0.788700  1.0  -0.5982
  O  O420  1  0.865700  0.036000  0.870200  1.0  -0.6541
  O  O421  1  0.818500  0.621100  0.951100  1.0  -0.6095
  O  O422  1  0.841700  0.573700  0.218100  1.0  -0.5867
  O  O423  1  0.844500  0.552300  0.294200  1.0  -0.602
  O  O424  1  0.884200  0.166800  0.853700  1.0  -0.588
  O  O425  1  0.849600  0.128400  0.917100  1.0  -0.5997
  O  O426  1  0.365700  0.165800  0.036000  1.0  -0.6656
  O  O427  1  0.818500  0.330000  0.378900  1.0  -0.6073
  O  O428  1  0.841700  0.644400  0.426300  1.0  -0.5898
  O  O429  1  0.844500  0.741900  0.447700  1.0  -0.603
  O  O430  1  0.884200  0.686900  0.833200  1.0  -0.5885
  O  O431  1  0.849600  0.788700  0.871600  1.0  -0.5932
  O  O432  1  0.365700  0.870200  0.834200  1.0  -0.6471
  O  O433  1  0.818500  0.048900  0.670000  1.0  -0.6072
  O  O434  1  0.841700  0.781900  0.355600  1.0  -0.5877
  O  O435  1  0.844500  0.705800  0.258100  1.0  -0.6036
  O  O436  1  0.884200  0.146300  0.313100  1.0  -0.5884
  O  O437  1  0.849600  0.082900  0.211300  1.0  -0.5972
  O  O438  1  0.365700  0.964000  0.129800  1.0  -0.664
  O  O439  1  0.250000  0.277800  0.069300  1.0  -0.9053
  O  O440  1  0.250000  0.398800  0.174000  1.0  -0.8939
  O  O441  1  0.250000  0.791500  0.722200  1.0  -0.906
  O  O442  1  0.250000  0.775200  0.601200  1.0  -0.8883
  O  O443  1  0.250000  0.930700  0.208500  1.0  -0.905
  O  O444  1  0.250000  0.826000  0.224800  1.0  -0.8868
  O  O445  1  0.750000  0.722200  0.930700  1.0  -0.9066
  O  O446  1  0.750000  0.601200  0.826000  1.0  -0.8934
  O  O447  1  0.750000  0.208500  0.277800  1.0  -0.9056
  O  O448  1  0.750000  0.224800  0.398800  1.0  -0.8887
  O  O449  1  0.750000  0.069300  0.791500  1.0  -0.9052
  O  O450  1  0.750000  0.174000  0.775200  1.0  -0.888
  O  O451  1  0.750000  0.666667  0.333333  1.0  -0.8347
  O  O452  1  0.250000  0.333333  0.666667  1.0  -0.8347
