# generated using pymatgen
data_NiH12C18(NO)4
_symmetry_space_group_name_H-M   'P 1'
_cell_length_a   10.04700000
_cell_length_b   12.65800000
_cell_length_c   13.49400000
_cell_angle_alpha   86.56000000
_cell_angle_beta   71.43000000
_cell_angle_gamma   72.16000000
_symmetry_Int_Tables_number   1
_chemical_formula_structural   NiH12C18(NO)4
_chemical_formula_sum   'Ni3 H36 C54 N12 O12'
_cell_volume   1547.18706015
_cell_formula_units_Z   3
loop_
 _symmetry_equiv_pos_site_id
 _symmetry_equiv_pos_as_xyz
  1  'x, y, z'
loop_
 _atom_site_type_symbol
 _atom_site_label
 _atom_site_symmetry_multiplicity
 _atom_site_fract_x
 _atom_site_fract_y
 _atom_site_fract_z
 _atom_site_occupancy
 _atom_site_charge
  Ni  Ni1  1  0.383590  0.924670  0.421280  1.0  0.8797
  Ni  Ni2  1  0.616410  0.075330  0.578720  1.0  0.8788
  Ni  Ni3  1  0.000000  0.500000  0.000000  1.0  0.6006
  H  H4  1  0.084800  0.123900  0.441900  1.0  0.1046
  H  H5  1  0.486000  0.137000  0.307800  1.0  0.1107
  H  H6  1  0.320100  0.324600  0.308500  1.0  0.1352
  H  H7  1  0.948700  0.314500  0.561700  1.0  0.1097
  H  H8  1  0.050300  0.412200  0.266900  1.0  0.121
  H  H9  1  0.664700  0.717700  0.376400  1.0  0.0968
  H  H10  1  0.298000  0.740400  0.600100  1.0  0.113
  H  H11  1  0.473500  0.562800  0.616800  1.0  0.1406
  H  H12  1  0.729100  0.459000  0.605700  1.0  0.1187
  H  H13  1  0.828000  0.553000  0.309700  1.0  0.122
  H  H14  1  0.700300  0.694000  0.020100  1.0  0.0963
  H  H15  1  0.090500  0.698200  0.844900  1.0  0.1093
  H  H16  1  0.922000  0.883200  0.845000  1.0  0.1403
  H  H17  1  0.557900  0.875200  0.124000  1.0  0.1153
  H  H18  1  0.657900  0.978300  0.829300  1.0  0.1074
  H  H19  1  0.924400  0.969000  0.394400  1.0  0.1094
  H  H20  1  0.247600  0.726700  0.202500  1.0  0.1121
  H  H21  1  0.824700  0.772700  0.223300  1.0  0.1063
  H  H22  1  0.915200  0.876100  0.558100  1.0  0.1047
  H  H23  1  0.514000  0.863000  0.692200  1.0  0.1113
  H  H24  1  0.679900  0.675400  0.691500  1.0  0.1344
  H  H25  1  0.051300  0.685500  0.438300  1.0  0.109
  H  H26  1  0.949700  0.587800  0.733100  1.0  0.1207
  H  H27  1  0.335300  0.282300  0.623600  1.0  0.0961
  H  H28  1  0.702000  0.259600  0.399900  1.0  0.1116
  H  H29  1  0.526500  0.437200  0.383200  1.0  0.1404
  H  H30  1  0.270900  0.541000  0.394300  1.0  0.1191
  H  H31  1  0.172000  0.447000  0.690300  1.0  0.1215
  H  H32  1  0.299700  0.306000  0.979900  1.0  0.0964
  H  H33  1  0.909500  0.301800  0.155100  1.0  0.1093
  H  H34  1  0.078000  0.116800  0.155000  1.0  0.1398
  H  H35  1  0.442100  0.124800  0.876000  1.0  0.1155
  H  H36  1  0.342100  0.021700  0.170700  1.0  0.1072
  H  H37  1  0.075600  0.031000  0.605600  1.0  0.1097
  H  H38  1  0.752400  0.273300  0.797500  1.0  0.1119
  H  H39  1  0.175300  0.227300  0.776700  1.0  0.107
  C  C40  1  0.164500  0.149800  0.408700  1.0  0.159
  C  C41  1  0.383800  0.157800  0.335000  1.0  0.0499
  C  C42  1  0.293000  0.262100  0.335200  1.0  -0.1171
  C  C43  1  0.018000  0.348000  0.409200  1.0  0.1312
  C  C44  1  0.924000  0.362500  0.510900  1.0  -0.1408
  C  C45  1  0.984700  0.420200  0.334600  1.0  -0.1362
  C  C46  1  0.594800  0.701600  0.434400  1.0  0.1583
  C  C47  1  0.394900  0.713400  0.556600  1.0  0.0566
  C  C48  1  0.491300  0.614900  0.566700  1.0  -0.1418
  C  C49  1  0.757000  0.518900  0.461600  1.0  0.134
  C  C50  1  0.792700  0.448700  0.537300  1.0  -0.1338
  C  C51  1  0.852500  0.505100  0.360500  1.0  -0.1461
  C  C52  1  0.777400  0.717700  0.976600  1.0  0.1307
  C  C53  1  0.989900  0.720500  0.880500  1.0  0.0047
  C  C54  1  0.897500  0.823200  0.880800  1.0  -0.1222
  C  C55  1  0.628400  0.913000  0.971800  1.0  0.1458
  C  C56  1  0.534200  0.925500  0.074500  1.0  -0.1377
  C  C57  1  0.594300  0.987300  0.897700  1.0  -0.1748
  C  C58  1  0.849200  0.883100  0.313800  1.0  -0.1408
  C  C59  1  0.954100  0.910500  0.345900  1.0  -0.0333
  C  C60  1  0.102600  0.850800  0.305700  1.0  -0.0746
  C  C61  1  0.147900  0.764400  0.231400  1.0  -0.0476
  C  C62  1  0.045000  0.734300  0.200100  1.0  -0.1515
  C  C63  1  0.894500  0.793400  0.242600  1.0  -0.0508
  C  C64  1  0.687100  0.944600  0.363800  1.0  0.6842
  C  C65  1  0.211300  0.872700  0.350300  1.0  0.6295
  C  C66  1  0.092600  0.635300  0.126100  1.0  0.7222
  C  C67  1  0.835500  0.850200  0.591300  1.0  0.1588
  C  C68  1  0.616200  0.842200  0.665000  1.0  0.0514
  C  C69  1  0.707000  0.737900  0.664800  1.0  -0.117
  C  C70  1  0.982000  0.652000  0.590800  1.0  0.1322
  C  C71  1  0.076000  0.637500  0.489100  1.0  -0.1417
  C  C72  1  0.015300  0.579800  0.665400  1.0  -0.1353
  C  C73  1  0.405200  0.298400  0.565600  1.0  0.1591
  C  C74  1  0.605100  0.286600  0.443400  1.0  0.0575
  C  C75  1  0.508700  0.385100  0.433300  1.0  -0.1444
  C  C76  1  0.243000  0.481100  0.538400  1.0  0.1351
  C  C77  1  0.207300  0.551300  0.462700  1.0  -0.1359
  C  C78  1  0.147500  0.494900  0.639500  1.0  -0.1447
  C  C79  1  0.222600  0.282300  0.023400  1.0  0.1313
  C  C80  1  0.010100  0.279500  0.119500  1.0  0.0054
  C  C81  1  0.102500  0.176800  0.119200  1.0  -0.1253
  C  C82  1  0.371600  0.087000  0.028200  1.0  0.1458
  C  C83  1  0.465800  0.074500  0.925500  1.0  -0.1386
  C  C84  1  0.405700  0.012700  0.102300  1.0  -0.1721
  C  C85  1  0.150800  0.116900  0.686200  1.0  -0.1418
  C  C86  1  0.045900  0.089500  0.654100  1.0  -0.0348
  C  C87  1  0.897400  0.149200  0.694300  1.0  -0.077
  C  C88  1  0.852100  0.235600  0.768600  1.0  -0.0483
  C  C89  1  0.955000  0.265700  0.799900  1.0  -0.1536
  C  C90  1  0.105500  0.206600  0.757400  1.0  -0.0509
  C  C91  1  0.312900  0.055400  0.636200  1.0  0.685
  C  C92  1  0.788700  0.127300  0.649700  1.0  0.6296
  C  C93  1  0.907400  0.364700  0.873900  1.0  0.7217
  N  N94  1  0.303400  0.087300  0.380700  1.0  -0.3745
  N  N95  1  0.152700  0.256500  0.382800  1.0  0.0446
  N  N96  1  0.460100  0.767500  0.473700  1.0  -0.3617
  N  N97  1  0.621000  0.607400  0.487500  1.0  0.0392
  N  N98  1  0.913700  0.653600  0.940400  1.0  -0.3677
  N  N99  1  0.761700  0.822500  0.943400  1.0  0.0465
  N  N100  1  0.696600  0.912700  0.619300  1.0  -0.3749
  N  N101  1  0.847300  0.743500  0.617200  1.0  0.0445
  N  N102  1  0.539900  0.232500  0.526300  1.0  -0.3602
  N  N103  1  0.379000  0.392600  0.512500  1.0  0.0391
  N  N104  1  0.086300  0.346400  0.059600  1.0  -0.3668
  N  N105  1  0.238300  0.177500  0.056600  1.0  0.0454
  O  O106  1  0.597200  0.910600  0.336100  1.0  -0.5969
  O  O107  1  0.652100  0.021600  0.428900  1.0  -0.629
  O  O108  1  0.166800  0.910200  0.443500  1.0  -0.5566
  O  O109  1  0.345000  0.852900  0.294900  1.0  -0.5714
  O  O110  1  0.228300  0.598300  0.074800  1.0  -0.5768
  O  O111  1  0.995600  0.596000  0.120400  1.0  -0.5974
  O  O112  1  0.402800  0.089400  0.663900  1.0  -0.5961
  O  O113  1  0.347900  0.978400  0.571100  1.0  -0.6289
  O  O114  1  0.833200  0.089800  0.556500  1.0  -0.5562
  O  O115  1  0.655000  0.147100  0.705100  1.0  -0.5718
  O  O116  1  0.771700  0.401700  0.925200  1.0  -0.5758
  O  O117  1  0.004400  0.404000  0.879600  1.0  -0.5983
