# generated using pymatgen
data_MnCu3H3C9BrO18
_symmetry_space_group_name_H-M   'P 1'
_cell_length_a   16.21700000
_cell_length_b   17.98310000
_cell_length_c   19.64020000
_cell_angle_alpha   90.00000000
_cell_angle_beta   90.00000000
_cell_angle_gamma   90.00000000
_symmetry_Int_Tables_number   1
_chemical_formula_structural   MnCu3H3C9BrO18
_chemical_formula_sum   'Mn4 Cu12 H12 C36 Br4 O72'
_cell_volume   5727.70948461
_cell_formula_units_Z   4
loop_
 _symmetry_equiv_pos_site_id
 _symmetry_equiv_pos_as_xyz
  1  'x, y, z'
loop_
 _atom_site_type_symbol
 _atom_site_label
 _atom_site_symmetry_multiplicity
 _atom_site_fract_x
 _atom_site_fract_y
 _atom_site_fract_z
 _atom_site_occupancy
 _atom_site_charge
  Mn  Mn1  1  0.897640  0.428200  0.897290  1.0  1.1225
  Mn  Mn2  1  0.602360  0.571800  0.397290  1.0  1.1247
  Mn  Mn3  1  0.102360  0.928200  0.602710  1.0  1.1234
  Mn  Mn4  1  0.397640  0.071800  0.102710  1.0  1.1226
  Cu  Cu5  1  0.219090  0.069050  0.849180  1.0  0.9018
  Cu  Cu6  1  0.029920  0.149150  0.800370  1.0  0.8632
  Cu  Cu7  1  0.155290  0.212030  0.931190  1.0  0.9399
  Cu  Cu8  1  0.280910  0.930950  0.349180  1.0  0.9021
  Cu  Cu9  1  0.470080  0.850850  0.300370  1.0  0.8631
  Cu  Cu10  1  0.344710  0.787970  0.431190  1.0  0.9409
  Cu  Cu11  1  0.780910  0.569050  0.650820  1.0  0.9025
  Cu  Cu12  1  0.970080  0.649150  0.699630  1.0  0.8635
  Cu  Cu13  1  0.844710  0.712030  0.568810  1.0  0.9403
  Cu  Cu14  1  0.719090  0.430950  0.150820  1.0  0.9022
  Cu  Cu15  1  0.529920  0.350850  0.199630  1.0  0.864
  Cu  Cu16  1  0.655290  0.287970  0.068810  1.0  0.9404
  H  H17  1  0.070200  0.919100  0.755600  1.0  0.4446
  H  H18  1  0.221400  0.038200  0.073600  1.0  0.4646
  H  H19  1  0.899600  0.267500  0.938400  1.0  0.4519
  H  H20  1  0.429800  0.080900  0.255600  1.0  0.4431
  H  H21  1  0.278600  0.961800  0.573600  1.0  0.4656
  H  H22  1  0.600400  0.732500  0.438400  1.0  0.4524
  H  H23  1  0.929800  0.419100  0.744400  1.0  0.4442
  H  H24  1  0.778600  0.538200  0.426400  1.0  0.4657
  H  H25  1  0.100400  0.767500  0.561600  1.0  0.4516
  H  H26  1  0.570200  0.580900  0.244400  1.0  0.4437
  H  H27  1  0.721400  0.461800  0.926400  1.0  0.4633
  H  H28  1  0.399600  0.232500  0.061600  1.0  0.4509
  C  C29  1  0.190440  0.004190  0.725300  1.0  0.7003
  C  C30  1  0.307200  0.041320  0.965840  1.0  0.6864
  C  C31  1  0.043160  0.324960  0.930900  1.0  0.702
  C  C32  1  0.103610  0.018330  0.755600  1.0  0.1625
  C  C33  1  0.232890  0.088200  0.991200  1.0  0.1729
  C  C34  1  0.999820  0.260120  0.892650  1.0  0.1802
  C  C35  1  0.040590  0.044890  0.702400  1.0  0.695
  C  C36  1  0.265230  0.161240  0.023280  1.0  0.7333
  C  C37  1  0.964660  0.285230  0.822960  1.0  0.7418
  C  C38  1  0.309560  0.995810  0.225300  1.0  0.7037
  C  C39  1  0.192800  0.958680  0.465840  1.0  0.691
  C  C40  1  0.456840  0.675040  0.430900  1.0  0.7043
  C  C41  1  0.396390  0.981670  0.255600  1.0  0.1627
  C  C42  1  0.267110  0.911800  0.491200  1.0  0.1714
  C  C43  1  0.500180  0.739880  0.392650  1.0  0.1803
  C  C44  1  0.459410  0.955110  0.202400  1.0  0.6917
  C  C45  1  0.234770  0.838760  0.523280  1.0  0.7332
  C  C46  1  0.535340  0.714770  0.322960  1.0  0.7413
  C  C47  1  0.809560  0.504190  0.774700  1.0  0.7043
  C  C48  1  0.692800  0.541320  0.534160  1.0  0.6883
  C  C49  1  0.956840  0.824960  0.569100  1.0  0.705
  C  C50  1  0.896390  0.518330  0.744400  1.0  0.1631
  C  C51  1  0.767110  0.588200  0.508800  1.0  0.1716
  C  C52  1  0.000180  0.760120  0.607350  1.0  0.1804
  C  C53  1  0.959410  0.544890  0.797600  1.0  0.6954
  C  C54  1  0.734770  0.661240  0.476720  1.0  0.7333
  C  C55  1  0.035340  0.785230  0.677040  1.0  0.7423
  C  C56  1  0.690440  0.495810  0.274700  1.0  0.7006
  C  C57  1  0.807200  0.458680  0.034160  1.0  0.6878
  C  C58  1  0.543160  0.175040  0.069100  1.0  0.7019
  C  C59  1  0.603610  0.481670  0.244400  1.0  0.1635
  C  C60  1  0.732890  0.411800  0.008800  1.0  0.1739
  C  C61  1  0.499820  0.239880  0.107350  1.0  0.1797
  C  C62  1  0.540590  0.455110  0.297600  1.0  0.6953
  C  C63  1  0.765230  0.338760  0.976720  1.0  0.732
  C  C64  1  0.464660  0.214770  0.177040  1.0  0.7424
  Br  Br65  1  0.253420  0.214120  0.818670  1.0  -0.33
  Br  Br66  1  0.246580  0.785880  0.318670  1.0  -0.3289
  Br  Br67  1  0.746580  0.714120  0.681330  1.0  -0.3288
  Br  Br68  1  0.753420  0.285880  0.181330  1.0  -0.3302
  O  O69  1  0.250210  0.021690  0.763340  1.0  -0.4852
  O  O70  1  0.310970  0.028590  0.902250  1.0  -0.5024
  O  O71  1  0.117580  0.313260  0.947980  1.0  -0.5191
  O  O72  1  0.197860  0.975020  0.667520  1.0  -0.5372
  O  O73  1  0.358230  0.018200  0.008340  1.0  -0.5231
  O  O74  1  0.004680  0.382270  0.944330  1.0  -0.5174
  O  O75  1  0.109190  0.069840  0.807300  1.0  -0.6522
  O  O76  1  0.178960  0.103890  0.938750  1.0  -0.6101
  O  O77  1  0.053520  0.202060  0.882670  1.0  -0.6314
  O  O78  1  0.075320  0.950760  0.785310  1.0  -0.5091
  O  O79  1  0.189960  0.047720  0.042080  1.0  -0.4871
  O  O80  1  0.933220  0.233900  0.933030  1.0  -0.4792
  O  O81  1  0.028610  0.008130  0.649800  1.0  -0.5262
  O  O82  1  0.315530  0.157540  0.071280  1.0  -0.5642
  O  O83  1  0.929830  0.346180  0.816590  1.0  -0.5618
  O  O84  1  0.999710  0.101870  0.715680  1.0  -0.5111
  O  O85  1  0.239340  0.221420  0.000680  1.0  -0.5012
  O  O86  1  0.971100  0.239260  0.775420  1.0  -0.509
  O  O87  1  0.249790  0.978310  0.263340  1.0  -0.4965
  O  O88  1  0.189030  0.971410  0.402250  1.0  -0.5071
  O  O89  1  0.382420  0.686740  0.447980  1.0  -0.5188
  O  O90  1  0.302140  0.024980  0.167520  1.0  -0.5372
  O  O91  1  0.141770  0.981800  0.508340  1.0  -0.528
  O  O92  1  0.495320  0.617730  0.444330  1.0  -0.5096
  O  O93  1  0.390810  0.930160  0.307300  1.0  -0.6533
  O  O94  1  0.321040  0.896110  0.438750  1.0  -0.6113
  O  O95  1  0.446480  0.797940  0.382670  1.0  -0.6317
  O  O96  1  0.424680  0.049240  0.285310  1.0  -0.5082
  O  O97  1  0.310040  0.952280  0.542080  1.0  -0.4866
  O  O98  1  0.566780  0.766100  0.433030  1.0  -0.4802
  O  O99  1  0.471390  0.991870  0.149800  1.0  -0.5248
  O  O100  1  0.184470  0.842460  0.571280  1.0  -0.5664
  O  O101  1  0.570170  0.653820  0.316590  1.0  -0.5617
  O  O102  1  0.500290  0.898130  0.215680  1.0  -0.5154
  O  O103  1  0.260660  0.778580  0.500680  1.0  -0.4996
  O  O104  1  0.528900  0.760740  0.275420  1.0  -0.5127
  O  O105  1  0.749790  0.521690  0.736660  1.0  -0.487
  O  O106  1  0.689030  0.528590  0.597750  1.0  -0.4983
  O  O107  1  0.882420  0.813260  0.552020  1.0  -0.5178
  O  O108  1  0.802140  0.475020  0.832480  1.0  -0.5385
  O  O109  1  0.641770  0.518200  0.491660  1.0  -0.5253
  O  O110  1  0.995320  0.882270  0.555670  1.0  -0.5121
  O  O111  1  0.890810  0.569840  0.692700  1.0  -0.6516
  O  O112  1  0.821040  0.603890  0.561250  1.0  -0.6112
  O  O113  1  0.946480  0.702060  0.617330  1.0  -0.6316
  O  O114  1  0.924680  0.450760  0.714690  1.0  -0.5163
  O  O115  1  0.810040  0.547720  0.457920  1.0  -0.4879
  O  O116  1  0.066780  0.733900  0.566970  1.0  -0.4794
  O  O117  1  0.971390  0.508130  0.850200  1.0  -0.5266
  O  O118  1  0.684470  0.657540  0.428720  1.0  -0.568
  O  O119  1  0.070170  0.846180  0.683410  1.0  -0.5594
  O  O120  1  0.000290  0.601870  0.784320  1.0  -0.5093
  O  O121  1  0.760660  0.721420  0.499320  1.0  -0.501
  O  O122  1  0.028900  0.739260  0.724580  1.0  -0.5069
  O  O123  1  0.750210  0.478310  0.236660  1.0  -0.4899
  O  O124  1  0.810970  0.471410  0.097750  1.0  -0.4991
  O  O125  1  0.617580  0.186740  0.052020  1.0  -0.5248
  O  O126  1  0.697860  0.524980  0.332480  1.0  -0.5378
  O  O127  1  0.858230  0.481800  0.991660  1.0  -0.5302
  O  O128  1  0.504680  0.117730  0.055670  1.0  -0.5131
  O  O129  1  0.609190  0.430160  0.192700  1.0  -0.6535
  O  O130  1  0.678960  0.396110  0.061250  1.0  -0.6095
  O  O131  1  0.553520  0.297940  0.117330  1.0  -0.6313
  O  O132  1  0.575320  0.549240  0.214690  1.0  -0.5107
  O  O133  1  0.689960  0.452280  0.957920  1.0  -0.4892
  O  O134  1  0.433220  0.266100  0.066970  1.0  -0.4823
  O  O135  1  0.528610  0.491870  0.350200  1.0  -0.531
  O  O136  1  0.815530  0.342460  0.928720  1.0  -0.5676
  O  O137  1  0.429830  0.153820  0.183410  1.0  -0.5613
  O  O138  1  0.499710  0.398130  0.284320  1.0  -0.5114
  O  O139  1  0.739340  0.278580  0.999320  1.0  -0.5003
  O  O140  1  0.471100  0.260740  0.224580  1.0  -0.5084
