# generated using pymatgen
data_CoCu3H3(CO2)9
_symmetry_space_group_name_H-M   'P 1'
_cell_length_a   17.91810000
_cell_length_b   17.91810000
_cell_length_c   17.91810000
_cell_angle_alpha   90.00000000
_cell_angle_beta   90.00000000
_cell_angle_gamma   90.00000000
_symmetry_Int_Tables_number   1
_chemical_formula_structural   CoCu3H3(CO2)9
_chemical_formula_sum   'Co4 Cu12 H12 C36 O72'
_cell_volume   5752.75486159
_cell_formula_units_Z   4
loop_
 _symmetry_equiv_pos_site_id
 _symmetry_equiv_pos_as_xyz
  1  'x, y, z'
loop_
 _atom_site_type_symbol
 _atom_site_label
 _atom_site_symmetry_multiplicity
 _atom_site_fract_x
 _atom_site_fract_y
 _atom_site_fract_z
 _atom_site_occupancy
 _atom_site_charge
  Co  Co1  1  0.106510  0.893490  0.393490  1.0  0.9122
  Co  Co2  1  0.393490  0.106510  0.893490  1.0  0.909
  Co  Co3  1  0.893490  0.393490  0.106510  1.0  0.9073
  Co  Co4  1  0.606510  0.606510  0.606510  1.0  0.9122
  Cu  Cu5  1  0.203360  0.052670  0.136140  1.0  0.9224
  Cu  Cu6  1  0.296640  0.947330  0.636140  1.0  0.9204
  Cu  Cu7  1  0.796640  0.552670  0.363860  1.0  0.9224
  Cu  Cu8  1  0.703360  0.447330  0.863860  1.0  0.922
  Cu  Cu9  1  0.136140  0.203360  0.052670  1.0  0.9229
  Cu  Cu10  1  0.636140  0.296640  0.947330  1.0  0.9219
  Cu  Cu11  1  0.363860  0.796640  0.552670  1.0  0.9243
  Cu  Cu12  1  0.863860  0.703360  0.447330  1.0  0.9233
  Cu  Cu13  1  0.052670  0.136140  0.203360  1.0  0.9264
  Cu  Cu14  1  0.947330  0.636140  0.296640  1.0  0.923
  Cu  Cu15  1  0.552670  0.363860  0.796640  1.0  0.9252
  Cu  Cu16  1  0.447330  0.863860  0.703360  1.0  0.9249
  H  H17  1  0.064520  0.894140  0.232300  1.0  0.4882
  H  H18  1  0.435480  0.105860  0.732300  1.0  0.4879
  H  H19  1  0.935480  0.394140  0.267700  1.0  0.4864
  H  H20  1  0.564520  0.605860  0.767700  1.0  0.4874
  H  H21  1  0.232300  0.064520  0.894140  1.0  0.4833
  H  H22  1  0.732300  0.435480  0.105860  1.0  0.4849
  H  H23  1  0.267700  0.935480  0.394140  1.0  0.4858
  H  H24  1  0.767700  0.564520  0.605860  1.0  0.4857
  H  H25  1  0.894140  0.232300  0.064520  1.0  0.4857
  H  H26  1  0.105860  0.732300  0.435480  1.0  0.4878
  H  H27  1  0.394140  0.267700  0.935480  1.0  0.4851
  H  H28  1  0.605860  0.767700  0.564520  1.0  0.4855
  C  C29  1  0.176400  0.968800  0.262400  1.0  0.6048
  C  C30  1  0.104200  0.991100  0.235400  1.0  0.2616
  C  C31  1  0.052100  0.014300  0.293500  1.0  0.4386
  C  C32  1  0.323600  0.031200  0.762400  1.0  0.6108
  C  C33  1  0.395800  0.008900  0.735400  1.0  0.2601
  C  C34  1  0.447900  0.985700  0.793500  1.0  0.4401
  C  C35  1  0.823600  0.468800  0.237600  1.0  0.6056
  C  C36  1  0.895800  0.491100  0.264600  1.0  0.2584
  C  C37  1  0.947900  0.514300  0.206500  1.0  0.4393
  C  C38  1  0.676400  0.531200  0.737600  1.0  0.6105
  C  C39  1  0.604200  0.508900  0.764600  1.0  0.2601
  C  C40  1  0.552100  0.485700  0.706500  1.0  0.4409
  C  C41  1  0.262400  0.176400  0.968800  1.0  0.6036
  C  C42  1  0.235400  0.104200  0.991100  1.0  0.2628
  C  C43  1  0.293500  0.052100  0.014300  1.0  0.4393
  C  C44  1  0.762400  0.323600  0.031200  1.0  0.6085
  C  C45  1  0.735400  0.395800  0.008900  1.0  0.2626
  C  C46  1  0.793500  0.447900  0.985700  1.0  0.4379
  C  C47  1  0.237600  0.823600  0.468800  1.0  0.6021
  C  C48  1  0.264600  0.895800  0.491100  1.0  0.2595
  C  C49  1  0.206500  0.947900  0.514300  1.0  0.4361
  C  C50  1  0.737600  0.676400  0.531200  1.0  0.6086
  C  C51  1  0.764600  0.604200  0.508900  1.0  0.2607
  C  C52  1  0.706500  0.552100  0.485700  1.0  0.4383
  C  C53  1  0.968800  0.262400  0.176400  1.0  0.6078
  C  C54  1  0.991100  0.235400  0.104200  1.0  0.263
  C  C55  1  0.014300  0.293500  0.052100  1.0  0.441
  C  C56  1  0.031200  0.762400  0.323600  1.0  0.6138
  C  C57  1  0.008900  0.735400  0.395800  1.0  0.2631
  C  C58  1  0.985700  0.793500  0.447900  1.0  0.4388
  C  C59  1  0.468800  0.237600  0.823600  1.0  0.6097
  C  C60  1  0.491100  0.264600  0.895800  1.0  0.2629
  C  C61  1  0.514300  0.206500  0.947900  1.0  0.4421
  C  C62  1  0.531200  0.737600  0.676400  1.0  0.6136
  C  C63  1  0.508900  0.764600  0.604200  1.0  0.2625
  C  C64  1  0.485700  0.706500  0.552100  1.0  0.4432
  O  O65  1  0.232800  0.991700  0.220000  1.0  -0.5031
  O  O66  1  0.186600  0.933100  0.317900  1.0  -0.4896
  O  O67  1  0.106800  0.041400  0.179500  1.0  -0.5598
  O  O68  1  0.069900  0.927200  0.201100  1.0  -0.4664
  O  O69  1  0.038700  0.978400  0.354800  1.0  -0.5192
  O  O70  1  0.030400  0.083500  0.296900  1.0  -0.4843
  O  O71  1  0.267200  0.008300  0.720000  1.0  -0.5021
  O  O72  1  0.313400  0.066900  0.817900  1.0  -0.4901
  O  O73  1  0.393200  0.958600  0.679500  1.0  -0.5578
  O  O74  1  0.430100  0.072800  0.701100  1.0  -0.4653
  O  O75  1  0.461300  0.021600  0.854800  1.0  -0.5205
  O  O76  1  0.469600  0.916500  0.796900  1.0  -0.487
  O  O77  1  0.767200  0.491700  0.280000  1.0  -0.4999
  O  O78  1  0.813400  0.433100  0.182100  1.0  -0.4901
  O  O79  1  0.893200  0.541400  0.320500  1.0  -0.5593
  O  O80  1  0.930100  0.427200  0.298900  1.0  -0.4646
  O  O81  1  0.961300  0.478400  0.145200  1.0  -0.5195
  O  O82  1  0.969600  0.583500  0.203100  1.0  -0.4874
  O  O83  1  0.732800  0.508300  0.780000  1.0  -0.4984
  O  O84  1  0.686600  0.566900  0.682100  1.0  -0.4881
  O  O85  1  0.606800  0.458600  0.820500  1.0  -0.5578
  O  O86  1  0.569900  0.572800  0.798900  1.0  -0.467
  O  O87  1  0.538700  0.521600  0.645200  1.0  -0.5248
  O  O88  1  0.530400  0.416500  0.703100  1.0  -0.4864
  O  O89  1  0.220000  0.232800  0.991700  1.0  -0.507
  O  O90  1  0.317900  0.186600  0.933100  1.0  -0.4894
  O  O91  1  0.179500  0.106800  0.041400  1.0  -0.5597
  O  O92  1  0.201100  0.069900  0.927200  1.0  -0.4661
  O  O93  1  0.354800  0.038700  0.978400  1.0  -0.522
  O  O94  1  0.296900  0.030400  0.083500  1.0  -0.4863
  O  O95  1  0.720000  0.267200  0.008300  1.0  -0.5017
  O  O96  1  0.817900  0.313400  0.066900  1.0  -0.4876
  O  O97  1  0.679500  0.393200  0.958600  1.0  -0.5588
  O  O98  1  0.701100  0.430100  0.072800  1.0  -0.4657
  O  O99  1  0.854800  0.461300  0.021600  1.0  -0.5234
  O  O100  1  0.796900  0.469600  0.916500  1.0  -0.4879
  O  O101  1  0.280000  0.767200  0.491700  1.0  -0.499
  O  O102  1  0.182100  0.813400  0.433100  1.0  -0.4887
  O  O103  1  0.320500  0.893200  0.541400  1.0  -0.5589
  O  O104  1  0.298900  0.930100  0.427200  1.0  -0.4629
  O  O105  1  0.145200  0.961300  0.478400  1.0  -0.5202
  O  O106  1  0.203100  0.969600  0.583500  1.0  -0.4863
  O  O107  1  0.780000  0.732800  0.508300  1.0  -0.5002
  O  O108  1  0.682100  0.686600  0.566900  1.0  -0.4891
  O  O109  1  0.820500  0.606800  0.458600  1.0  -0.5581
  O  O110  1  0.798900  0.569900  0.572800  1.0  -0.469
  O  O111  1  0.645200  0.538700  0.521600  1.0  -0.5275
  O  O112  1  0.703100  0.530400  0.416500  1.0  -0.4888
  O  O113  1  0.991700  0.220000  0.232800  1.0  -0.501
  O  O114  1  0.933100  0.317900  0.186600  1.0  -0.4867
  O  O115  1  0.041400  0.179500  0.106800  1.0  -0.5533
  O  O116  1  0.927200  0.201100  0.069900  1.0  -0.465
  O  O117  1  0.978400  0.354800  0.038700  1.0  -0.5227
  O  O118  1  0.083500  0.296900  0.030400  1.0  -0.4873
  O  O119  1  0.008300  0.720000  0.267200  1.0  -0.4993
  O  O120  1  0.066900  0.817900  0.313400  1.0  -0.4856
  O  O121  1  0.958600  0.679500  0.393200  1.0  -0.5555
  O  O122  1  0.072800  0.701100  0.430100  1.0  -0.4649
  O  O123  1  0.021600  0.854800  0.461300  1.0  -0.5226
  O  O124  1  0.916500  0.796900  0.469600  1.0  -0.4867
  O  O125  1  0.491700  0.280000  0.767200  1.0  -0.5001
  O  O126  1  0.433100  0.182100  0.813400  1.0  -0.4863
  O  O127  1  0.541400  0.320500  0.893200  1.0  -0.5557
  O  O128  1  0.427200  0.298900  0.930100  1.0  -0.462
  O  O129  1  0.478400  0.145200  0.961300  1.0  -0.5245
  O  O130  1  0.583500  0.203100  0.969600  1.0  -0.4893
  O  O131  1  0.508300  0.780000  0.732800  1.0  -0.5001
  O  O132  1  0.566900  0.682100  0.686600  1.0  -0.4871
  O  O133  1  0.458600  0.820500  0.606800  1.0  -0.5577
  O  O134  1  0.572800  0.798900  0.569900  1.0  -0.4657
  O  O135  1  0.521600  0.645200  0.538700  1.0  -0.5268
  O  O136  1  0.416500  0.703100  0.530400  1.0  -0.4875
