# generated using pymatgen
data_Zn2Cu6H6C18BrO36
_symmetry_space_group_name_H-M   'P 1'
_cell_length_a   17.51230000
_cell_length_b   18.10040000
_cell_length_c   18.10840000
_cell_angle_alpha   90.00000000
_cell_angle_beta   92.11800000
_cell_angle_gamma   90.00000000
_symmetry_Int_Tables_number   1
_chemical_formula_structural   Zn2Cu6H6C18BrO36
_chemical_formula_sum   'Zn4 Cu12 H12 C36 Br2 O72'
_cell_volume   5736.07264364
_cell_formula_units_Z   2
loop_
 _symmetry_equiv_pos_site_id
 _symmetry_equiv_pos_as_xyz
  1  'x, y, z'
loop_
 _atom_site_type_symbol
 _atom_site_label
 _atom_site_symmetry_multiplicity
 _atom_site_fract_x
 _atom_site_fract_y
 _atom_site_fract_z
 _atom_site_occupancy
 _atom_site_charge
  Zn  Zn1  1  0.606390  0.808060  0.129730  1.0  1.0445
  Zn  Zn2  1  0.888630  0.013520  0.634580  1.0  1.0353
  Zn  Zn3  1  0.393610  0.308060  0.870270  1.0  1.0445
  Zn  Zn4  1  0.111370  0.513520  0.365420  1.0  1.0367
  Cu  Cu5  1  0.693720  0.958050  0.867920  1.0  0.8409
  Cu  Cu6  1  0.561110  0.053320  0.949010  1.0  0.8801
  Cu  Cu7  1  0.630490  0.114780  0.791960  1.0  0.8739
  Cu  Cu8  1  0.802760  0.861890  0.370500  1.0  0.8929
  Cu  Cu9  1  0.944580  0.766640  0.455140  1.0  1.0291
  Cu  Cu10  1  0.868390  0.706810  0.295500  1.0  0.9758
  Cu  Cu11  1  0.306280  0.458050  0.132080  1.0  0.8384
  Cu  Cu12  1  0.438890  0.553320  0.050990  1.0  0.8786
  Cu  Cu13  1  0.369510  0.614780  0.208040  1.0  0.873
  Cu  Cu14  1  0.197240  0.361890  0.629500  1.0  0.8936
  Cu  Cu15  1  0.055420  0.266640  0.544860  1.0  1.0287
  Cu  Cu16  1  0.131610  0.206810  0.704500  1.0  0.9751
  H  H17  1  0.553800  0.811500  0.972100  1.0  0.4532
  H  H18  1  0.389200  0.156500  0.829200  1.0  0.4389
  H  H19  1  0.721200  0.973400  0.629400  1.0  0.4496
  H  H20  1  0.941100  0.007400  0.485900  1.0  0.4357
  H  H21  1  0.115800  0.672200  0.327400  1.0  0.4467
  H  H22  1  0.770900  0.848800  0.131000  1.0  0.4451
  H  H23  1  0.446200  0.311500  0.027900  1.0  0.4523
  H  H24  1  0.610800  0.656500  0.170800  1.0  0.4387
  H  H25  1  0.278800  0.473400  0.370600  1.0  0.4433
  H  H26  1  0.058900  0.507400  0.514100  1.0  0.4355
  H  H27  1  0.884200  0.172200  0.672600  1.0  0.4453
  H  H28  1  0.229100  0.348800  0.869000  1.0  0.4465
  C  C29  1  0.676700  0.879800  0.993100  1.0  0.6952
  C  C30  1  0.483400  0.180800  0.933900  1.0  0.695
  C  C31  1  0.748600  0.086700  0.703300  1.0  0.6711
  C  C32  1  0.820000  0.937000  0.499000  1.0  0.7258
  C  C33  1  0.030700  0.645200  0.434400  1.0  0.7355
  C  C34  1  0.745300  0.734600  0.204200  1.0  0.7322
  C  C35  1  0.596200  0.905500  0.972100  1.0  0.1395
  C  C36  1  0.491300  0.152800  0.852800  1.0  0.155
  C  C37  1  0.719500  0.006900  0.725100  1.0  0.2172
  C  C38  1  0.900200  0.910600  0.479800  1.0  0.2263
  C  C39  1  0.013900  0.671500  0.352300  1.0  0.1558
  C  C40  1  0.772000  0.812800  0.227200  1.0  0.1668
  C  C41  1  0.555900  0.934800  0.039400  1.0  0.6969
  C  C42  1  0.517900  0.219100  0.805300  1.0  0.6968
  C  C43  1  0.787700  0.960100  0.752600  1.0  0.6344
  C  C44  1  0.946400  0.882900  0.551700  1.0  0.6683
  C  C45  1  0.986100  0.610700  0.303400  1.0  0.7054
  C  C46  1  0.703400  0.861400  0.252000  1.0  0.6523
  C  C47  1  0.323300  0.379800  0.006900  1.0  0.6963
  C  C48  1  0.516600  0.680800  0.066100  1.0  0.6927
  C  C49  1  0.251400  0.586700  0.296700  1.0  0.6719
  C  C50  1  0.180000  0.437000  0.501000  1.0  0.7255
  C  C51  1  0.969300  0.145200  0.565600  1.0  0.7372
  C  C52  1  0.254700  0.234600  0.795800  1.0  0.7317
  C  C53  1  0.403800  0.405500  0.027900  1.0  0.1374
  C  C54  1  0.508700  0.652800  0.147200  1.0  0.1548
  C  C55  1  0.280500  0.506900  0.274900  1.0  0.2179
  C  C56  1  0.099800  0.410600  0.520200  1.0  0.2279
  C  C57  1  0.986100  0.171500  0.647700  1.0  0.1558
  C  C58  1  0.228000  0.312800  0.772800  1.0  0.1706
  C  C59  1  0.444100  0.434800  0.960600  1.0  0.6955
  C  C60  1  0.482100  0.719100  0.194700  1.0  0.6974
  C  C61  1  0.212300  0.460100  0.247400  1.0  0.6334
  C  C62  1  0.053600  0.382900  0.448300  1.0  0.6675
  C  C63  1  0.013900  0.110700  0.696600  1.0  0.7056
  C  C64  1  0.296600  0.361400  0.748000  1.0  0.6507
  Br  Br65  1  0.796560  0.704120  0.425200  1.0  -0.2952
  Br  Br66  1  0.203440  0.204120  0.574800  1.0  -0.2966
  O  O67  1  0.728300  0.894700  0.950300  1.0  -0.5109
  O  O68  1  0.515200  0.141800  0.984600  1.0  -0.5162
  O  O69  1  0.708200  0.140900  0.724200  1.0  -0.5398
  O  O70  1  0.766900  0.915800  0.456000  1.0  -0.5119
  O  O71  1  0.001800  0.682200  0.485500  1.0  -0.5121
  O  O72  1  0.784400  0.680700  0.228900  1.0  -0.5112
  O  O73  1  0.688400  0.840400  0.051300  1.0  -0.5699
  O  O74  1  0.442800  0.236300  0.945900  1.0  -0.5555
  O  O75  1  0.805400  0.094500  0.664500  1.0  -0.5692
  O  O76  1  0.807600  0.973400  0.556200  1.0  -0.5724
  O  O77  1  0.071600  0.588000  0.445100  1.0  -0.5844
  O  O78  1  0.687100  0.728300  0.162400  1.0  -0.601
  O  O79  1  0.598500  0.959700  0.916400  1.0  -0.6245
  O  O80  1  0.544700  0.096100  0.851000  1.0  -0.6302
  O  O81  1  0.665100  0.013400  0.776900  1.0  -0.624
  O  O82  1  0.898900  0.859800  0.425400  1.0  -0.6084
  O  O83  1  0.959700  0.728900  0.354300  1.0  -0.616
  O  O84  1  0.829300  0.809800  0.280700  1.0  -0.6284
  O  O85  1  0.554700  0.845000  0.941600  1.0  -0.4597
  O  O86  1  0.421900  0.124200  0.828300  1.0  -0.458
  O  O87  1  0.688600  0.974800  0.660700  1.0  -0.4784
  O  O88  1  0.939200  0.976000  0.453300  1.0  -0.4659
  O  O89  1  0.082300  0.703800  0.328400  1.0  -0.4916
  O  O90  1  0.803800  0.845900  0.164400  1.0  -0.4799
  O  O91  1  0.540600  0.892200  0.090400  1.0  -0.5153
  O  O92  1  0.475700  0.273400  0.796600  1.0  -0.523
  O  O93  1  0.782000  0.929700  0.816300  1.0  -0.5216
  O  O94  1  0.957600  0.927700  0.602500  1.0  -0.5206
  O  O95  1  0.030500  0.554900  0.293800  1.0  -0.53
  O  O96  1  0.649000  0.874400  0.209400  1.0  -0.5017
  O  O97  1  0.535700  0.003400  0.039700  1.0  -0.5244
  O  O98  1  0.580800  0.209900  0.773900  1.0  -0.5187
  O  O99  1  0.844500  0.948800  0.715200  1.0  -0.5282
  O  O100  1  0.964900  0.817100  0.548900  1.0  -0.5106
  O  O101  1  0.921900  0.616200  0.273500  1.0  -0.4817
  O  O102  1  0.709900  0.884500  0.319900  1.0  -0.5136
  O  O103  1  0.271700  0.394700  0.049700  1.0  -0.5126
  O  O104  1  0.484800  0.641800  0.015400  1.0  -0.5157
  O  O105  1  0.291800  0.640900  0.275800  1.0  -0.5372
  O  O106  1  0.233100  0.415800  0.544000  1.0  -0.5098
  O  O107  1  0.998200  0.182200  0.514500  1.0  -0.5104
  O  O108  1  0.215600  0.180700  0.771100  1.0  -0.5149
  O  O109  1  0.311600  0.340400  0.948700  1.0  -0.5705
  O  O110  1  0.557200  0.736300  0.054100  1.0  -0.5571
  O  O111  1  0.194600  0.594500  0.335500  1.0  -0.568
  O  O112  1  0.192400  0.473400  0.443800  1.0  -0.5712
  O  O113  1  0.928400  0.088000  0.554900  1.0  -0.5855
  O  O114  1  0.312900  0.228300  0.837600  1.0  -0.5947
  O  O115  1  0.401500  0.459700  0.083600  1.0  -0.6231
  O  O116  1  0.455300  0.596100  0.149000  1.0  -0.6304
  O  O117  1  0.334900  0.513400  0.223100  1.0  -0.6241
  O  O118  1  0.101100  0.359800  0.574600  1.0  -0.6084
  O  O119  1  0.040300  0.228900  0.645700  1.0  -0.6172
  O  O120  1  0.170700  0.309800  0.719300  1.0  -0.6287
  O  O121  1  0.445300  0.345000  0.058400  1.0  -0.456
  O  O122  1  0.578100  0.624200  0.171700  1.0  -0.4603
  O  O123  1  0.311400  0.474800  0.339300  1.0  -0.4756
  O  O124  1  0.060800  0.476000  0.546700  1.0  -0.4669
  O  O125  1  0.917700  0.203800  0.671600  1.0  -0.4998
  O  O126  1  0.196200  0.345900  0.835600  1.0  -0.4831
  O  O127  1  0.459400  0.392200  0.909600  1.0  -0.5094
  O  O128  1  0.524300  0.773400  0.203400  1.0  -0.5247
  O  O129  1  0.218000  0.429700  0.183700  1.0  -0.5207
  O  O130  1  0.042400  0.427700  0.397500  1.0  -0.5219
  O  O131  1  0.969500  0.054900  0.706200  1.0  -0.534
  O  O132  1  0.351000  0.374400  0.790600  1.0  -0.5029
  O  O133  1  0.464300  0.503400  0.960300  1.0  -0.5242
  O  O134  1  0.419200  0.709900  0.226100  1.0  -0.5142
  O  O135  1  0.155500  0.448800  0.284800  1.0  -0.5311
  O  O136  1  0.035100  0.317100  0.451100  1.0  -0.5058
  O  O137  1  0.078100  0.116200  0.726500  1.0  -0.4843
  O  O138  1  0.290100  0.384500  0.680100  1.0  -0.5163
