# generated using pymatgen
data_CoH5C10NO4
_symmetry_space_group_name_H-M   'P 1'
_cell_length_a   10.25370000
_cell_length_b   10.93200000
_cell_length_c   13.33830000
_cell_angle_alpha   90.00000000
_cell_angle_beta   90.00000000
_cell_angle_gamma   113.14900000
_symmetry_Int_Tables_number   1
_chemical_formula_structural   CoH5C10NO4
_chemical_formula_sum   'Co4 H20 C40 N4 O16'
_cell_volume   1374.75610601
_cell_formula_units_Z   4
loop_
 _symmetry_equiv_pos_site_id
 _symmetry_equiv_pos_as_xyz
  1  'x, y, z'
loop_
 _atom_site_type_symbol
 _atom_site_label
 _atom_site_symmetry_multiplicity
 _atom_site_fract_x
 _atom_site_fract_y
 _atom_site_fract_z
 _atom_site_occupancy
 _atom_site_charge
  Co  Co1  1  0.288650  0.512230  0.163230  1.0  0.9092
  Co  Co2  1  0.211350  0.987770  0.663230  1.0  0.9095
  Co  Co3  1  0.711350  0.487770  0.836770  1.0  0.9088
  Co  Co4  1  0.788650  0.012230  0.336770  1.0  0.9085
  H  H5  1  0.155200  0.684600  0.417600  1.0  0.1183
  H  H6  1  0.991600  0.315600  0.119300  1.0  0.0815
  H  H7  1  0.870700  0.108700  0.056900  1.0  0.1083
  H  H8  1  0.239000  0.083200  0.997500  1.0  0.1145
  H  H9  1  0.350800  0.295500  0.053700  1.0  0.0787
  H  H10  1  0.344800  0.815400  0.917600  1.0  0.1179
  H  H11  1  0.508400  0.184400  0.619300  1.0  0.0825
  H  H12  1  0.629300  0.391300  0.556900  1.0  0.1082
  H  H13  1  0.261000  0.416800  0.497500  1.0  0.1144
  H  H14  1  0.149200  0.204500  0.553700  1.0  0.0788
  H  H15  1  0.844800  0.315400  0.582400  1.0  0.1174
  H  H16  1  0.008400  0.684400  0.880700  1.0  0.0829
  H  H17  1  0.129300  0.891300  0.943100  1.0  0.1082
  H  H18  1  0.761000  0.916800  0.002500  1.0  0.1148
  H  H19  1  0.649200  0.704500  0.946300  1.0  0.079
  H  H20  1  0.655200  0.184600  0.082400  1.0  0.1182
  H  H21  1  0.491600  0.815600  0.380700  1.0  0.082
  H  H22  1  0.370700  0.608700  0.443100  1.0  0.1084
  H  H23  1  0.739000  0.583200  0.502500  1.0  0.1149
  H  H24  1  0.850800  0.795500  0.446300  1.0  0.079
  C  C25  1  0.117600  0.481100  0.304300  1.0  0.6504
  C  C26  1  0.047800  0.488000  0.403230  1.0  -0.0561
  C  C27  1  0.952400  0.375700  0.453310  1.0  -0.1059
  C  C28  1  0.894500  0.241300  0.404300  1.0  0.6517
  C  C29  1  0.092600  0.609700  0.450850  1.0  -0.0548
  C  C30  1  0.042800  0.269000  0.093400  1.0  0.1881
  C  C31  1  0.969300  0.143600  0.056500  1.0  -0.174
  C  C32  1  0.038600  0.068400  0.019100  1.0  0.0977
  C  C33  1  0.185500  0.129100  0.020600  1.0  -0.1671
  C  C34  1  0.252200  0.256600  0.056200  1.0  0.1613
  C  C35  1  0.382400  0.018900  0.804300  1.0  0.6504
  C  C36  1  0.452200  0.012000  0.903230  1.0  -0.0548
  C  C37  1  0.547600  0.124300  0.953310  1.0  -0.1056
  C  C38  1  0.605500  0.258700  0.904300  1.0  0.6507
  C  C39  1  0.407400  0.890300  0.950850  1.0  -0.0553
  C  C40  1  0.457200  0.231000  0.593400  1.0  0.1887
  C  C41  1  0.530700  0.356400  0.556500  1.0  -0.1745
  C  C42  1  0.461400  0.431600  0.519100  1.0  0.0975
  C  C43  1  0.314500  0.370900  0.520600  1.0  -0.166
  C  C44  1  0.247800  0.243400  0.556200  1.0  0.1614
  C  C45  1  0.882400  0.518900  0.695700  1.0  0.6502
  C  C46  1  0.952200  0.512000  0.596770  1.0  -0.0544
  C  C47  1  0.047600  0.624300  0.546690  1.0  -0.1057
  C  C48  1  0.105500  0.758700  0.595700  1.0  0.6497
  C  C49  1  0.907400  0.390300  0.549150  1.0  -0.0552
  C  C50  1  0.957200  0.731000  0.906600  1.0  0.1882
  C  C51  1  0.030700  0.856400  0.943500  1.0  -0.1743
  C  C52  1  0.961400  0.931600  0.980900  1.0  0.097
  C  C53  1  0.814500  0.870900  0.979400  1.0  -0.1664
  C  C54  1  0.747800  0.743400  0.943800  1.0  0.1612
  C  C55  1  0.617600  0.981100  0.195700  1.0  0.6505
  C  C56  1  0.547800  0.988000  0.096770  1.0  -0.0547
  C  C57  1  0.452400  0.875700  0.046690  1.0  -0.1051
  C  C58  1  0.394500  0.741300  0.095700  1.0  0.6507
  C  C59  1  0.592600  0.109700  0.049150  1.0  -0.0549
  C  C60  1  0.542800  0.769000  0.406600  1.0  0.1879
  C  C61  1  0.469300  0.643600  0.443500  1.0  -0.1737
  C  C62  1  0.538600  0.568400  0.480900  1.0  0.0973
  C  C63  1  0.685500  0.629100  0.479400  1.0  -0.1671
  C  C64  1  0.752200  0.756600  0.443800  1.0  0.1612
  N  N65  1  0.184200  0.328000  0.093970  1.0  -0.3543
  N  N66  1  0.315800  0.172000  0.593970  1.0  -0.3535
  N  N67  1  0.815800  0.672000  0.906030  1.0  -0.3535
  N  N68  1  0.684200  0.828000  0.406030  1.0  -0.3541
  O  O69  1  0.209290  0.431990  0.306300  1.0  -0.5815
  O  O70  1  0.096510  0.534910  0.227460  1.0  -0.5323
  O  O71  1  0.898030  0.231630  0.310970  1.0  -0.5603
  O  O72  1  0.840950  0.139750  0.458400  1.0  -0.5736
  O  O73  1  0.290710  0.068010  0.806300  1.0  -0.582
  O  O74  1  0.403490  0.965090  0.727460  1.0  -0.534
  O  O75  1  0.601970  0.268370  0.810970  1.0  -0.5597
  O  O76  1  0.659050  0.360250  0.958400  1.0  -0.5729
  O  O77  1  0.790710  0.568010  0.693700  1.0  -0.5812
  O  O78  1  0.903490  0.465090  0.772540  1.0  -0.5357
  O  O79  1  0.101970  0.768370  0.689030  1.0  -0.5591
  O  O80  1  0.159050  0.860250  0.541600  1.0  -0.575
  O  O81  1  0.709290  0.931990  0.193700  1.0  -0.5807
  O  O82  1  0.596510  0.034910  0.272540  1.0  -0.533
  O  O83  1  0.398030  0.731630  0.189030  1.0  -0.5591
  O  O84  1  0.340950  0.639750  0.041600  1.0  -0.5745
