# generated using pymatgen
data_CoH9C15(NO2)2
_symmetry_space_group_name_H-M   'P 1'
_cell_length_a   8.81020000
_cell_length_b   15.63230000
_cell_length_c   16.35920000
_cell_angle_alpha   103.54400000
_cell_angle_beta   100.81100000
_cell_angle_gamma   90.19090000
_symmetry_Int_Tables_number   1
_chemical_formula_structural   CoH9C15(NO2)2
_chemical_formula_sum   'Co4 H36 C60 N8 O16'
_cell_volume   2148.87980524
_cell_formula_units_Z   4
loop_
 _symmetry_equiv_pos_site_id
 _symmetry_equiv_pos_as_xyz
  1  'x, y, z'
loop_
 _atom_site_type_symbol
 _atom_site_label
 _atom_site_symmetry_multiplicity
 _atom_site_fract_x
 _atom_site_fract_y
 _atom_site_fract_z
 _atom_site_occupancy
 _atom_site_charge
  Co  Co1  1  0.355380  0.950350  0.359730  1.0  1.0207
  Co  Co2  1  0.811660  0.790120  0.732360  1.0  0.8738
  Co  Co3  1  0.644620  0.049650  0.640270  1.0  1.0197
  Co  Co4  1  0.188340  0.209880  0.267640  1.0  0.8734
  H  H5  1  0.370500  0.828000  0.754900  1.0  0.0939
  H  H6  1  0.074100  0.002800  0.604300  1.0  0.1083
  H  H7  1  0.263900  0.956900  0.164200  1.0  0.0701
  H  H8  1  0.347700  0.918400  0.037300  1.0  0.1257
  H  H9  1  0.737000  0.847100  0.163900  1.0  0.1137
  H  H10  1  0.634300  0.877300  0.284200  1.0  0.0757
  H  H11  1  0.148400  0.791000  0.244800  1.0  0.079
  H  H12  1  0.112000  0.642000  0.225100  1.0  0.1201
  H  H13  1  0.467000  0.651500  0.419000  1.0  0.1189
  H  H14  1  0.489000  0.799900  0.435900  1.0  0.081
  H  H15  1  0.160000  0.501700  0.181000  1.0  0.1276
  H  H16  1  0.129300  0.352700  0.167400  1.0  0.0815
  H  H17  1  0.327300  0.374300  0.403100  1.0  0.0795
  H  H18  1  0.361900  0.523200  0.424800  1.0  0.1118
  H  H19  1  0.812700  0.937000  0.047400  1.0  0.1306
  H  H20  1  0.901500  0.900700  0.919800  1.0  0.082
  H  H21  1  0.551300  0.734900  0.814300  1.0  0.0742
  H  H22  1  0.445400  0.772100  0.934500  1.0  0.1334
  H  H23  1  0.629500  0.172000  0.245100  1.0  0.094
  H  H24  1  0.925900  0.997200  0.395700  1.0  0.1082
  H  H25  1  0.736100  0.043100  0.835800  1.0  0.0712
  H  H26  1  0.652300  0.081600  0.962700  1.0  0.1258
  H  H27  1  0.263000  0.152900  0.836100  1.0  0.1155
  H  H28  1  0.365700  0.122700  0.715800  1.0  0.0759
  H  H29  1  0.851600  0.209000  0.755200  1.0  0.0798
  H  H30  1  0.888000  0.358000  0.774900  1.0  0.1205
  H  H31  1  0.533000  0.348500  0.581000  1.0  0.119
  H  H32  1  0.511000  0.200100  0.564100  1.0  0.0815
  H  H33  1  0.840000  0.498300  0.819000  1.0  0.1283
  H  H34  1  0.870700  0.647300  0.832600  1.0  0.0817
  H  H35  1  0.672700  0.625700  0.596900  1.0  0.08
  H  H36  1  0.638100  0.476800  0.575200  1.0  0.1116
  H  H37  1  0.187300  0.063000  0.952600  1.0  0.1313
  H  H38  1  0.098500  0.099300  0.080200  1.0  0.0824
  H  H39  1  0.448700  0.265100  0.185700  1.0  0.0748
  H  H40  1  0.554600  0.227900  0.065500  1.0  0.1331
  C  C41  1  0.331000  0.984470  0.548570  1.0  0.7028
  C  C42  1  0.530100  0.866960  0.648500  1.0  0.6944
  C  C43  1  0.123900  0.855630  0.818360  1.0  0.6983
  C  C44  1  0.924400  0.970480  0.718730  1.0  0.7024
  C  C45  1  0.279400  0.946150  0.615890  1.0  -0.0983
  C  C46  1  0.369200  0.893030  0.662610  1.0  -0.1242
  C  C47  1  0.311500  0.864480  0.725360  1.0  -0.0374
  C  C48  1  0.169000  0.888200  0.745880  1.0  -0.0818
  C  C49  1  0.079900  0.941690  0.700120  1.0  -0.1419
  C  C50  1  0.135400  0.968570  0.635530  1.0  -0.0406
  C  C51  1  0.359800  0.932400  0.164020  1.0  0.1862
  C  C52  1  0.410500  0.911100  0.087400  1.0  -0.2109
  C  C53  1  0.556700  0.878580  0.085830  1.0  0.1134
  C  C54  1  0.637900  0.868000  0.161330  1.0  -0.2239
  C  C55  1  0.576100  0.887600  0.234090  1.0  0.1813
  C  C56  1  0.213900  0.762470  0.280300  1.0  0.1638
  C  C57  1  0.191500  0.672640  0.267800  1.0  -0.2053
  C  C58  1  0.288400  0.627950  0.319220  1.0  0.082
  C  C59  1  0.400300  0.678210  0.382420  1.0  -0.2033
  C  C60  1  0.413800  0.767530  0.391740  1.0  0.1749
  C  C61  1  0.266600  0.531190  0.307300  1.0  0.0983
  C  C62  1  0.194900  0.477500  0.227600  1.0  -0.2028
  C  C63  1  0.177500  0.387800  0.220100  1.0  0.1813
  C  C64  1  0.292500  0.399900  0.357500  1.0  0.1776
  C  C65  1  0.314000  0.490200  0.371000  1.0  -0.2029
  C  C66  1  0.618200  0.856590  0.005550  1.0  0.1112
  C  C67  1  0.756700  0.896300  0.000400  1.0  -0.1963
  C  C68  1  0.809600  0.873700  0.923300  1.0  0.1671
  C  C69  1  0.603500  0.777400  0.861050  1.0  0.1591
  C  C70  1  0.540300  0.797900  0.934000  1.0  -0.2214
  C  C71  1  0.669000  0.015530  0.451430  1.0  0.7028
  C  C72  1  0.469900  0.133040  0.351500  1.0  0.6943
  C  C73  1  0.876100  0.144370  0.181640  1.0  0.6963
  C  C74  1  0.075600  0.029520  0.281270  1.0  0.7029
  C  C75  1  0.720600  0.053850  0.384110  1.0  -0.098
  C  C76  1  0.630800  0.106970  0.337390  1.0  -0.1228
  C  C77  1  0.688500  0.135520  0.274640  1.0  -0.038
  C  C78  1  0.831000  0.111800  0.254120  1.0  -0.0825
  C  C79  1  0.920100  0.058310  0.299880  1.0  -0.1425
  C  C80  1  0.864600  0.031430  0.364470  1.0  -0.0401
  C  C81  1  0.640200  0.067600  0.835980  1.0  0.1864
  C  C82  1  0.589500  0.088900  0.912600  1.0  -0.21
  C  C83  1  0.443300  0.121420  0.914170  1.0  0.1136
  C  C84  1  0.362100  0.132000  0.838670  1.0  -0.2236
  C  C85  1  0.423900  0.112400  0.765910  1.0  0.1802
  C  C86  1  0.786100  0.237530  0.719700  1.0  0.1642
  C  C87  1  0.808500  0.327360  0.732200  1.0  -0.2047
  C  C88  1  0.711600  0.372050  0.680780  1.0  0.0821
  C  C89  1  0.599700  0.321790  0.617580  1.0  -0.2032
  C  C90  1  0.586200  0.232470  0.608260  1.0  0.1751
  C  C91  1  0.733400  0.468810  0.692700  1.0  0.0986
  C  C92  1  0.805100  0.522500  0.772400  1.0  -0.2018
  C  C93  1  0.822500  0.612200  0.779900  1.0  0.1793
  C  C94  1  0.707500  0.600100  0.642500  1.0  0.1775
  C  C95  1  0.686000  0.509800  0.629000  1.0  -0.2037
  C  C96  1  0.381800  0.143410  0.994450  1.0  0.111
  C  C97  1  0.243300  0.103700  0.999600  1.0  -0.1955
  C  C98  1  0.190400  0.126300  0.076700  1.0  0.1674
  C  C99  1  0.396500  0.222600  0.138950  1.0  0.1588
  C  C100  1  0.459700  0.202100  0.066000  1.0  -0.2231
  N  N101  1  0.438000  0.920320  0.237170  1.0  -0.3431
  N  N102  1  0.324500  0.810530  0.340610  1.0  -0.3244
  N  N103  1  0.226000  0.348570  0.284180  1.0  -0.3467
  N  N104  1  0.733900  0.814580  0.853720  1.0  -0.3125
  N  N105  1  0.562000  0.079680  0.762830  1.0  -0.3538
  N  N106  1  0.675500  0.189470  0.659390  1.0  -0.3234
  N  N107  1  0.774000  0.651430  0.715820  1.0  -0.3477
  N  N108  1  0.266100  0.185420  0.146280  1.0  -0.3131
  O  O109  1  0.270660  0.950570  0.472670  1.0  -0.5758
  O  O110  1  0.422350  0.052430  0.573790  1.0  -0.5975
  O  O111  1  0.582030  0.801020  0.674470  1.0  -0.6072
  O  O112  1  0.601760  0.911700  0.612390  1.0  -0.5985
  O  O113  1  0.182800  0.894840  0.892370  1.0  -0.5886
  O  O114  1  0.035070  0.786210  0.799210  1.0  -0.6289
  O  O115  1  0.872770  0.038030  0.695250  1.0  -0.5938
  O  O116  1  0.855050  0.926600  0.756780  1.0  -0.5825
  O  O117  1  0.729340  0.049430  0.527330  1.0  -0.5766
  O  O118  1  0.577650  0.947570  0.426210  1.0  -0.5977
  O  O119  1  0.417970  0.198980  0.325530  1.0  -0.6074
  O  O120  1  0.398240  0.088300  0.387610  1.0  -0.5996
  O  O121  1  0.817200  0.105160  0.107630  1.0  -0.5889
  O  O122  1  0.964930  0.213790  0.200790  1.0  -0.6282
  O  O123  1  0.127230  0.961970  0.304750  1.0  -0.5943
  O  O124  1  0.144950  0.073400  0.243220  1.0  -0.5826
