# generated using pymatgen
data_CuH3(C2O)4
_symmetry_space_group_name_H-M   'P 1'
_cell_length_a   13.48070000
_cell_length_b   13.48070000
_cell_length_c   13.48070000
_cell_angle_alpha   86.55350000
_cell_angle_beta   86.55350000
_cell_angle_gamma   86.55350000
_symmetry_Int_Tables_number   1
_chemical_formula_structural   CuH3(C2O)4
_chemical_formula_sum   'Cu6 H18 C48 O24'
_cell_volume   2437.05616533
_cell_formula_units_Z   6
loop_
 _symmetry_equiv_pos_site_id
 _symmetry_equiv_pos_as_xyz
  1  'x, y, z'
loop_
 _atom_site_type_symbol
 _atom_site_label
 _atom_site_symmetry_multiplicity
 _atom_site_fract_x
 _atom_site_fract_y
 _atom_site_fract_z
 _atom_site_occupancy
 _atom_site_charge
  Cu  Cu1  1  0.019750  0.591710  0.019750  1.0  0.8998
  Cu  Cu2  1  0.019750  0.019750  0.591710  1.0  0.9013
  Cu  Cu3  1  0.591710  0.019750  0.019750  1.0  0.9004
  Cu  Cu4  1  0.408290  0.980250  0.980250  1.0  0.9005
  Cu  Cu5  1  0.980250  0.980250  0.408290  1.0  0.902
  Cu  Cu6  1  0.980250  0.408290  0.980250  1.0  0.9018
  H  H7  1  0.999900  0.441500  0.659800  1.0  0.1107
  H  H8  1  0.659800  0.999900  0.441500  1.0  0.1121
  H  H9  1  0.441500  0.659800  0.999900  1.0  0.1102
  H  H10  1  0.558500  0.000100  0.340200  1.0  0.1116
  H  H11  1  0.000100  0.340200  0.558500  1.0  0.1117
  H  H12  1  0.340200  0.558500  0.000100  1.0  0.1117
  H  H13  1  0.000100  0.558500  0.340200  1.0  0.1116
  H  H14  1  0.340200  0.000100  0.558500  1.0  0.1122
  H  H15  1  0.558500  0.340200  0.000100  1.0  0.1106
  H  H16  1  0.441500  0.999900  0.659800  1.0  0.1116
  H  H17  1  0.999900  0.659800  0.441500  1.0  0.1117
  H  H18  1  0.659800  0.441500  0.999900  1.0  0.1112
  H  H19  1  0.015800  0.727800  0.727800  1.0  0.1225
  H  H20  1  0.727800  0.015800  0.727800  1.0  0.1221
  H  H21  1  0.727800  0.727800  0.015800  1.0  0.1207
  H  H22  1  0.272200  0.984200  0.272200  1.0  0.1219
  H  H23  1  0.984200  0.272200  0.272200  1.0  0.1222
  H  H24  1  0.272200  0.272200  0.984200  1.0  0.1213
  C  C25  1  0.007340  0.548350  0.817550  1.0  0.6826
  C  C26  1  0.002220  0.509960  0.639060  1.0  -0.0538
  C  C27  1  0.007170  0.579690  0.709550  1.0  -0.1408
  C  C28  1  0.817550  0.007340  0.548350  1.0  0.6815
  C  C29  1  0.639060  0.002220  0.509960  1.0  -0.0534
  C  C30  1  0.709550  0.007170  0.579690  1.0  -0.1394
  C  C31  1  0.548350  0.817550  0.007340  1.0  0.682
  C  C32  1  0.509960  0.639060  0.002220  1.0  -0.0546
  C  C33  1  0.579690  0.709550  0.007170  1.0  -0.1387
  C  C34  1  0.451650  0.992660  0.182450  1.0  0.6825
  C  C35  1  0.490040  0.997780  0.360940  1.0  -0.0545
  C  C36  1  0.420310  0.992830  0.290450  1.0  -0.1399
  C  C37  1  0.992660  0.182450  0.451650  1.0  0.6819
  C  C38  1  0.997780  0.360940  0.490040  1.0  -0.0526
  C  C39  1  0.992830  0.290450  0.420310  1.0  -0.1393
  C  C40  1  0.182450  0.451650  0.992660  1.0  0.6824
  C  C41  1  0.360940  0.490040  0.997780  1.0  -0.0547
  C  C42  1  0.290450  0.420310  0.992830  1.0  -0.1401
  C  C43  1  0.992660  0.451650  0.182450  1.0  0.6826
  C  C44  1  0.997780  0.490040  0.360940  1.0  -0.0536
  C  C45  1  0.992830  0.420310  0.290450  1.0  -0.1397
  C  C46  1  0.182450  0.992660  0.451650  1.0  0.6822
  C  C47  1  0.360940  0.997780  0.490040  1.0  -0.0542
  C  C48  1  0.290450  0.992830  0.420310  1.0  -0.1401
  C  C49  1  0.451650  0.182450  0.992660  1.0  0.6821
  C  C50  1  0.490040  0.360940  0.997780  1.0  -0.0537
  C  C51  1  0.420310  0.290450  0.992830  1.0  -0.1391
  C  C52  1  0.548350  0.007340  0.817550  1.0  0.6832
  C  C53  1  0.509960  0.002220  0.639060  1.0  -0.0552
  C  C54  1  0.579690  0.007170  0.709550  1.0  -0.14
  C  C55  1  0.007340  0.817550  0.548350  1.0  0.6819
  C  C56  1  0.002220  0.639060  0.509960  1.0  -0.0527
  C  C57  1  0.007170  0.709550  0.579690  1.0  -0.1391
  C  C58  1  0.817550  0.548350  0.007340  1.0  0.6814
  C  C59  1  0.639060  0.509960  0.002220  1.0  -0.0538
  C  C60  1  0.709550  0.579690  0.007170  1.0  -0.1392
  C  C61  1  0.000560  0.538560  0.538560  1.0  0.0271
  C  C62  1  0.010880  0.679830  0.679830  1.0  0.0037
  C  C63  1  0.538560  0.000560  0.538560  1.0  0.0271
  C  C64  1  0.679830  0.010880  0.679830  1.0  0.0048
  C  C65  1  0.538560  0.538560  0.000560  1.0  0.0271
  C  C66  1  0.679830  0.679830  0.010880  1.0  0.0042
  C  C67  1  0.461440  0.999440  0.461440  1.0  0.0272
  C  C68  1  0.320170  0.989120  0.320170  1.0  0.0047
  C  C69  1  0.999440  0.461440  0.461440  1.0  0.027
  C  C70  1  0.989120  0.320170  0.320170  1.0  0.0033
  C  C71  1  0.461440  0.461440  0.999440  1.0  0.0269
  C  C72  1  0.320170  0.320170  0.989120  1.0  0.0041
  O  O73  1  0.023020  0.614020  0.875790  1.0  -0.5617
  O  O74  1  0.990100  0.459350  0.841500  1.0  -0.5643
  O  O75  1  0.875790  0.023020  0.614020  1.0  -0.5616
  O  O76  1  0.841500  0.990100  0.459350  1.0  -0.5653
  O  O77  1  0.614020  0.875790  0.023020  1.0  -0.562
  O  O78  1  0.459350  0.841500  0.990100  1.0  -0.5657
  O  O79  1  0.385980  0.976980  0.124210  1.0  -0.5623
  O  O80  1  0.540650  0.009900  0.158500  1.0  -0.5643
  O  O81  1  0.976980  0.124210  0.385980  1.0  -0.5631
  O  O82  1  0.009900  0.158500  0.540650  1.0  -0.5651
  O  O83  1  0.124210  0.385980  0.976980  1.0  -0.5616
  O  O84  1  0.158500  0.540650  0.009900  1.0  -0.565
  O  O85  1  0.976980  0.385980  0.124210  1.0  -0.5625
  O  O86  1  0.009900  0.540650  0.158500  1.0  -0.5647
  O  O87  1  0.124210  0.976980  0.385980  1.0  -0.5622
  O  O88  1  0.158500  0.009900  0.540650  1.0  -0.5652
  O  O89  1  0.385980  0.124210  0.976980  1.0  -0.5622
  O  O90  1  0.540650  0.158500  0.009900  1.0  -0.565
  O  O91  1  0.614020  0.023020  0.875790  1.0  -0.5624
  O  O92  1  0.459350  0.990100  0.841500  1.0  -0.5659
  O  O93  1  0.023020  0.875790  0.614020  1.0  -0.5625
  O  O94  1  0.990100  0.841500  0.459350  1.0  -0.5647
  O  O95  1  0.875790  0.614020  0.023020  1.0  -0.5605
  O  O96  1  0.841500  0.459350  0.990100  1.0  -0.5646
