# generated using pymatgen
data_CdC4
_symmetry_space_group_name_H-M   'P 1'
_cell_length_a   15.17600000
_cell_length_b   25.73200000
_cell_length_c   8.46400000
_cell_angle_alpha   90.00000000
_cell_angle_beta   132.72200000
_cell_angle_gamma   90.00000000
_symmetry_Int_Tables_number   1
_chemical_formula_structural   CdC4
_chemical_formula_sum   'Cd10 C40'
_cell_volume   2428.22792569
_cell_formula_units_Z   10
loop_
 _symmetry_equiv_pos_site_id
 _symmetry_equiv_pos_as_xyz
  1  'x, y, z'
loop_
 _atom_site_type_symbol
 _atom_site_label
 _atom_site_symmetry_multiplicity
 _atom_site_fract_x
 _atom_site_fract_y
 _atom_site_fract_z
 _atom_site_occupancy
 _atom_site_charge
  Cd  Cd1  1  0.340840  0.151400  0.560410  1.0  0.5817
  Cd  Cd2  1  0.840840  0.651400  0.560410  1.0  0.5817
  Cd  Cd3  1  0.659160  0.151400  0.439590  1.0  0.5832
  Cd  Cd4  1  0.159160  0.651400  0.439590  1.0  0.5832
  Cd  Cd5  1  0.659160  0.848600  0.439590  1.0  0.5837
  Cd  Cd6  1  0.159160  0.348600  0.439590  1.0  0.5837
  Cd  Cd7  1  0.340840  0.848600  0.560410  1.0  0.5823
  Cd  Cd8  1  0.840840  0.348600  0.560410  1.0  0.5823
  Cd  Cd9  1  0.000000  0.000000  0.000000  1.0  0.9812
  Cd  Cd10  1  0.500000  0.500000  0.000000  1.0  0.9812
  C  C11  1  0.142400  0.061800  0.216000  1.0  -0.1173
  C  C12  1  0.209000  0.091200  0.335700  1.0  -0.1716
  C  C13  1  0.467200  0.159300  0.511900  1.0  -0.1805
  C  C14  1  0.268000  0.229800  0.511200  1.0  -0.17
  C  C15  1  0.466200  0.138700  0.909200  1.0  -0.1884
  C  C16  1  0.642400  0.561800  0.216000  1.0  -0.1173
  C  C17  1  0.709000  0.591200  0.335700  1.0  -0.1716
  C  C18  1  0.967200  0.659300  0.511900  1.0  -0.1805
  C  C19  1  0.768000  0.729800  0.511200  1.0  -0.17
  C  C20  1  0.966200  0.638700  0.909200  1.0  -0.1884
  C  C21  1  0.857600  0.061800  0.784000  1.0  -0.1182
  C  C22  1  0.791000  0.091200  0.664300  1.0  -0.1706
  C  C23  1  0.532800  0.159300  0.488100  1.0  -0.1808
  C  C24  1  0.732000  0.229800  0.488800  1.0  -0.1691
  C  C25  1  0.533800  0.138700  0.090800  1.0  -0.1881
  C  C26  1  0.357600  0.561800  0.784000  1.0  -0.118
  C  C27  1  0.291000  0.591200  0.664300  1.0  -0.1706
  C  C28  1  0.032800  0.659300  0.488100  1.0  -0.1808
  C  C29  1  0.232000  0.729800  0.488800  1.0  -0.1691
  C  C30  1  0.033800  0.638700  0.090800  1.0  -0.1881
  C  C31  1  0.857600  0.938200  0.784000  1.0  -0.1191
  C  C32  1  0.791000  0.908800  0.664300  1.0  -0.1697
  C  C33  1  0.532800  0.840700  0.488100  1.0  -0.18
  C  C34  1  0.732000  0.770200  0.488800  1.0  -0.1706
  C  C35  1  0.533800  0.861300  0.090800  1.0  -0.1879
  C  C36  1  0.357600  0.438200  0.784000  1.0  -0.1191
  C  C37  1  0.291000  0.408800  0.664300  1.0  -0.1697
  C  C38  1  0.032800  0.340700  0.488100  1.0  -0.18
  C  C39  1  0.232000  0.270200  0.488800  1.0  -0.1706
  C  C40  1  0.033800  0.361300  0.090800  1.0  -0.1879
  C  C41  1  0.142400  0.938200  0.216000  1.0  -0.1192
  C  C42  1  0.209000  0.908800  0.335700  1.0  -0.17
  C  C43  1  0.467200  0.840700  0.511900  1.0  -0.1811
  C  C44  1  0.268000  0.770200  0.511200  1.0  -0.1715
  C  C45  1  0.466200  0.861300  0.909200  1.0  -0.1883
  C  C46  1  0.642400  0.438200  0.216000  1.0  -0.1192
  C  C47  1  0.709000  0.408800  0.335700  1.0  -0.17
  C  C48  1  0.967200  0.340700  0.511900  1.0  -0.1811
  C  C49  1  0.768000  0.270200  0.511200  1.0  -0.1715
  C  C50  1  0.966200  0.361300  0.909200  1.0  -0.1883
