# generated using pymatgen
data_ZnH2C2N3F
_symmetry_space_group_name_H-M   'P 1'
_cell_length_a   18.60110000
_cell_length_b   18.60110000
_cell_length_c   9.90000000
_cell_angle_alpha   90.00000000
_cell_angle_beta   90.00000000
_cell_angle_gamma   120.00000000
_symmetry_Int_Tables_number   1
_chemical_formula_structural   ZnH2C2N3F
_chemical_formula_sum   'Zn18 H36 C36 N54 F18'
_cell_volume   2966.49131626
_cell_formula_units_Z   18
loop_
 _symmetry_equiv_pos_site_id
 _symmetry_equiv_pos_as_xyz
  1  'x, y, z'
loop_
 _atom_site_type_symbol
 _atom_site_label
 _atom_site_symmetry_multiplicity
 _atom_site_fract_x
 _atom_site_fract_y
 _atom_site_fract_z
 _atom_site_occupancy
 _atom_site_charge
  Zn  Zn1  1  0.374850  0.374850  0.250000  1.0  0.9603
  Zn  Zn2  1  0.041520  0.708180  0.583330  1.0  0.9603
  Zn  Zn3  1  0.708180  0.041520  0.916670  1.0  0.9603
  Zn  Zn4  1  0.625150  0.000000  0.250000  1.0  0.9592
  Zn  Zn5  1  0.291820  0.333333  0.583330  1.0  0.9592
  Zn  Zn6  1  0.958480  0.666667  0.916670  1.0  0.9592
  Zn  Zn7  1  0.000000  0.625150  0.250000  1.0  0.9604
  Zn  Zn8  1  0.666667  0.958480  0.583330  1.0  0.9604
  Zn  Zn9  1  0.333333  0.291820  0.916670  1.0  0.9603
  Zn  Zn10  1  0.625150  0.625150  0.750000  1.0  0.9601
  Zn  Zn11  1  0.291820  0.958480  0.083330  1.0  0.9601
  Zn  Zn12  1  0.958480  0.291820  0.416670  1.0  0.96
  Zn  Zn13  1  0.374850  0.000000  0.750000  1.0  0.9591
  Zn  Zn14  1  0.041520  0.333333  0.083330  1.0  0.9591
  Zn  Zn15  1  0.708180  0.666667  0.416670  1.0  0.959
  Zn  Zn16  1  0.000000  0.374850  0.750000  1.0  0.96
  Zn  Zn17  1  0.666667  0.708180  0.083330  1.0  0.96
  Zn  Zn18  1  0.333333  0.041520  0.416670  1.0  0.96
  H  H19  1  0.397400  0.211600  0.251400  1.0  0.0718
  H  H20  1  0.064070  0.544930  0.584730  1.0  0.0718
  H  H21  1  0.730730  0.878270  0.918070  1.0  0.0685
  H  H22  1  0.788400  0.185800  0.251400  1.0  0.0675
  H  H23  1  0.455070  0.519130  0.584730  1.0  0.0674
  H  H24  1  0.121730  0.852470  0.918070  1.0  0.0703
  H  H25  1  0.814200  0.602600  0.251400  1.0  0.0705
  H  H26  1  0.480870  0.935930  0.584730  1.0  0.0706
  H  H27  1  0.147530  0.269270  0.918070  1.0  0.0689
  H  H28  1  0.211600  0.397400  0.248600  1.0  0.0721
  H  H29  1  0.878270  0.730730  0.581930  1.0  0.0696
  H  H30  1  0.544930  0.064070  0.915270  1.0  0.0721
  H  H31  1  0.185800  0.788400  0.248600  1.0  0.0682
  H  H32  1  0.852470  0.121730  0.581930  1.0  0.0714
  H  H33  1  0.519130  0.455070  0.915270  1.0  0.0681
  H  H34  1  0.602600  0.814200  0.248600  1.0  0.0702
  H  H35  1  0.269270  0.147530  0.581930  1.0  0.0681
  H  H36  1  0.935930  0.480870  0.915270  1.0  0.0703
  H  H37  1  0.602600  0.788400  0.748600  1.0  0.0716
  H  H38  1  0.269270  0.121730  0.081930  1.0  0.0686
  H  H39  1  0.935930  0.455070  0.415270  1.0  0.0715
  H  H40  1  0.211600  0.814200  0.748600  1.0  0.0672
  H  H41  1  0.878270  0.147530  0.081930  1.0  0.0704
  H  H42  1  0.544930  0.480870  0.415270  1.0  0.0672
  H  H43  1  0.185800  0.397400  0.748600  1.0  0.0723
  H  H44  1  0.852470  0.730730  0.081930  1.0  0.0704
  H  H45  1  0.519130  0.064070  0.415270  1.0  0.0724
  H  H46  1  0.788400  0.602600  0.751400  1.0  0.0715
  H  H47  1  0.455070  0.935930  0.084730  1.0  0.0715
  H  H48  1  0.121730  0.269270  0.418070  1.0  0.0687
  H  H49  1  0.814200  0.211600  0.751400  1.0  0.0679
  H  H50  1  0.480870  0.544930  0.084730  1.0  0.0678
  H  H51  1  0.147530  0.878270  0.418070  1.0  0.0704
  H  H52  1  0.397400  0.185800  0.751400  1.0  0.0704
  H  H53  1  0.064070  0.519130  0.084730  1.0  0.0705
  H  H54  1  0.730730  0.852470  0.418070  1.0  0.0685
  C  C55  1  0.368060  0.212080  0.327200  1.0  0.2162
  C  C56  1  0.034730  0.545410  0.660530  1.0  0.2163
  C  C57  1  0.701390  0.878750  0.993870  1.0  0.2157
  C  C58  1  0.787920  0.155980  0.327200  1.0  0.2152
  C  C59  1  0.454590  0.489310  0.660530  1.0  0.2158
  C  C60  1  0.121250  0.822650  0.993870  1.0  0.2156
  C  C61  1  0.844020  0.631940  0.327200  1.0  0.2144
  C  C62  1  0.510690  0.965270  0.660530  1.0  0.2142
  C  C63  1  0.177350  0.298610  0.993870  1.0  0.2142
  C  C64  1  0.212080  0.368060  0.172800  1.0  0.2125
  C  C65  1  0.878750  0.701390  0.506130  1.0  0.2119
  C  C66  1  0.545410  0.034730  0.839470  1.0  0.2125
  C  C67  1  0.155980  0.787920  0.172800  1.0  0.2161
  C  C68  1  0.822650  0.121250  0.506130  1.0  0.2164
  C  C69  1  0.489310  0.454590  0.839470  1.0  0.2168
  C  C70  1  0.631940  0.844020  0.172800  1.0  0.2154
  C  C71  1  0.298610  0.177350  0.506130  1.0  0.2153
  C  C72  1  0.965270  0.510690  0.839470  1.0  0.2153
  C  C73  1  0.631940  0.787920  0.672800  1.0  0.2151
  C  C74  1  0.298610  0.121250  0.006130  1.0  0.2146
  C  C75  1  0.965270  0.454590  0.339470  1.0  0.2152
  C  C76  1  0.212080  0.844020  0.672800  1.0  0.2148
  C  C77  1  0.878750  0.177350  0.006130  1.0  0.2151
  C  C78  1  0.545410  0.510690  0.339470  1.0  0.2154
  C  C79  1  0.155980  0.368060  0.672800  1.0  0.2133
  C  C80  1  0.822650  0.701390  0.006130  1.0  0.2132
  C  C81  1  0.489310  0.034730  0.339470  1.0  0.2131
  C  C82  1  0.787920  0.631940  0.827200  1.0  0.2134
  C  C83  1  0.454590  0.965270  0.160530  1.0  0.2135
  C  C84  1  0.121250  0.298610  0.493870  1.0  0.2129
  C  C85  1  0.844020  0.212080  0.827200  1.0  0.215
  C  C86  1  0.510690  0.545410  0.160530  1.0  0.2157
  C  C87  1  0.177350  0.878750  0.493870  1.0  0.2153
  C  C88  1  0.368060  0.155980  0.827200  1.0  0.2158
  C  C89  1  0.034730  0.489310  0.160530  1.0  0.2156
  C  C90  1  0.701390  0.822650  0.493870  1.0  0.2156
  N  N91  1  0.356240  0.273980  0.358100  1.0  -0.2782
  N  N92  1  0.022910  0.607310  0.691430  1.0  -0.2788
  N  N93  1  0.689570  0.940650  0.024770  1.0  -0.2831
  N  N94  1  0.726020  0.082260  0.358100  1.0  -0.2787
  N  N95  1  0.392690  0.415590  0.691430  1.0  -0.2835
  N  N96  1  0.059350  0.748930  0.024770  1.0  -0.2836
  N  N97  1  0.917740  0.643760  0.358100  1.0  -0.277
  N  N98  1  0.584410  0.977090  0.691430  1.0  -0.2819
  N  N99  1  0.251070  0.310430  0.024770  1.0  -0.2818
  N  N100  1  0.273980  0.356240  0.141900  1.0  -0.2828
  N  N101  1  0.940650  0.689570  0.475230  1.0  -0.2828
  N  N102  1  0.607310  0.022910  0.808570  1.0  -0.2836
  N  N103  1  0.082260  0.726020  0.141900  1.0  -0.2848
  N  N104  1  0.748930  0.059350  0.475230  1.0  -0.2849
  N  N105  1  0.415590  0.392690  0.808570  1.0  -0.2848
  N  N106  1  0.643760  0.917740  0.141900  1.0  -0.284
  N  N107  1  0.310430  0.251070  0.475230  1.0  -0.2841
  N  N108  1  0.977090  0.584410  0.808570  1.0  -0.2842
  N  N109  1  0.643760  0.726020  0.641900  1.0  -0.2792
  N  N110  1  0.310430  0.059350  0.975230  1.0  -0.284
  N  N111  1  0.977090  0.392690  0.308570  1.0  -0.2847
  N  N112  1  0.273980  0.917740  0.641900  1.0  -0.2778
  N  N113  1  0.940650  0.251070  0.975230  1.0  -0.2778
  N  N114  1  0.607310  0.584410  0.308570  1.0  -0.2825
  N  N115  1  0.082260  0.356240  0.641900  1.0  -0.2801
  N  N116  1  0.748930  0.689570  0.975230  1.0  -0.2801
  N  N117  1  0.415590  0.022910  0.308570  1.0  -0.2849
  N  N118  1  0.726020  0.643760  0.858100  1.0  -0.2839
  N  N119  1  0.392690  0.977090  0.191430  1.0  -0.2847
  N  N120  1  0.059350  0.310430  0.524770  1.0  -0.284
  N  N121  1  0.917740  0.273980  0.858100  1.0  -0.283
  N  N122  1  0.584410  0.607310  0.191430  1.0  -0.2829
  N  N123  1  0.251070  0.940650  0.524770  1.0  -0.2831
  N  N124  1  0.356240  0.082260  0.858100  1.0  -0.2828
  N  N125  1  0.022910  0.415590  0.191430  1.0  -0.2829
  N  N126  1  0.689570  0.748930  0.524770  1.0  -0.2829
  N  N127  1  0.333333  0.149350  0.416670  1.0  -0.4312
  N  N128  1  0.000000  0.482680  0.750000  1.0  -0.4313
  N  N129  1  0.850650  0.183990  0.416670  1.0  -0.4299
  N  N130  1  0.517320  0.517320  0.750000  1.0  -0.4299
  N  N131  1  0.816010  0.666667  0.416670  1.0  -0.4291
  N  N132  1  0.482680  0.000000  0.750000  1.0  -0.4291
  N  N133  1  0.149350  0.333333  0.083330  1.0  -0.429
  N  N134  1  0.183990  0.850650  0.083330  1.0  -0.43
  N  N135  1  0.666667  0.816010  0.083330  1.0  -0.4312
  N  N136  1  0.666667  0.850650  0.583330  1.0  -0.4304
  N  N137  1  0.149350  0.816010  0.583330  1.0  -0.4315
  N  N138  1  0.183990  0.333333  0.583330  1.0  -0.4291
  N  N139  1  0.850650  0.666667  0.916670  1.0  -0.429
  N  N140  1  0.517320  0.000000  0.250000  1.0  -0.4289
  N  N141  1  0.816010  0.149350  0.916670  1.0  -0.4314
  N  N142  1  0.482680  0.482680  0.250000  1.0  -0.4315
  N  N143  1  0.333333  0.183990  0.916670  1.0  -0.4304
  N  N144  1  0.000000  0.517320  0.250000  1.0  -0.4305
  F  F145  1  0.333333  0.409420  0.416670  1.0  -0.5341
  F  F146  1  0.000000  0.742750  0.750000  1.0  -0.534
  F  F147  1  0.590580  0.923920  0.416670  1.0  -0.5351
  F  F148  1  0.257250  0.257250  0.750000  1.0  -0.5345
  F  F149  1  0.076080  0.666667  0.416670  1.0  -0.5342
  F  F150  1  0.742750  0.000000  0.750000  1.0  -0.5336
  F  F151  1  0.409420  0.333333  0.083330  1.0  -0.5337
  F  F152  1  0.923920  0.590580  0.083330  1.0  -0.5351
  F  F153  1  0.666667  0.076080  0.083330  1.0  -0.5347
  F  F154  1  0.666667  0.590580  0.583330  1.0  -0.5351
  F  F155  1  0.409420  0.076080  0.583330  1.0  -0.5347
  F  F156  1  0.923920  0.333333  0.583330  1.0  -0.5336
  F  F157  1  0.590580  0.666667  0.916670  1.0  -0.5331
  F  F158  1  0.257250  0.000000  0.250000  1.0  -0.5331
  F  F159  1  0.076080  0.409420  0.916670  1.0  -0.5347
  F  F160  1  0.742750  0.742750  0.250000  1.0  -0.5342
  F  F161  1  0.333333  0.923920  0.916670  1.0  -0.5357
  F  F162  1  0.000000  0.257250  0.250000  1.0  -0.5351
