# generated using pymatgen
data_ZnH24C28(NO2)4
_symmetry_space_group_name_H-M   'P 1'
_cell_length_a   18.72230000
_cell_length_b   5.77580000
_cell_length_c   20.82830000
_cell_angle_alpha   90.00000000
_cell_angle_beta   91.16500000
_cell_angle_gamma   90.00000000
_symmetry_Int_Tables_number   1
_chemical_formula_structural   ZnH24C28(NO2)4
_chemical_formula_sum   'Zn2 H48 C56 N8 O16'
_cell_volume   2251.82889930
_cell_formula_units_Z   2
loop_
 _symmetry_equiv_pos_site_id
 _symmetry_equiv_pos_as_xyz
  1  'x, y, z'
loop_
 _atom_site_type_symbol
 _atom_site_label
 _atom_site_symmetry_multiplicity
 _atom_site_fract_x
 _atom_site_fract_y
 _atom_site_fract_z
 _atom_site_occupancy
 _atom_site_charge
  Zn  Zn1  1  0.750000  0.732600  0.250000  1.0  0.9422
  Zn  Zn2  1  0.250000  0.267400  0.750000  1.0  0.9422
  H  H3  1  0.749900  0.105200  0.438500  1.0  0.1159
  H  H4  1  0.751200  0.319300  0.389600  1.0  0.1066
  H  H5  1  0.644100  0.531600  0.370300  1.0  0.0891
  H  H6  1  0.540300  0.686400  0.414200  1.0  0.117
  H  H7  1  0.550600  0.188200  0.549400  1.0  0.1108
  H  H8  1  0.654100  0.056700  0.506700  1.0  0.1125
  H  H9  1  0.597600  0.139900  0.242000  1.0  0.1077
  H  H10  1  0.540200  0.346100  0.239300  1.0  0.1139
  H  H11  1  0.479800  0.432200  0.141500  1.0  0.113
  H  H12  1  0.440300  0.311500  0.041700  1.0  0.1087
  H  H13  1  0.590700  0.806900  0.047600  1.0  0.1089
  H  H14  1  0.618700  0.920900  0.152700  1.0  0.0957
  H  H15  1  0.750100  0.105200  0.061500  1.0  0.1137
  H  H16  1  0.748800  0.319300  0.110400  1.0  0.1082
  H  H17  1  0.855900  0.531600  0.129700  1.0  0.0888
  H  H18  1  0.959700  0.686400  0.085800  1.0  0.1166
  H  H19  1  0.949400  0.188200  0.950600  1.0  0.1118
  H  H20  1  0.845900  0.056700  0.993300  1.0  0.1125
  H  H21  1  0.902400  0.139900  0.258000  1.0  0.1073
  H  H22  1  0.959800  0.346100  0.260700  1.0  0.1155
  H  H23  1  0.020200  0.432200  0.358500  1.0  0.1124
  H  H24  1  0.059700  0.311500  0.458300  1.0  0.1095
  H  H25  1  0.909300  0.806900  0.452400  1.0  0.108
  H  H26  1  0.881300  0.920900  0.347300  1.0  0.0955
  H  H27  1  0.250100  0.894800  0.561500  1.0  0.1134
  H  H28  1  0.248800  0.680700  0.610400  1.0  0.1068
  H  H29  1  0.355900  0.468400  0.629700  1.0  0.0892
  H  H30  1  0.459700  0.313600  0.585800  1.0  0.1187
  H  H31  1  0.449400  0.811800  0.450600  1.0  0.1116
  H  H32  1  0.345900  0.943300  0.493300  1.0  0.1131
  H  H33  1  0.402400  0.860100  0.758000  1.0  0.1073
  H  H34  1  0.459800  0.653900  0.760700  1.0  0.1155
  H  H35  1  0.520200  0.567800  0.858500  1.0  0.1126
  H  H36  1  0.559700  0.688500  0.958300  1.0  0.1095
  H  H37  1  0.409300  0.193100  0.952400  1.0  0.1082
  H  H38  1  0.381300  0.079100  0.847300  1.0  0.0962
  H  H39  1  0.249900  0.894800  0.938500  1.0  0.1153
  H  H40  1  0.251200  0.680700  0.889600  1.0  0.1072
  H  H41  1  0.144100  0.468400  0.870300  1.0  0.0891
  H  H42  1  0.040300  0.313600  0.914200  1.0  0.119
  H  H43  1  0.050600  0.811800  0.049400  1.0  0.1121
  H  H44  1  0.154100  0.943300  0.006700  1.0  0.1124
  H  H45  1  0.097600  0.860100  0.742000  1.0  0.1059
  H  H46  1  0.040200  0.653900  0.739300  1.0  0.1141
  H  H47  1  0.979800  0.567800  0.641500  1.0  0.113
  H  H48  1  0.940300  0.688500  0.541700  1.0  0.1084
  H  H49  1  0.090700  0.193100  0.547600  1.0  0.1092
  H  H50  1  0.118700  0.079100  0.652700  1.0  0.0956
  C  C51  1  0.703500  0.027700  0.350100  1.0  0.687
  C  C52  1  0.721700  0.189700  0.405300  1.0  -0.1434
  C  C53  1  0.624600  0.463100  0.407500  1.0  0.0072
  C  C54  1  0.562800  0.555200  0.433300  1.0  -0.1541
  C  C55  1  0.534500  0.453100  0.487100  1.0  -0.0048
  C  C56  1  0.569500  0.263000  0.512900  1.0  -0.1585
  C  C57  1  0.629900  0.183800  0.487200  1.0  0.0483
  C  C58  1  0.640200  0.447800  0.207000  1.0  0.7122
  C  C59  1  0.579900  0.272000  0.216100  1.0  -0.1427
  C  C60  1  0.501300  0.302000  0.121900  1.0  0.0447
  C  C61  1  0.478200  0.231000  0.063100  1.0  -0.1425
  C  C62  1  0.510000  0.041500  0.033800  1.0  0.0204
  C  C63  1  0.565700  0.931000  0.066900  1.0  -0.1505
  C  C64  1  0.584100  0.004400  0.128000  1.0  0.0142
  C  C65  1  0.796500  0.027700  0.149900  1.0  0.6881
  C  C66  1  0.778300  0.189700  0.094700  1.0  -0.1432
  C  C67  1  0.875400  0.463100  0.092500  1.0  0.0064
  C  C68  1  0.937200  0.555200  0.066700  1.0  -0.1539
  C  C69  1  0.965500  0.453100  0.012900  1.0  -0.0043
  C  C70  1  0.930500  0.263000  0.987100  1.0  -0.1563
  C  C71  1  0.870100  0.183800  0.012800  1.0  0.0481
  C  C72  1  0.859800  0.447800  0.293000  1.0  0.7108
  C  C73  1  0.920100  0.272000  0.283900  1.0  -0.1428
  C  C74  1  0.998700  0.302000  0.378100  1.0  0.0441
  C  C75  1  0.021800  0.231000  0.436900  1.0  -0.1424
  C  C76  1  0.990000  0.041500  0.466200  1.0  0.0195
  C  C77  1  0.934300  0.931000  0.433100  1.0  -0.1497
  C  C78  1  0.915900  0.004400  0.372000  1.0  0.0129
  C  C79  1  0.296500  0.972300  0.649900  1.0  0.6873
  C  C80  1  0.278300  0.810300  0.594700  1.0  -0.1424
  C  C81  1  0.375400  0.536900  0.592500  1.0  0.0075
  C  C82  1  0.437200  0.444800  0.566700  1.0  -0.1555
  C  C83  1  0.465500  0.546900  0.512900  1.0  -0.0045
  C  C84  1  0.430500  0.737000  0.487100  1.0  -0.1498
  C  C85  1  0.370100  0.816200  0.512800  1.0  0.049
  C  C86  1  0.359800  0.552200  0.793000  1.0  0.7116
  C  C87  1  0.420100  0.728000  0.783900  1.0  -0.1434
  C  C88  1  0.498700  0.698000  0.878100  1.0  0.044
  C  C89  1  0.521800  0.769000  0.936900  1.0  -0.1425
  C  C90  1  0.490000  0.958500  0.966200  1.0  0.0192
  C  C91  1  0.434300  0.069000  0.933100  1.0  -0.1454
  C  C92  1  0.415900  0.995600  0.872000  1.0  0.0109
  C  C93  1  0.203500  0.972300  0.850100  1.0  0.6867
  C  C94  1  0.221700  0.810300  0.905300  1.0  -0.1433
  C  C95  1  0.124600  0.536900  0.907500  1.0  0.0074
  C  C96  1  0.062800  0.444800  0.933300  1.0  -0.1569
  C  C97  1  0.034500  0.546900  0.987100  1.0  -0.0048
  C  C98  1  0.069500  0.737000  0.012900  1.0  -0.1515
  C  C99  1  0.129900  0.816200  0.987200  1.0  0.0486
  C  C100  1  0.140200  0.552200  0.707000  1.0  0.7124
  C  C101  1  0.079900  0.728000  0.716100  1.0  -0.1423
  C  C102  1  0.001300  0.698000  0.621900  1.0  0.045
  C  C103  1  0.978200  0.769000  0.563100  1.0  -0.1423
  C  C104  1  0.010000  0.958500  0.533800  1.0  0.0204
  C  C105  1  0.065700  0.069000  0.566900  1.0  -0.1468
  C  C106  1  0.084100  0.995600  0.628000  1.0  0.0127
  N  N107  1  0.656600  0.282300  0.434000  1.0  0.0116
  N  N108  1  0.553900  0.189600  0.152300  1.0  -0.0427
  N  N109  1  0.843400  0.282300  0.066000  1.0  0.0104
  N  N110  1  0.946100  0.189600  0.347700  1.0  -0.0425
  N  N111  1  0.343400  0.717700  0.566000  1.0  0.0104
  N  N112  1  0.446100  0.810400  0.847700  1.0  -0.0427
  N  N113  1  0.156600  0.717700  0.934000  1.0  0.0113
  N  N114  1  0.053900  0.810400  0.652300  1.0  -0.0428
  O  O115  1  0.758100  0.952300  0.321300  1.0  -0.6156
  O  O116  1  0.641300  0.978000  0.337600  1.0  -0.5753
  O  O117  1  0.668700  0.519700  0.258900  1.0  -0.6038
  O  O118  1  0.657500  0.511700  0.152700  1.0  -0.5879
  O  O119  1  0.741900  0.952300  0.178700  1.0  -0.6151
  O  O120  1  0.858700  0.978000  0.162400  1.0  -0.5739
  O  O121  1  0.831300  0.519700  0.241100  1.0  -0.6046
  O  O122  1  0.842500  0.511700  0.347300  1.0  -0.5871
  O  O123  1  0.241900  0.047700  0.678700  1.0  -0.6154
  O  O124  1  0.358700  0.022000  0.662400  1.0  -0.5743
  O  O125  1  0.331300  0.480300  0.741100  1.0  -0.6046
  O  O126  1  0.342500  0.488300  0.847300  1.0  -0.5864
  O  O127  1  0.258100  0.047700  0.821300  1.0  -0.6154
  O  O128  1  0.141300  0.022000  0.837600  1.0  -0.576
  O  O129  1  0.168700  0.480300  0.758900  1.0  -0.6038
  O  O130  1  0.157500  0.488300  0.652700  1.0  -0.5874
