# generated using pymatgen
data_VZnF5
_symmetry_space_group_name_H-M   'P 1'
_cell_length_a   9.05950000
_cell_length_b   7.46280000
_cell_length_c   9.43210000
_cell_angle_alpha   90.00000000
_cell_angle_beta   90.00000000
_cell_angle_gamma   90.00000000
_symmetry_Int_Tables_number   1
_chemical_formula_structural   VZnF5
_chemical_formula_sum   'V4 Zn4 F20'
_cell_volume   637.69708053
_cell_formula_units_Z   4
loop_
 _symmetry_equiv_pos_site_id
 _symmetry_equiv_pos_as_xyz
  1  'x, y, z'
loop_
 _atom_site_type_symbol
 _atom_site_label
 _atom_site_symmetry_multiplicity
 _atom_site_fract_x
 _atom_site_fract_y
 _atom_site_fract_z
 _atom_site_occupancy
 _atom_site_charge
  V  V1  1  0.500000  0.500000  0.500000  1.0  1.8617
  V  V2  1  0.000000  0.000000  0.000000  1.0  1.8617
  V  V3  1  0.500000  0.000000  0.500000  1.0  1.8617
  V  V4  1  0.000000  0.500000  0.000000  1.0  1.8617
  Zn  Zn5  1  0.750000  0.750000  0.750000  1.0  1.0077
  Zn  Zn6  1  0.250000  0.750000  0.750000  1.0  1.0077
  Zn  Zn7  1  0.250000  0.250000  0.250000  1.0  1.0077
  Zn  Zn8  1  0.750000  0.250000  0.250000  1.0  1.0077
  F  F9  1  0.647000  0.556300  0.633200  1.0  -0.5719
  F  F10  1  0.147000  0.056300  0.133200  1.0  -0.5719
  F  F11  1  0.353000  0.943700  0.633200  1.0  -0.5718
  F  F12  1  0.853000  0.443700  0.133200  1.0  -0.5707
  F  F13  1  0.353000  0.056300  0.366800  1.0  -0.5705
  F  F14  1  0.853000  0.556300  0.866800  1.0  -0.5705
  F  F15  1  0.647000  0.443700  0.366800  1.0  -0.5695
  F  F16  1  0.147000  0.943700  0.866800  1.0  -0.5713
  F  F17  1  0.353000  0.443700  0.366800  1.0  -0.5699
  F  F18  1  0.853000  0.943700  0.866800  1.0  -0.5699
  F  F19  1  0.647000  0.056300  0.366800  1.0  -0.5714
  F  F20  1  0.147000  0.556300  0.866800  1.0  -0.5707
  F  F21  1  0.647000  0.943700  0.633200  1.0  -0.5705
  F  F22  1  0.147000  0.443700  0.133200  1.0  -0.5719
  F  F23  1  0.353000  0.556300  0.633200  1.0  -0.5723
  F  F24  1  0.853000  0.056300  0.133200  1.0  -0.5723
  F  F25  1  0.500000  0.750000  0.424500  1.0  -0.5858
  F  F26  1  0.000000  0.250000  0.924500  1.0  -0.5858
  F  F27  1  0.500000  0.250000  0.575500  1.0  -0.5846
  F  F28  1  0.000000  0.750000  0.075500  1.0  -0.5846
