# generated using pymatgen
data_GaCoF5
_symmetry_space_group_name_H-M   'P 1'
_cell_length_a   9.01930000
_cell_length_b   7.34210000
_cell_length_c   9.39010000
_cell_angle_alpha   90.00000000
_cell_angle_beta   90.00000000
_cell_angle_gamma   90.00000000
_symmetry_Int_Tables_number   1
_chemical_formula_structural   GaCoF5
_chemical_formula_sum   'Ga4 Co4 F20'
_cell_volume   621.81807982
_cell_formula_units_Z   4
loop_
 _symmetry_equiv_pos_site_id
 _symmetry_equiv_pos_as_xyz
  1  'x, y, z'
loop_
 _atom_site_type_symbol
 _atom_site_label
 _atom_site_symmetry_multiplicity
 _atom_site_fract_x
 _atom_site_fract_y
 _atom_site_fract_z
 _atom_site_occupancy
 _atom_site_charge
  Ga  Ga1  1  0.500000  0.500000  0.500000  1.0  1.5465
  Ga  Ga2  1  0.000000  0.000000  0.000000  1.0  1.5465
  Ga  Ga3  1  0.500000  0.000000  0.500000  1.0  1.5465
  Ga  Ga4  1  0.000000  0.500000  0.000000  1.0  1.5465
  Co  Co5  1  0.750000  0.750000  0.750000  1.0  0.9682
  Co  Co6  1  0.250000  0.750000  0.750000  1.0  0.9682
  Co  Co7  1  0.250000  0.250000  0.250000  1.0  0.9682
  Co  Co8  1  0.750000  0.250000  0.250000  1.0  0.9682
  F  F9  1  0.648900  0.549600  0.634600  1.0  -0.5009
  F  F10  1  0.148900  0.049600  0.134600  1.0  -0.5009
  F  F11  1  0.351100  0.950400  0.634600  1.0  -0.499
  F  F12  1  0.851100  0.450400  0.134600  1.0  -0.499
  F  F13  1  0.351100  0.049600  0.365400  1.0  -0.5027
  F  F14  1  0.851100  0.549600  0.865400  1.0  -0.5027
  F  F15  1  0.648900  0.450400  0.365400  1.0  -0.5017
  F  F16  1  0.148900  0.950400  0.865400  1.0  -0.4983
  F  F17  1  0.351100  0.450400  0.365400  1.0  -0.5018
  F  F18  1  0.851100  0.950400  0.865400  1.0  -0.5018
  F  F19  1  0.648900  0.049600  0.365400  1.0  -0.499
  F  F20  1  0.148900  0.549600  0.865400  1.0  -0.5025
  F  F21  1  0.648900  0.950400  0.634600  1.0  -0.5019
  F  F22  1  0.148900  0.450400  0.134600  1.0  -0.4992
  F  F23  1  0.351100  0.549600  0.634600  1.0  -0.5008
  F  F24  1  0.851100  0.049600  0.134600  1.0  -0.5007
  F  F25  1  0.500000  0.750000  0.425500  1.0  -0.5118
  F  F26  1  0.000000  0.250000  0.925500  1.0  -0.5118
  F  F27  1  0.500000  0.250000  0.574500  1.0  -0.5111
  F  F28  1  0.000000  0.750000  0.074500  1.0  -0.5111
