# generated using pymatgen
data_Cd2H19C24N4O11
_symmetry_space_group_name_H-M   'P 1'
_cell_length_a   30.67200000
_cell_length_b   15.07200000
_cell_length_c   20.99400000
_cell_angle_alpha   90.00000000
_cell_angle_beta   129.55300000
_cell_angle_gamma   90.00000000
_symmetry_Int_Tables_number   1
_chemical_formula_structural   Cd2H19C24N4O11
_chemical_formula_sum   'Cd16 H152 C192 N32 O88'
_cell_volume   7483.12076315
_cell_formula_units_Z   8
loop_
 _symmetry_equiv_pos_site_id
 _symmetry_equiv_pos_as_xyz
  1  'x, y, z'
loop_
 _atom_site_type_symbol
 _atom_site_label
 _atom_site_symmetry_multiplicity
 _atom_site_fract_x
 _atom_site_fract_y
 _atom_site_fract_z
 _atom_site_occupancy
 _atom_site_charge
  Cd  Cd1  1  0.926840  0.547190  0.932130  1.0  1.0281
  Cd  Cd2  1  0.761420  0.794940  0.594290  1.0  0.9797
  Cd  Cd3  1  0.426840  0.047190  0.932130  1.0  1.0281
  Cd  Cd4  1  0.261420  0.294940  0.594290  1.0  0.9797
  Cd  Cd5  1  0.073160  0.547190  0.567870  1.0  1.0281
  Cd  Cd6  1  0.238580  0.794940  0.905710  1.0  0.9832
  Cd  Cd7  1  0.573160  0.047190  0.567870  1.0  1.0281
  Cd  Cd8  1  0.738580  0.294940  0.905710  1.0  0.9832
  Cd  Cd9  1  0.073160  0.452810  0.067870  1.0  1.0285
  Cd  Cd10  1  0.238580  0.205060  0.405710  1.0  0.9835
  Cd  Cd11  1  0.573160  0.952810  0.067870  1.0  1.0285
  Cd  Cd12  1  0.738580  0.705060  0.405710  1.0  0.9835
  Cd  Cd13  1  0.926840  0.452810  0.432130  1.0  1.0288
  Cd  Cd14  1  0.761420  0.205060  0.094290  1.0  0.9828
  Cd  Cd15  1  0.426840  0.952810  0.432130  1.0  1.0288
  Cd  Cd16  1  0.261420  0.705060  0.094290  1.0  0.9828
  H  H17  1  0.881500  0.496100  0.666800  1.0  0.3413
  H  H18  1  0.739600  0.507000  0.899000  1.0  0.1052
  H  H19  1  0.785100  0.517500  0.756800  1.0  0.1106
  H  H20  1  0.749600  0.867600  0.828100  1.0  0.1334
  H  H21  1  0.760000  0.779500  0.747300  1.0  0.1057
  H  H22  1  0.926600  0.759000  0.934300  1.0  0.1152
  H  H23  1  0.715400  0.624000  0.673100  1.0  0.1296
  H  H24  1  0.919400  0.855700  0.014000  1.0  0.134
  H  H25  1  0.760300  0.983600  0.903000  1.0  0.1078
  H  H26  1  0.783800  0.990200  0.994500  1.0  0.1338
  H  H27  1  0.755700  0.901900  0.944700  1.0  0.106
  H  H28  1  0.669200  0.610900  0.813900  1.0  0.118
  H  H29  1  0.584100  0.684800  0.686200  1.0  0.1442
  H  H30  1  0.594900  0.781000  0.670800  1.0  0.1364
  H  H31  1  0.635600  0.739800  0.759600  1.0  0.1165
  H  H32  1  0.934500  0.221300  0.049700  1.0  0.378
  H  H33  1  0.799000  0.843700  0.576700  1.0  0.3732
  H  H34  1  0.841300  0.863000  0.583900  1.0  0.3837
  H  H35  1  0.850000  0.921000  0.025000  1.0  0.1531
  H  H36  1  0.381500  0.996100  0.666800  1.0  0.3413
  H  H37  1  0.239600  0.007000  0.899000  1.0  0.1052
  H  H38  1  0.285100  0.017500  0.756800  1.0  0.1106
  H  H39  1  0.249600  0.367600  0.828100  1.0  0.1334
  H  H40  1  0.260000  0.279500  0.747300  1.0  0.1057
  H  H41  1  0.426600  0.259000  0.934300  1.0  0.1152
  H  H42  1  0.215400  0.124000  0.673100  1.0  0.1296
  H  H43  1  0.419400  0.355700  0.014000  1.0  0.134
  H  H44  1  0.260300  0.483600  0.903000  1.0  0.1078
  H  H45  1  0.283800  0.490200  0.994500  1.0  0.1338
  H  H46  1  0.255700  0.401900  0.944700  1.0  0.106
  H  H47  1  0.169200  0.110900  0.813900  1.0  0.118
  H  H48  1  0.084100  0.184800  0.686200  1.0  0.1442
  H  H49  1  0.094900  0.281000  0.670800  1.0  0.1364
  H  H50  1  0.135600  0.239800  0.759600  1.0  0.1165
  H  H51  1  0.434500  0.721300  0.049700  1.0  0.378
  H  H52  1  0.299000  0.343700  0.576700  1.0  0.3732
  H  H53  1  0.341300  0.363000  0.583900  1.0  0.3837
  H  H54  1  0.350000  0.421000  0.025000  1.0  0.1531
  H  H55  1  0.118500  0.496100  0.833200  1.0  0.3424
  H  H56  1  0.260400  0.507000  0.601000  1.0  0.1049
  H  H57  1  0.214900  0.517500  0.743200  1.0  0.1101
  H  H58  1  0.250400  0.867600  0.671900  1.0  0.1336
  H  H59  1  0.240000  0.779500  0.752700  1.0  0.106
  H  H60  1  0.073400  0.759000  0.565700  1.0  0.1141
  H  H61  1  0.284600  0.624000  0.826900  1.0  0.1293
  H  H62  1  0.080600  0.855700  0.486000  1.0  0.134
  H  H63  1  0.239700  0.983600  0.597000  1.0  0.1085
  H  H64  1  0.216200  0.990200  0.505500  1.0  0.132
  H  H65  1  0.244300  0.901900  0.555300  1.0  0.1074
  H  H66  1  0.330800  0.610900  0.686100  1.0  0.1181
  H  H67  1  0.415900  0.684800  0.813800  1.0  0.1465
  H  H68  1  0.405100  0.781000  0.829200  1.0  0.1359
  H  H69  1  0.364400  0.739800  0.740400  1.0  0.1187
  H  H70  1  0.065500  0.221300  0.450300  1.0  0.3781
  H  H71  1  0.201000  0.843700  0.923300  1.0  0.3725
  H  H72  1  0.158700  0.863000  0.916100  1.0  0.3838
  H  H73  1  0.150000  0.921000  0.475000  1.0  0.1521
  H  H74  1  0.618500  0.996100  0.833200  1.0  0.3424
  H  H75  1  0.760400  0.007000  0.601000  1.0  0.1049
  H  H76  1  0.714900  0.017500  0.743200  1.0  0.1101
  H  H77  1  0.750400  0.367600  0.671900  1.0  0.1336
  H  H78  1  0.740000  0.279500  0.752700  1.0  0.106
  H  H79  1  0.573400  0.259000  0.565700  1.0  0.1141
  H  H80  1  0.784600  0.124000  0.826900  1.0  0.1293
  H  H81  1  0.580600  0.355700  0.486000  1.0  0.134
  H  H82  1  0.739700  0.483600  0.597000  1.0  0.1085
  H  H83  1  0.716200  0.490200  0.505500  1.0  0.132
  H  H84  1  0.744300  0.401900  0.555300  1.0  0.1074
  H  H85  1  0.830800  0.110900  0.686100  1.0  0.1181
  H  H86  1  0.915900  0.184800  0.813800  1.0  0.1465
  H  H87  1  0.905100  0.281000  0.829200  1.0  0.1359
  H  H88  1  0.864400  0.239800  0.740400  1.0  0.1187
  H  H89  1  0.565500  0.721300  0.450300  1.0  0.3781
  H  H90  1  0.701000  0.343700  0.923300  1.0  0.3725
  H  H91  1  0.658700  0.363000  0.916100  1.0  0.3838
  H  H92  1  0.650000  0.421000  0.475000  1.0  0.1521
  H  H93  1  0.118500  0.503900  0.333200  1.0  0.3413
  H  H94  1  0.260400  0.493000  0.101000  1.0  0.1048
  H  H95  1  0.214900  0.482500  0.243200  1.0  0.1102
  H  H96  1  0.250400  0.132400  0.171900  1.0  0.1338
  H  H97  1  0.240000  0.220500  0.252700  1.0  0.1058
  H  H98  1  0.073400  0.241000  0.065700  1.0  0.114
  H  H99  1  0.284600  0.376000  0.326900  1.0  0.1298
  H  H100  1  0.080600  0.144300  0.986000  1.0  0.1343
  H  H101  1  0.239700  0.016400  0.097000  1.0  0.1081
  H  H102  1  0.216200  0.009800  0.005500  1.0  0.132
  H  H103  1  0.244300  0.098100  0.055300  1.0  0.1084
  H  H104  1  0.330800  0.389100  0.186100  1.0  0.1184
  H  H105  1  0.415900  0.315200  0.313800  1.0  0.1479
  H  H106  1  0.405100  0.219000  0.329200  1.0  0.1354
  H  H107  1  0.364400  0.260200  0.240400  1.0  0.1188
  H  H108  1  0.065500  0.778700  0.950300  1.0  0.3769
  H  H109  1  0.201000  0.156300  0.423300  1.0  0.3734
  H  H110  1  0.158700  0.137000  0.416100  1.0  0.3841
  H  H111  1  0.150000  0.079000  0.975000  1.0  0.1528
  H  H112  1  0.618500  0.003900  0.333200  1.0  0.3413
  H  H113  1  0.760400  0.993000  0.101000  1.0  0.1048
  H  H114  1  0.714900  0.982500  0.243200  1.0  0.1102
  H  H115  1  0.750400  0.632400  0.171900  1.0  0.1338
  H  H116  1  0.740000  0.720500  0.252700  1.0  0.1058
  H  H117  1  0.573400  0.741000  0.065700  1.0  0.114
  H  H118  1  0.784600  0.876000  0.326900  1.0  0.1298
  H  H119  1  0.580600  0.644300  0.986000  1.0  0.1343
  H  H120  1  0.739700  0.516400  0.097000  1.0  0.1081
  H  H121  1  0.716200  0.509800  0.005500  1.0  0.132
  H  H122  1  0.744300  0.598100  0.055300  1.0  0.1084
  H  H123  1  0.830800  0.889100  0.186100  1.0  0.1184
  H  H124  1  0.915900  0.815200  0.313800  1.0  0.1479
  H  H125  1  0.905100  0.719000  0.329200  1.0  0.1354
  H  H126  1  0.864400  0.760200  0.240400  1.0  0.1188
  H  H127  1  0.565500  0.278700  0.950300  1.0  0.3769
  H  H128  1  0.701000  0.656300  0.423300  1.0  0.3734
  H  H129  1  0.658700  0.637000  0.416100  1.0  0.3841
  H  H130  1  0.650000  0.579000  0.975000  1.0  0.1528
  H  H131  1  0.881500  0.503900  0.166800  1.0  0.3415
  H  H132  1  0.739600  0.493000  0.399000  1.0  0.1054
  H  H133  1  0.785100  0.482500  0.256800  1.0  0.1106
  H  H134  1  0.749600  0.132400  0.328100  1.0  0.1334
  H  H135  1  0.760000  0.220500  0.247300  1.0  0.1056
  H  H136  1  0.926600  0.241000  0.434300  1.0  0.1153
  H  H137  1  0.715400  0.376000  0.173100  1.0  0.1299
  H  H138  1  0.919400  0.144300  0.514000  1.0  0.1341
  H  H139  1  0.760300  0.016400  0.403000  1.0  0.1079
  H  H140  1  0.783800  0.009800  0.494500  1.0  0.1339
  H  H141  1  0.755700  0.098100  0.444700  1.0  0.1067
  H  H142  1  0.669200  0.389100  0.313900  1.0  0.118
  H  H143  1  0.584100  0.315200  0.186200  1.0  0.1444
  H  H144  1  0.594900  0.219000  0.170800  1.0  0.1341
  H  H145  1  0.635600  0.260200  0.259600  1.0  0.1167
  H  H146  1  0.934500  0.778700  0.549700  1.0  0.3766
  H  H147  1  0.799000  0.156300  0.076700  1.0  0.3743
  H  H148  1  0.841300  0.137000  0.083900  1.0  0.3843
  H  H149  1  0.850000  0.079000  0.525000  1.0  0.1531
  H  H150  1  0.381500  0.003900  0.166800  1.0  0.3415
  H  H151  1  0.239600  0.993000  0.399000  1.0  0.1054
  H  H152  1  0.285100  0.982500  0.256800  1.0  0.1106
  H  H153  1  0.249600  0.632400  0.328100  1.0  0.1334
  H  H154  1  0.260000  0.720500  0.247300  1.0  0.1056
  H  H155  1  0.426600  0.741000  0.434300  1.0  0.1153
  H  H156  1  0.215400  0.876000  0.173100  1.0  0.1299
  H  H157  1  0.419400  0.644300  0.514000  1.0  0.1341
  H  H158  1  0.260300  0.516400  0.403000  1.0  0.1079
  H  H159  1  0.283800  0.509800  0.494500  1.0  0.1339
  H  H160  1  0.255700  0.598100  0.444700  1.0  0.1067
  H  H161  1  0.169200  0.889100  0.313900  1.0  0.118
  H  H162  1  0.084100  0.815200  0.186200  1.0  0.1444
  H  H163  1  0.094900  0.719000  0.170800  1.0  0.1341
  H  H164  1  0.135600  0.760200  0.259600  1.0  0.1167
  H  H165  1  0.434500  0.278700  0.549700  1.0  0.3766
  H  H166  1  0.299000  0.656300  0.076700  1.0  0.3743
  H  H167  1  0.341300  0.637000  0.083900  1.0  0.3843
  H  H168  1  0.350000  0.579000  0.525000  1.0  0.1531
  C  C169  1  0.849700  0.697600  0.783900  1.0  0.394
  C  C170  1  0.844700  0.759600  0.833100  1.0  -0.0871
  C  C171  1  0.814800  0.435400  0.889200  1.0  0.3749
  C  C172  1  0.770000  0.502200  0.836700  1.0  -0.0551
  C  C173  1  0.905200  0.498700  0.767800  1.0  0.6863
  C  C174  1  0.895700  0.367300  0.963800  1.0  -0.0132
  C  C175  1  0.734900  0.530100  0.853900  1.0  -0.0697
  C  C176  1  0.818500  0.621100  0.598800  1.0  0.7127
  C  C177  1  0.839300  0.634100  0.683000  1.0  0.0588
  C  C178  1  0.875400  0.583000  0.753000  1.0  -0.0486
  C  C179  1  0.762200  0.536700  0.768700  1.0  -0.0439
  C  C180  1  0.956600  0.354600  0.009000  1.0  0.7182
  C  C181  1  0.785100  0.846900  0.849000  1.0  -0.2404
  C  C182  1  0.791500  0.793200  0.801200  1.0  -0.0605
  C  C183  1  0.891500  0.782000  0.912600  1.0  -0.0587
  C  C184  1  0.720200  0.600300  0.718100  1.0  -0.1961
  C  C185  1  0.833800  0.868900  0.929900  1.0  0.2072
  C  C186  1  0.685700  0.627600  0.736200  1.0  0.2853
  C  C187  1  0.887300  0.838700  0.961600  1.0  -0.1728
  C  C188  1  0.778700  0.951600  0.953800  1.0  -0.0904
  C  C189  1  0.692700  0.592600  0.802900  1.0  -0.2396
  C  C190  1  0.612600  0.727300  0.701600  1.0  -0.0282
  C  C191  1  0.856500  0.312600  0.957200  1.0  -0.0455
  C  C192  1  0.861200  0.224300  0.989800  1.0  0.7209
  C  C193  1  0.349700  0.197600  0.783900  1.0  0.394
  C  C194  1  0.344700  0.259600  0.833100  1.0  -0.0871
  C  C195  1  0.314800  0.935400  0.889200  1.0  0.3749
  C  C196  1  0.270000  0.002200  0.836700  1.0  -0.0551
  C  C197  1  0.405200  0.998700  0.767800  1.0  0.6863
  C  C198  1  0.395700  0.867300  0.963800  1.0  -0.0132
  C  C199  1  0.234900  0.030100  0.853900  1.0  -0.0697
  C  C200  1  0.318500  0.121100  0.598800  1.0  0.7127
  C  C201  1  0.339300  0.134100  0.683000  1.0  0.0588
  C  C202  1  0.375400  0.083000  0.753000  1.0  -0.0486
  C  C203  1  0.262200  0.036700  0.768700  1.0  -0.0439
  C  C204  1  0.456600  0.854600  0.009000  1.0  0.7182
  C  C205  1  0.285100  0.346900  0.849000  1.0  -0.2404
  C  C206  1  0.291500  0.293200  0.801200  1.0  -0.0605
  C  C207  1  0.391500  0.282000  0.912600  1.0  -0.0587
  C  C208  1  0.220200  0.100300  0.718100  1.0  -0.1961
  C  C209  1  0.333800  0.368900  0.929900  1.0  0.2072
  C  C210  1  0.185700  0.127600  0.736200  1.0  0.2853
  C  C211  1  0.387300  0.338700  0.961600  1.0  -0.1728
  C  C212  1  0.278700  0.451600  0.953800  1.0  -0.0904
  C  C213  1  0.192700  0.092600  0.802900  1.0  -0.2396
  C  C214  1  0.112600  0.227300  0.701600  1.0  -0.0282
  C  C215  1  0.356500  0.812600  0.957200  1.0  -0.0455
  C  C216  1  0.361200  0.724300  0.989800  1.0  0.7209
  C  C217  1  0.150300  0.697600  0.716100  1.0  0.3948
  C  C218  1  0.155300  0.759600  0.666900  1.0  -0.0867
  C  C219  1  0.185200  0.435400  0.610800  1.0  0.373
  C  C220  1  0.230000  0.502200  0.663300  1.0  -0.0558
  C  C221  1  0.094800  0.498700  0.732200  1.0  0.6882
  C  C222  1  0.104300  0.367300  0.536200  1.0  -0.0121
  C  C223  1  0.265100  0.530100  0.646100  1.0  -0.0695
  C  C224  1  0.181500  0.621100  0.901200  1.0  0.7125
  C  C225  1  0.160700  0.634100  0.817000  1.0  0.0594
  C  C226  1  0.124600  0.583000  0.747000  1.0  -0.0481
  C  C227  1  0.237800  0.536700  0.731300  1.0  -0.0428
  C  C228  1  0.043400  0.354600  0.491000  1.0  0.7197
  C  C229  1  0.214900  0.846900  0.651000  1.0  -0.2415
  C  C230  1  0.208500  0.793200  0.698800  1.0  -0.061
  C  C231  1  0.108500  0.782000  0.587400  1.0  -0.0596
  C  C232  1  0.279800  0.600300  0.781900  1.0  -0.1956
  C  C233  1  0.166200  0.868900  0.570100  1.0  0.2088
  C  C234  1  0.314300  0.627600  0.763800  1.0  0.2859
  C  C235  1  0.112700  0.838700  0.538400  1.0  -0.1785
  C  C236  1  0.221300  0.951600  0.546200  1.0  -0.0888
  C  C237  1  0.307300  0.592600  0.697100  1.0  -0.2393
  C  C238  1  0.387400  0.727300  0.798400  1.0  -0.0283
  C  C239  1  0.143500  0.312600  0.542800  1.0  -0.0462
  C  C240  1  0.138800  0.224300  0.510200  1.0  0.7192
  C  C241  1  0.650300  0.197600  0.716100  1.0  0.3948
  C  C242  1  0.655300  0.259600  0.666900  1.0  -0.0867
  C  C243  1  0.685200  0.935400  0.610800  1.0  0.373
  C  C244  1  0.730000  0.002200  0.663300  1.0  -0.0558
  C  C245  1  0.594800  0.998700  0.732200  1.0  0.6882
  C  C246  1  0.604300  0.867300  0.536200  1.0  -0.0121
  C  C247  1  0.765100  0.030100  0.646100  1.0  -0.0695
  C  C248  1  0.681500  0.121100  0.901200  1.0  0.7125
  C  C249  1  0.660700  0.134100  0.817000  1.0  0.0594
  C  C250  1  0.624600  0.083000  0.747000  1.0  -0.0481
  C  C251  1  0.737800  0.036700  0.731300  1.0  -0.0428
  C  C252  1  0.543400  0.854600  0.491000  1.0  0.7197
  C  C253  1  0.714900  0.346900  0.651000  1.0  -0.2415
  C  C254  1  0.708500  0.293200  0.698800  1.0  -0.061
  C  C255  1  0.608500  0.282000  0.587400  1.0  -0.0596
  C  C256  1  0.779800  0.100300  0.781900  1.0  -0.1956
  C  C257  1  0.666200  0.368900  0.570100  1.0  0.2088
  C  C258  1  0.814300  0.127600  0.763800  1.0  0.2859
  C  C259  1  0.612700  0.338700  0.538400  1.0  -0.1785
  C  C260  1  0.721300  0.451600  0.546200  1.0  -0.0888
  C  C261  1  0.807300  0.092600  0.697100  1.0  -0.2393
  C  C262  1  0.887400  0.227300  0.798400  1.0  -0.0283
  C  C263  1  0.643500  0.812600  0.542800  1.0  -0.0462
  C  C264  1  0.638800  0.724300  0.510200  1.0  0.7192
  C  C265  1  0.150300  0.302400  0.216100  1.0  0.3943
  C  C266  1  0.155300  0.240400  0.166900  1.0  -0.0863
  C  C267  1  0.185200  0.564600  0.110800  1.0  0.3731
  C  C268  1  0.230000  0.497800  0.163300  1.0  -0.0553
  C  C269  1  0.094800  0.501300  0.232200  1.0  0.6875
  C  C270  1  0.104300  0.632700  0.036200  1.0  -0.012
  C  C271  1  0.265100  0.469900  0.146100  1.0  -0.07
  C  C272  1  0.181500  0.378900  0.401200  1.0  0.712
  C  C273  1  0.160700  0.365900  0.317000  1.0  0.0599
  C  C274  1  0.124600  0.417000  0.247000  1.0  -0.0486
  C  C275  1  0.237800  0.463300  0.231300  1.0  -0.0432
  C  C276  1  0.043400  0.645400  0.991000  1.0  0.7196
  C  C277  1  0.214900  0.153100  0.151000  1.0  -0.2407
  C  C278  1  0.208500  0.206800  0.198800  1.0  -0.0609
  C  C279  1  0.108500  0.218000  0.087400  1.0  -0.0595
  C  C280  1  0.279800  0.399700  0.281900  1.0  -0.1957
  C  C281  1  0.166200  0.131100  0.070100  1.0  0.2084
  C  C282  1  0.314300  0.372400  0.263800  1.0  0.286
  C  C283  1  0.112700  0.161300  0.038400  1.0  -0.1789
  C  C284  1  0.221300  0.048400  0.046200  1.0  -0.0883
  C  C285  1  0.307300  0.407400  0.197100  1.0  -0.2392
  C  C286  1  0.387400  0.272700  0.298400  1.0  -0.0289
  C  C287  1  0.143500  0.687400  0.042800  1.0  -0.0465
  C  C288  1  0.138800  0.775700  0.010200  1.0  0.7206
  C  C289  1  0.650300  0.802400  0.216100  1.0  0.3943
  C  C290  1  0.655300  0.740400  0.166900  1.0  -0.0863
  C  C291  1  0.685200  0.064600  0.110800  1.0  0.3731
  C  C292  1  0.730000  0.997800  0.163300  1.0  -0.0553
  C  C293  1  0.594800  0.001300  0.232200  1.0  0.6875
  C  C294  1  0.604300  0.132700  0.036200  1.0  -0.012
  C  C295  1  0.765100  0.969900  0.146100  1.0  -0.07
  C  C296  1  0.681500  0.878900  0.401200  1.0  0.712
  C  C297  1  0.660700  0.865900  0.317000  1.0  0.0599
  C  C298  1  0.624600  0.917000  0.247000  1.0  -0.0486
  C  C299  1  0.737800  0.963300  0.231300  1.0  -0.0432
  C  C300  1  0.543400  0.145400  0.991000  1.0  0.7196
  C  C301  1  0.714900  0.653100  0.151000  1.0  -0.2407
  C  C302  1  0.708500  0.706800  0.198800  1.0  -0.0609
  C  C303  1  0.608500  0.718000  0.087400  1.0  -0.0595
  C  C304  1  0.779800  0.899700  0.281900  1.0  -0.1957
  C  C305  1  0.666200  0.631100  0.070100  1.0  0.2084
  C  C306  1  0.814300  0.872400  0.263800  1.0  0.286
  C  C307  1  0.612700  0.661300  0.038400  1.0  -0.1789
  C  C308  1  0.721300  0.548400  0.046200  1.0  -0.0883
  C  C309  1  0.807300  0.907400  0.197100  1.0  -0.2392
  C  C310  1  0.887400  0.772700  0.298400  1.0  -0.0289
  C  C311  1  0.643500  0.187400  0.042800  1.0  -0.0465
  C  C312  1  0.638800  0.275700  0.010200  1.0  0.7206
  C  C313  1  0.849700  0.302400  0.283900  1.0  0.394
  C  C314  1  0.844700  0.240400  0.333100  1.0  -0.0869
  C  C315  1  0.814800  0.564600  0.389200  1.0  0.3751
  C  C316  1  0.770000  0.497800  0.336700  1.0  -0.0553
  C  C317  1  0.905200  0.501300  0.267800  1.0  0.6845
  C  C318  1  0.895700  0.632700  0.463800  1.0  -0.0124
  C  C319  1  0.734900  0.469900  0.353900  1.0  -0.0697
  C  C320  1  0.818500  0.378900  0.098800  1.0  0.7126
  C  C321  1  0.839300  0.365900  0.183000  1.0  0.059
  C  C322  1  0.875400  0.417000  0.253000  1.0  -0.049
  C  C323  1  0.762200  0.463300  0.268700  1.0  -0.0439
  C  C324  1  0.956600  0.645400  0.509000  1.0  0.718
  C  C325  1  0.785100  0.153100  0.349000  1.0  -0.2406
  C  C326  1  0.791500  0.206800  0.301200  1.0  -0.0604
  C  C327  1  0.891500  0.218000  0.412600  1.0  -0.0584
  C  C328  1  0.720200  0.399700  0.218100  1.0  -0.196
  C  C329  1  0.833800  0.131100  0.429900  1.0  0.2074
  C  C330  1  0.685700  0.372400  0.236200  1.0  0.2853
  C  C331  1  0.887300  0.161300  0.461600  1.0  -0.1732
  C  C332  1  0.778700  0.048400  0.453800  1.0  -0.0898
  C  C333  1  0.692700  0.407400  0.302900  1.0  -0.24
  C  C334  1  0.612600  0.272700  0.201600  1.0  -0.0287
  C  C335  1  0.856500  0.687400  0.457200  1.0  -0.0459
  C  C336  1  0.861200  0.775700  0.489800  1.0  0.7212
  C  C337  1  0.349700  0.802400  0.283900  1.0  0.394
  C  C338  1  0.344700  0.740400  0.333100  1.0  -0.0869
  C  C339  1  0.314800  0.064600  0.389200  1.0  0.3751
  C  C340  1  0.270000  0.997800  0.336700  1.0  -0.0553
  C  C341  1  0.405200  0.001300  0.267800  1.0  0.6845
  C  C342  1  0.395700  0.132700  0.463800  1.0  -0.0124
  C  C343  1  0.234900  0.969900  0.353900  1.0  -0.0697
  C  C344  1  0.318500  0.878900  0.098800  1.0  0.7126
  C  C345  1  0.339300  0.865900  0.183000  1.0  0.059
  C  C346  1  0.375400  0.917000  0.253000  1.0  -0.049
  C  C347  1  0.262200  0.963300  0.268700  1.0  -0.0439
  C  C348  1  0.456600  0.145400  0.509000  1.0  0.718
  C  C349  1  0.285100  0.653100  0.349000  1.0  -0.2406
  C  C350  1  0.291500  0.706800  0.301200  1.0  -0.0604
  C  C351  1  0.391500  0.718000  0.412600  1.0  -0.0584
  C  C352  1  0.220200  0.899700  0.218100  1.0  -0.196
  C  C353  1  0.333800  0.631100  0.429900  1.0  0.2074
  C  C354  1  0.185700  0.872400  0.236200  1.0  0.2853
  C  C355  1  0.387300  0.661300  0.461600  1.0  -0.1732
  C  C356  1  0.278700  0.548400  0.453800  1.0  -0.0898
  C  C357  1  0.192700  0.907400  0.302900  1.0  -0.24
  C  C358  1  0.112600  0.772700  0.201600  1.0  -0.0287
  C  C359  1  0.356500  0.187400  0.457200  1.0  -0.0459
  C  C360  1  0.361200  0.275700  0.489800  1.0  0.7212
  N  N361  1  0.822450  0.705800  0.702300  1.0  -0.4443
  N  N362  1  0.868520  0.444000  0.920200  1.0  -0.3792
  N  N363  1  0.882170  0.624700  0.816900  1.0  -0.4084
  N  N364  1  0.805250  0.356600  0.910200  1.0  -0.4538
  N  N365  1  0.322450  0.205800  0.702300  1.0  -0.4443
  N  N366  1  0.368520  0.944000  0.920200  1.0  -0.3792
  N  N367  1  0.382170  0.124700  0.816900  1.0  -0.4084
  N  N368  1  0.305250  0.856600  0.910200  1.0  -0.4538
  N  N369  1  0.177550  0.705800  0.797700  1.0  -0.4449
  N  N370  1  0.131480  0.444000  0.579800  1.0  -0.3808
  N  N371  1  0.117830  0.624700  0.683100  1.0  -0.4095
  N  N372  1  0.194750  0.356600  0.589800  1.0  -0.4552
  N  N373  1  0.677550  0.205800  0.797700  1.0  -0.4449
  N  N374  1  0.631480  0.944000  0.579800  1.0  -0.3808
  N  N375  1  0.617830  0.124700  0.683100  1.0  -0.4095
  N  N376  1  0.694750  0.856600  0.589800  1.0  -0.4552
  N  N377  1  0.177550  0.294200  0.297700  1.0  -0.4432
  N  N378  1  0.131480  0.556000  0.079800  1.0  -0.3815
  N  N379  1  0.117830  0.375300  0.183100  1.0  -0.4092
  N  N380  1  0.194750  0.643400  0.089800  1.0  -0.455
  N  N381  1  0.677550  0.794200  0.297700  1.0  -0.4432
  N  N382  1  0.631480  0.056000  0.079800  1.0  -0.3815
  N  N383  1  0.617830  0.875300  0.183100  1.0  -0.4092
  N  N384  1  0.694750  0.143400  0.089800  1.0  -0.455
  N  N385  1  0.822450  0.294200  0.202300  1.0  -0.4448
  N  N386  1  0.868520  0.556000  0.420200  1.0  -0.38
  N  N387  1  0.882170  0.375300  0.316900  1.0  -0.4084
  N  N388  1  0.805250  0.643400  0.410200  1.0  -0.4533
  N  N389  1  0.322450  0.794200  0.202300  1.0  -0.4448
  N  N390  1  0.368520  0.056000  0.420200  1.0  -0.38
  N  N391  1  0.382170  0.875300  0.316900  1.0  -0.4084
  N  N392  1  0.305250  0.143400  0.410200  1.0  -0.4533
  O  O393  1  0.979920  0.282800  0.045800  1.0  -0.5854
  O  O394  1  0.935140  0.465900  0.837700  1.0  -0.5731
  O  O395  1  0.833560  0.553200  0.581100  1.0  -0.5922
  O  O396  1  0.786140  0.680700  0.545600  1.0  -0.6852
  O  O397  1  0.899120  0.462500  0.706600  1.0  -0.4812
  O  O398  1  0.832200  0.920800  0.982100  1.0  -0.7063
  O  O399  1  0.981810  0.419500  0.007000  1.0  -0.6625
  O  O400  1  0.647300  0.691900  0.684000  1.0  -0.2529
  O  O401  1  0.909520  0.184800  0.033100  1.0  -0.5021
  O  O402  1  0.818390  0.189400  0.973800  1.0  -0.5922
  O  O403  1  0.824900  0.883600  0.602100  1.0  -0.7223
  O  O404  1  0.479920  0.782800  0.045800  1.0  -0.5854
  O  O405  1  0.435140  0.965900  0.837700  1.0  -0.5731
  O  O406  1  0.333560  0.053200  0.581100  1.0  -0.5922
  O  O407  1  0.286140  0.180700  0.545600  1.0  -0.6852
  O  O408  1  0.399120  0.962500  0.706600  1.0  -0.4812
  O  O409  1  0.332200  0.420800  0.982100  1.0  -0.7063
  O  O410  1  0.481810  0.919500  0.007000  1.0  -0.6625
  O  O411  1  0.147300  0.191900  0.684000  1.0  -0.2529
  O  O412  1  0.409520  0.684800  0.033100  1.0  -0.5021
  O  O413  1  0.318390  0.689400  0.973800  1.0  -0.5922
  O  O414  1  0.324900  0.383600  0.602100  1.0  -0.7223
  O  O415  1  0.020080  0.282800  0.454200  1.0  -0.5845
  O  O416  1  0.064860  0.465900  0.662300  1.0  -0.5707
  O  O417  1  0.166440  0.553200  0.918900  1.0  -0.5919
  O  O418  1  0.213860  0.680700  0.954400  1.0  -0.6867
  O  O419  1  0.100880  0.462500  0.793400  1.0  -0.4836
  O  O420  1  0.167800  0.920800  0.517900  1.0  -0.7061
  O  O421  1  0.018190  0.419500  0.493000  1.0  -0.6631
  O  O422  1  0.352700  0.691900  0.816000  1.0  -0.2528
  O  O423  1  0.090480  0.184800  0.466900  1.0  -0.5027
  O  O424  1  0.181610  0.189400  0.526200  1.0  -0.5929
  O  O425  1  0.175100  0.883600  0.897900  1.0  -0.7236
  O  O426  1  0.520080  0.782800  0.454200  1.0  -0.5845
  O  O427  1  0.564860  0.965900  0.662300  1.0  -0.5707
  O  O428  1  0.666440  0.053200  0.918900  1.0  -0.5919
  O  O429  1  0.713860  0.180700  0.954400  1.0  -0.6867
  O  O430  1  0.600880  0.962500  0.793400  1.0  -0.4836
  O  O431  1  0.667800  0.420800  0.517900  1.0  -0.7061
  O  O432  1  0.518190  0.919500  0.493000  1.0  -0.6631
  O  O433  1  0.852700  0.191900  0.816000  1.0  -0.2528
  O  O434  1  0.590480  0.684800  0.466900  1.0  -0.5027
  O  O435  1  0.681610  0.689400  0.526200  1.0  -0.5929
  O  O436  1  0.675100  0.383600  0.897900  1.0  -0.7236
  O  O437  1  0.020080  0.717200  0.954200  1.0  -0.5849
  O  O438  1  0.064860  0.534100  0.162300  1.0  -0.5715
  O  O439  1  0.166440  0.446800  0.418900  1.0  -0.5925
  O  O440  1  0.213860  0.319300  0.454400  1.0  -0.6871
  O  O441  1  0.100880  0.537500  0.293400  1.0  -0.4828
  O  O442  1  0.167800  0.079200  0.017900  1.0  -0.7058
  O  O443  1  0.018190  0.580500  0.993000  1.0  -0.6628
  O  O444  1  0.352700  0.308100  0.316000  1.0  -0.2523
  O  O445  1  0.090480  0.815200  0.966900  1.0  -0.5
  O  O446  1  0.181610  0.810600  0.026200  1.0  -0.5934
  O  O447  1  0.175100  0.116400  0.397900  1.0  -0.7268
  O  O448  1  0.520080  0.217200  0.954200  1.0  -0.5849
  O  O449  1  0.564860  0.034100  0.162300  1.0  -0.5715
  O  O450  1  0.666440  0.946800  0.418900  1.0  -0.5925
  O  O451  1  0.713860  0.819300  0.454400  1.0  -0.6871
  O  O452  1  0.600880  0.037500  0.293400  1.0  -0.4828
  O  O453  1  0.667800  0.579200  0.017900  1.0  -0.7058
  O  O454  1  0.518190  0.080500  0.993000  1.0  -0.6628
  O  O455  1  0.852700  0.808100  0.316000  1.0  -0.2523
  O  O456  1  0.590480  0.315200  0.966900  1.0  -0.5
  O  O457  1  0.681610  0.310600  0.026200  1.0  -0.5934
  O  O458  1  0.675100  0.616400  0.397900  1.0  -0.7268
  O  O459  1  0.979920  0.717200  0.545800  1.0  -0.5859
  O  O460  1  0.935140  0.534100  0.337700  1.0  -0.5726
  O  O461  1  0.833560  0.446800  0.081100  1.0  -0.5921
  O  O462  1  0.786140  0.319300  0.045600  1.0  -0.6855
  O  O463  1  0.899120  0.537500  0.206600  1.0  -0.4813
  O  O464  1  0.832200  0.079200  0.482100  1.0  -0.7069
  O  O465  1  0.981810  0.580500  0.507000  1.0  -0.6618
  O  O466  1  0.647300  0.308100  0.184000  1.0  -0.2528
  O  O467  1  0.909520  0.815200  0.533100  1.0  -0.498
  O  O468  1  0.818390  0.810600  0.473800  1.0  -0.5922
  O  O469  1  0.824900  0.116400  0.102100  1.0  -0.7281
  O  O470  1  0.479920  0.217200  0.545800  1.0  -0.5859
  O  O471  1  0.435140  0.034100  0.337700  1.0  -0.5726
  O  O472  1  0.333560  0.946800  0.081100  1.0  -0.5921
  O  O473  1  0.286140  0.819300  0.045600  1.0  -0.6855
  O  O474  1  0.399120  0.037500  0.206600  1.0  -0.4813
  O  O475  1  0.332200  0.579200  0.482100  1.0  -0.7069
  O  O476  1  0.481810  0.080500  0.507000  1.0  -0.6618
  O  O477  1  0.147300  0.808100  0.184000  1.0  -0.2528
  O  O478  1  0.409520  0.315200  0.533100  1.0  -0.498
  O  O479  1  0.318390  0.310600  0.473800  1.0  -0.5922
  O  O480  1  0.324900  0.616400  0.102100  1.0  -0.7281
