# generated using pymatgen
data_YH3(C3O2)3
_symmetry_space_group_name_H-M   'P 1'
_cell_length_a   10.29000000
_cell_length_b   10.29000000
_cell_length_c   14.50000000
_cell_angle_alpha   90.00000000
_cell_angle_beta   90.00000000
_cell_angle_gamma   90.00000000
_symmetry_Int_Tables_number   1
_chemical_formula_structural   YH3(C3O2)3
_chemical_formula_sum   'Y4 H12 C36 O24'
_cell_volume   1535.31945000
_cell_formula_units_Z   4
loop_
 _symmetry_equiv_pos_site_id
 _symmetry_equiv_pos_as_xyz
  1  'x, y, z'
loop_
 _atom_site_type_symbol
 _atom_site_label
 _atom_site_symmetry_multiplicity
 _atom_site_fract_x
 _atom_site_fract_y
 _atom_site_fract_z
 _atom_site_occupancy
 _atom_site_charge
  Y  Y1  1  0.850850  0.149150  0.625000  1.0  2.1313
  Y  Y2  1  0.149150  0.850850  0.125000  1.0  2.1314
  Y  Y3  1  0.850850  0.850850  0.875000  1.0  2.1317
  Y  Y4  1  0.149150  0.149150  0.375000  1.0  2.1308
  H  H5  1  0.558500  0.076200  0.376800  1.0  0.1075
  H  H6  1  0.441500  0.923800  0.876800  1.0  0.1074
  H  H7  1  0.923800  0.558500  0.626800  1.0  0.1073
  H  H8  1  0.076200  0.441500  0.126800  1.0  0.1075
  H  H9  1  0.441500  0.076200  0.623200  1.0  0.1074
  H  H10  1  0.558500  0.923800  0.123200  1.0  0.1069
  H  H11  1  0.076200  0.558500  0.373200  1.0  0.107
  H  H12  1  0.923800  0.441500  0.873200  1.0  0.1072
  H  H13  1  0.899700  0.000000  0.250000  1.0  0.0883
  H  H14  1  0.100300  0.000000  0.750000  1.0  0.0878
  H  H15  1  0.000000  0.899700  0.500000  1.0  0.0877
  H  H16  1  0.000000  0.100300  0.000000  1.0  0.0871
  C  C17  1  0.604600  0.044900  0.326300  1.0  0.0404
  C  C18  1  0.739200  0.043200  0.327600  1.0  -0.1873
  C  C19  1  0.816200  0.088500  0.409800  1.0  0.7816
  C  C20  1  0.395400  0.955100  0.826300  1.0  0.0413
  C  C21  1  0.260800  0.956800  0.827600  1.0  -0.1883
  C  C22  1  0.183800  0.911500  0.909800  1.0  0.7835
  C  C23  1  0.955100  0.604600  0.576300  1.0  0.0405
  C  C24  1  0.956800  0.739200  0.577600  1.0  -0.1881
  C  C25  1  0.911500  0.816200  0.659800  1.0  0.7901
  C  C26  1  0.044900  0.395400  0.076300  1.0  0.0409
  C  C27  1  0.043200  0.260800  0.077600  1.0  -0.1884
  C  C28  1  0.088500  0.183800  0.159800  1.0  0.7909
  C  C29  1  0.395400  0.044900  0.673700  1.0  0.041
  C  C30  1  0.260800  0.043200  0.672400  1.0  -0.1862
  C  C31  1  0.183800  0.088500  0.590200  1.0  0.7829
  C  C32  1  0.604600  0.955100  0.173700  1.0  0.0408
  C  C33  1  0.739200  0.956800  0.172400  1.0  -0.1863
  C  C34  1  0.816200  0.911500  0.090200  1.0  0.7812
  C  C35  1  0.044900  0.604600  0.423700  1.0  0.0411
  C  C36  1  0.043200  0.739200  0.422400  1.0  -0.1871
  C  C37  1  0.088500  0.816200  0.340200  1.0  0.7899
  C  C38  1  0.955100  0.395400  0.923700  1.0  0.0413
  C  C39  1  0.956800  0.260800  0.922400  1.0  -0.1864
  C  C40  1  0.911500  0.183800  0.840200  1.0  0.79
  C  C41  1  0.539800  0.000000  0.250000  1.0  -0.1956
  C  C42  1  0.391100  0.000000  0.250000  1.0  0.8105
  C  C43  1  0.809300  0.000000  0.250000  1.0  0.0368
  C  C44  1  0.460200  0.000000  0.750000  1.0  -0.1956
  C  C45  1  0.608900  0.000000  0.750000  1.0  0.8105
  C  C46  1  0.190700  0.000000  0.750000  1.0  0.0338
  C  C47  1  0.000000  0.539800  0.500000  1.0  -0.1941
  C  C48  1  0.000000  0.391100  0.500000  1.0  0.807
  C  C49  1  0.000000  0.809300  0.500000  1.0  0.0343
  C  C50  1  0.000000  0.460200  0.000000  1.0  -0.1943
  C  C51  1  0.000000  0.608900  0.000000  1.0  0.8088
  C  C52  1  0.000000  0.190700  0.000000  1.0  0.0361
  O  O53  1  0.758500  0.095500  0.486400  1.0  -0.7222
  O  O54  1  0.336200  0.072500  0.307600  1.0  -0.73
  O  O55  1  0.933500  0.112700  0.399700  1.0  -0.7298
  O  O56  1  0.241500  0.904500  0.986400  1.0  -0.724
  O  O57  1  0.663800  0.927500  0.807600  1.0  -0.7299
  O  O58  1  0.066500  0.887300  0.899700  1.0  -0.7297
  O  O59  1  0.904500  0.758500  0.736400  1.0  -0.7208
  O  O60  1  0.927500  0.336200  0.557600  1.0  -0.7296
  O  O61  1  0.887300  0.933500  0.649700  1.0  -0.7323
  O  O62  1  0.095500  0.241500  0.236400  1.0  -0.7223
  O  O63  1  0.072500  0.663800  0.057600  1.0  -0.7283
  O  O64  1  0.112700  0.066500  0.149700  1.0  -0.7303
  O  O65  1  0.241500  0.095500  0.513600  1.0  -0.7221
  O  O66  1  0.663800  0.072500  0.692400  1.0  -0.7293
  O  O67  1  0.066500  0.112700  0.600300  1.0  -0.7286
  O  O68  1  0.758500  0.904500  0.013600  1.0  -0.7217
  O  O69  1  0.336200  0.927500  0.192400  1.0  -0.7297
  O  O70  1  0.933500  0.887300  0.100300  1.0  -0.7304
  O  O71  1  0.095500  0.758500  0.263600  1.0  -0.7197
  O  O72  1  0.072500  0.336200  0.442400  1.0  -0.7279
  O  O73  1  0.112700  0.933500  0.350300  1.0  -0.7316
  O  O74  1  0.904500  0.241500  0.763600  1.0  -0.7217
  O  O75  1  0.927500  0.663800  0.942400  1.0  -0.7282
  O  O76  1  0.887300  0.066500  0.850300  1.0  -0.7318
