# generated using pymatgen
data_DyH3(C3O2)3
_symmetry_space_group_name_H-M   'P 1'
_cell_length_a   10.32000000
_cell_length_b   10.32000000
_cell_length_c   14.50000000
_cell_angle_alpha   90.00000000
_cell_angle_beta   90.00000000
_cell_angle_gamma   90.00000000
_symmetry_Int_Tables_number   1
_chemical_formula_structural   DyH3(C3O2)3
_chemical_formula_sum   'Dy4 H12 C36 O24'
_cell_volume   1544.28480000
_cell_formula_units_Z   4
loop_
 _symmetry_equiv_pos_site_id
 _symmetry_equiv_pos_as_xyz
  1  'x, y, z'
loop_
 _atom_site_type_symbol
 _atom_site_label
 _atom_site_symmetry_multiplicity
 _atom_site_fract_x
 _atom_site_fract_y
 _atom_site_fract_z
 _atom_site_occupancy
 _atom_site_charge
  Dy  Dy1  1  0.852130  0.852130  0.875000  1.0  2.3781
  Dy  Dy2  1  0.147870  0.147870  0.375000  1.0  2.3788
  Dy  Dy3  1  0.147870  0.852130  0.125000  1.0  2.3788
  Dy  Dy4  1  0.852130  0.147870  0.625000  1.0  2.3783
  H  H5  1  0.928500  0.441100  0.871100  1.0  0.1087
  H  H6  1  0.071500  0.558900  0.371100  1.0  0.1087
  H  H7  1  0.558900  0.928500  0.121100  1.0  0.1087
  H  H8  1  0.441100  0.071500  0.621100  1.0  0.1089
  H  H9  1  0.071500  0.441100  0.128900  1.0  0.1091
  H  H10  1  0.928500  0.558900  0.628900  1.0  0.1091
  H  H11  1  0.441100  0.928500  0.878900  1.0  0.1091
  H  H12  1  0.558900  0.071500  0.378900  1.0  0.109
  H  H13  1  0.000000  0.102900  0.000000  1.0  0.0761
  H  H14  1  0.000000  0.897100  0.500000  1.0  0.0765
  H  H15  1  0.897100  0.000000  0.250000  1.0  0.0772
  H  H16  1  0.102900  0.000000  0.750000  1.0  0.0766
  C  C17  1  0.956900  0.395800  0.922700  1.0  0.0416
  C  C18  1  0.956400  0.260900  0.922900  1.0  -0.1941
  C  C19  1  0.913000  0.185400  0.838900  1.0  0.8325
  C  C20  1  0.043100  0.604200  0.422700  1.0  0.0407
  C  C21  1  0.043600  0.739100  0.422900  1.0  -0.1947
  C  C22  1  0.087000  0.814600  0.338900  1.0  0.8318
  C  C23  1  0.604200  0.956900  0.172700  1.0  0.0407
  C  C24  1  0.739100  0.956400  0.172900  1.0  -0.195
  C  C25  1  0.814600  0.913000  0.088900  1.0  0.8293
  C  C26  1  0.395800  0.043100  0.672700  1.0  0.0404
  C  C27  1  0.260900  0.043600  0.672900  1.0  -0.1945
  C  C28  1  0.185400  0.087000  0.588900  1.0  0.8299
  C  C29  1  0.043100  0.395800  0.077300  1.0  0.0407
  C  C30  1  0.043600  0.260900  0.077100  1.0  -0.1952
  C  C31  1  0.087000  0.185400  0.161100  1.0  0.8319
  C  C32  1  0.956900  0.604200  0.577300  1.0  0.0402
  C  C33  1  0.956400  0.739100  0.577100  1.0  -0.195
  C  C34  1  0.913000  0.814600  0.661100  1.0  0.8324
  C  C35  1  0.395800  0.956900  0.827300  1.0  0.0404
  C  C36  1  0.260900  0.956400  0.827100  1.0  -0.1959
  C  C37  1  0.185400  0.913000  0.911100  1.0  0.8306
  C  C38  1  0.604200  0.043100  0.327300  1.0  0.0395
  C  C39  1  0.739100  0.043600  0.327100  1.0  -0.1952
  C  C40  1  0.814600  0.087000  0.411100  1.0  0.829
  C  C41  1  0.000000  0.462700  0.000000  1.0  -0.192
  C  C42  1  0.000000  0.610400  0.000000  1.0  0.86
  C  C43  1  0.000000  0.193000  0.000000  1.0  0.0433
  C  C44  1  0.000000  0.537300  0.500000  1.0  -0.1924
  C  C45  1  0.000000  0.389600  0.500000  1.0  0.8587
  C  C46  1  0.000000  0.807000  0.500000  1.0  0.0428
  C  C47  1  0.537300  0.000000  0.250000  1.0  -0.194
  C  C48  1  0.389600  0.000000  0.250000  1.0  0.8631
  C  C49  1  0.807000  0.000000  0.250000  1.0  0.0421
  C  C50  1  0.462700  0.000000  0.750000  1.0  -0.1927
  C  C51  1  0.610400  0.000000  0.750000  1.0  0.8632
  C  C52  1  0.193000  0.000000  0.750000  1.0  0.0412
  O  O53  1  0.904800  0.243600  0.764300  1.0  -0.772
  O  O54  1  0.929100  0.663600  0.941600  1.0  -0.7961
  O  O55  1  0.890400  0.069300  0.848600  1.0  -0.7984
  O  O56  1  0.095200  0.756400  0.264300  1.0  -0.7686
  O  O57  1  0.070900  0.336400  0.441600  1.0  -0.7964
  O  O58  1  0.109600  0.930700  0.348600  1.0  -0.798
  O  O59  1  0.756400  0.904800  0.014300  1.0  -0.7736
  O  O60  1  0.336400  0.929100  0.191600  1.0  -0.7979
  O  O61  1  0.930700  0.890400  0.098600  1.0  -0.7969
  O  O62  1  0.243600  0.095200  0.514300  1.0  -0.7725
  O  O63  1  0.663600  0.070900  0.691600  1.0  -0.7981
  O  O64  1  0.069300  0.109600  0.598600  1.0  -0.7972
  O  O65  1  0.095200  0.243600  0.235700  1.0  -0.7727
  O  O66  1  0.070900  0.663600  0.058400  1.0  -0.797
  O  O67  1  0.109600  0.069300  0.151400  1.0  -0.7966
  O  O68  1  0.904800  0.756400  0.735700  1.0  -0.7743
  O  O69  1  0.929100  0.336400  0.558400  1.0  -0.7973
  O  O70  1  0.890400  0.930700  0.651400  1.0  -0.7996
  O  O71  1  0.243600  0.904800  0.985700  1.0  -0.7763
  O  O72  1  0.663600  0.929100  0.808400  1.0  -0.7987
  O  O73  1  0.069300  0.890400  0.901400  1.0  -0.7983
  O  O74  1  0.756400  0.095200  0.485700  1.0  -0.7763
  O  O75  1  0.336400  0.070900  0.308400  1.0  -0.7986
  O  O76  1  0.930700  0.109600  0.401400  1.0  -0.7959
