# generated using pymatgen
data_ErH3(C3O2)3
_symmetry_space_group_name_H-M   'P 1'
_cell_length_a   10.26700000
_cell_length_b   10.26700000
_cell_length_c   14.46200000
_cell_angle_alpha   90.00000000
_cell_angle_beta   90.00000000
_cell_angle_gamma   90.00000000
_symmetry_Int_Tables_number   1
_chemical_formula_structural   ErH3(C3O2)3
_chemical_formula_sum   'Er4 H12 C36 O24'
_cell_volume   1524.45806152
_cell_formula_units_Z   4
loop_
 _symmetry_equiv_pos_site_id
 _symmetry_equiv_pos_as_xyz
  1  'x, y, z'
loop_
 _atom_site_type_symbol
 _atom_site_label
 _atom_site_symmetry_multiplicity
 _atom_site_fract_x
 _atom_site_fract_y
 _atom_site_fract_z
 _atom_site_occupancy
 _atom_site_charge
  Er  Er1  1  0.852580  0.852580  0.875000  1.0  1.537
  Er  Er2  1  0.147410  0.147410  0.375000  1.0  1.5369
  Er  Er3  1  0.147410  0.852580  0.125000  1.0  1.5368
  Er  Er4  1  0.852580  0.147410  0.625000  1.0  1.5373
  H  H5  1  0.925400  0.441800  0.871400  1.0  0.1088
  H  H6  1  0.074600  0.558200  0.371400  1.0  0.1091
  H  H7  1  0.558200  0.925400  0.121400  1.0  0.1089
  H  H8  1  0.441800  0.074600  0.621400  1.0  0.1092
  H  H9  1  0.074600  0.441800  0.128600  1.0  0.1093
  H  H10  1  0.925400  0.558200  0.628600  1.0  0.1094
  H  H11  1  0.441800  0.925400  0.878600  1.0  0.1094
  H  H12  1  0.558200  0.074600  0.378600  1.0  0.1093
  H  H13  1  0.000000  0.102500  0.000000  1.0  0.0817
  H  H14  1  0.000000  0.897500  0.500000  1.0  0.0819
  H  H15  1  0.897500  0.000000  0.250000  1.0  0.0832
  H  H16  1  0.102500  0.000000  0.750000  1.0  0.0828
  C  C17  1  0.955600  0.396700  0.922900  1.0  0.0379
  C  C18  1  0.956200  0.260800  0.922700  1.0  -0.1765
  C  C19  1  0.913200  0.184000  0.839500  1.0  0.7313
  C  C20  1  0.044400  0.603300  0.422900  1.0  0.0375
  C  C21  1  0.043800  0.739200  0.422700  1.0  -0.1776
  C  C22  1  0.086800  0.816000  0.339500  1.0  0.73
  C  C23  1  0.603300  0.955600  0.172900  1.0  0.0373
  C  C24  1  0.739200  0.956200  0.172700  1.0  -0.1774
  C  C25  1  0.816000  0.913200  0.089500  1.0  0.7354
  C  C26  1  0.396700  0.044400  0.672900  1.0  0.037
  C  C27  1  0.260800  0.043800  0.672700  1.0  -0.1764
  C  C28  1  0.184000  0.086800  0.589500  1.0  0.7344
  C  C29  1  0.044400  0.396700  0.077100  1.0  0.0375
  C  C30  1  0.043800  0.260800  0.077300  1.0  -0.1778
  C  C31  1  0.086800  0.184000  0.160500  1.0  0.732
  C  C32  1  0.955600  0.603300  0.577100  1.0  0.0375
  C  C33  1  0.956200  0.739200  0.577300  1.0  -0.1777
  C  C34  1  0.913200  0.816000  0.660500  1.0  0.731
  C  C35  1  0.396700  0.955600  0.827100  1.0  0.0378
  C  C36  1  0.260800  0.956200  0.827300  1.0  -0.1781
  C  C37  1  0.184000  0.913200  0.910500  1.0  0.735
  C  C38  1  0.603300  0.044400  0.327100  1.0  0.0371
  C  C39  1  0.739200  0.043800  0.327300  1.0  -0.1772
  C  C40  1  0.816000  0.086800  0.410500  1.0  0.7365
  C  C41  1  0.000000  0.465100  0.000000  1.0  -0.1847
  C  C42  1  0.000000  0.610600  0.000000  1.0  0.7551
  C  C43  1  0.000000  0.193000  0.000000  1.0  0.0447
  C  C44  1  0.000000  0.534900  0.500000  1.0  -0.1856
  C  C45  1  0.000000  0.389400  0.500000  1.0  0.7534
  C  C46  1  0.000000  0.807000  0.500000  1.0  0.0446
  C  C47  1  0.534900  0.000000  0.250000  1.0  -0.1862
  C  C48  1  0.389400  0.000000  0.250000  1.0  0.7558
  C  C49  1  0.807000  0.000000  0.250000  1.0  0.0436
  C  C50  1  0.465100  0.000000  0.750000  1.0  -0.1851
  C  C51  1  0.610600  0.000000  0.750000  1.0  0.7551
  C  C52  1  0.193000  0.000000  0.750000  1.0  0.0428
  O  O53  1  0.905700  0.241400  0.762860  1.0  -0.6166
  O  O54  1  0.928100  0.665300  0.941750  1.0  -0.6074
  O  O55  1  0.888400  0.068000  0.849600  1.0  -0.5958
  O  O56  1  0.094300  0.758600  0.262860  1.0  -0.6155
  O  O57  1  0.071900  0.334700  0.441750  1.0  -0.6075
  O  O58  1  0.111600  0.932000  0.349600  1.0  -0.5964
  O  O59  1  0.758600  0.905700  0.012860  1.0  -0.6152
  O  O60  1  0.334700  0.928100  0.191750  1.0  -0.6083
  O  O61  1  0.932000  0.888400  0.099600  1.0  -0.5931
  O  O62  1  0.241400  0.094300  0.512860  1.0  -0.6167
  O  O63  1  0.665300  0.071900  0.691750  1.0  -0.6089
  O  O64  1  0.068000  0.111600  0.599600  1.0  -0.5928
  O  O65  1  0.094300  0.241400  0.237140  1.0  -0.6161
  O  O66  1  0.071900  0.665300  0.058250  1.0  -0.608
  O  O67  1  0.111600  0.068000  0.150400  1.0  -0.5954
  O  O68  1  0.905700  0.758600  0.737140  1.0  -0.617
  O  O69  1  0.928100  0.334700  0.558250  1.0  -0.6084
  O  O70  1  0.888400  0.932000  0.650400  1.0  -0.5963
  O  O71  1  0.241400  0.905700  0.987140  1.0  -0.6165
  O  O72  1  0.665300  0.928100  0.808250  1.0  -0.6085
  O  O73  1  0.068000  0.888400  0.900400  1.0  -0.5944
  O  O74  1  0.758600  0.094300  0.487140  1.0  -0.6151
  O  O75  1  0.334700  0.071900  0.308250  1.0  -0.609
  O  O76  1  0.932000  0.111600  0.400400  1.0  -0.5921
