# generated using pymatgen
data_ErH3(C3O2)3
_symmetry_space_group_name_H-M   'P 1'
_cell_length_a   10.27000000
_cell_length_b   10.27000000
_cell_length_c   14.46000000
_cell_angle_alpha   90.00000000
_cell_angle_beta   90.00000000
_cell_angle_gamma   90.00000000
_symmetry_Int_Tables_number   1
_chemical_formula_structural   ErH3(C3O2)3
_chemical_formula_sum   'Er4 H12 C36 O24'
_cell_volume   1525.13813400
_cell_formula_units_Z   4
loop_
 _symmetry_equiv_pos_site_id
 _symmetry_equiv_pos_as_xyz
  1  'x, y, z'
loop_
 _atom_site_type_symbol
 _atom_site_label
 _atom_site_symmetry_multiplicity
 _atom_site_fract_x
 _atom_site_fract_y
 _atom_site_fract_z
 _atom_site_occupancy
 _atom_site_charge
  Er  Er1  1  0.351330  0.648670  0.875000  1.0  1.5382
  Er  Er2  1  0.648670  0.351330  0.375000  1.0  1.539
  Er  Er3  1  0.351330  0.351330  0.625000  1.0  1.5386
  Er  Er4  1  0.648670  0.648670  0.125000  1.0  1.5386
  H  H5  1  0.424900  0.059200  0.871600  1.0  0.1102
  H  H6  1  0.575100  0.940800  0.371600  1.0  0.1105
  H  H7  1  0.940800  0.424900  0.621600  1.0  0.1105
  H  H8  1  0.059200  0.575100  0.121600  1.0  0.1104
  H  H9  1  0.575100  0.059200  0.128400  1.0  0.111
  H  H10  1  0.424900  0.940800  0.628400  1.0  0.1107
  H  H11  1  0.059200  0.424900  0.378400  1.0  0.1108
  H  H12  1  0.940800  0.575100  0.878400  1.0  0.111
  H  H13  1  0.500000  0.399200  0.000000  1.0  0.087
  H  H14  1  0.500000  0.600800  0.500000  1.0  0.0866
  H  H15  1  0.600800  0.500000  0.750000  1.0  0.0875
  H  H16  1  0.399200  0.500000  0.250000  1.0  0.0881
  C  C17  1  0.412200  0.316600  0.839300  1.0  0.7295
  C  C18  1  0.455400  0.104600  0.922800  1.0  0.0422
  C  C19  1  0.456800  0.240000  0.922700  1.0  -0.1726
  C  C20  1  0.587800  0.683400  0.339300  1.0  0.7305
  C  C21  1  0.544600  0.895400  0.422800  1.0  0.0426
  C  C22  1  0.543200  0.760000  0.422700  1.0  -0.1719
  C  C23  1  0.683400  0.412200  0.589300  1.0  0.7298
  C  C24  1  0.895400  0.455400  0.672800  1.0  0.0422
  C  C25  1  0.760000  0.456800  0.672700  1.0  -0.1717
  C  C26  1  0.316600  0.587800  0.089300  1.0  0.7309
  C  C27  1  0.104600  0.544600  0.172800  1.0  0.0418
  C  C28  1  0.240000  0.543200  0.172700  1.0  -0.1717
  C  C29  1  0.587800  0.316600  0.160700  1.0  0.7303
  C  C30  1  0.544600  0.104600  0.077200  1.0  0.0428
  C  C31  1  0.543200  0.240000  0.077300  1.0  -0.1735
  C  C32  1  0.412200  0.683400  0.660700  1.0  0.731
  C  C33  1  0.455400  0.895400  0.577200  1.0  0.0417
  C  C34  1  0.456800  0.760000  0.577300  1.0  -0.1723
  C  C35  1  0.316600  0.412200  0.410700  1.0  0.7312
  C  C36  1  0.104600  0.455400  0.327200  1.0  0.0415
  C  C37  1  0.240000  0.456800  0.327300  1.0  -0.172
  C  C38  1  0.683400  0.587800  0.910700  1.0  0.7304
  C  C39  1  0.895400  0.544600  0.827200  1.0  0.0421
  C  C40  1  0.760000  0.543200  0.827300  1.0  -0.1723
  C  C41  1  0.500000  0.889700  0.000000  1.0  0.7659
  C  C42  1  0.500000  0.037400  0.000000  1.0  -0.1838
  C  C43  1  0.500000  0.308700  0.000000  1.0  0.0374
  C  C44  1  0.500000  0.110300  0.500000  1.0  0.7677
  C  C45  1  0.500000  0.962600  0.500000  1.0  -0.1837
  C  C46  1  0.500000  0.691300  0.500000  1.0  0.0378
  C  C47  1  0.110300  0.500000  0.750000  1.0  0.7684
  C  C48  1  0.962600  0.500000  0.750000  1.0  -0.1837
  C  C49  1  0.691300  0.500000  0.750000  1.0  0.0354
  C  C50  1  0.889700  0.500000  0.250000  1.0  0.7686
  C  C51  1  0.037400  0.500000  0.250000  1.0  -0.1847
  C  C52  1  0.308700  0.500000  0.250000  1.0  0.0363
  O  O53  1  0.427700  0.836100  0.942000  1.0  -0.6142
  O  O54  1  0.388600  0.433100  0.849900  1.0  -0.6074
  O  O55  1  0.404100  0.258300  0.763300  1.0  -0.6181
  O  O56  1  0.572300  0.163900  0.442000  1.0  -0.6142
  O  O57  1  0.611400  0.566900  0.349900  1.0  -0.6054
  O  O58  1  0.595900  0.741700  0.263300  1.0  -0.6175
  O  O59  1  0.163900  0.427700  0.692000  1.0  -0.6156
  O  O60  1  0.566900  0.388600  0.599900  1.0  -0.5968
  O  O61  1  0.741700  0.404100  0.513300  1.0  -0.6183
  O  O62  1  0.836100  0.572300  0.192000  1.0  -0.6151
  O  O63  1  0.433100  0.611400  0.099900  1.0  -0.596
  O  O64  1  0.258300  0.595900  0.013300  1.0  -0.6173
  O  O65  1  0.572300  0.836100  0.058000  1.0  -0.6149
  O  O66  1  0.611400  0.433100  0.150100  1.0  -0.5989
  O  O67  1  0.595900  0.258300  0.236700  1.0  -0.6189
  O  O68  1  0.427700  0.163900  0.558000  1.0  -0.6141
  O  O69  1  0.388600  0.566900  0.650100  1.0  -0.5978
  O  O70  1  0.404100  0.741700  0.736700  1.0  -0.6188
  O  O71  1  0.836100  0.427700  0.308000  1.0  -0.6157
  O  O72  1  0.433100  0.388600  0.400100  1.0  -0.6031
  O  O73  1  0.258300  0.404100  0.486700  1.0  -0.6172
  O  O74  1  0.163900  0.572300  0.808000  1.0  -0.616
  O  O75  1  0.566900  0.611400  0.900100  1.0  -0.6011
  O  O76  1  0.741700  0.595900  0.986700  1.0  -0.6205
