# generated using pymatgen
data_TbH3(C3O2)3
_symmetry_space_group_name_H-M   'P 1'
_cell_length_a   10.33000000
_cell_length_b   10.33000000
_cell_length_c   14.51000000
_cell_angle_alpha   90.00000000
_cell_angle_beta   90.00000000
_cell_angle_gamma   90.00000000
_symmetry_Int_Tables_number   1
_chemical_formula_structural   TbH3(C3O2)3
_chemical_formula_sum   'Tb4 H12 C36 O24'
_cell_volume   1548.34613900
_cell_formula_units_Z   4
loop_
 _symmetry_equiv_pos_site_id
 _symmetry_equiv_pos_as_xyz
  1  'x, y, z'
loop_
 _atom_site_type_symbol
 _atom_site_label
 _atom_site_symmetry_multiplicity
 _atom_site_fract_x
 _atom_site_fract_y
 _atom_site_fract_z
 _atom_site_occupancy
 _atom_site_charge
  Tb  Tb1  1  0.852980  0.852980  0.875000  1.0  2.3289
  Tb  Tb2  1  0.147020  0.147020  0.375000  1.0  2.3294
  Tb  Tb3  1  0.147020  0.852980  0.125000  1.0  2.329
  Tb  Tb4  1  0.852980  0.147020  0.625000  1.0  2.3295
  H  H5  1  0.928100  0.441300  0.871200  1.0  0.1089
  H  H6  1  0.071900  0.558700  0.371200  1.0  0.109
  H  H7  1  0.558700  0.928100  0.121200  1.0  0.109
  H  H8  1  0.441300  0.071900  0.621200  1.0  0.1091
  H  H9  1  0.071900  0.441300  0.128800  1.0  0.1093
  H  H10  1  0.928100  0.558700  0.628800  1.0  0.1098
  H  H11  1  0.441300  0.928100  0.878800  1.0  0.1095
  H  H12  1  0.558700  0.071900  0.378800  1.0  0.1095
  H  H13  1  0.000000  0.104400  0.000000  1.0  0.0725
  H  H14  1  0.000000  0.895600  0.500000  1.0  0.0727
  H  H15  1  0.895600  0.000000  0.250000  1.0  0.0737
  H  H16  1  0.104400  0.000000  0.750000  1.0  0.0732
  C  C17  1  0.957000  0.396200  0.922700  1.0  0.0365
  C  C18  1  0.957200  0.261600  0.922300  1.0  -0.1814
  C  C19  1  0.914400  0.186200  0.839600  1.0  0.7793
  C  C20  1  0.043000  0.603800  0.422700  1.0  0.036
  C  C21  1  0.042800  0.738400  0.422300  1.0  -0.1827
  C  C22  1  0.085600  0.813800  0.339600  1.0  0.7783
  C  C23  1  0.603800  0.957000  0.172700  1.0  0.036
  C  C24  1  0.738400  0.957200  0.172300  1.0  -0.182
  C  C25  1  0.813800  0.914400  0.089600  1.0  0.7793
  C  C26  1  0.396200  0.043000  0.672700  1.0  0.0358
  C  C27  1  0.261600  0.042800  0.672300  1.0  -0.1815
  C  C28  1  0.186200  0.085600  0.589600  1.0  0.7793
  C  C29  1  0.043000  0.396200  0.077300  1.0  0.0359
  C  C30  1  0.042800  0.261600  0.077700  1.0  -0.1826
  C  C31  1  0.085600  0.186200  0.160400  1.0  0.7795
  C  C32  1  0.957000  0.603800  0.577300  1.0  0.0354
  C  C33  1  0.957200  0.738400  0.577700  1.0  -0.1828
  C  C34  1  0.914400  0.813800  0.660400  1.0  0.7794
  C  C35  1  0.396200  0.957000  0.827300  1.0  0.0362
  C  C36  1  0.261600  0.957200  0.827700  1.0  -0.183
  C  C37  1  0.186200  0.914400  0.910400  1.0  0.7808
  C  C38  1  0.603800  0.043000  0.327300  1.0  0.035
  C  C39  1  0.738400  0.042800  0.327700  1.0  -0.1824
  C  C40  1  0.813800  0.085600  0.410400  1.0  0.7803
  C  C41  1  0.000000  0.464000  0.000000  1.0  -0.1883
  C  C42  1  0.000000  0.609400  0.000000  1.0  0.8305
  C  C43  1  0.000000  0.194500  0.000000  1.0  0.0511
  C  C44  1  0.000000  0.536000  0.500000  1.0  -0.1892
  C  C45  1  0.000000  0.390600  0.500000  1.0  0.8292
  C  C46  1  0.000000  0.805500  0.500000  1.0  0.0509
  C  C47  1  0.536000  0.000000  0.250000  1.0  -0.1897
  C  C48  1  0.390600  0.000000  0.250000  1.0  0.8337
  C  C49  1  0.805500  0.000000  0.250000  1.0  0.0509
  C  C50  1  0.464000  0.000000  0.750000  1.0  -0.1895
  C  C51  1  0.609400  0.000000  0.750000  1.0  0.8331
  C  C52  1  0.194500  0.000000  0.750000  1.0  0.0497
  O  O53  1  0.907600  0.244000  0.763890  1.0  -0.7513
  O  O54  1  0.930500  0.664100  0.941200  1.0  -0.7678
  O  O55  1  0.891000  0.070900  0.847900  1.0  -0.7681
  O  O56  1  0.092400  0.756000  0.263890  1.0  -0.7492
  O  O57  1  0.069500  0.335900  0.441200  1.0  -0.7688
  O  O58  1  0.109000  0.929100  0.347900  1.0  -0.7684
  O  O59  1  0.756000  0.907600  0.013890  1.0  -0.7522
  O  O60  1  0.335900  0.930500  0.191200  1.0  -0.7698
  O  O61  1  0.929100  0.891000  0.097900  1.0  -0.7681
  O  O62  1  0.244000  0.092400  0.513890  1.0  -0.7515
  O  O63  1  0.664100  0.069500  0.691200  1.0  -0.7692
  O  O64  1  0.070900  0.109000  0.597900  1.0  -0.7688
  O  O65  1  0.092400  0.244000  0.236110  1.0  -0.753
  O  O66  1  0.069500  0.664100  0.058800  1.0  -0.7686
  O  O67  1  0.109000  0.070900  0.152100  1.0  -0.7674
  O  O68  1  0.907600  0.756000  0.736110  1.0  -0.7541
  O  O69  1  0.930500  0.335900  0.558800  1.0  -0.7685
  O  O70  1  0.891000  0.929100  0.652100  1.0  -0.7687
  O  O71  1  0.244000  0.907600  0.986110  1.0  -0.7558
  O  O72  1  0.664100  0.930500  0.808800  1.0  -0.7691
  O  O73  1  0.070900  0.891000  0.902100  1.0  -0.7696
  O  O74  1  0.756000  0.092400  0.486110  1.0  -0.755
  O  O75  1  0.335900  0.069500  0.308800  1.0  -0.7694
  O  O76  1  0.929100  0.109000  0.402100  1.0  -0.7676
