# generated using pymatgen
data_YbH3(C3O2)3
_symmetry_space_group_name_H-M   'P 1'
_cell_length_a   10.24000000
_cell_length_b   10.24000000
_cell_length_c   14.42000000
_cell_angle_alpha   90.00000000
_cell_angle_beta   90.00000000
_cell_angle_gamma   90.00000000
_symmetry_Int_Tables_number   1
_chemical_formula_structural   YbH3(C3O2)3
_chemical_formula_sum   'Yb4 H12 C36 O24'
_cell_volume   1512.04659200
_cell_formula_units_Z   4
loop_
 _symmetry_equiv_pos_site_id
 _symmetry_equiv_pos_as_xyz
  1  'x, y, z'
loop_
 _atom_site_type_symbol
 _atom_site_label
 _atom_site_symmetry_multiplicity
 _atom_site_fract_x
 _atom_site_fract_y
 _atom_site_fract_z
 _atom_site_occupancy
 _atom_site_charge
  Yb  Yb1  1  0.352150  0.647850  0.875000  1.0  1.5416
  Yb  Yb2  1  0.647850  0.352150  0.375000  1.0  1.5419
  Yb  Yb3  1  0.352150  0.352150  0.625000  1.0  1.5416
  Yb  Yb4  1  0.647850  0.647850  0.125000  1.0  1.5419
  H  H5  1  0.425100  0.059000  0.870900  1.0  0.1179
  H  H6  1  0.574900  0.941000  0.370900  1.0  0.1183
  H  H7  1  0.941000  0.425100  0.620900  1.0  0.1182
  H  H8  1  0.059000  0.574900  0.120900  1.0  0.1182
  H  H9  1  0.574900  0.059000  0.129100  1.0  0.1183
  H  H10  1  0.425100  0.941000  0.629100  1.0  0.1182
  H  H11  1  0.059000  0.425100  0.379100  1.0  0.1182
  H  H12  1  0.941000  0.574900  0.879100  1.0  0.1183
  H  H13  1  0.500000  0.398900  0.000000  1.0  0.0929
  H  H14  1  0.500000  0.601100  0.500000  1.0  0.0926
  H  H15  1  0.601100  0.500000  0.750000  1.0  0.0939
  H  H16  1  0.398900  0.500000  0.250000  1.0  0.094
  C  C17  1  0.411000  0.317800  0.839000  1.0  0.7479
  C  C18  1  0.455400  0.104200  0.922500  1.0  0.045
  C  C19  1  0.456500  0.239800  0.922600  1.0  -0.1607
  C  C20  1  0.589000  0.682200  0.339000  1.0  0.7482
  C  C21  1  0.544600  0.895800  0.422500  1.0  0.0451
  C  C22  1  0.543500  0.760200  0.422600  1.0  -0.1606
  C  C23  1  0.682200  0.411000  0.589000  1.0  0.7478
  C  C24  1  0.895800  0.455400  0.672500  1.0  0.0445
  C  C25  1  0.760200  0.456500  0.672600  1.0  -0.1607
  C  C26  1  0.317800  0.589000  0.089000  1.0  0.7472
  C  C27  1  0.104200  0.544600  0.172500  1.0  0.0445
  C  C28  1  0.239800  0.543500  0.172600  1.0  -0.16
  C  C29  1  0.589000  0.317800  0.161000  1.0  0.7474
  C  C30  1  0.544600  0.104200  0.077500  1.0  0.0448
  C  C31  1  0.543500  0.239800  0.077400  1.0  -0.1619
  C  C32  1  0.411000  0.682200  0.661000  1.0  0.747
  C  C33  1  0.455400  0.895800  0.577500  1.0  0.0445
  C  C34  1  0.456500  0.760200  0.577400  1.0  -0.1604
  C  C35  1  0.317800  0.411000  0.411000  1.0  0.746
  C  C36  1  0.104200  0.455400  0.327500  1.0  0.0441
  C  C37  1  0.239800  0.456500  0.327400  1.0  -0.1604
  C  C38  1  0.682200  0.589000  0.911000  1.0  0.7461
  C  C39  1  0.895800  0.544600  0.827500  1.0  0.0439
  C  C40  1  0.760200  0.543500  0.827400  1.0  -0.1611
  C  C41  1  0.500000  0.888400  0.000000  1.0  0.7516
  C  C42  1  0.500000  0.035700  0.000000  1.0  -0.1762
  C  C43  1  0.500000  0.308100  0.000000  1.0  0.0494
  C  C44  1  0.500000  0.111600  0.500000  1.0  0.7533
  C  C45  1  0.500000  0.964300  0.500000  1.0  -0.1755
  C  C46  1  0.500000  0.691900  0.500000  1.0  0.0498
  C  C47  1  0.111600  0.500000  0.750000  1.0  0.7532
  C  C48  1  0.964300  0.500000  0.750000  1.0  -0.1763
  C  C49  1  0.691900  0.500000  0.750000  1.0  0.0476
  C  C50  1  0.888400  0.500000  0.250000  1.0  0.7537
  C  C51  1  0.035700  0.500000  0.250000  1.0  -0.1765
  C  C52  1  0.308100  0.500000  0.250000  1.0  0.0479
  O  O53  1  0.426100  0.834000  0.941400  1.0  -0.6725
  O  O54  1  0.387600  0.433800  0.850200  1.0  -0.5951
  O  O55  1  0.404900  0.259800  0.762400  1.0  -0.6121
  O  O56  1  0.573900  0.166000  0.441400  1.0  -0.6738
  O  O57  1  0.612400  0.566200  0.350200  1.0  -0.5939
  O  O58  1  0.595100  0.740200  0.262400  1.0  -0.6115
  O  O59  1  0.166000  0.426100  0.691400  1.0  -0.6746
  O  O60  1  0.566200  0.387600  0.600200  1.0  -0.5939
  O  O61  1  0.740200  0.404900  0.512400  1.0  -0.6115
  O  O62  1  0.834000  0.573900  0.191400  1.0  -0.6749
  O  O63  1  0.433800  0.612400  0.100200  1.0  -0.5906
  O  O64  1  0.259800  0.595100  0.012400  1.0  -0.6103
  O  O65  1  0.573900  0.834000  0.058600  1.0  -0.6748
  O  O66  1  0.612400  0.433800  0.149800  1.0  -0.5942
  O  O67  1  0.595100  0.259800  0.237600  1.0  -0.6133
  O  O68  1  0.426100  0.166000  0.558600  1.0  -0.6728
  O  O69  1  0.387600  0.566200  0.649800  1.0  -0.5945
  O  O70  1  0.404900  0.740200  0.737600  1.0  -0.613
  O  O71  1  0.834000  0.426100  0.308600  1.0  -0.6755
  O  O72  1  0.433800  0.387600  0.399800  1.0  -0.592
  O  O73  1  0.259800  0.404900  0.487600  1.0  -0.611
  O  O74  1  0.166000  0.573900  0.808600  1.0  -0.6761
  O  O75  1  0.566200  0.612400  0.899800  1.0  -0.5913
  O  O76  1  0.740200  0.595100  0.987600  1.0  -0.613
