# generated using pymatgen
data_U3P4H6(C7O8)2
_symmetry_space_group_name_H-M   'P 1'
_cell_length_a   14.80080000
_cell_length_b   12.25430000
_cell_length_c   30.22430000
_cell_angle_alpha   90.00000000
_cell_angle_beta   90.99100000
_cell_angle_gamma   90.00000000
_symmetry_Int_Tables_number   1
_chemical_formula_structural   U3P4H6(C7O8)2
_chemical_formula_sum   'U12 P16 H24 C56 O64'
_cell_volume   5481.06540939
_cell_formula_units_Z   4
loop_
 _symmetry_equiv_pos_site_id
 _symmetry_equiv_pos_as_xyz
  1  'x, y, z'
loop_
 _atom_site_type_symbol
 _atom_site_label
 _atom_site_symmetry_multiplicity
 _atom_site_fract_x
 _atom_site_fract_y
 _atom_site_fract_z
 _atom_site_occupancy
 _atom_site_charge
  U  U1  1  0.454950  0.671330  0.234760  1.0  1.8012
  U  U2  1  0.533190  0.359560  0.076350  1.0  1.4679
  U  U3  1  0.748410  0.426950  0.242920  1.0  1.8373
  U  U4  1  0.045050  0.171330  0.265240  1.0  1.8021
  U  U5  1  0.966810  0.859560  0.423650  1.0  1.4687
  U  U6  1  0.751590  0.926950  0.257080  1.0  1.8378
  U  U7  1  0.545050  0.328670  0.765240  1.0  1.8021
  U  U8  1  0.466810  0.640440  0.923650  1.0  1.4655
  U  U9  1  0.251590  0.573050  0.757080  1.0  1.8378
  U  U10  1  0.954950  0.828670  0.734760  1.0  1.8012
  U  U11  1  0.033190  0.140440  0.576350  1.0  1.4656
  U  U12  1  0.248410  0.073050  0.742910  1.0  1.8376
  P  P13  1  0.980000  0.895600  0.302500  1.0  1.5376
  P  P14  1  0.976400  0.448400  0.291640  1.0  1.4713
  P  P15  1  0.694800  0.684300  0.195990  1.0  1.5891
  P  P16  1  0.475200  0.635900  0.047560  1.0  1.495
  P  P17  1  0.520000  0.395600  0.197500  1.0  1.5374
  P  P18  1  0.523600  0.948400  0.208360  1.0  1.4693
  P  P19  1  0.805200  0.184300  0.304010  1.0  1.5875
  P  P20  1  0.024800  0.135900  0.452440  1.0  1.4978
  P  P21  1  0.020000  0.104400  0.697500  1.0  1.537
  P  P22  1  0.023600  0.551600  0.708360  1.0  1.4691
  P  P23  1  0.305200  0.315700  0.804010  1.0  1.5874
  P  P24  1  0.524800  0.364100  0.952440  1.0  1.4989
  P  P25  1  0.480000  0.604400  0.802500  1.0  1.538
  P  P26  1  0.476400  0.051600  0.791640  1.0  1.4704
  P  P27  1  0.194800  0.815700  0.695990  1.0  1.5888
  P  P28  1  0.975200  0.864100  0.547560  1.0  1.4957
  H  H29  1  0.160300  0.836400  0.274900  1.0  0.1171
  H  H30  1  0.932400  0.671000  0.299900  1.0  0.1127
  H  H31  1  0.157700  0.508400  0.269300  1.0  0.1182
  H  H32  1  0.772000  0.826200  0.130200  1.0  0.1245
  H  H33  1  0.563500  0.617600  0.132200  1.0  0.1023
  H  H34  1  0.610600  0.784300  0.021700  1.0  0.1204
  H  H35  1  0.339700  0.336400  0.225100  1.0  0.1174
  H  H36  1  0.567600  0.171000  0.200100  1.0  0.1123
  H  H37  1  0.342300  0.008400  0.230700  1.0  0.1182
  H  H38  1  0.728000  0.326200  0.369800  1.0  0.1247
  H  H39  1  0.936500  0.117600  0.367800  1.0  0.1015
  H  H40  1  0.889400  0.284300  0.478300  1.0  0.1204
  H  H41  1  0.839700  0.163600  0.725100  1.0  0.1167
  H  H42  1  0.067600  0.329000  0.700100  1.0  0.1124
  H  H43  1  0.842300  0.491600  0.730700  1.0  0.1188
  H  H44  1  0.228000  0.173800  0.869800  1.0  0.1249
  H  H45  1  0.436500  0.382400  0.867800  1.0  0.1023
  H  H46  1  0.389400  0.215700  0.978300  1.0  0.1203
  H  H47  1  0.660300  0.663600  0.774900  1.0  0.1163
  H  H48  1  0.432400  0.829000  0.799900  1.0  0.1127
  H  H49  1  0.657700  0.991600  0.769300  1.0  0.1182
  H  H50  1  0.272000  0.673800  0.630200  1.0  0.1245
  H  H51  1  0.063500  0.882400  0.632200  1.0  0.1012
  H  H52  1  0.110600  0.715700  0.521700  1.0  0.12
  C  C53  1  0.269800  0.670900  0.257100  1.0  0.6691
  C  C54  1  0.172800  0.672600  0.270200  1.0  -0.1217
  C  C55  1  0.129300  0.770900  0.277800  1.0  0.0388
  C  C56  1  0.039400  0.770800  0.289600  1.0  -0.2232
  C  C57  1  0.993300  0.671600  0.292800  1.0  0.0165
  C  C58  1  0.038600  0.573300  0.285400  1.0  -0.0862
  C  C59  1  0.127500  0.573800  0.274200  1.0  0.0405
  C  C60  1  0.760000  0.899000  0.048900  1.0  0.6059
  C  C61  1  0.698300  0.817400  0.072500  1.0  -0.1113
  C  C62  1  0.722600  0.792500  0.116500  1.0  0.0064
  C  C63  1  0.670500  0.715500  0.139500  1.0  -0.2096
  C  C64  1  0.598000  0.668700  0.117200  1.0  -0.0456
  C  C65  1  0.573300  0.693700  0.073400  1.0  -0.1685
  C  C66  1  0.624600  0.767400  0.051100  1.0  -0.0134
  C  C67  1  0.230200  0.170900  0.242900  1.0  0.668
  C  C68  1  0.327200  0.172600  0.229800  1.0  -0.1211
  C  C69  1  0.370700  0.270900  0.222200  1.0  0.0386
  C  C70  1  0.460600  0.270800  0.210400  1.0  -0.223
  C  C71  1  0.506700  0.171600  0.207200  1.0  0.0187
  C  C72  1  0.461400  0.073300  0.214600  1.0  -0.0867
  C  C73  1  0.372500  0.073800  0.225800  1.0  0.0406
  C  C74  1  0.740000  0.399000  0.451100  1.0  0.5937
  C  C75  1  0.801700  0.317400  0.427500  1.0  -0.1139
  C  C76  1  0.777400  0.292500  0.383500  1.0  -0.0003
  C  C77  1  0.829500  0.215500  0.360500  1.0  -0.2121
  C  C78  1  0.902000  0.168700  0.382800  1.0  -0.0445
  C  C79  1  0.926700  0.193700  0.426600  1.0  -0.1689
  C  C80  1  0.875400  0.267400  0.448900  1.0  -0.0111
  C  C81  1  0.730200  0.329100  0.742900  1.0  0.6678
  C  C82  1  0.827200  0.327400  0.729800  1.0  -0.1211
  C  C83  1  0.870700  0.229100  0.722200  1.0  0.039
  C  C84  1  0.960600  0.229200  0.710400  1.0  -0.2239
  C  C85  1  0.006700  0.328400  0.707200  1.0  0.0187
  C  C86  1  0.961400  0.426700  0.714600  1.0  -0.0869
  C  C87  1  0.872500  0.426200  0.725800  1.0  0.0396
  C  C88  1  0.240000  0.101000  0.951100  1.0  0.6064
  C  C89  1  0.301700  0.182600  0.927500  1.0  -0.1107
  C  C90  1  0.277400  0.207500  0.883500  1.0  0.0044
  C  C91  1  0.329500  0.284500  0.860500  1.0  -0.2119
  C  C92  1  0.402000  0.331300  0.882800  1.0  -0.0445
  C  C93  1  0.426700  0.306300  0.926600  1.0  -0.1693
  C  C94  1  0.375400  0.232600  0.948900  1.0  -0.01
  C  C95  1  0.769800  0.829100  0.757100  1.0  0.669
  C  C96  1  0.672800  0.827400  0.770200  1.0  -0.1218
  C  C97  1  0.629300  0.729100  0.777800  1.0  0.0393
  C  C98  1  0.539400  0.729200  0.789600  1.0  -0.224
  C  C99  1  0.493300  0.828400  0.792800  1.0  0.0165
  C  C100  1  0.538600  0.926700  0.785400  1.0  -0.0864
  C  C101  1  0.627500  0.926200  0.774200  1.0  0.0396
  C  C102  1  0.260000  0.601000  0.548900  1.0  0.596
  C  C103  1  0.198300  0.682600  0.572500  1.0  -0.1152
  C  C104  1  0.222600  0.707500  0.616500  1.0  0.0015
  C  C105  1  0.170500  0.784500  0.639500  1.0  -0.2102
  C  C106  1  0.098000  0.831300  0.617200  1.0  -0.0459
  C  C107  1  0.073300  0.806300  0.573400  1.0  -0.168
  C  C108  1  0.124600  0.732600  0.551100  1.0  -0.0126
  O  O109  1  0.604700  0.677100  0.218500  1.0  -0.9526
  O  O110  1  0.309800  0.583400  0.249500  1.0  -0.6613
  O  O111  1  0.312000  0.761600  0.254100  1.0  -0.6392
  O  O112  1  0.745900  0.575600  0.197800  1.0  -0.8427
  O  O113  1  0.753400  0.775100  0.213700  1.0  -0.9041
  O  O114  1  0.834000  0.920000  0.066300  1.0  -0.4825
  O  O115  1  0.728000  0.936000  0.011500  1.0  -0.4748
  O  O116  1  0.488700  0.641000  0.998700  1.0  -0.8537
  O  O117  1  0.393400  0.709000  0.059600  1.0  -0.5707
  O  O118  1  0.460600  0.524800  0.066200  1.0  -0.8336
  O  O119  1  0.019500  0.987000  0.276100  1.0  -0.917
  O  O120  1  0.990800  0.914300  0.352100  1.0  -0.9141
  O  O121  1  0.880500  0.873500  0.291500  1.0  -0.8822
  O  O122  1  0.878200  0.474100  0.280600  1.0  -0.9048
  O  O123  1  0.983100  0.417000  0.341000  1.0  -0.6062
  O  O124  1  0.021400  0.360800  0.264900  1.0  -0.8317
  O  O125  1  0.895300  0.177100  0.281500  1.0  -0.9549
  O  O126  1  0.190200  0.083400  0.250500  1.0  -0.661
  O  O127  1  0.188000  0.261600  0.245900  1.0  -0.6421
  O  O128  1  0.754100  0.075600  0.302200  1.0  -0.8484
  O  O129  1  0.746600  0.275100  0.286300  1.0  -0.9052
  O  O130  1  0.666000  0.420000  0.433700  1.0  -0.4928
  O  O131  1  0.772000  0.436000  0.488500  1.0  -0.4778
  O  O132  1  0.011300  0.141000  0.501300  1.0  -0.8513
  O  O133  1  0.106600  0.209000  0.440400  1.0  -0.5721
  O  O134  1  0.039400  0.024800  0.433800  1.0  -0.8328
  O  O135  1  0.480500  0.487000  0.223900  1.0  -0.9157
  O  O136  1  0.509200  0.414300  0.147900  1.0  -0.9108
  O  O137  1  0.619500  0.373500  0.208500  1.0  -0.8828
  O  O138  1  0.621800  0.974100  0.219400  1.0  -0.9062
  O  O139  1  0.516900  0.917000  0.159000  1.0  -0.6063
  O  O140  1  0.478600  0.860800  0.235100  1.0  -0.8322
  O  O141  1  0.395300  0.322900  0.781500  1.0  -0.9549
  O  O142  1  0.690200  0.416600  0.750500  1.0  -0.6629
  O  O143  1  0.688000  0.238400  0.745900  1.0  -0.6408
  O  O144  1  0.254100  0.424400  0.802200  1.0  -0.8434
  O  O145  1  0.246600  0.224900  0.786300  1.0  -0.9046
  O  O146  1  0.166000  0.080000  0.933700  1.0  -0.4803
  O  O147  1  0.272000  0.064000  0.988500  1.0  -0.4751
  O  O148  1  0.511300  0.359000  0.001300  1.0  -0.8515
  O  O149  1  0.606600  0.291000  0.940400  1.0  -0.5724
  O  O150  1  0.539400  0.475200  0.933800  1.0  -0.8314
  O  O151  1  0.980500  0.013000  0.723900  1.0  -0.9158
  O  O152  1  0.009200  0.085700  0.647900  1.0  -0.9118
  O  O153  1  0.119500  0.126500  0.708500  1.0  -0.8824
  O  O154  1  0.121800  0.525900  0.719400  1.0  -0.9063
  O  O155  1  0.016900  0.583000  0.659000  1.0  -0.6065
  O  O156  1  0.978600  0.639200  0.735100  1.0  -0.8327
  O  O157  1  0.104700  0.822900  0.718500  1.0  -0.9525
  O  O158  1  0.809800  0.916600  0.749500  1.0  -0.6615
  O  O159  1  0.812000  0.738400  0.754100  1.0  -0.6395
  O  O160  1  0.245900  0.924400  0.697800  1.0  -0.848
  O  O161  1  0.253400  0.724900  0.713700  1.0  -0.9039
  O  O162  1  0.334000  0.580000  0.566300  1.0  -0.4942
  O  O163  1  0.228000  0.564000  0.511500  1.0  -0.4735
  O  O164  1  0.988700  0.859000  0.498700  1.0  -0.8537
  O  O165  1  0.893400  0.791000  0.559600  1.0  -0.5701
  O  O166  1  0.960600  0.975200  0.566200  1.0  -0.8331
  O  O167  1  0.519500  0.513000  0.776100  1.0  -0.9173
  O  O168  1  0.490800  0.585700  0.852100  1.0  -0.9148
  O  O169  1  0.380500  0.626500  0.791500  1.0  -0.8823
  O  O170  1  0.378200  0.025900  0.780600  1.0  -0.9053
  O  O171  1  0.483100  0.083000  0.841000  1.0  -0.6063
  O  O172  1  0.521400  0.139200  0.764900  1.0  -0.832
