# generated using pymatgen
data_U5P8H20(C7O8)4
_symmetry_space_group_name_H-M   'P 1'
_cell_length_a   14.38930000
_cell_length_b   14.71470000
_cell_length_c   15.35340000
_cell_angle_alpha   98.30600000
_cell_angle_beta   93.87600000
_cell_angle_gamma   96.29600000
_symmetry_Int_Tables_number   1
_chemical_formula_structural   U5P8H20(C7O8)4
_chemical_formula_sum   'U10 P16 H40 C56 O64'
_cell_volume   3185.81324616
_cell_formula_units_Z   2
loop_
 _symmetry_equiv_pos_site_id
 _symmetry_equiv_pos_as_xyz
  1  'x, y, z'
loop_
 _atom_site_type_symbol
 _atom_site_label
 _atom_site_symmetry_multiplicity
 _atom_site_fract_x
 _atom_site_fract_y
 _atom_site_fract_z
 _atom_site_occupancy
 _atom_site_charge
  U  U1  1  0.717860  0.977810  0.624430  1.0  1.6771
  U  U2  1  0.699910  0.971250  0.883650  1.0  1.6905
  U  U3  1  0.926510  0.925390  0.246990  1.0  1.6994
  U  U4  1  0.603500  0.607310  0.743850  1.0  1.6439
  U  U5  1  0.534660  0.758600  0.295600  1.0  1.4814
  U  U6  1  0.282140  0.022190  0.375570  1.0  1.6785
  U  U7  1  0.300090  0.028750  0.116350  1.0  1.691
  U  U8  1  0.073490  0.074610  0.753010  1.0  1.7002
  U  U9  1  0.396500  0.392690  0.256150  1.0  1.6433
  U  U10  1  0.465340  0.241400  0.704400  1.0  1.4928
  P  P11  1  0.606800  0.411500  0.874200  1.0  1.5526
  P  P12  1  0.837800  0.127240  0.829600  1.0  1.5023
  P  P13  1  0.536800  0.768100  0.926400  1.0  1.5003
  P  P14  1  0.276000  0.005300  0.877430  1.0  1.5151
  P  P15  1  0.440100  0.159730  0.317560  1.0  1.4919
  P  P16  1  0.727820  0.944060  0.382560  1.0  1.5247
  P  P17  1  0.922900  0.140300  0.578300  1.0  1.5126
  P  P18  1  0.652900  0.381000  0.618200  1.0  1.5697
  P  P19  1  0.393200  0.588500  0.125800  1.0  1.5519
  P  P20  1  0.162200  0.872760  0.170400  1.0  1.5015
  P  P21  1  0.463200  0.231900  0.073600  1.0  1.5028
  P  P22  1  0.724000  0.994700  0.122570  1.0  1.526
  P  P23  1  0.559900  0.840270  0.682440  1.0  1.4896
  P  P24  1  0.272180  0.055940  0.617440  1.0  1.5255
  P  P25  1  0.077100  0.859700  0.421700  1.0  1.5132
  P  P26  1  0.347100  0.619000  0.381800  1.0  1.5687
  H  H27  1  0.569100  0.818400  0.055600  1.0  0.4058
  H  H28  1  0.912700  0.332300  0.374700  1.0  0.3562
  H  H29  1  0.380600  0.108900  0.896100  1.0  0.3752
  H  H30  1  0.616600  0.479800  0.997200  1.0  0.4533
  H  H31  1  0.616500  0.409700  0.499700  1.0  0.4183
  H  H32  1  0.148100  0.534200  0.846800  1.0  0.4034
  H  H33  1  0.982700  0.149900  0.464700  1.0  0.4462
  H  H34  1  0.996300  0.592700  0.841000  1.0  0.398
  H  H35  1  0.677400  0.230900  0.853900  1.0  0.1084
  H  H36  1  0.952200  0.292600  0.826000  1.0  0.1072
  H  H37  1  0.787200  0.498800  0.867800  1.0  0.1204
  H  H38  1  0.360400  0.650400  0.882700  1.0  0.117
  H  H39  1  0.174600  0.826800  0.839700  1.0  0.1181
  H  H40  1  0.446100  0.921800  0.894400  1.0  0.1096
  H  H41  1  0.546900  0.008900  0.346700  1.0  0.1127
  H  H42  1  0.814300  0.125600  0.379200  1.0  0.1072
  H  H43  1  0.609000  0.281400  0.335200  1.0  0.1223
  H  H44  1  0.751100  0.222500  0.587800  1.0  0.1036
  H  H45  1  0.825600  0.494900  0.620500  1.0  0.1126
  H  H46  1  0.023200  0.320600  0.587900  1.0  0.1128
  H  H47  1  0.430900  0.181600  0.944400  1.0  0.4049
  H  H48  1  0.087300  0.667700  0.625300  1.0  0.3549
  H  H49  1  0.619400  0.891100  0.103900  1.0  0.3741
  H  H50  1  0.383400  0.520200  0.002800  1.0  0.4493
  H  H51  1  0.383500  0.590300  0.500300  1.0  0.4172
  H  H52  1  0.851900  0.465800  0.153200  1.0  0.3988
  H  H53  1  0.017300  0.850100  0.535300  1.0  0.4453
  H  H54  1  0.003700  0.407300  0.159000  1.0  0.4015
  H  H55  1  0.322600  0.769100  0.146100  1.0  0.109
  H  H56  1  0.047800  0.707400  0.174000  1.0  0.107
  H  H57  1  0.212800  0.501200  0.132200  1.0  0.1201
  H  H58  1  0.639600  0.349600  0.117300  1.0  0.1167
  H  H59  1  0.825400  0.173200  0.160300  1.0  0.1173
  H  H60  1  0.553900  0.078200  0.105600  1.0  0.1095
  H  H61  1  0.453100  0.991100  0.653300  1.0  0.1122
  H  H62  1  0.185700  0.874400  0.620800  1.0  0.1071
  H  H63  1  0.391000  0.718600  0.664800  1.0  0.1215
  H  H64  1  0.248900  0.777500  0.412200  1.0  0.1039
  H  H65  1  0.174400  0.505100  0.379500  1.0  0.1125
  H  H66  1  0.976800  0.679400  0.412100  1.0  0.1128
  C  C67  1  0.717500  0.368900  0.859100  1.0  -0.2609
  C  C68  1  0.728400  0.274600  0.850700  1.0  -0.0011
  C  C69  1  0.817800  0.246900  0.837400  1.0  -0.2089
  C  C70  1  0.893800  0.311700  0.835700  1.0  -0.0246
  C  C71  1  0.884200  0.405700  0.848300  1.0  -0.1631
  C  C72  1  0.794400  0.436200  0.859900  1.0  -0.0621
  C  C73  1  0.969300  0.471200  0.848500  1.0  0.5339
  C  C74  1  0.417500  0.784000  0.895800  1.0  -0.2989
  C  C75  1  0.346800  0.710500  0.880900  1.0  -0.0175
  C  C76  1  0.256200  0.728200  0.863300  1.0  -0.1525
  C  C77  1  0.235600  0.816600  0.855800  1.0  -0.0562
  C  C78  1  0.306300  0.889000  0.872500  1.0  -0.206
  C  C79  1  0.397800  0.873300  0.888500  1.0  -0.0042
  C  C80  1  0.177200  0.652800  0.855700  1.0  0.6411
  C  C81  1  0.561900  0.146400  0.334300  1.0  -0.3113
  C  C82  1  0.591100  0.060500  0.349000  1.0  0.0084
  C  C83  1  0.686200  0.053400  0.367100  1.0  -0.2997
  C  C84  1  0.750600  0.130400  0.369500  1.0  -0.0077
  C  C85  1  0.722100  0.214100  0.357800  1.0  -0.1541
  C  C86  1  0.627700  0.223900  0.341400  1.0  -0.0047
  C  C87  1  0.793400  0.298000  0.363200  1.0  0.6786
  C  C88  1  0.892000  0.254700  0.587800  1.0  -0.2857
  C  C89  1  0.798100  0.272200  0.593600  1.0  -0.0112
  C  C90  1  0.774000  0.361400  0.607800  1.0  -0.2691
  C  C91  1  0.841700  0.435000  0.613100  1.0  0.0006
  C  C92  1  0.935900  0.419600  0.607400  1.0  -0.1513
  C  C93  1  0.960900  0.329900  0.593400  1.0  0.0219
  C  C94  1  0.011800  0.500100  0.617000  1.0  0.6675
  C  C95  1  0.282500  0.631100  0.140900  1.0  -0.2617
  C  C96  1  0.271600  0.725400  0.149300  1.0  -0.0033
  C  C97  1  0.182200  0.753100  0.162600  1.0  -0.2079
  C  C98  1  0.106200  0.688300  0.164300  1.0  -0.0256
  C  C99  1  0.115800  0.594300  0.151700  1.0  -0.1629
  C  C100  1  0.205600  0.563800  0.140100  1.0  -0.0608
  C  C101  1  0.030700  0.528800  0.151500  1.0  0.5359
  C  C102  1  0.582500  0.216000  0.104200  1.0  -0.2991
  C  C103  1  0.653200  0.289500  0.119100  1.0  -0.0182
  C  C104  1  0.743800  0.271800  0.136700  1.0  -0.1517
  C  C105  1  0.764400  0.183400  0.144200  1.0  -0.0562
  C  C106  1  0.693700  0.111000  0.127500  1.0  -0.2069
  C  C107  1  0.602200  0.126700  0.111500  1.0  -0.0042
  C  C108  1  0.822800  0.347200  0.144300  1.0  0.6374
  C  C109  1  0.438100  0.853600  0.665700  1.0  -0.3087
  C  C110  1  0.408900  0.939500  0.651000  1.0  0.0073
  C  C111  1  0.313800  0.946600  0.632900  1.0  -0.2986
  C  C112  1  0.249400  0.869600  0.630500  1.0  -0.0071
  C  C113  1  0.277900  0.785900  0.642200  1.0  -0.1542
  C  C114  1  0.372300  0.776100  0.658600  1.0  -0.0053
  C  C115  1  0.206600  0.702000  0.636800  1.0  0.6783
  C  C116  1  0.108000  0.745300  0.412200  1.0  -0.2868
  C  C117  1  0.201900  0.727800  0.406400  1.0  -0.0119
  C  C118  1  0.226000  0.638600  0.392200  1.0  -0.2695
  C  C119  1  0.158300  0.565000  0.386900  1.0  -0.0015
  C  C120  1  0.064100  0.580400  0.392600  1.0  -0.1524
  C  C121  1  0.039100  0.670100  0.406600  1.0  0.0213
  C  C122  1  0.988200  0.499900  0.383000  1.0  0.6666
  O  O123  1  0.758300  0.065600  0.767900  1.0  -0.9517
  O  O124  1  0.838100  0.078300  0.594800  1.0  -0.9016
  O  O125  1  0.721200  0.928300  0.477300  1.0  -0.9446
  O  O126  1  0.824900  0.096100  0.919300  1.0  -0.8538
  O  O127  1  0.932700  0.122200  0.799000  1.0  -0.8548
  O  O128  1  0.598400  0.853300  0.912900  1.0  -0.873
  O  O129  1  0.560200  0.676800  0.883300  1.0  -0.8958
  O  O130  1  0.542000  0.768700  0.030300  1.0  -0.6217
  O  O131  1  0.830300  0.954500  0.363500  1.0  -0.8893
  O  O132  1  0.667700  0.867500  0.321500  1.0  -0.9014
  O  O133  1  0.878600  0.283300  0.371000  1.0  -0.4945
  O  O134  1  0.251400  0.037800  0.971000  1.0  -0.8946
  O  O135  1  0.196600  0.004200  0.809200  1.0  -0.9011
  O  O136  1  0.366000  0.065300  0.856000  1.0  -0.6665
  O  O137  1  0.653000  0.479400  0.657900  1.0  -0.8921
  O  O138  1  0.611100  0.502300  0.840800  1.0  -0.8818
  O  O139  1  0.528700  0.339100  0.836900  1.0  -0.8468
  O  O140  1  0.597900  0.425900  0.976200  1.0  -0.6886
  O  O141  1  0.609100  0.307600  0.667000  1.0  -0.8826
  O  O142  1  0.604400  0.363800  0.523400  1.0  -0.6582
  O  O143  1  0.985200  0.579100  0.613900  1.0  -0.621
  O  O144  1  0.095400  0.485300  0.620800  1.0  -0.5617
  O  O145  1  0.196800  0.569800  0.851100  1.0  -0.499
  O  O146  1  0.094100  0.672700  0.843400  1.0  -0.5464
  O  O147  1  0.945800  0.109600  0.479600  1.0  -0.6696
  O  O148  1  0.010100  0.141800  0.636600  1.0  -0.8921
  O  O149  1  0.043900  0.447800  0.835000  1.0  -0.5201
  O  O150  1  0.947800  0.557100  0.838200  1.0  -0.5061
  O  O151  1  0.386100  0.074100  0.258900  1.0  -0.9501
  O  O152  1  0.434100  0.246400  0.278900  1.0  -0.9218
  O  O153  1  0.398300  0.161000  0.406500  1.0  -0.8118
  O  O154  1  0.769000  0.375800  0.359800  1.0  -0.579
  O  O155  1  0.241700  0.934400  0.232100  1.0  -0.9522
  O  O156  1  0.161900  0.921700  0.405200  1.0  -0.9065
  O  O157  1  0.278800  0.071700  0.522700  1.0  -0.9414
  O  O158  1  0.175100  0.903900  0.080700  1.0  -0.8518
  O  O159  1  0.067300  0.877800  0.201000  1.0  -0.8545
  O  O160  1  0.401600  0.146700  0.087100  1.0  -0.8702
  O  O161  1  0.439800  0.323200  0.116700  1.0  -0.8995
  O  O162  1  0.458000  0.231300  0.969700  1.0  -0.619
  O  O163  1  0.169700  0.045500  0.636500  1.0  -0.8893
  O  O164  1  0.332300  0.132500  0.678500  1.0  -0.9094
  O  O165  1  0.121400  0.716700  0.629000  1.0  -0.4922
  O  O166  1  0.748600  0.962200  0.029000  1.0  -0.8945
  O  O167  1  0.803400  0.995800  0.190800  1.0  -0.9013
  O  O168  1  0.634000  0.934700  0.144000  1.0  -0.6653
  O  O169  1  0.347000  0.520600  0.342100  1.0  -0.8904
  O  O170  1  0.388900  0.497700  0.159200  1.0  -0.878
  O  O171  1  0.471300  0.660900  0.163100  1.0  -0.8467
  O  O172  1  0.402100  0.574100  0.023800  1.0  -0.6884
  O  O173  1  0.390900  0.692400  0.333000  1.0  -0.8829
  O  O174  1  0.395600  0.636200  0.476600  1.0  -0.6558
  O  O175  1  0.014800  0.420900  0.386100  1.0  -0.6192
  O  O176  1  0.904600  0.514700  0.379200  1.0  -0.5637
  O  O177  1  0.803200  0.430200  0.148900  1.0  -0.5
  O  O178  1  0.905900  0.327300  0.156600  1.0  -0.5461
  O  O179  1  0.054200  0.890400  0.520400  1.0  -0.6712
  O  O180  1  0.989900  0.858200  0.363400  1.0  -0.892
  O  O181  1  0.956100  0.552200  0.165000  1.0  -0.5204
  O  O182  1  0.052200  0.442900  0.161800  1.0  -0.5054
  O  O183  1  0.613900  0.925900  0.741100  1.0  -0.9525
  O  O184  1  0.565900  0.753600  0.721100  1.0  -0.9188
  O  O185  1  0.601700  0.839000  0.593500  1.0  -0.8125
  O  O186  1  0.231000  0.624200  0.640200  1.0  -0.5799
