# generated using pymatgen
data_Zn4H12C24O13
_symmetry_space_group_name_H-M   'P 1'
_cell_length_a   25.88200000
_cell_length_b   25.88200000
_cell_length_c   25.88200000
_cell_angle_alpha   90.00000000
_cell_angle_beta   90.00000000
_cell_angle_gamma   90.00000000
_symmetry_Int_Tables_number   1
_chemical_formula_structural   Zn4H12C24O13
_chemical_formula_sum   'Zn32 H96 C192 O104'
_cell_volume   17337.78042897
_cell_formula_units_Z   8
loop_
 _symmetry_equiv_pos_site_id
 _symmetry_equiv_pos_as_xyz
  1  'x, y, z'
loop_
 _atom_site_type_symbol
 _atom_site_label
 _atom_site_symmetry_multiplicity
 _atom_site_fract_x
 _atom_site_fract_y
 _atom_site_fract_z
 _atom_site_occupancy
 _atom_site_charge
  Zn  Zn1  1  0.293420  0.293420  0.206580  1.0  1.1393
  Zn  Zn2  1  0.706580  0.706580  0.206580  1.0  1.1401
  Zn  Zn3  1  0.206580  0.206580  0.206580  1.0  1.1401
  Zn  Zn4  1  0.706580  0.293420  0.793420  1.0  1.1416
  Zn  Zn5  1  0.206580  0.293420  0.293420  1.0  1.1416
  Zn  Zn6  1  0.293420  0.706580  0.793420  1.0  1.1414
  Zn  Zn7  1  0.293420  0.206580  0.293420  1.0  1.1414
  Zn  Zn8  1  0.206580  0.793420  0.793420  1.0  1.1416
  Zn  Zn9  1  0.206580  0.706580  0.706580  1.0  1.1401
  Zn  Zn10  1  0.793420  0.706580  0.293420  1.0  1.1414
  Zn  Zn11  1  0.793420  0.206580  0.793420  1.0  1.1414
  Zn  Zn12  1  0.793420  0.293420  0.706580  1.0  1.1393
  Zn  Zn13  1  0.793420  0.793420  0.206580  1.0  1.1393
  Zn  Zn14  1  0.706580  0.206580  0.706580  1.0  1.1401
  Zn  Zn15  1  0.293420  0.793420  0.706580  1.0  1.1393
  Zn  Zn16  1  0.706580  0.793420  0.293420  1.0  1.1416
  Zn  Zn17  1  0.293420  0.293420  0.793420  1.0  1.1411
  Zn  Zn18  1  0.706580  0.706580  0.793420  1.0  1.1415
  Zn  Zn19  1  0.706580  0.206580  0.293420  1.0  1.1415
  Zn  Zn20  1  0.206580  0.706580  0.293420  1.0  1.1415
  Zn  Zn21  1  0.293420  0.706580  0.206580  1.0  1.1398
  Zn  Zn22  1  0.706580  0.293420  0.206580  1.0  1.1398
  Zn  Zn23  1  0.206580  0.793420  0.206580  1.0  1.1398
  Zn  Zn24  1  0.293420  0.206580  0.706580  1.0  1.1398
  Zn  Zn25  1  0.206580  0.206580  0.793420  1.0  1.1415
  Zn  Zn26  1  0.706580  0.793420  0.706580  1.0  1.1398
  Zn  Zn27  1  0.206580  0.293420  0.706580  1.0  1.1398
  Zn  Zn28  1  0.293420  0.793420  0.293420  1.0  1.1411
  Zn  Zn29  1  0.793420  0.293420  0.293420  1.0  1.1411
  Zn  Zn30  1  0.793420  0.793420  0.793420  1.0  1.1411
  Zn  Zn31  1  0.793420  0.706580  0.706580  1.0  1.1398
  Zn  Zn32  1  0.793420  0.206580  0.206580  1.0  1.1398
  H  H33  1  0.305200  0.454600  0.194800  1.0  0.1056
  H  H34  1  0.305200  0.954600  0.694800  1.0  0.1056
  H  H35  1  0.694800  0.545400  0.194800  1.0  0.105
  H  H36  1  0.694800  0.045400  0.694800  1.0  0.105
  H  H37  1  0.194800  0.045400  0.194800  1.0  0.105
  H  H38  1  0.694800  0.454600  0.805200  1.0  0.1051
  H  H39  1  0.694800  0.954600  0.305200  1.0  0.1051
  H  H40  1  0.194800  0.454600  0.305200  1.0  0.1051
  H  H41  1  0.305200  0.545400  0.805200  1.0  0.1051
  H  H42  1  0.305200  0.045400  0.305200  1.0  0.1051
  H  H43  1  0.194800  0.305200  0.454600  1.0  0.1057
  H  H44  1  0.194800  0.805200  0.954600  1.0  0.1057
  H  H45  1  0.194800  0.694800  0.545400  1.0  0.1052
  H  H46  1  0.194800  0.194800  0.045400  1.0  0.1052
  H  H47  1  0.805200  0.694800  0.454600  1.0  0.1059
  H  H48  1  0.805200  0.194800  0.954600  1.0  0.1059
  H  H49  1  0.305200  0.194800  0.454600  1.0  0.1059
  H  H50  1  0.805200  0.305200  0.545400  1.0  0.1053
  H  H51  1  0.805200  0.805200  0.045400  1.0  0.1053
  H  H52  1  0.305200  0.305200  0.045400  1.0  0.1053
  H  H53  1  0.454600  0.194800  0.305200  1.0  0.1058
  H  H54  1  0.954600  0.194800  0.805200  1.0  0.1058
  H  H55  1  0.545400  0.194800  0.694800  1.0  0.1055
  H  H56  1  0.045400  0.194800  0.194800  1.0  0.1055
  H  H57  1  0.454600  0.805200  0.694800  1.0  0.1059
  H  H58  1  0.454600  0.305200  0.194800  1.0  0.1059
  H  H59  1  0.954600  0.805200  0.194800  1.0  0.1059
  H  H60  1  0.545400  0.805200  0.305200  1.0  0.1056
  H  H61  1  0.045400  0.805200  0.805200  1.0  0.1056
  H  H62  1  0.045400  0.305200  0.305200  1.0  0.1056
  H  H63  1  0.454600  0.305200  0.805200  1.0  0.1057
  H  H64  1  0.954600  0.305200  0.305200  1.0  0.1057
  H  H65  1  0.545400  0.694800  0.805200  1.0  0.1057
  H  H66  1  0.545400  0.194800  0.305200  1.0  0.1057
  H  H67  1  0.045400  0.694800  0.305200  1.0  0.1057
  H  H68  1  0.454600  0.694800  0.194800  1.0  0.1054
  H  H69  1  0.954600  0.694800  0.694800  1.0  0.1054
  H  H70  1  0.954600  0.194800  0.194800  1.0  0.1054
  H  H71  1  0.545400  0.305200  0.194800  1.0  0.1057
  H  H72  1  0.045400  0.305200  0.694800  1.0  0.1057
  H  H73  1  0.305200  0.194800  0.545400  1.0  0.1055
  H  H74  1  0.305200  0.694800  0.045400  1.0  0.1055
  H  H75  1  0.694800  0.194800  0.454600  1.0  0.1054
  H  H76  1  0.694800  0.694800  0.954600  1.0  0.1054
  H  H77  1  0.194800  0.194800  0.954600  1.0  0.1054
  H  H78  1  0.694800  0.805200  0.545400  1.0  0.1051
  H  H79  1  0.694800  0.305200  0.045400  1.0  0.1051
  H  H80  1  0.194800  0.305200  0.545400  1.0  0.1051
  H  H81  1  0.305200  0.805200  0.454600  1.0  0.106
  H  H82  1  0.305200  0.305200  0.954600  1.0  0.106
  H  H83  1  0.194800  0.454600  0.694800  1.0  0.1049
  H  H84  1  0.194800  0.954600  0.194800  1.0  0.1049
  H  H85  1  0.194800  0.545400  0.305200  1.0  0.1048
  H  H86  1  0.194800  0.045400  0.805200  1.0  0.1048
  H  H87  1  0.805200  0.454600  0.305200  1.0  0.1053
  H  H88  1  0.805200  0.954600  0.805200  1.0  0.1053
  H  H89  1  0.305200  0.954600  0.305200  1.0  0.1053
  H  H90  1  0.805200  0.545400  0.694800  1.0  0.1054
  H  H91  1  0.805200  0.045400  0.194800  1.0  0.1054
  H  H92  1  0.305200  0.545400  0.194800  1.0  0.1054
  H  H93  1  0.694800  0.545400  0.805200  1.0  0.1048
  H  H94  1  0.694800  0.045400  0.305200  1.0  0.1048
  H  H95  1  0.305200  0.454600  0.805200  1.0  0.1053
  H  H96  1  0.305200  0.045400  0.694800  1.0  0.1054
  H  H97  1  0.694800  0.454600  0.194800  1.0  0.1049
  H  H98  1  0.694800  0.954600  0.694800  1.0  0.1049
  H  H99  1  0.805200  0.694800  0.545400  1.0  0.1055
  H  H100  1  0.805200  0.194800  0.045400  1.0  0.1055
  H  H101  1  0.805200  0.305200  0.454600  1.0  0.106
  H  H102  1  0.805200  0.805200  0.954600  1.0  0.106
  H  H103  1  0.194800  0.805200  0.045400  1.0  0.1051
  H  H104  1  0.194800  0.694800  0.454600  1.0  0.1054
  H  H105  1  0.545400  0.805200  0.694800  1.0  0.1057
  H  H106  1  0.045400  0.805200  0.194800  1.0  0.1057
  H  H107  1  0.454600  0.805200  0.305200  1.0  0.1057
  H  H108  1  0.954600  0.805200  0.805200  1.0  0.1057
  H  H109  1  0.045400  0.194800  0.805200  1.0  0.1057
  H  H110  1  0.454600  0.194800  0.694800  1.0  0.1054
  H  H111  1  0.545400  0.694800  0.194800  1.0  0.1055
  H  H112  1  0.045400  0.694800  0.694800  1.0  0.1055
  H  H113  1  0.954600  0.305200  0.694800  1.0  0.1059
  H  H114  1  0.545400  0.305200  0.805200  1.0  0.1056
  H  H115  1  0.454600  0.694800  0.805200  1.0  0.1058
  H  H116  1  0.954600  0.694800  0.305200  1.0  0.1058
  H  H117  1  0.694800  0.805200  0.454600  1.0  0.1057
  H  H118  1  0.694800  0.305200  0.954600  1.0  0.1057
  H  H119  1  0.305200  0.805200  0.545400  1.0  0.1053
  H  H120  1  0.305200  0.694800  0.954600  1.0  0.1059
  H  H121  1  0.694800  0.194800  0.545400  1.0  0.1052
  H  H122  1  0.694800  0.694800  0.045400  1.0  0.1052
  H  H123  1  0.805200  0.545400  0.305200  1.0  0.1051
  H  H124  1  0.805200  0.045400  0.805200  1.0  0.1051
  H  H125  1  0.805200  0.454600  0.694800  1.0  0.1056
  H  H126  1  0.805200  0.954600  0.194800  1.0  0.1056
  H  H127  1  0.194800  0.545400  0.694800  1.0  0.105
  H  H128  1  0.194800  0.954600  0.805200  1.0  0.1051
  C  C129  1  0.282700  0.473020  0.217300  1.0  -0.0662
  C  C130  1  0.282700  0.973020  0.717300  1.0  -0.0662
  C  C131  1  0.717300  0.526980  0.217300  1.0  -0.0661
  C  C132  1  0.717300  0.026980  0.717300  1.0  -0.0661
  C  C133  1  0.217300  0.026980  0.217300  1.0  -0.0661
  C  C134  1  0.717300  0.473020  0.782700  1.0  -0.0665
  C  C135  1  0.717300  0.973020  0.282700  1.0  -0.0665
  C  C136  1  0.217300  0.473020  0.282700  1.0  -0.0665
  C  C137  1  0.282700  0.526980  0.782700  1.0  -0.0656
  C  C138  1  0.282700  0.026980  0.282700  1.0  -0.0656
  C  C139  1  0.217300  0.282700  0.473020  1.0  -0.0655
  C  C140  1  0.217300  0.782700  0.973020  1.0  -0.0655
  C  C141  1  0.217300  0.717300  0.526980  1.0  -0.0656
  C  C142  1  0.217300  0.217300  0.026980  1.0  -0.0656
  C  C143  1  0.782700  0.717300  0.473020  1.0  -0.0653
  C  C144  1  0.782700  0.217300  0.973020  1.0  -0.0653
  C  C145  1  0.282700  0.217300  0.473020  1.0  -0.0653
  C  C146  1  0.782700  0.282700  0.526980  1.0  -0.0664
  C  C147  1  0.782700  0.782700  0.026980  1.0  -0.0664
  C  C148  1  0.282700  0.282700  0.026980  1.0  -0.0664
  C  C149  1  0.473020  0.217300  0.282700  1.0  -0.0664
  C  C150  1  0.973020  0.217300  0.782700  1.0  -0.0664
  C  C151  1  0.526980  0.217300  0.717300  1.0  -0.067
  C  C152  1  0.026980  0.217300  0.217300  1.0  -0.067
  C  C153  1  0.473020  0.782700  0.717300  1.0  -0.0664
  C  C154  1  0.473020  0.282700  0.217300  1.0  -0.0664
  C  C155  1  0.973020  0.782700  0.217300  1.0  -0.0664
  C  C156  1  0.526980  0.782700  0.282700  1.0  -0.0668
  C  C157  1  0.026980  0.782700  0.782700  1.0  -0.0668
  C  C158  1  0.026980  0.282700  0.282700  1.0  -0.0668
  C  C159  1  0.473020  0.282700  0.782700  1.0  -0.0672
  C  C160  1  0.973020  0.282700  0.282700  1.0  -0.0672
  C  C161  1  0.526980  0.717300  0.782700  1.0  -0.0665
  C  C162  1  0.526980  0.217300  0.282700  1.0  -0.0665
  C  C163  1  0.026980  0.717300  0.282700  1.0  -0.0665
  C  C164  1  0.473020  0.717300  0.217300  1.0  -0.0658
  C  C165  1  0.973020  0.717300  0.717300  1.0  -0.0658
  C  C166  1  0.973020  0.217300  0.217300  1.0  -0.0658
  C  C167  1  0.526980  0.282700  0.217300  1.0  -0.0673
  C  C168  1  0.026980  0.282700  0.717300  1.0  -0.0673
  C  C169  1  0.282700  0.217300  0.526980  1.0  -0.0657
  C  C170  1  0.282700  0.717300  0.026980  1.0  -0.0657
  C  C171  1  0.717300  0.217300  0.473020  1.0  -0.0655
  C  C172  1  0.717300  0.717300  0.973020  1.0  -0.0655
  C  C173  1  0.217300  0.217300  0.973020  1.0  -0.0655
  C  C174  1  0.717300  0.782700  0.526980  1.0  -0.0668
  C  C175  1  0.717300  0.282700  0.026980  1.0  -0.0668
  C  C176  1  0.217300  0.282700  0.526980  1.0  -0.0668
  C  C177  1  0.282700  0.782700  0.473020  1.0  -0.0652
  C  C178  1  0.282700  0.282700  0.973020  1.0  -0.0652
  C  C179  1  0.217300  0.473020  0.717300  1.0  -0.0657
  C  C180  1  0.217300  0.973020  0.217300  1.0  -0.0657
  C  C181  1  0.217300  0.526980  0.282700  1.0  -0.0665
  C  C182  1  0.217300  0.026980  0.782700  1.0  -0.0665
  C  C183  1  0.782700  0.473020  0.282700  1.0  -0.0656
  C  C184  1  0.782700  0.973020  0.782700  1.0  -0.0656
  C  C185  1  0.282700  0.973020  0.282700  1.0  -0.0656
  C  C186  1  0.782700  0.526980  0.717300  1.0  -0.0667
  C  C187  1  0.782700  0.026980  0.217300  1.0  -0.0667
  C  C188  1  0.282700  0.526980  0.217300  1.0  -0.0667
  C  C189  1  0.717300  0.526980  0.782700  1.0  -0.0665
  C  C190  1  0.717300  0.026980  0.282700  1.0  -0.0665
  C  C191  1  0.282700  0.473020  0.782700  1.0  -0.0656
  C  C192  1  0.282700  0.026980  0.717300  1.0  -0.0667
  C  C193  1  0.717300  0.473020  0.217300  1.0  -0.0657
  C  C194  1  0.717300  0.973020  0.717300  1.0  -0.0657
  C  C195  1  0.782700  0.717300  0.526980  1.0  -0.0657
  C  C196  1  0.782700  0.217300  0.026980  1.0  -0.0657
  C  C197  1  0.782700  0.282700  0.473020  1.0  -0.0652
  C  C198  1  0.782700  0.782700  0.973020  1.0  -0.0652
  C  C199  1  0.217300  0.782700  0.026980  1.0  -0.0668
  C  C200  1  0.217300  0.717300  0.473020  1.0  -0.0655
  C  C201  1  0.526980  0.782700  0.717300  1.0  -0.0673
  C  C202  1  0.026980  0.782700  0.217300  1.0  -0.0673
  C  C203  1  0.473020  0.782700  0.282700  1.0  -0.0672
  C  C204  1  0.973020  0.782700  0.782700  1.0  -0.0672
  C  C205  1  0.026980  0.217300  0.782700  1.0  -0.0665
  C  C206  1  0.473020  0.217300  0.717300  1.0  -0.0658
  C  C207  1  0.526980  0.717300  0.217300  1.0  -0.067
  C  C208  1  0.026980  0.717300  0.717300  1.0  -0.067
  C  C209  1  0.973020  0.282700  0.717300  1.0  -0.0664
  C  C210  1  0.526980  0.282700  0.782700  1.0  -0.0668
  C  C211  1  0.473020  0.717300  0.782700  1.0  -0.0664
  C  C212  1  0.973020  0.717300  0.282700  1.0  -0.0664
  C  C213  1  0.717300  0.782700  0.473020  1.0  -0.0655
  C  C214  1  0.717300  0.282700  0.973020  1.0  -0.0655
  C  C215  1  0.282700  0.782700  0.526980  1.0  -0.0664
  C  C216  1  0.282700  0.717300  0.973020  1.0  -0.0653
  C  C217  1  0.717300  0.217300  0.526980  1.0  -0.0656
  C  C218  1  0.717300  0.717300  0.026980  1.0  -0.0656
  C  C219  1  0.782700  0.526980  0.282700  1.0  -0.0656
  C  C220  1  0.782700  0.026980  0.782700  1.0  -0.0656
  C  C221  1  0.782700  0.473020  0.717300  1.0  -0.0662
  C  C222  1  0.782700  0.973020  0.217300  1.0  -0.0662
  C  C223  1  0.217300  0.526980  0.717300  1.0  -0.0661
  C  C224  1  0.217300  0.973020  0.782700  1.0  -0.0665
  C  C225  1  0.250000  0.388400  0.250000  1.0  0.7088
  C  C226  1  0.250000  0.446500  0.250000  1.0  -0.1086
  C  C227  1  0.250000  0.888400  0.750000  1.0  0.7088
  C  C228  1  0.250000  0.946500  0.750000  1.0  -0.1086
  C  C229  1  0.750000  0.611600  0.250000  1.0  0.7102
  C  C230  1  0.750000  0.553500  0.250000  1.0  -0.1076
  C  C231  1  0.750000  0.111600  0.750000  1.0  0.7102
  C  C232  1  0.750000  0.053500  0.750000  1.0  -0.1076
  C  C233  1  0.250000  0.111600  0.250000  1.0  0.7102
  C  C234  1  0.250000  0.053500  0.250000  1.0  -0.1076
  C  C235  1  0.750000  0.388400  0.750000  1.0  0.7088
  C  C236  1  0.750000  0.446500  0.750000  1.0  -0.1086
  C  C237  1  0.750000  0.888400  0.250000  1.0  0.7088
  C  C238  1  0.750000  0.946500  0.250000  1.0  -0.1086
  C  C239  1  0.250000  0.611600  0.750000  1.0  0.7102
  C  C240  1  0.250000  0.553500  0.750000  1.0  -0.1076
  C  C241  1  0.250000  0.250000  0.388400  1.0  0.7131
  C  C242  1  0.250000  0.250000  0.446500  1.0  -0.1097
  C  C243  1  0.250000  0.750000  0.888400  1.0  0.7131
  C  C244  1  0.250000  0.750000  0.946500  1.0  -0.1097
  C  C245  1  0.250000  0.750000  0.611600  1.0  0.7147
  C  C246  1  0.250000  0.750000  0.553500  1.0  -0.1106
  C  C247  1  0.250000  0.250000  0.111600  1.0  0.7147
  C  C248  1  0.250000  0.250000  0.053500  1.0  -0.1106
  C  C249  1  0.750000  0.750000  0.388400  1.0  0.7131
  C  C250  1  0.750000  0.750000  0.446500  1.0  -0.1097
  C  C251  1  0.750000  0.250000  0.888400  1.0  0.7131
  C  C252  1  0.750000  0.250000  0.946500  1.0  -0.1097
  C  C253  1  0.750000  0.250000  0.611600  1.0  0.7147
  C  C254  1  0.750000  0.250000  0.553500  1.0  -0.1106
  C  C255  1  0.750000  0.750000  0.111600  1.0  0.7147
  C  C256  1  0.750000  0.750000  0.053500  1.0  -0.1106
  C  C257  1  0.388400  0.250000  0.250000  1.0  0.7112
  C  C258  1  0.446500  0.250000  0.250000  1.0  -0.1108
  C  C259  1  0.888400  0.250000  0.750000  1.0  0.7112
  C  C260  1  0.946500  0.250000  0.750000  1.0  -0.1108
  C  C261  1  0.611600  0.250000  0.750000  1.0  0.7099
  C  C262  1  0.553500  0.250000  0.750000  1.0  -0.1098
  C  C263  1  0.111600  0.250000  0.250000  1.0  0.7099
  C  C264  1  0.053500  0.250000  0.250000  1.0  -0.1098
  C  C265  1  0.388400  0.750000  0.750000  1.0  0.7112
  C  C266  1  0.446500  0.750000  0.750000  1.0  -0.1108
  C  C267  1  0.888400  0.750000  0.250000  1.0  0.7112
  C  C268  1  0.946500  0.750000  0.250000  1.0  -0.1108
  C  C269  1  0.611600  0.750000  0.250000  1.0  0.7099
  C  C270  1  0.553500  0.750000  0.250000  1.0  -0.1098
  C  C271  1  0.111600  0.750000  0.750000  1.0  0.7099
  C  C272  1  0.053500  0.750000  0.750000  1.0  -0.1098
  C  C273  1  0.388400  0.250000  0.750000  1.0  0.7112
  C  C274  1  0.446500  0.250000  0.750000  1.0  -0.1108
  C  C275  1  0.888400  0.250000  0.250000  1.0  0.7112
  C  C276  1  0.946500  0.250000  0.250000  1.0  -0.1108
  C  C277  1  0.611600  0.750000  0.750000  1.0  0.7099
  C  C278  1  0.553500  0.750000  0.750000  1.0  -0.1098
  C  C279  1  0.611600  0.250000  0.250000  1.0  0.7099
  C  C280  1  0.553500  0.250000  0.250000  1.0  -0.1098
  C  C281  1  0.111600  0.750000  0.250000  1.0  0.7099
  C  C282  1  0.053500  0.750000  0.250000  1.0  -0.1098
  C  C283  1  0.388400  0.750000  0.250000  1.0  0.7112
  C  C284  1  0.446500  0.750000  0.250000  1.0  -0.1108
  C  C285  1  0.888400  0.750000  0.750000  1.0  0.7112
  C  C286  1  0.946500  0.750000  0.750000  1.0  -0.1108
  C  C287  1  0.111600  0.250000  0.750000  1.0  0.7099
  C  C288  1  0.053500  0.250000  0.750000  1.0  -0.1098
  C  C289  1  0.250000  0.250000  0.611600  1.0  0.7147
  C  C290  1  0.250000  0.250000  0.553500  1.0  -0.1106
  C  C291  1  0.250000  0.750000  0.111600  1.0  0.7147
  C  C292  1  0.250000  0.750000  0.053500  1.0  -0.1106
  C  C293  1  0.750000  0.250000  0.388400  1.0  0.7131
  C  C294  1  0.750000  0.250000  0.446500  1.0  -0.1097
  C  C295  1  0.750000  0.750000  0.888400  1.0  0.7131
  C  C296  1  0.750000  0.750000  0.946500  1.0  -0.1097
  C  C297  1  0.250000  0.250000  0.888400  1.0  0.7131
  C  C298  1  0.250000  0.250000  0.946500  1.0  -0.1097
  C  C299  1  0.750000  0.750000  0.611600  1.0  0.7147
  C  C300  1  0.750000  0.750000  0.553500  1.0  -0.1106
  C  C301  1  0.750000  0.250000  0.111600  1.0  0.7147
  C  C302  1  0.750000  0.250000  0.053500  1.0  -0.1106
  C  C303  1  0.250000  0.750000  0.388400  1.0  0.7131
  C  C304  1  0.250000  0.750000  0.446500  1.0  -0.1097
  C  C305  1  0.250000  0.388400  0.750000  1.0  0.7088
  C  C306  1  0.250000  0.446500  0.750000  1.0  -0.1086
  C  C307  1  0.250000  0.888400  0.250000  1.0  0.7088
  C  C308  1  0.250000  0.946500  0.250000  1.0  -0.1086
  C  C309  1  0.250000  0.611600  0.250000  1.0  0.7102
  C  C310  1  0.250000  0.553500  0.250000  1.0  -0.1076
  C  C311  1  0.250000  0.111600  0.750000  1.0  0.7102
  C  C312  1  0.250000  0.053500  0.750000  1.0  -0.1076
  C  C313  1  0.750000  0.388400  0.250000  1.0  0.7088
  C  C314  1  0.750000  0.446500  0.250000  1.0  -0.1086
  C  C315  1  0.750000  0.888400  0.750000  1.0  0.7088
  C  C316  1  0.750000  0.946500  0.750000  1.0  -0.1086
  C  C317  1  0.750000  0.611600  0.750000  1.0  0.7102
  C  C318  1  0.750000  0.553500  0.750000  1.0  -0.1076
  C  C319  1  0.750000  0.111600  0.250000  1.0  0.7102
  C  C320  1  0.750000  0.053500  0.250000  1.0  -0.1076
  O  O321  1  0.250000  0.250000  0.250000  1.0  -1.2739
  O  O322  1  0.750000  0.750000  0.250000  1.0  -1.2739
  O  O323  1  0.750000  0.250000  0.750000  1.0  -1.2739
  O  O324  1  0.250000  0.750000  0.750000  1.0  -1.2739
  O  O325  1  0.250000  0.250000  0.750000  1.0  -1.2739
  O  O326  1  0.750000  0.750000  0.750000  1.0  -1.2739
  O  O327  1  0.750000  0.250000  0.250000  1.0  -1.2739
  O  O328  1  0.250000  0.750000  0.250000  1.0  -1.2739
  O  O329  1  0.280550  0.366300  0.219450  1.0  -0.613
  O  O330  1  0.280550  0.866300  0.719450  1.0  -0.613
  O  O331  1  0.719450  0.633700  0.219450  1.0  -0.613
  O  O332  1  0.719450  0.133700  0.719450  1.0  -0.613
  O  O333  1  0.219450  0.133700  0.219450  1.0  -0.613
  O  O334  1  0.719450  0.366300  0.780550  1.0  -0.6142
  O  O335  1  0.719450  0.866300  0.280550  1.0  -0.6142
  O  O336  1  0.219450  0.366300  0.280550  1.0  -0.6142
  O  O337  1  0.280550  0.633700  0.780550  1.0  -0.613
  O  O338  1  0.280550  0.133700  0.280550  1.0  -0.613
  O  O339  1  0.219450  0.280550  0.366300  1.0  -0.6149
  O  O340  1  0.219450  0.780550  0.866300  1.0  -0.6149
  O  O341  1  0.219450  0.719450  0.633700  1.0  -0.615
  O  O342  1  0.219450  0.219450  0.133700  1.0  -0.615
  O  O343  1  0.780550  0.719450  0.366300  1.0  -0.6141
  O  O344  1  0.780550  0.219450  0.866300  1.0  -0.6141
  O  O345  1  0.280550  0.219450  0.366300  1.0  -0.6141
  O  O346  1  0.780550  0.280550  0.633700  1.0  -0.6151
  O  O347  1  0.780550  0.780550  0.133700  1.0  -0.6151
  O  O348  1  0.280550  0.280550  0.133700  1.0  -0.6151
  O  O349  1  0.366300  0.219450  0.280550  1.0  -0.6144
  O  O350  1  0.866300  0.219450  0.780550  1.0  -0.6144
  O  O351  1  0.633700  0.219450  0.719450  1.0  -0.6146
  O  O352  1  0.133700  0.219450  0.219450  1.0  -0.6146
  O  O353  1  0.366300  0.780550  0.719450  1.0  -0.6138
  O  O354  1  0.366300  0.280550  0.219450  1.0  -0.6138
  O  O355  1  0.866300  0.780550  0.219450  1.0  -0.6138
  O  O356  1  0.633700  0.780550  0.280550  1.0  -0.6154
  O  O357  1  0.133700  0.780550  0.780550  1.0  -0.6154
  O  O358  1  0.133700  0.280550  0.280550  1.0  -0.6154
  O  O359  1  0.366300  0.280550  0.780550  1.0  -0.6145
  O  O360  1  0.866300  0.280550  0.280550  1.0  -0.6145
  O  O361  1  0.633700  0.719450  0.780550  1.0  -0.615
  O  O362  1  0.633700  0.219450  0.280550  1.0  -0.615
  O  O363  1  0.133700  0.719450  0.280550  1.0  -0.615
  O  O364  1  0.366300  0.719450  0.219450  1.0  -0.6142
  O  O365  1  0.866300  0.719450  0.719450  1.0  -0.6142
  O  O366  1  0.866300  0.219450  0.219450  1.0  -0.6142
  O  O367  1  0.633700  0.280550  0.219450  1.0  -0.6146
  O  O368  1  0.133700  0.280550  0.719450  1.0  -0.6146
  O  O369  1  0.280550  0.219450  0.633700  1.0  -0.6146
  O  O370  1  0.280550  0.719450  0.133700  1.0  -0.6146
  O  O371  1  0.719450  0.219450  0.366300  1.0  -0.6147
  O  O372  1  0.719450  0.719450  0.866300  1.0  -0.6147
  O  O373  1  0.219450  0.219450  0.866300  1.0  -0.6147
  O  O374  1  0.719450  0.780550  0.633700  1.0  -0.6152
  O  O375  1  0.719450  0.280550  0.133700  1.0  -0.6152
  O  O376  1  0.219450  0.280550  0.633700  1.0  -0.6152
  O  O377  1  0.280550  0.780550  0.366300  1.0  -0.6145
  O  O378  1  0.280550  0.280550  0.866300  1.0  -0.6145
  O  O379  1  0.219450  0.366300  0.719450  1.0  -0.6131
  O  O380  1  0.219450  0.866300  0.219450  1.0  -0.6131
  O  O381  1  0.219450  0.633700  0.280550  1.0  -0.6133
  O  O382  1  0.219450  0.133700  0.780550  1.0  -0.6133
  O  O383  1  0.780550  0.366300  0.280550  1.0  -0.6139
  O  O384  1  0.780550  0.866300  0.780550  1.0  -0.6139
  O  O385  1  0.280550  0.866300  0.280550  1.0  -0.6139
  O  O386  1  0.780550  0.633700  0.719450  1.0  -0.6126
  O  O387  1  0.780550  0.133700  0.219450  1.0  -0.6126
  O  O388  1  0.280550  0.633700  0.219450  1.0  -0.6126
  O  O389  1  0.719450  0.633700  0.780550  1.0  -0.6133
  O  O390  1  0.719450  0.133700  0.280550  1.0  -0.6133
  O  O391  1  0.280550  0.366300  0.780550  1.0  -0.6139
  O  O392  1  0.280550  0.133700  0.719450  1.0  -0.6126
  O  O393  1  0.719450  0.366300  0.219450  1.0  -0.6131
  O  O394  1  0.719450  0.866300  0.719450  1.0  -0.6131
  O  O395  1  0.780550  0.719450  0.633700  1.0  -0.6146
  O  O396  1  0.780550  0.219450  0.133700  1.0  -0.6146
  O  O397  1  0.780550  0.280550  0.366300  1.0  -0.6145
  O  O398  1  0.780550  0.780550  0.866300  1.0  -0.6145
  O  O399  1  0.219450  0.780550  0.133700  1.0  -0.6152
  O  O400  1  0.219450  0.719450  0.366300  1.0  -0.6147
  O  O401  1  0.633700  0.780550  0.719450  1.0  -0.6146
  O  O402  1  0.133700  0.780550  0.219450  1.0  -0.6146
  O  O403  1  0.366300  0.780550  0.280550  1.0  -0.6145
  O  O404  1  0.866300  0.780550  0.780550  1.0  -0.6145
  O  O405  1  0.133700  0.219450  0.780550  1.0  -0.615
  O  O406  1  0.366300  0.219450  0.719450  1.0  -0.6142
  O  O407  1  0.633700  0.719450  0.219450  1.0  -0.6146
  O  O408  1  0.133700  0.719450  0.719450  1.0  -0.6146
  O  O409  1  0.866300  0.280550  0.719450  1.0  -0.6138
  O  O410  1  0.633700  0.280550  0.780550  1.0  -0.6154
  O  O411  1  0.366300  0.719450  0.780550  1.0  -0.6144
  O  O412  1  0.866300  0.719450  0.280550  1.0  -0.6144
  O  O413  1  0.719450  0.780550  0.366300  1.0  -0.6149
  O  O414  1  0.719450  0.280550  0.866300  1.0  -0.6149
  O  O415  1  0.280550  0.780550  0.633700  1.0  -0.6151
  O  O416  1  0.280550  0.719450  0.866300  1.0  -0.6141
  O  O417  1  0.719450  0.219450  0.633700  1.0  -0.615
  O  O418  1  0.719450  0.719450  0.133700  1.0  -0.615
  O  O419  1  0.780550  0.633700  0.280550  1.0  -0.613
  O  O420  1  0.780550  0.133700  0.780550  1.0  -0.613
  O  O421  1  0.780550  0.366300  0.719450  1.0  -0.613
  O  O422  1  0.780550  0.866300  0.219450  1.0  -0.613
  O  O423  1  0.219450  0.633700  0.719450  1.0  -0.613
  O  O424  1  0.219450  0.866300  0.780550  1.0  -0.6142
