# generated using pymatgen
data_LiZnH14C17N5O6
_symmetry_space_group_name_H-M   'P 1'
_cell_length_a   17.02980000
_cell_length_b   18.89040000
_cell_length_c   16.76110000
_cell_angle_alpha   90.00000000
_cell_angle_beta   112.44700000
_cell_angle_gamma   90.00000000
_symmetry_Int_Tables_number   1
_chemical_formula_structural   LiZnH14C17N5O6
_chemical_formula_sum   'Li8 Zn8 H112 C136 N40 O48'
_cell_volume   4983.50330288
_cell_formula_units_Z   8
loop_
 _symmetry_equiv_pos_site_id
 _symmetry_equiv_pos_as_xyz
  1  'x, y, z'
loop_
 _atom_site_type_symbol
 _atom_site_label
 _atom_site_symmetry_multiplicity
 _atom_site_fract_x
 _atom_site_fract_y
 _atom_site_fract_z
 _atom_site_occupancy
 _atom_site_charge
  Li  Li1  1  0.082100  0.383300  0.247000  1.0  0.908
  Li  Li2  1  0.582100  0.883300  0.247000  1.0  0.9074
  Li  Li3  1  0.917900  0.383300  0.253000  1.0  0.9084
  Li  Li4  1  0.417900  0.883300  0.253000  1.0  0.9124
  Li  Li5  1  0.917900  0.616700  0.753000  1.0  0.9073
  Li  Li6  1  0.417900  0.116700  0.753000  1.0  0.9067
  Li  Li7  1  0.082100  0.616700  0.747000  1.0  0.9063
  Li  Li8  1  0.582100  0.116700  0.747000  1.0  0.9102
  Zn  Zn9  1  0.248280  0.371680  0.419390  1.0  0.9779
  Zn  Zn10  1  0.748280  0.871680  0.419390  1.0  0.9779
  Zn  Zn11  1  0.751720  0.371680  0.080610  1.0  0.9798
  Zn  Zn12  1  0.251720  0.871680  0.080610  1.0  0.9798
  Zn  Zn13  1  0.751720  0.628320  0.580610  1.0  0.9801
  Zn  Zn14  1  0.251720  0.128320  0.580610  1.0  0.9801
  Zn  Zn15  1  0.248280  0.628320  0.919390  1.0  0.9784
  Zn  Zn16  1  0.748280  0.128320  0.919390  1.0  0.9784
  H  H17  1  0.376600  0.265400  0.536700  1.0  0.0679
  H  H18  1  0.480200  0.260900  0.674400  1.0  0.1004
  H  H19  1  0.428000  0.465400  0.706600  1.0  0.1094
  H  H20  1  0.324900  0.464000  0.568400  1.0  0.0694
  H  H21  1  0.344000  0.055100  0.331700  1.0  0.0653
  H  H22  1  0.317700  0.164800  0.377200  1.0  0.0913
  H  H23  1  0.119400  0.257800  0.123100  1.0  0.2069
  H  H24  1  0.095600  0.193700  0.063200  1.0  0.3118
  H  H25  1  0.849300  0.389200  0.403900  1.0  0.2454
  H  H26  1  0.919900  0.361100  0.377800  1.0  0.2295
  H  H27  1  0.815100  0.428400  0.462300  1.0  0.3086
  H  H28  1  0.810300  0.494100  0.513000  1.0  0.2891
  H  H29  1  0.133800  0.039200  0.053900  1.0  0.3207
  H  H30  1  0.093300  0.112500  0.041000  1.0  0.3054
  H  H31  1  0.876600  0.765400  0.536700  1.0  0.0679
  H  H32  1  0.980200  0.760900  0.674400  1.0  0.1004
  H  H33  1  0.928000  0.965400  0.706600  1.0  0.1094
  H  H34  1  0.824900  0.964000  0.568400  1.0  0.0694
  H  H35  1  0.844000  0.555100  0.331700  1.0  0.0653
  H  H36  1  0.817700  0.664800  0.377200  1.0  0.0913
  H  H37  1  0.619400  0.757800  0.123100  1.0  0.2069
  H  H38  1  0.595600  0.693700  0.063200  1.0  0.3118
  H  H39  1  0.349300  0.889200  0.403900  1.0  0.2454
  H  H40  1  0.419900  0.861100  0.377800  1.0  0.2295
  H  H41  1  0.315100  0.928400  0.462300  1.0  0.3086
  H  H42  1  0.310300  0.994100  0.513000  1.0  0.2891
  H  H43  1  0.633800  0.539200  0.053900  1.0  0.3207
  H  H44  1  0.593300  0.612500  0.041000  1.0  0.3054
  H  H45  1  0.623400  0.265400  0.963300  1.0  0.068
  H  H46  1  0.519800  0.260900  0.825600  1.0  0.1011
  H  H47  1  0.572000  0.465400  0.793400  1.0  0.1099
  H  H48  1  0.675100  0.464000  0.931600  1.0  0.0691
  H  H49  1  0.656000  0.055100  0.168300  1.0  0.0657
  H  H50  1  0.682300  0.164800  0.122800  1.0  0.0909
  H  H51  1  0.880600  0.257800  0.376900  1.0  0.206
  H  H52  1  0.904400  0.193700  0.436800  1.0  0.3078
  H  H53  1  0.150700  0.389200  0.096100  1.0  0.2477
  H  H54  1  0.080100  0.361100  0.122200  1.0  0.231
  H  H55  1  0.184900  0.428400  0.037700  1.0  0.3082
  H  H56  1  0.189700  0.494100  0.987000  1.0  0.2885
  H  H57  1  0.866200  0.039200  0.446100  1.0  0.3209
  H  H58  1  0.906700  0.112500  0.459000  1.0  0.3025
  H  H59  1  0.123400  0.765400  0.963300  1.0  0.068
  H  H60  1  0.019800  0.760900  0.825600  1.0  0.1011
  H  H61  1  0.072000  0.965400  0.793400  1.0  0.1099
  H  H62  1  0.175100  0.964000  0.931600  1.0  0.0691
  H  H63  1  0.156000  0.555100  0.168300  1.0  0.0657
  H  H64  1  0.182300  0.664800  0.122800  1.0  0.0909
  H  H65  1  0.380600  0.757800  0.376900  1.0  0.206
  H  H66  1  0.404400  0.693700  0.436800  1.0  0.3078
  H  H67  1  0.650700  0.889200  0.096100  1.0  0.2477
  H  H68  1  0.580100  0.861100  0.122200  1.0  0.231
  H  H69  1  0.684900  0.928400  0.037700  1.0  0.3082
  H  H70  1  0.689700  0.994100  0.987000  1.0  0.2885
  H  H71  1  0.366200  0.539200  0.446100  1.0  0.3209
  H  H72  1  0.406700  0.612500  0.459000  1.0  0.3025
  H  H73  1  0.623400  0.734600  0.463300  1.0  0.0675
  H  H74  1  0.519800  0.739100  0.325600  1.0  0.101
  H  H75  1  0.572000  0.534600  0.293400  1.0  0.1082
  H  H76  1  0.675100  0.536000  0.431600  1.0  0.0693
  H  H77  1  0.656000  0.944900  0.668300  1.0  0.0655
  H  H78  1  0.682300  0.835200  0.622800  1.0  0.0907
  H  H79  1  0.880600  0.742200  0.876900  1.0  0.2041
  H  H80  1  0.904400  0.806300  0.936800  1.0  0.3084
  H  H81  1  0.150700  0.610800  0.596100  1.0  0.2473
  H  H82  1  0.080100  0.638900  0.622200  1.0  0.2292
  H  H83  1  0.184900  0.571600  0.537700  1.0  0.3075
  H  H84  1  0.189700  0.505900  0.487000  1.0  0.289
  H  H85  1  0.866200  0.960800  0.946100  1.0  0.3203
  H  H86  1  0.906700  0.887500  0.959000  1.0  0.3022
  H  H87  1  0.123400  0.234600  0.463300  1.0  0.0675
  H  H88  1  0.019800  0.239100  0.325600  1.0  0.101
  H  H89  1  0.072000  0.034600  0.293400  1.0  0.1082
  H  H90  1  0.175100  0.036000  0.431600  1.0  0.0693
  H  H91  1  0.156000  0.444900  0.668300  1.0  0.0655
  H  H92  1  0.182300  0.335200  0.622800  1.0  0.0907
  H  H93  1  0.380600  0.242200  0.876900  1.0  0.2041
  H  H94  1  0.404400  0.306300  0.936800  1.0  0.3084
  H  H95  1  0.650700  0.110800  0.596100  1.0  0.2473
  H  H96  1  0.580100  0.138900  0.622200  1.0  0.2292
  H  H97  1  0.684900  0.071600  0.537700  1.0  0.3075
  H  H98  1  0.689700  0.005900  0.487000  1.0  0.289
  H  H99  1  0.366200  0.460800  0.946100  1.0  0.3203
  H  H100  1  0.406700  0.387500  0.959000  1.0  0.3022
  H  H101  1  0.376600  0.734600  0.036700  1.0  0.0676
  H  H102  1  0.480200  0.739100  0.174400  1.0  0.1005
  H  H103  1  0.428000  0.534600  0.206600  1.0  0.1086
  H  H104  1  0.324900  0.536000  0.068400  1.0  0.0692
  H  H105  1  0.344000  0.944900  0.831700  1.0  0.0653
  H  H106  1  0.317700  0.835200  0.877200  1.0  0.091
  H  H107  1  0.119400  0.742200  0.623100  1.0  0.2066
  H  H108  1  0.095600  0.806300  0.563200  1.0  0.3121
  H  H109  1  0.849300  0.610800  0.903900  1.0  0.246
  H  H110  1  0.919900  0.638900  0.877800  1.0  0.228
  H  H111  1  0.815100  0.571600  0.962300  1.0  0.3068
  H  H112  1  0.810300  0.505900  0.013000  1.0  0.2897
  H  H113  1  0.133800  0.960800  0.553900  1.0  0.3197
  H  H114  1  0.093300  0.887500  0.541000  1.0  0.305
  H  H115  1  0.876600  0.234600  0.036700  1.0  0.0676
  H  H116  1  0.980200  0.239100  0.174400  1.0  0.1005
  H  H117  1  0.928000  0.034600  0.206600  1.0  0.1086
  H  H118  1  0.824900  0.036000  0.068400  1.0  0.0692
  H  H119  1  0.844000  0.444900  0.831700  1.0  0.0653
  H  H120  1  0.817700  0.335200  0.877200  1.0  0.091
  H  H121  1  0.619400  0.242200  0.623100  1.0  0.2066
  H  H122  1  0.595600  0.306300  0.563200  1.0  0.3121
  H  H123  1  0.349300  0.110800  0.903900  1.0  0.246
  H  H124  1  0.419900  0.138900  0.877800  1.0  0.228
  H  H125  1  0.315100  0.071600  0.962300  1.0  0.3068
  H  H126  1  0.310300  0.005900  0.013000  1.0  0.2897
  H  H127  1  0.633800  0.460800  0.553900  1.0  0.3197
  H  H128  1  0.593300  0.387500  0.541000  1.0  0.305
  C  C129  1  0.387430  0.306520  0.571970  1.0  0.1612
  C  C130  1  0.449370  0.303420  0.653820  1.0  -0.2244
  C  C131  1  0.466400  0.363240  0.706050  1.0  0.0344
  C  C132  1  0.418590  0.423550  0.672770  1.0  -0.2262
  C  C133  1  0.357330  0.422390  0.590300  1.0  0.1457
  C  C134  1  0.205410  0.263630  0.294220  1.0  0.6615
  C  C135  1  0.222920  0.193150  0.264070  1.0  -0.131
  C  C136  1  0.175420  0.169970  0.181000  1.0  0.1462
  C  C137  1  0.190200  0.102970  0.153800  1.0  0.1568
  C  C138  1  0.254060  0.059900  0.210110  1.0  -0.1651
  C  C139  1  0.300690  0.084200  0.293010  1.0  -0.0463
  C  C140  1  0.285440  0.149410  0.320050  1.0  -0.0377
  C  C141  1  0.274660  0.989390  0.183940  1.0  0.6672
  C  C142  1  0.076650  0.406770  0.413750  1.0  0.6735
  C  C143  1  0.036460  0.454060  0.458680  1.0  -0.0988
  C  C144  1  0.952530  0.444000  0.450420  1.0  0.2721
  C  C145  1  0.916050  0.489510  0.491230  1.0  0.204
  C  C146  1  0.887430  0.806520  0.571970  1.0  0.1612
  C  C147  1  0.949370  0.803420  0.653820  1.0  -0.2244
  C  C148  1  0.966400  0.863240  0.706050  1.0  0.0344
  C  C149  1  0.918590  0.923550  0.672770  1.0  -0.2262
  C  C150  1  0.857330  0.922390  0.590300  1.0  0.1457
  C  C151  1  0.705410  0.763630  0.294220  1.0  0.6615
  C  C152  1  0.722920  0.693150  0.264070  1.0  -0.131
  C  C153  1  0.675420  0.669970  0.181000  1.0  0.1462
  C  C154  1  0.690200  0.602970  0.153800  1.0  0.1568
  C  C155  1  0.754060  0.559900  0.210110  1.0  -0.1651
  C  C156  1  0.800690  0.584200  0.293010  1.0  -0.0463
  C  C157  1  0.785440  0.649410  0.320050  1.0  -0.0377
  C  C158  1  0.774660  0.489390  0.183940  1.0  0.6672
  C  C159  1  0.576650  0.906770  0.413750  1.0  0.6735
  C  C160  1  0.536460  0.954060  0.458680  1.0  -0.0988
  C  C161  1  0.452530  0.944000  0.450420  1.0  0.2721
  C  C162  1  0.416050  0.989510  0.491230  1.0  0.204
  C  C163  1  0.612570  0.306520  0.928030  1.0  0.162
  C  C164  1  0.550630  0.303420  0.846180  1.0  -0.2262
  C  C165  1  0.533600  0.363240  0.793950  1.0  0.0351
  C  C166  1  0.581410  0.423550  0.827230  1.0  -0.2266
  C  C167  1  0.642670  0.422390  0.909700  1.0  0.1456
  C  C168  1  0.794590  0.263630  0.205780  1.0  0.6615
  C  C169  1  0.777080  0.193150  0.235930  1.0  -0.1312
  C  C170  1  0.824580  0.169970  0.319000  1.0  0.1463
  C  C171  1  0.809800  0.102970  0.346200  1.0  0.1551
  C  C172  1  0.745940  0.059900  0.289890  1.0  -0.1641
  C  C173  1  0.699310  0.084200  0.206990  1.0  -0.0474
  C  C174  1  0.714560  0.149410  0.179950  1.0  -0.0381
  C  C175  1  0.725340  0.989390  0.316060  1.0  0.6675
  C  C176  1  0.923350  0.406770  0.086250  1.0  0.6739
  C  C177  1  0.963540  0.454060  0.041320  1.0  -0.0987
  C  C178  1  0.047470  0.444000  0.049580  1.0  0.2713
  C  C179  1  0.083950  0.489510  0.008770  1.0  0.2033
  C  C180  1  0.112570  0.806520  0.928030  1.0  0.162
  C  C181  1  0.050630  0.803420  0.846180  1.0  -0.2262
  C  C182  1  0.033600  0.863240  0.793950  1.0  0.0351
  C  C183  1  0.081410  0.923550  0.827230  1.0  -0.2266
  C  C184  1  0.142670  0.922390  0.909700  1.0  0.1456
  C  C185  1  0.294590  0.763630  0.205780  1.0  0.6615
  C  C186  1  0.277080  0.693150  0.235930  1.0  -0.1312
  C  C187  1  0.324580  0.669970  0.319000  1.0  0.1463
  C  C188  1  0.309800  0.602970  0.346200  1.0  0.1551
  C  C189  1  0.245940  0.559900  0.289890  1.0  -0.1641
  C  C190  1  0.199310  0.584200  0.206990  1.0  -0.0474
  C  C191  1  0.214560  0.649410  0.179950  1.0  -0.0381
  C  C192  1  0.225340  0.489390  0.316060  1.0  0.6675
  C  C193  1  0.423350  0.906770  0.086250  1.0  0.6739
  C  C194  1  0.463540  0.954060  0.041320  1.0  -0.0987
  C  C195  1  0.547470  0.944000  0.049580  1.0  0.2713
  C  C196  1  0.583950  0.989510  0.008770  1.0  0.2033
  C  C197  1  0.612570  0.693480  0.428030  1.0  0.1613
  C  C198  1  0.550630  0.696580  0.346180  1.0  -0.225
  C  C199  1  0.533600  0.636760  0.293950  1.0  0.0359
  C  C200  1  0.581410  0.576450  0.327230  1.0  -0.2251
  C  C201  1  0.642670  0.577610  0.409700  1.0  0.1446
  C  C202  1  0.794590  0.736370  0.705780  1.0  0.6591
  C  C203  1  0.777080  0.806850  0.735930  1.0  -0.1316
  C  C204  1  0.824580  0.830030  0.819000  1.0  0.1458
  C  C205  1  0.809800  0.897030  0.846200  1.0  0.1552
  C  C206  1  0.745940  0.940100  0.789890  1.0  -0.1641
  C  C207  1  0.699310  0.915800  0.706990  1.0  -0.0472
  C  C208  1  0.714560  0.850590  0.679950  1.0  -0.038
  C  C209  1  0.725340  0.010610  0.816060  1.0  0.6675
  C  C210  1  0.923350  0.593230  0.586250  1.0  0.6737
  C  C211  1  0.963540  0.545940  0.541320  1.0  -0.0985
  C  C212  1  0.047470  0.556000  0.549580  1.0  0.2721
  C  C213  1  0.083950  0.510490  0.508770  1.0  0.2016
  C  C214  1  0.112570  0.193480  0.428030  1.0  0.1613
  C  C215  1  0.050630  0.196580  0.346180  1.0  -0.225
  C  C216  1  0.033600  0.136760  0.293950  1.0  0.0359
  C  C217  1  0.081410  0.076450  0.327230  1.0  -0.2251
  C  C218  1  0.142670  0.077610  0.409700  1.0  0.1446
  C  C219  1  0.294590  0.236370  0.705780  1.0  0.6591
  C  C220  1  0.277080  0.306850  0.735930  1.0  -0.1316
  C  C221  1  0.324580  0.330030  0.819000  1.0  0.1458
  C  C222  1  0.309800  0.397030  0.846200  1.0  0.1552
  C  C223  1  0.245940  0.440100  0.789890  1.0  -0.1641
  C  C224  1  0.199310  0.415800  0.706990  1.0  -0.0472
  C  C225  1  0.214560  0.350590  0.679950  1.0  -0.038
  C  C226  1  0.225340  0.510610  0.816060  1.0  0.6675
  C  C227  1  0.423350  0.093230  0.586250  1.0  0.6737
  C  C228  1  0.463540  0.045940  0.541320  1.0  -0.0985
  C  C229  1  0.547470  0.056000  0.549580  1.0  0.2721
  C  C230  1  0.583950  0.010490  0.508770  1.0  0.2016
  C  C231  1  0.387430  0.693480  0.071970  1.0  0.1605
  C  C232  1  0.449370  0.696580  0.153820  1.0  -0.2246
  C  C233  1  0.466400  0.636760  0.206050  1.0  0.0351
  C  C234  1  0.418590  0.576450  0.172770  1.0  -0.2255
  C  C235  1  0.357330  0.577610  0.090300  1.0  0.1446
  C  C236  1  0.205410  0.736370  0.794220  1.0  0.6615
  C  C237  1  0.222920  0.806850  0.764070  1.0  -0.1313
  C  C238  1  0.175420  0.830030  0.681000  1.0  0.1455
  C  C239  1  0.190200  0.897030  0.653800  1.0  0.1568
  C  C240  1  0.254060  0.940100  0.710110  1.0  -0.1653
  C  C241  1  0.300690  0.915800  0.793010  1.0  -0.0461
  C  C242  1  0.285440  0.850590  0.820050  1.0  -0.0378
  C  C243  1  0.274660  0.010610  0.683940  1.0  0.6676
  C  C244  1  0.076650  0.593230  0.913750  1.0  0.6734
  C  C245  1  0.036460  0.545940  0.958680  1.0  -0.0986
  C  C246  1  0.952530  0.556000  0.950420  1.0  0.2728
  C  C247  1  0.916050  0.510490  0.991230  1.0  0.2022
  C  C248  1  0.887430  0.193480  0.071970  1.0  0.1605
  C  C249  1  0.949370  0.196580  0.153820  1.0  -0.2246
  C  C250  1  0.966400  0.136760  0.206050  1.0  0.0351
  C  C251  1  0.918590  0.076450  0.172770  1.0  -0.2255
  C  C252  1  0.857330  0.077610  0.090300  1.0  0.1446
  C  C253  1  0.705410  0.236370  0.794220  1.0  0.6615
  C  C254  1  0.722920  0.306850  0.764070  1.0  -0.1313
  C  C255  1  0.675420  0.330030  0.681000  1.0  0.1455
  C  C256  1  0.690200  0.397030  0.653800  1.0  0.1568
  C  C257  1  0.754060  0.440100  0.710110  1.0  -0.1653
  C  C258  1  0.800690  0.415800  0.793010  1.0  -0.0461
  C  C259  1  0.785440  0.350590  0.820050  1.0  -0.0378
  C  C260  1  0.774660  0.510610  0.683940  1.0  0.6676
  C  C261  1  0.576650  0.093230  0.913750  1.0  0.6734
  C  C262  1  0.536460  0.045940  0.958680  1.0  -0.0986
  C  C263  1  0.452530  0.056000  0.950420  1.0  0.2728
  C  C264  1  0.416050  0.010490  0.991230  1.0  0.2022
  N  N265  1  0.341650  0.364920  0.539790  1.0  -0.3607
  N  N266  1  0.123900  0.212300  0.114400  1.0  -0.6105
  N  N267  1  0.901500  0.392200  0.405600  1.0  -0.5903
  N  N268  1  0.837700  0.468100  0.488500  1.0  -0.6267
  N  N269  1  0.131900  0.082300  0.072900  1.0  -0.6654
  N  N270  1  0.841650  0.864920  0.539790  1.0  -0.3607
  N  N271  1  0.623900  0.712300  0.114400  1.0  -0.6105
  N  N272  1  0.401500  0.892200  0.405600  1.0  -0.5903
  N  N273  1  0.337700  0.968100  0.488500  1.0  -0.6267
  N  N274  1  0.631900  0.582300  0.072900  1.0  -0.6654
  N  N275  1  0.658350  0.364920  0.960210  1.0  -0.3608
  N  N276  1  0.876100  0.212300  0.385600  1.0  -0.6123
  N  N277  1  0.098500  0.392200  0.094400  1.0  -0.5903
  N  N278  1  0.162300  0.468100  0.011500  1.0  -0.6295
  N  N279  1  0.868100  0.082300  0.427100  1.0  -0.6658
  N  N280  1  0.158350  0.864920  0.960210  1.0  -0.3608
  N  N281  1  0.376100  0.712300  0.385600  1.0  -0.6123
  N  N282  1  0.598500  0.892200  0.094400  1.0  -0.5903
  N  N283  1  0.662300  0.968100  0.011500  1.0  -0.6295
  N  N284  1  0.368100  0.582300  0.427100  1.0  -0.6658
  N  N285  1  0.658350  0.635080  0.460210  1.0  -0.3608
  N  N286  1  0.876100  0.787700  0.885600  1.0  -0.6112
  N  N287  1  0.098500  0.607800  0.594400  1.0  -0.5899
  N  N288  1  0.162300  0.531900  0.511500  1.0  -0.6301
  N  N289  1  0.868100  0.917700  0.927100  1.0  -0.6649
  N  N290  1  0.158350  0.135080  0.460210  1.0  -0.3608
  N  N291  1  0.376100  0.287700  0.885600  1.0  -0.6112
  N  N292  1  0.598500  0.107800  0.594400  1.0  -0.5899
  N  N293  1  0.662300  0.031900  0.511500  1.0  -0.6301
  N  N294  1  0.368100  0.417700  0.927100  1.0  -0.6649
  N  N295  1  0.341650  0.635080  0.039790  1.0  -0.3604
  N  N296  1  0.123900  0.787700  0.614400  1.0  -0.6105
  N  N297  1  0.901500  0.607800  0.905600  1.0  -0.5918
  N  N298  1  0.837700  0.531900  0.988500  1.0  -0.6278
  N  N299  1  0.131900  0.917700  0.572900  1.0  -0.6657
  N  N300  1  0.841650  0.135080  0.039790  1.0  -0.3604
  N  N301  1  0.623900  0.287700  0.614400  1.0  -0.6105
  N  N302  1  0.401500  0.107800  0.905600  1.0  -0.5918
  N  N303  1  0.337700  0.031900  0.988500  1.0  -0.6278
  N  N304  1  0.631900  0.417700  0.572900  1.0  -0.6657
  O  O305  1  0.257170  0.282800  0.369140  1.0  -0.6327
  O  O306  1  0.143480  0.299640  0.247820  1.0  -0.6413
  O  O307  1  0.344270  0.961400  0.226160  1.0  -0.6875
  O  O308  1  0.218460  0.960510  0.117490  1.0  -0.6248
  O  O309  1  0.154920  0.394470  0.453990  1.0  -0.6405
  O  O310  1  0.032910  0.382260  0.340540  1.0  -0.707
  O  O311  1  0.757170  0.782800  0.369140  1.0  -0.6327
  O  O312  1  0.643480  0.799640  0.247820  1.0  -0.6413
  O  O313  1  0.844270  0.461400  0.226160  1.0  -0.6876
  O  O314  1  0.718460  0.460510  0.117490  1.0  -0.6248
  O  O315  1  0.654920  0.894470  0.453990  1.0  -0.6405
  O  O316  1  0.532910  0.882260  0.340540  1.0  -0.707
  O  O317  1  0.742830  0.282800  0.130860  1.0  -0.6349
  O  O318  1  0.856520  0.299640  0.252180  1.0  -0.6398
  O  O319  1  0.655730  0.961400  0.273840  1.0  -0.6875
  O  O320  1  0.781540  0.960510  0.382510  1.0  -0.6258
  O  O321  1  0.845080  0.394470  0.046010  1.0  -0.6418
  O  O322  1  0.967090  0.382260  0.159460  1.0  -0.7079
  O  O323  1  0.242830  0.782800  0.130860  1.0  -0.6349
  O  O324  1  0.356520  0.799640  0.252180  1.0  -0.6398
  O  O325  1  0.155730  0.461400  0.273840  1.0  -0.6875
  O  O326  1  0.281540  0.460510  0.382510  1.0  -0.6258
  O  O327  1  0.345080  0.894470  0.046010  1.0  -0.6418
  O  O328  1  0.467090  0.882260  0.159460  1.0  -0.7079
  O  O329  1  0.742830  0.717200  0.630860  1.0  -0.6348
  O  O330  1  0.856520  0.700360  0.752180  1.0  -0.6396
  O  O331  1  0.655730  0.038600  0.773840  1.0  -0.689
  O  O332  1  0.781540  0.039490  0.882510  1.0  -0.6265
  O  O333  1  0.845080  0.605530  0.546010  1.0  -0.6423
  O  O334  1  0.967090  0.617740  0.659460  1.0  -0.7079
  O  O335  1  0.242830  0.217200  0.630860  1.0  -0.6348
  O  O336  1  0.356520  0.200360  0.752180  1.0  -0.6396
  O  O337  1  0.155730  0.538600  0.773840  1.0  -0.689
  O  O338  1  0.281540  0.539490  0.882510  1.0  -0.6265
  O  O339  1  0.345080  0.105530  0.546010  1.0  -0.6423
  O  O340  1  0.467090  0.117740  0.659460  1.0  -0.7079
  O  O341  1  0.257170  0.717200  0.869140  1.0  -0.6331
  O  O342  1  0.143480  0.700360  0.747820  1.0  -0.6411
  O  O343  1  0.344270  0.038600  0.726160  1.0  -0.6893
  O  O344  1  0.218460  0.039490  0.617490  1.0  -0.6251
  O  O345  1  0.154920  0.605530  0.953990  1.0  -0.6414
  O  O346  1  0.032910  0.617740  0.840540  1.0  -0.7073
  O  O347  1  0.757170  0.217200  0.869140  1.0  -0.6331
  O  O348  1  0.643480  0.200360  0.747820  1.0  -0.6411
  O  O349  1  0.844270  0.538600  0.726160  1.0  -0.6894
  O  O350  1  0.718460  0.539490  0.617490  1.0  -0.6251
  O  O351  1  0.654920  0.105530  0.953990  1.0  -0.6414
  O  O352  1  0.532910  0.117740  0.840540  1.0  -0.7073
