# generated using pymatgen
data_Zn4H12C24O13
_symmetry_space_group_name_H-M   'P 1'
_cell_length_a   18.31270000
_cell_length_b   18.31270000
_cell_length_c   18.31270000
_cell_angle_alpha   60.00000000
_cell_angle_beta   60.00000000
_cell_angle_gamma   60.00000000
_symmetry_Int_Tables_number   1
_chemical_formula_structural   Zn4H12C24O13
_chemical_formula_sum   'Zn8 H24 C48 O26'
_cell_volume   4342.52317278
_cell_formula_units_Z   2
loop_
 _symmetry_equiv_pos_site_id
 _symmetry_equiv_pos_as_xyz
  1  'x, y, z'
loop_
 _atom_site_type_symbol
 _atom_site_label
 _atom_site_symmetry_multiplicity
 _atom_site_fract_x
 _atom_site_fract_y
 _atom_site_fract_z
 _atom_site_occupancy
 _atom_site_charge
  Zn  Zn1  1  0.206660  0.380010  0.206660  1.0  1.1258
  Zn  Zn2  1  0.380010  0.206660  0.206660  1.0  1.1136
  Zn  Zn3  1  0.206670  0.206660  0.206660  1.0  1.1159
  Zn  Zn4  1  0.206670  0.206660  0.380010  1.0  1.1271
  Zn  Zn5  1  0.619990  0.793340  0.793340  1.0  1.1216
  Zn  Zn6  1  0.793340  0.619990  0.793330  1.0  1.1167
  Zn  Zn7  1  0.793340  0.793330  0.793340  1.0  1.122
  Zn  Zn8  1  0.793340  0.793330  0.619990  1.0  1.1172
  H  H9  1  0.045200  0.565800  0.045200  1.0  0.1106
  H  H10  1  0.565800  0.045200  0.343800  1.0  0.1113
  H  H11  1  0.045200  0.343800  0.045200  1.0  0.111
  H  H12  1  0.343800  0.045200  0.565800  1.0  0.1105
  H  H13  1  0.045200  0.045200  0.343800  1.0  0.1106
  H  H14  1  0.565800  0.343800  0.045200  1.0  0.1115
  H  H15  1  0.045200  0.045200  0.565800  1.0  0.1102
  H  H16  1  0.343800  0.565800  0.045200  1.0  0.1105
  H  H17  1  0.045200  0.343800  0.565800  1.0  0.1109
  H  H18  1  0.565800  0.045200  0.045200  1.0  0.1109
  H  H19  1  0.045200  0.565800  0.343800  1.0  0.1108
  H  H20  1  0.343800  0.045200  0.045200  1.0  0.1108
  H  H21  1  0.434200  0.954800  0.954800  1.0  0.111
  H  H22  1  0.954800  0.434200  0.656200  1.0  0.1104
  H  H23  1  0.656200  0.954800  0.954800  1.0  0.1109
  H  H24  1  0.954800  0.656200  0.434200  1.0  0.1116
  H  H25  1  0.954800  0.954800  0.656200  1.0  0.1101
  H  H26  1  0.656200  0.434200  0.954800  1.0  0.1111
  H  H27  1  0.954800  0.954800  0.434200  1.0  0.1104
  H  H28  1  0.434200  0.656200  0.954800  1.0  0.111
  H  H29  1  0.656200  0.954800  0.434200  1.0  0.1113
  H  H30  1  0.954800  0.434200  0.954800  1.0  0.1105
  H  H31  1  0.434200  0.954800  0.656200  1.0  0.1108
  H  H32  1  0.954800  0.656200  0.954800  1.0  0.1115
  C  C33  1  0.026880  0.539300  0.026880  1.0  -0.0561
  C  C34  1  0.539300  0.026880  0.406940  1.0  -0.0545
  C  C35  1  0.026880  0.406940  0.026880  1.0  -0.0559
  C  C36  1  0.406940  0.026880  0.539300  1.0  -0.0544
  C  C37  1  0.026880  0.026880  0.406940  1.0  -0.0563
  C  C38  1  0.539300  0.406940  0.026880  1.0  -0.0554
  C  C39  1  0.026880  0.026880  0.539300  1.0  -0.0577
  C  C40  1  0.406940  0.539300  0.026880  1.0  -0.0555
  C  C41  1  0.026880  0.406940  0.539300  1.0  -0.0552
  C  C42  1  0.539300  0.026880  0.026880  1.0  -0.0544
  C  C43  1  0.026880  0.539300  0.406940  1.0  -0.0561
  C  C44  1  0.406940  0.026880  0.026880  1.0  -0.0548
  C  C45  1  0.460700  0.973120  0.973120  1.0  -0.0541
  C  C46  1  0.973120  0.460700  0.593060  1.0  -0.0563
  C  C47  1  0.593060  0.973120  0.973120  1.0  -0.0548
  C  C48  1  0.973120  0.593060  0.460700  1.0  -0.0551
  C  C49  1  0.973120  0.973120  0.593060  1.0  -0.0582
  C  C50  1  0.593060  0.460700  0.973120  1.0  -0.056
  C  C51  1  0.973120  0.973120  0.460700  1.0  -0.0561
  C  C52  1  0.460700  0.593060  0.973120  1.0  -0.0552
  C  C53  1  0.593060  0.973120  0.460700  1.0  -0.0552
  C  C54  1  0.973120  0.460700  0.973120  1.0  -0.0557
  C  C55  1  0.460700  0.973120  0.593060  1.0  -0.0548
  C  C56  1  0.973120  0.593060  0.973120  1.0  -0.0543
  C  C57  1  0.111420  0.388580  0.111420  1.0  0.7099
  C  C58  1  0.053810  0.446190  0.053810  1.0  -0.1209
  C  C59  1  0.388580  0.111420  0.388580  1.0  0.71
  C  C60  1  0.446190  0.053810  0.446190  1.0  -0.1209
  C  C61  1  0.111420  0.111420  0.388580  1.0  0.7081
  C  C62  1  0.053810  0.053810  0.446190  1.0  -0.1202
  C  C63  1  0.388580  0.388580  0.111420  1.0  0.7097
  C  C64  1  0.446190  0.446190  0.053810  1.0  -0.1209
  C  C65  1  0.111420  0.388580  0.388580  1.0  0.7094
  C  C66  1  0.053810  0.446190  0.446190  1.0  -0.121
  C  C67  1  0.388580  0.111420  0.111420  1.0  0.7102
  C  C68  1  0.446190  0.053810  0.053810  1.0  -0.1208
  C  C69  1  0.611420  0.888580  0.888580  1.0  0.7094
  C  C70  1  0.553810  0.946190  0.946190  1.0  -0.121
  C  C71  1  0.888580  0.611420  0.611420  1.0  0.7102
  C  C72  1  0.946190  0.553810  0.553810  1.0  -0.1208
  C  C73  1  0.888580  0.888580  0.611420  1.0  0.7097
  C  C74  1  0.946190  0.946190  0.553810  1.0  -0.1209
  C  C75  1  0.611420  0.611420  0.888580  1.0  0.7081
  C  C76  1  0.553810  0.553810  0.946190  1.0  -0.1202
  C  C77  1  0.611420  0.888580  0.611420  1.0  0.71
  C  C78  1  0.553810  0.946190  0.553810  1.0  -0.1209
  C  C79  1  0.888580  0.611420  0.888580  1.0  0.71
  C  C80  1  0.946190  0.553810  0.946190  1.0  -0.1209
  O  O81  1  0.250000  0.250000  0.250000  1.0  -1.2738
  O  O82  1  0.750000  0.750000  0.750000  1.0  -1.2738
  O  O83  1  0.133690  0.427730  0.133690  1.0  -0.611
  O  O84  1  0.427730  0.133690  0.304890  1.0  -0.6185
  O  O85  1  0.133690  0.304890  0.133690  1.0  -0.6199
  O  O86  1  0.304890  0.133690  0.427730  1.0  -0.6121
  O  O87  1  0.133690  0.133690  0.304890  1.0  -0.62
  O  O88  1  0.427730  0.304890  0.133690  1.0  -0.6192
  O  O89  1  0.133690  0.133690  0.427730  1.0  -0.6204
  O  O90  1  0.304890  0.427730  0.133690  1.0  -0.618
  O  O91  1  0.133690  0.304890  0.427730  1.0  -0.6199
  O  O92  1  0.427730  0.133690  0.133690  1.0  -0.6119
  O  O93  1  0.133690  0.427730  0.304890  1.0  -0.6177
  O  O94  1  0.304890  0.133690  0.133690  1.0  -0.6121
  O  O95  1  0.572270  0.866310  0.866310  1.0  -0.6121
  O  O96  1  0.866310  0.572270  0.695110  1.0  -0.6109
  O  O97  1  0.695110  0.866310  0.866310  1.0  -0.6191
  O  O98  1  0.866310  0.695110  0.572270  1.0  -0.6142
  O  O99  1  0.866310  0.866310  0.695110  1.0  -0.6203
  O  O100  1  0.695110  0.572270  0.866310  1.0  -0.6194
  O  O101  1  0.866310  0.866310  0.572270  1.0  -0.6199
  O  O102  1  0.572270  0.695110  0.866310  1.0  -0.6202
  O  O103  1  0.695110  0.866310  0.572270  1.0  -0.6187
  O  O104  1  0.866310  0.572270  0.866310  1.0  -0.6173
  O  O105  1  0.572270  0.866310  0.695110  1.0  -0.6191
  O  O106  1  0.866310  0.695110  0.866310  1.0  -0.614
