# generated using pymatgen
data_Zn4H12C24O13
_symmetry_space_group_name_H-M   'P 1'
_cell_length_a   18.29430000
_cell_length_b   18.29430000
_cell_length_c   18.29430000
_cell_angle_alpha   60.00000000
_cell_angle_beta   60.00000000
_cell_angle_gamma   60.00000000
_symmetry_Int_Tables_number   1
_chemical_formula_structural   Zn4H12C24O13
_chemical_formula_sum   'Zn8 H24 C48 O26'
_cell_volume   4329.44664612
_cell_formula_units_Z   2
loop_
 _symmetry_equiv_pos_site_id
 _symmetry_equiv_pos_as_xyz
  1  'x, y, z'
loop_
 _atom_site_type_symbol
 _atom_site_label
 _atom_site_symmetry_multiplicity
 _atom_site_fract_x
 _atom_site_fract_y
 _atom_site_fract_z
 _atom_site_occupancy
 _atom_site_charge
  Zn  Zn1  1  0.206600  0.380200  0.206600  1.0  1.1392
  Zn  Zn2  1  0.380200  0.206600  0.206600  1.0  1.1396
  Zn  Zn3  1  0.206600  0.206600  0.206600  1.0  1.1409
  Zn  Zn4  1  0.206600  0.206600  0.380200  1.0  1.1412
  Zn  Zn5  1  0.619800  0.793400  0.793400  1.0  1.1397
  Zn  Zn6  1  0.793400  0.619800  0.793400  1.0  1.1386
  Zn  Zn7  1  0.793400  0.793400  0.793400  1.0  1.1408
  Zn  Zn8  1  0.793400  0.793400  0.619800  1.0  1.1403
  H  H9  1  0.045100  0.565500  0.045100  1.0  0.1095
  H  H10  1  0.565500  0.045100  0.344300  1.0  0.1102
  H  H11  1  0.045100  0.344300  0.045100  1.0  0.1097
  H  H12  1  0.344300  0.045100  0.565500  1.0  0.1093
  H  H13  1  0.045100  0.045100  0.344300  1.0  0.1095
  H  H14  1  0.565500  0.344300  0.045100  1.0  0.1102
  H  H15  1  0.045100  0.045100  0.565500  1.0  0.1091
  H  H16  1  0.344300  0.565500  0.045100  1.0  0.1092
  H  H17  1  0.045100  0.344300  0.565500  1.0  0.1096
  H  H18  1  0.565500  0.045100  0.045100  1.0  0.1096
  H  H19  1  0.045100  0.565500  0.344300  1.0  0.1098
  H  H20  1  0.344300  0.045100  0.045100  1.0  0.1095
  H  H21  1  0.434500  0.954900  0.954900  1.0  0.1099
  H  H22  1  0.954900  0.434500  0.655700  1.0  0.1093
  H  H23  1  0.655700  0.954900  0.954900  1.0  0.1095
  H  H24  1  0.954900  0.655700  0.434500  1.0  0.1104
  H  H25  1  0.954900  0.954900  0.655700  1.0  0.109
  H  H26  1  0.655700  0.434500  0.954900  1.0  0.1097
  H  H27  1  0.954900  0.954900  0.434500  1.0  0.1094
  H  H28  1  0.434500  0.655700  0.954900  1.0  0.1099
  H  H29  1  0.655700  0.954900  0.434500  1.0  0.1099
  H  H30  1  0.954900  0.434500  0.954900  1.0  0.1094
  H  H31  1  0.434500  0.954900  0.655700  1.0  0.1096
  H  H32  1  0.954900  0.655700  0.954900  1.0  0.1103
  C  C33  1  0.026750  0.538890  0.026750  1.0  -0.0628
  C  C34  1  0.538890  0.026750  0.407610  1.0  -0.0616
  C  C35  1  0.026750  0.407610  0.026750  1.0  -0.0618
  C  C36  1  0.407610  0.026750  0.538890  1.0  -0.0616
  C  C37  1  0.026750  0.026750  0.407610  1.0  -0.0626
  C  C38  1  0.538890  0.407610  0.026750  1.0  -0.0617
  C  C39  1  0.026750  0.026750  0.538890  1.0  -0.0637
  C  C40  1  0.407610  0.538890  0.026750  1.0  -0.0625
  C  C41  1  0.026750  0.407610  0.538890  1.0  -0.061
  C  C42  1  0.538890  0.026750  0.026750  1.0  -0.0615
  C  C43  1  0.026750  0.538890  0.407610  1.0  -0.0626
  C  C44  1  0.407610  0.026750  0.026750  1.0  -0.0622
  C  C45  1  0.461110  0.973250  0.973250  1.0  -0.0609
  C  C46  1  0.973250  0.461110  0.592390  1.0  -0.0626
  C  C47  1  0.592390  0.973250  0.973250  1.0  -0.0616
  C  C48  1  0.973250  0.592390  0.461110  1.0  -0.0618
  C  C49  1  0.973250  0.973250  0.592390  1.0  -0.0637
  C  C50  1  0.592390  0.461110  0.973250  1.0  -0.0628
  C  C51  1  0.973250  0.973250  0.461110  1.0  -0.0623
  C  C52  1  0.461110  0.592390  0.973250  1.0  -0.0621
  C  C53  1  0.592390  0.973250  0.461110  1.0  -0.0621
  C  C54  1  0.973250  0.461110  0.973250  1.0  -0.0624
  C  C55  1  0.461110  0.973250  0.592390  1.0  -0.0612
  C  C56  1  0.973250  0.592390  0.973250  1.0  -0.061
  C  C57  1  0.111470  0.388530  0.111470  1.0  0.7082
  C  C58  1  0.053740  0.446260  0.053740  1.0  -0.1225
  C  C59  1  0.388530  0.111470  0.388530  1.0  0.7081
  C  C60  1  0.446260  0.053740  0.446260  1.0  -0.1231
  C  C61  1  0.111470  0.111470  0.388530  1.0  0.7062
  C  C62  1  0.053740  0.053740  0.446260  1.0  -0.1219
  C  C63  1  0.388530  0.388530  0.111470  1.0  0.7079
  C  C64  1  0.446260  0.446260  0.053740  1.0  -0.1223
  C  C65  1  0.111470  0.388530  0.388530  1.0  0.7076
  C  C66  1  0.053740  0.446260  0.446260  1.0  -0.1231
  C  C67  1  0.388530  0.111470  0.111470  1.0  0.7083
  C  C68  1  0.446260  0.053740  0.053740  1.0  -0.1229
  C  C69  1  0.611470  0.888530  0.888530  1.0  0.7076
  C  C70  1  0.553740  0.946260  0.946260  1.0  -0.1231
  C  C71  1  0.888530  0.611470  0.611470  1.0  0.7083
  C  C72  1  0.946260  0.553740  0.553740  1.0  -0.1229
  C  C73  1  0.888530  0.888530  0.611470  1.0  0.7079
  C  C74  1  0.946260  0.946260  0.553740  1.0  -0.1223
  C  C75  1  0.611470  0.611470  0.888530  1.0  0.7062
  C  C76  1  0.553740  0.553740  0.946260  1.0  -0.1219
  C  C77  1  0.611470  0.888530  0.611470  1.0  0.7082
  C  C78  1  0.553740  0.946260  0.553740  1.0  -0.1225
  C  C79  1  0.888530  0.611470  0.888530  1.0  0.7081
  C  C80  1  0.946260  0.553740  0.946260  1.0  -0.1231
  O  O81  1  0.250000  0.250000  0.250000  1.0  -1.2716
  O  O82  1  0.750000  0.750000  0.750000  1.0  -1.2716
  O  O83  1  0.133720  0.427640  0.133720  1.0  -0.613
  O  O84  1  0.427640  0.133720  0.304920  1.0  -0.6136
  O  O85  1  0.133720  0.304920  0.133720  1.0  -0.6151
  O  O86  1  0.304920  0.133720  0.427640  1.0  -0.614
  O  O87  1  0.133720  0.133720  0.304920  1.0  -0.6146
  O  O88  1  0.427640  0.304920  0.133720  1.0  -0.6139
  O  O89  1  0.133720  0.133720  0.427640  1.0  -0.6146
  O  O90  1  0.304920  0.427640  0.133720  1.0  -0.6131
  O  O91  1  0.133720  0.304920  0.427640  1.0  -0.615
  O  O92  1  0.427640  0.133720  0.133720  1.0  -0.6138
  O  O93  1  0.133720  0.427640  0.304920  1.0  -0.6128
  O  O94  1  0.304920  0.133720  0.133720  1.0  -0.6139
  O  O95  1  0.572360  0.866280  0.866280  1.0  -0.6139
  O  O96  1  0.866280  0.572360  0.695080  1.0  -0.6127
  O  O97  1  0.695080  0.866280  0.866280  1.0  -0.6142
  O  O98  1  0.866280  0.695080  0.572360  1.0  -0.6156
  O  O99  1  0.866280  0.866280  0.695080  1.0  -0.6144
  O  O100  1  0.695080  0.572360  0.866280  1.0  -0.613
  O  O101  1  0.866280  0.866280  0.572360  1.0  -0.6142
  O  O102  1  0.572360  0.695080  0.866280  1.0  -0.6162
  O  O103  1  0.695080  0.866280  0.572360  1.0  -0.6141
  O  O104  1  0.866280  0.572360  0.866280  1.0  -0.6126
  O  O105  1  0.572360  0.866280  0.695080  1.0  -0.6145
  O  O106  1  0.866280  0.695080  0.866280  1.0  -0.6155
