# generated using pymatgen
data_Zn4H12C24O13
_symmetry_space_group_name_H-M   'P 1'
_cell_length_a   18.28300000
_cell_length_b   18.28300000
_cell_length_c   18.28300000
_cell_angle_alpha   60.00000000
_cell_angle_beta   60.00000000
_cell_angle_gamma   60.00000000
_symmetry_Int_Tables_number   1
_chemical_formula_structural   Zn4H12C24O13
_chemical_formula_sum   'Zn8 H24 C48 O26'
_cell_volume   4321.42897918
_cell_formula_units_Z   2
loop_
 _symmetry_equiv_pos_site_id
 _symmetry_equiv_pos_as_xyz
  1  'x, y, z'
loop_
 _atom_site_type_symbol
 _atom_site_label
 _atom_site_symmetry_multiplicity
 _atom_site_fract_x
 _atom_site_fract_y
 _atom_site_fract_z
 _atom_site_occupancy
 _atom_site_charge
  Zn  Zn1  1  0.206570  0.380310  0.206560  1.0  1.1193
  Zn  Zn2  1  0.380320  0.206560  0.206560  1.0  1.1387
  Zn  Zn3  1  0.206570  0.206560  0.206560  1.0  1.121
  Zn  Zn4  1  0.206570  0.206560  0.380310  1.0  1.1219
  Zn  Zn5  1  0.619680  0.793440  0.793440  1.0  1.1389
  Zn  Zn6  1  0.793430  0.619690  0.793440  1.0  1.1187
  Zn  Zn7  1  0.793430  0.793440  0.793440  1.0  1.1212
  Zn  Zn8  1  0.793430  0.793440  0.619690  1.0  1.1202
  H  H9  1  0.045000  0.565400  0.045000  1.0  0.1093
  H  H10  1  0.565400  0.045000  0.344600  1.0  0.11
  H  H11  1  0.045000  0.344600  0.045000  1.0  0.1094
  H  H12  1  0.344600  0.045000  0.565400  1.0  0.1091
  H  H13  1  0.045000  0.045000  0.344600  1.0  0.1094
  H  H14  1  0.565400  0.344600  0.045000  1.0  0.1099
  H  H15  1  0.045000  0.045000  0.565400  1.0  0.1089
  H  H16  1  0.344600  0.565400  0.045000  1.0  0.1089
  H  H17  1  0.045000  0.344600  0.565400  1.0  0.1092
  H  H18  1  0.565400  0.045000  0.045000  1.0  0.1094
  H  H19  1  0.045000  0.565400  0.344600  1.0  0.1096
  H  H20  1  0.344600  0.045000  0.045000  1.0  0.1094
  H  H21  1  0.434600  0.955000  0.955000  1.0  0.1097
  H  H22  1  0.955000  0.434600  0.655400  1.0  0.109
  H  H23  1  0.655400  0.955000  0.955000  1.0  0.1093
  H  H24  1  0.955000  0.655400  0.434600  1.0  0.11
  H  H25  1  0.955000  0.955000  0.655400  1.0  0.1088
  H  H26  1  0.655400  0.434600  0.955000  1.0  0.1094
  H  H27  1  0.955000  0.955000  0.434600  1.0  0.1092
  H  H28  1  0.434600  0.655400  0.955000  1.0  0.1094
  H  H29  1  0.655400  0.955000  0.434600  1.0  0.1097
  H  H30  1  0.955000  0.434600  0.955000  1.0  0.1092
  H  H31  1  0.434600  0.955000  0.655400  1.0  0.1094
  H  H32  1  0.955000  0.655400  0.955000  1.0  0.1099
  C  C33  1  0.026700  0.538640  0.026700  1.0  -0.0621
  C  C34  1  0.538640  0.026700  0.407960  1.0  -0.0608
  C  C35  1  0.026700  0.407960  0.026700  1.0  -0.0621
  C  C36  1  0.407960  0.026700  0.538640  1.0  -0.0607
  C  C37  1  0.026700  0.026700  0.407960  1.0  -0.0606
  C  C38  1  0.538640  0.407960  0.026700  1.0  -0.062
  C  C39  1  0.026700  0.026700  0.538640  1.0  -0.0629
  C  C40  1  0.407960  0.538640  0.026700  1.0  -0.0622
  C  C41  1  0.026700  0.407960  0.538640  1.0  -0.0617
  C  C42  1  0.538640  0.026700  0.026700  1.0  -0.061
  C  C43  1  0.026700  0.538640  0.407960  1.0  -0.0621
  C  C44  1  0.407960  0.026700  0.026700  1.0  -0.0611
  C  C45  1  0.461360  0.973300  0.973300  1.0  -0.06
  C  C46  1  0.973300  0.461360  0.592040  1.0  -0.0615
  C  C47  1  0.592040  0.973300  0.973300  1.0  -0.0607
  C  C48  1  0.973300  0.592040  0.461360  1.0  -0.0627
  C  C49  1  0.973300  0.973300  0.592040  1.0  -0.0633
  C  C50  1  0.592040  0.461360  0.973300  1.0  -0.0617
  C  C51  1  0.973300  0.973300  0.461360  1.0  -0.0608
  C  C52  1  0.461360  0.592040  0.973300  1.0  -0.0624
  C  C53  1  0.592040  0.973300  0.461360  1.0  -0.0609
  C  C54  1  0.973300  0.461360  0.973300  1.0  -0.0612
  C  C55  1  0.461360  0.973300  0.592040  1.0  -0.0607
  C  C56  1  0.973300  0.592040  0.973300  1.0  -0.062
  C  C57  1  0.111480  0.388520  0.111480  1.0  0.7136
  C  C58  1  0.053720  0.446280  0.053720  1.0  -0.1199
  C  C59  1  0.388520  0.111480  0.388520  1.0  0.7137
  C  C60  1  0.446280  0.053720  0.446280  1.0  -0.1204
  C  C61  1  0.111480  0.111480  0.388520  1.0  0.7119
  C  C62  1  0.053720  0.053720  0.446280  1.0  -0.1191
  C  C63  1  0.388520  0.388520  0.111480  1.0  0.7137
  C  C64  1  0.446280  0.446280  0.053720  1.0  -0.1197
  C  C65  1  0.111480  0.388520  0.388520  1.0  0.7132
  C  C66  1  0.053720  0.446280  0.446280  1.0  -0.1203
  C  C67  1  0.388520  0.111480  0.111480  1.0  0.7138
  C  C68  1  0.446280  0.053720  0.053720  1.0  -0.1203
  C  C69  1  0.611480  0.888520  0.888520  1.0  0.7132
  C  C70  1  0.553720  0.946280  0.946280  1.0  -0.1203
  C  C71  1  0.888520  0.611480  0.611480  1.0  0.7138
  C  C72  1  0.946280  0.553720  0.553720  1.0  -0.1203
  C  C73  1  0.888520  0.888520  0.611480  1.0  0.7137
  C  C74  1  0.946280  0.946280  0.553720  1.0  -0.1197
  C  C75  1  0.611480  0.611480  0.888520  1.0  0.7119
  C  C76  1  0.553720  0.553720  0.946280  1.0  -0.1191
  C  C77  1  0.611480  0.888520  0.611480  1.0  0.7136
  C  C78  1  0.553720  0.946280  0.553720  1.0  -0.1199
  C  C79  1  0.888520  0.611480  0.888520  1.0  0.7137
  C  C80  1  0.946280  0.553720  0.946280  1.0  -0.1204
  O  O81  1  0.250000  0.250000  0.250000  1.0  -1.2697
  O  O82  1  0.750000  0.750000  0.750000  1.0  -1.2701
  O  O83  1  0.133730  0.427510  0.133730  1.0  -0.6116
  O  O84  1  0.427510  0.133730  0.305030  1.0  -0.6167
  O  O85  1  0.133730  0.305030  0.133730  1.0  -0.6135
  O  O86  1  0.305030  0.133730  0.427510  1.0  -0.6128
  O  O87  1  0.133730  0.133730  0.305030  1.0  -0.6134
  O  O88  1  0.427510  0.305030  0.133730  1.0  -0.6176
  O  O89  1  0.133730  0.133730  0.427510  1.0  -0.6132
  O  O90  1  0.305030  0.427510  0.133730  1.0  -0.6115
  O  O91  1  0.133730  0.305030  0.427510  1.0  -0.6136
  O  O92  1  0.427510  0.133730  0.133730  1.0  -0.6167
  O  O93  1  0.133730  0.427510  0.305030  1.0  -0.6114
  O  O94  1  0.305030  0.133730  0.133730  1.0  -0.6124
  O  O95  1  0.572490  0.866270  0.866270  1.0  -0.6168
  O  O96  1  0.866270  0.572490  0.694970  1.0  -0.6112
  O  O97  1  0.694970  0.866270  0.866270  1.0  -0.6128
  O  O98  1  0.866270  0.694970  0.572490  1.0  -0.6136
  O  O99  1  0.866270  0.866270  0.694970  1.0  -0.613
  O  O100  1  0.694970  0.572490  0.866270  1.0  -0.6116
  O  O101  1  0.866270  0.866270  0.572490  1.0  -0.6132
  O  O102  1  0.572490  0.694970  0.866270  1.0  -0.618
  O  O103  1  0.694970  0.866270  0.572490  1.0  -0.6126
  O  O104  1  0.866270  0.572490  0.866270  1.0  -0.6111
  O  O105  1  0.572490  0.866270  0.694970  1.0  -0.6172
  O  O106  1  0.866270  0.694970  0.866270  1.0  -0.6137
