# generated using pymatgen
data_Zn4H12C24O13
_symmetry_space_group_name_H-M   'P 1'
_cell_length_a   18.30630000
_cell_length_b   18.30630000
_cell_length_c   18.30630000
_cell_angle_alpha   60.00000000
_cell_angle_beta   60.00000000
_cell_angle_gamma   60.00000000
_symmetry_Int_Tables_number   1
_chemical_formula_structural   Zn4H12C24O13
_chemical_formula_sum   'Zn8 H24 C48 O26'
_cell_volume   4337.97183357
_cell_formula_units_Z   2
loop_
 _symmetry_equiv_pos_site_id
 _symmetry_equiv_pos_as_xyz
  1  'x, y, z'
loop_
 _atom_site_type_symbol
 _atom_site_label
 _atom_site_symmetry_multiplicity
 _atom_site_fract_x
 _atom_site_fract_y
 _atom_site_fract_z
 _atom_site_occupancy
 _atom_site_charge
  Zn  Zn1  1  0.206640  0.380060  0.206650  1.0  1.1226
  Zn  Zn2  1  0.380050  0.206650  0.206650  1.0  1.1206
  Zn  Zn3  1  0.206640  0.206650  0.206650  1.0  1.1238
  Zn  Zn4  1  0.206640  0.206650  0.380060  1.0  1.1238
  Zn  Zn5  1  0.619950  0.793350  0.793350  1.0  1.1212
  Zn  Zn6  1  0.793360  0.619940  0.793350  1.0  1.1226
  Zn  Zn7  1  0.793360  0.793350  0.793350  1.0  1.1226
  Zn  Zn8  1  0.793360  0.793350  0.619940  1.0  1.1227
  H  H9  1  0.045200  0.565600  0.045200  1.0  0.112
  H  H10  1  0.565600  0.045200  0.344000  1.0  0.1127
  H  H11  1  0.045200  0.344000  0.045200  1.0  0.1124
  H  H12  1  0.344000  0.045200  0.565600  1.0  0.1117
  H  H13  1  0.045200  0.045200  0.344000  1.0  0.112
  H  H14  1  0.565600  0.344000  0.045200  1.0  0.1129
  H  H15  1  0.045200  0.045200  0.565600  1.0  0.1115
  H  H16  1  0.344000  0.565600  0.045200  1.0  0.1118
  H  H17  1  0.045200  0.344000  0.565600  1.0  0.1123
  H  H18  1  0.565600  0.045200  0.045200  1.0  0.1122
  H  H19  1  0.045200  0.565600  0.344000  1.0  0.1123
  H  H20  1  0.344000  0.045200  0.045200  1.0  0.112
  H  H21  1  0.434400  0.954800  0.954800  1.0  0.1125
  H  H22  1  0.954800  0.434400  0.656000  1.0  0.1119
  H  H23  1  0.656000  0.954800  0.954800  1.0  0.1122
  H  H24  1  0.954800  0.656000  0.434400  1.0  0.1129
  H  H25  1  0.954800  0.954800  0.656000  1.0  0.1114
  H  H26  1  0.656000  0.434400  0.954800  1.0  0.1123
  H  H27  1  0.954800  0.954800  0.434400  1.0  0.1119
  H  H28  1  0.434400  0.656000  0.954800  1.0  0.1124
  H  H29  1  0.656000  0.954800  0.434400  1.0  0.1126
  H  H30  1  0.954800  0.434400  0.954800  1.0  0.112
  H  H31  1  0.434400  0.954800  0.656000  1.0  0.1122
  H  H32  1  0.954800  0.656000  0.954800  1.0  0.1128
  C  C33  1  0.026830  0.539050  0.026830  1.0  -0.0611
  C  C34  1  0.539050  0.026830  0.407290  1.0  -0.0613
  C  C35  1  0.026830  0.407290  0.026830  1.0  -0.0613
  C  C36  1  0.407290  0.026830  0.539050  1.0  -0.0612
  C  C37  1  0.026830  0.026830  0.407290  1.0  -0.0621
  C  C38  1  0.539050  0.407290  0.026830  1.0  -0.0615
  C  C39  1  0.026830  0.026830  0.539050  1.0  -0.0616
  C  C40  1  0.407290  0.539050  0.026830  1.0  -0.0625
  C  C41  1  0.026830  0.407290  0.539050  1.0  -0.0608
  C  C42  1  0.539050  0.026830  0.026830  1.0  -0.0602
  C  C43  1  0.026830  0.539050  0.407290  1.0  -0.0624
  C  C44  1  0.407290  0.026830  0.026830  1.0  -0.0615
  C  C45  1  0.460950  0.973170  0.973170  1.0  -0.0602
  C  C46  1  0.973170  0.460950  0.592710  1.0  -0.0608
  C  C47  1  0.592710  0.973170  0.973170  1.0  -0.0616
  C  C48  1  0.973170  0.592710  0.460950  1.0  -0.0613
  C  C49  1  0.973170  0.973170  0.592710  1.0  -0.0611
  C  C50  1  0.592710  0.460950  0.973170  1.0  -0.0628
  C  C51  1  0.973170  0.973170  0.460950  1.0  -0.0611
  C  C52  1  0.460950  0.592710  0.973170  1.0  -0.062
  C  C53  1  0.592710  0.973170  0.460950  1.0  -0.062
  C  C54  1  0.973170  0.460950  0.973170  1.0  -0.0617
  C  C55  1  0.460950  0.973170  0.592710  1.0  -0.0596
  C  C56  1  0.973170  0.592710  0.973170  1.0  -0.0608
  C  C57  1  0.111440  0.388560  0.111440  1.0  0.7126
  C  C58  1  0.053810  0.446190  0.053810  1.0  -0.1188
  C  C59  1  0.388560  0.111440  0.388560  1.0  0.7126
  C  C60  1  0.446190  0.053810  0.446190  1.0  -0.1191
  C  C61  1  0.111440  0.111440  0.388560  1.0  0.7107
  C  C62  1  0.053810  0.053810  0.446190  1.0  -0.1181
  C  C63  1  0.388560  0.388560  0.111440  1.0  0.7123
  C  C64  1  0.446190  0.446190  0.053810  1.0  -0.1185
  C  C65  1  0.111440  0.388560  0.388560  1.0  0.7121
  C  C66  1  0.053810  0.446190  0.446190  1.0  -0.1191
  C  C67  1  0.388560  0.111440  0.111440  1.0  0.7129
  C  C68  1  0.446190  0.053810  0.053810  1.0  -0.119
  C  C69  1  0.611440  0.888560  0.888560  1.0  0.7121
  C  C70  1  0.553810  0.946190  0.946190  1.0  -0.1191
  C  C71  1  0.888560  0.611440  0.611440  1.0  0.7129
  C  C72  1  0.946190  0.553810  0.553810  1.0  -0.119
  C  C73  1  0.888560  0.888560  0.611440  1.0  0.7123
  C  C74  1  0.946190  0.946190  0.553810  1.0  -0.1185
  C  C75  1  0.611440  0.611440  0.888560  1.0  0.7107
  C  C76  1  0.553810  0.553810  0.946190  1.0  -0.1181
  C  C77  1  0.611440  0.888560  0.611440  1.0  0.7126
  C  C78  1  0.553810  0.946190  0.553810  1.0  -0.1188
  C  C79  1  0.888560  0.611440  0.888560  1.0  0.7126
  C  C80  1  0.946190  0.553810  0.946190  1.0  -0.1191
  O  O81  1  0.250000  0.250000  0.250000  1.0  -1.2721
  O  O82  1  0.750000  0.750000  0.750000  1.0  -1.2718
  O  O83  1  0.133680  0.427680  0.133680  1.0  -0.6157
  O  O84  1  0.427680  0.133680  0.304960  1.0  -0.6133
  O  O85  1  0.133680  0.304960  0.133680  1.0  -0.6175
  O  O86  1  0.304960  0.133680  0.427680  1.0  -0.6157
  O  O87  1  0.133680  0.133680  0.304960  1.0  -0.6172
  O  O88  1  0.427680  0.304960  0.133680  1.0  -0.6136
  O  O89  1  0.133680  0.133680  0.427680  1.0  -0.6177
  O  O90  1  0.304960  0.427680  0.133680  1.0  -0.6143
  O  O91  1  0.133680  0.304960  0.427680  1.0  -0.6178
  O  O92  1  0.427680  0.133680  0.133680  1.0  -0.6133
  O  O93  1  0.133680  0.427680  0.304960  1.0  -0.6157
  O  O94  1  0.304960  0.133680  0.133680  1.0  -0.616
  O  O95  1  0.572320  0.866320  0.866320  1.0  -0.6135
  O  O96  1  0.866320  0.572320  0.695040  1.0  -0.6156
  O  O97  1  0.695040  0.866320  0.866320  1.0  -0.6155
  O  O98  1  0.866320  0.695040  0.572320  1.0  -0.6179
  O  O99  1  0.866320  0.866320  0.695040  1.0  -0.6176
  O  O100  1  0.695040  0.572320  0.866320  1.0  -0.6137
  O  O101  1  0.866320  0.866320  0.572320  1.0  -0.6173
  O  O102  1  0.572320  0.695040  0.866320  1.0  -0.6158
  O  O103  1  0.695040  0.866320  0.572320  1.0  -0.6156
  O  O104  1  0.866320  0.572320  0.866320  1.0  -0.6154
  O  O105  1  0.572320  0.866320  0.695040  1.0  -0.6139
  O  O106  1  0.866320  0.695040  0.866320  1.0  -0.6178
