# generated using pymatgen
data_Zn4H12C24O13
_symmetry_space_group_name_H-M   'P 1'
_cell_length_a   25.88200000
_cell_length_b   25.88200000
_cell_length_c   25.88200000
_cell_angle_alpha   90.00000000
_cell_angle_beta   90.00000000
_cell_angle_gamma   90.00000000
_symmetry_Int_Tables_number   1
_chemical_formula_structural   Zn4H12C24O13
_chemical_formula_sum   'Zn32 H96 C192 O104'
_cell_volume   17337.78042897
_cell_formula_units_Z   8
loop_
 _symmetry_equiv_pos_site_id
 _symmetry_equiv_pos_as_xyz
  1  'x, y, z'
loop_
 _atom_site_type_symbol
 _atom_site_label
 _atom_site_symmetry_multiplicity
 _atom_site_fract_x
 _atom_site_fract_y
 _atom_site_fract_z
 _atom_site_occupancy
 _atom_site_charge
  Zn  Zn1  1  0.293370  0.293370  0.206630  1.0  1.1249
  Zn  Zn2  1  0.706630  0.706630  0.206630  1.0  1.1262
  Zn  Zn3  1  0.206630  0.206630  0.206630  1.0  1.1262
  Zn  Zn4  1  0.706630  0.293370  0.793370  1.0  1.1277
  Zn  Zn5  1  0.206630  0.293370  0.293370  1.0  1.1277
  Zn  Zn6  1  0.293370  0.706630  0.793370  1.0  1.1272
  Zn  Zn7  1  0.293370  0.206630  0.293370  1.0  1.1272
  Zn  Zn8  1  0.206630  0.793370  0.793370  1.0  1.1277
  Zn  Zn9  1  0.206630  0.706630  0.706630  1.0  1.1262
  Zn  Zn10  1  0.793370  0.706630  0.293370  1.0  1.1272
  Zn  Zn11  1  0.793370  0.206630  0.793370  1.0  1.1272
  Zn  Zn12  1  0.793370  0.293370  0.706630  1.0  1.1249
  Zn  Zn13  1  0.793370  0.793370  0.206630  1.0  1.1249
  Zn  Zn14  1  0.706630  0.206630  0.706630  1.0  1.1262
  Zn  Zn15  1  0.293370  0.793370  0.706630  1.0  1.1249
  Zn  Zn16  1  0.706630  0.793370  0.293370  1.0  1.1277
  Zn  Zn17  1  0.293370  0.293370  0.793370  1.0  1.1268
  Zn  Zn18  1  0.706630  0.706630  0.793370  1.0  1.1278
  Zn  Zn19  1  0.706630  0.206630  0.293370  1.0  1.1278
  Zn  Zn20  1  0.206630  0.706630  0.293370  1.0  1.1278
  Zn  Zn21  1  0.293370  0.706630  0.206630  1.0  1.1255
  Zn  Zn22  1  0.706630  0.293370  0.206630  1.0  1.1258
  Zn  Zn23  1  0.206630  0.793370  0.206630  1.0  1.1258
  Zn  Zn24  1  0.293370  0.206630  0.706630  1.0  1.1255
  Zn  Zn25  1  0.206630  0.206630  0.793370  1.0  1.1278
  Zn  Zn26  1  0.706630  0.793370  0.706630  1.0  1.1258
  Zn  Zn27  1  0.206630  0.293370  0.706630  1.0  1.1258
  Zn  Zn28  1  0.293370  0.793370  0.293370  1.0  1.1268
  Zn  Zn29  1  0.793370  0.293370  0.293370  1.0  1.1268
  Zn  Zn30  1  0.793370  0.793370  0.793370  1.0  1.1268
  Zn  Zn31  1  0.793370  0.706630  0.706630  1.0  1.1255
  Zn  Zn32  1  0.793370  0.206630  0.206630  1.0  1.1255
  H  H33  1  0.305500  0.454600  0.194500  1.0  0.1041
  H  H34  1  0.305500  0.954600  0.694500  1.0  0.1041
  H  H35  1  0.694500  0.545400  0.194500  1.0  0.1037
  H  H36  1  0.694500  0.045400  0.694500  1.0  0.1037
  H  H37  1  0.194500  0.045400  0.194500  1.0  0.1037
  H  H38  1  0.694500  0.454600  0.805500  1.0  0.1038
  H  H39  1  0.694500  0.954600  0.305500  1.0  0.1038
  H  H40  1  0.194500  0.454600  0.305500  1.0  0.1038
  H  H41  1  0.305500  0.545400  0.805500  1.0  0.1036
  H  H42  1  0.305500  0.045400  0.305500  1.0  0.1036
  H  H43  1  0.194500  0.305500  0.454600  1.0  0.1044
  H  H44  1  0.194500  0.805500  0.954600  1.0  0.1044
  H  H45  1  0.194500  0.694500  0.545400  1.0  0.1039
  H  H46  1  0.194500  0.194500  0.045400  1.0  0.1039
  H  H47  1  0.805500  0.694500  0.454600  1.0  0.1045
  H  H48  1  0.805500  0.194500  0.954600  1.0  0.1045
  H  H49  1  0.305500  0.194500  0.454600  1.0  0.1045
  H  H50  1  0.805500  0.305500  0.545400  1.0  0.1039
  H  H51  1  0.805500  0.805500  0.045400  1.0  0.1039
  H  H52  1  0.305500  0.305500  0.045400  1.0  0.1039
  H  H53  1  0.454600  0.194500  0.305500  1.0  0.1043
  H  H54  1  0.954600  0.194500  0.805500  1.0  0.1043
  H  H55  1  0.545400  0.194500  0.694500  1.0  0.104
  H  H56  1  0.045400  0.194500  0.194500  1.0  0.104
  H  H57  1  0.454600  0.805500  0.694500  1.0  0.1044
  H  H58  1  0.454600  0.305500  0.194500  1.0  0.1044
  H  H59  1  0.954600  0.805500  0.194500  1.0  0.1044
  H  H60  1  0.545400  0.805500  0.305500  1.0  0.104
  H  H61  1  0.045400  0.805500  0.805500  1.0  0.104
  H  H62  1  0.045400  0.305500  0.305500  1.0  0.104
  H  H63  1  0.454600  0.305500  0.805500  1.0  0.1042
  H  H64  1  0.954600  0.305500  0.305500  1.0  0.1042
  H  H65  1  0.545400  0.694500  0.805500  1.0  0.1042
  H  H66  1  0.545400  0.194500  0.305500  1.0  0.1042
  H  H67  1  0.045400  0.694500  0.305500  1.0  0.1042
  H  H68  1  0.454600  0.694500  0.194500  1.0  0.104
  H  H69  1  0.954600  0.694500  0.694500  1.0  0.104
  H  H70  1  0.954600  0.194500  0.194500  1.0  0.104
  H  H71  1  0.545400  0.305500  0.194500  1.0  0.1042
  H  H72  1  0.045400  0.305500  0.694500  1.0  0.1042
  H  H73  1  0.305500  0.194500  0.545400  1.0  0.1041
  H  H74  1  0.305500  0.694500  0.045400  1.0  0.1041
  H  H75  1  0.694500  0.194500  0.454600  1.0  0.1041
  H  H76  1  0.694500  0.694500  0.954600  1.0  0.1041
  H  H77  1  0.194500  0.194500  0.954600  1.0  0.1041
  H  H78  1  0.694500  0.805500  0.545400  1.0  0.1039
  H  H79  1  0.694500  0.305500  0.045400  1.0  0.1039
  H  H80  1  0.194500  0.305500  0.545400  1.0  0.1039
  H  H81  1  0.305500  0.805500  0.454600  1.0  0.1046
  H  H82  1  0.305500  0.305500  0.954600  1.0  0.1046
  H  H83  1  0.194500  0.454600  0.694500  1.0  0.1037
  H  H84  1  0.194500  0.954600  0.194500  1.0  0.1037
  H  H85  1  0.194500  0.545400  0.305500  1.0  0.1035
  H  H86  1  0.194500  0.045400  0.805500  1.0  0.1035
  H  H87  1  0.805500  0.454600  0.305500  1.0  0.1038
  H  H88  1  0.805500  0.954600  0.805500  1.0  0.1038
  H  H89  1  0.305500  0.954600  0.305500  1.0  0.1038
  H  H90  1  0.805500  0.545400  0.694500  1.0  0.104
  H  H91  1  0.805500  0.045400  0.194500  1.0  0.104
  H  H92  1  0.305500  0.545400  0.194500  1.0  0.104
  H  H93  1  0.694500  0.545400  0.805500  1.0  0.1035
  H  H94  1  0.694500  0.045400  0.305500  1.0  0.1035
  H  H95  1  0.305500  0.454600  0.805500  1.0  0.1038
  H  H96  1  0.305500  0.045400  0.694500  1.0  0.104
  H  H97  1  0.694500  0.454600  0.194500  1.0  0.1037
  H  H98  1  0.694500  0.954600  0.694500  1.0  0.1037
  H  H99  1  0.805500  0.694500  0.545400  1.0  0.1041
  H  H100  1  0.805500  0.194500  0.045400  1.0  0.1041
  H  H101  1  0.805500  0.305500  0.454600  1.0  0.1046
  H  H102  1  0.805500  0.805500  0.954600  1.0  0.1046
  H  H103  1  0.194500  0.805500  0.045400  1.0  0.1039
  H  H104  1  0.194500  0.694500  0.454600  1.0  0.1041
  H  H105  1  0.545400  0.805500  0.694500  1.0  0.1042
  H  H106  1  0.045400  0.805500  0.194500  1.0  0.1042
  H  H107  1  0.454600  0.805500  0.305500  1.0  0.1042
  H  H108  1  0.954600  0.805500  0.805500  1.0  0.1042
  H  H109  1  0.045400  0.194500  0.805500  1.0  0.1042
  H  H110  1  0.454600  0.194500  0.694500  1.0  0.104
  H  H111  1  0.545400  0.694500  0.194500  1.0  0.104
  H  H112  1  0.045400  0.694500  0.694500  1.0  0.104
  H  H113  1  0.954600  0.305500  0.694500  1.0  0.1044
  H  H114  1  0.545400  0.305500  0.805500  1.0  0.104
  H  H115  1  0.454600  0.694500  0.805500  1.0  0.1043
  H  H116  1  0.954600  0.694500  0.305500  1.0  0.1043
  H  H117  1  0.694500  0.805500  0.454600  1.0  0.1044
  H  H118  1  0.694500  0.305500  0.954600  1.0  0.1044
  H  H119  1  0.305500  0.805500  0.545400  1.0  0.1039
  H  H120  1  0.305500  0.694500  0.954600  1.0  0.1045
  H  H121  1  0.694500  0.194500  0.545400  1.0  0.1039
  H  H122  1  0.694500  0.694500  0.045400  1.0  0.1039
  H  H123  1  0.805500  0.545400  0.305500  1.0  0.1036
  H  H124  1  0.805500  0.045400  0.805500  1.0  0.1036
  H  H125  1  0.805500  0.454600  0.694500  1.0  0.1041
  H  H126  1  0.805500  0.954600  0.194500  1.0  0.1041
  H  H127  1  0.194500  0.545400  0.694500  1.0  0.1037
  H  H128  1  0.194500  0.954600  0.805500  1.0  0.1038
  C  C129  1  0.283090  0.473000  0.216910  1.0  -0.0669
  C  C130  1  0.283090  0.973000  0.716910  1.0  -0.0666
  C  C131  1  0.716910  0.527000  0.216910  1.0  -0.0656
  C  C132  1  0.716910  0.027000  0.716910  1.0  -0.0656
  C  C133  1  0.216910  0.027000  0.216910  1.0  -0.0658
  C  C134  1  0.716910  0.473000  0.783090  1.0  -0.0656
  C  C135  1  0.716910  0.973000  0.283090  1.0  -0.0656
  C  C136  1  0.216910  0.473000  0.283090  1.0  -0.0658
  C  C137  1  0.283090  0.527000  0.783090  1.0  -0.0652
  C  C138  1  0.283090  0.027000  0.283090  1.0  -0.0654
  C  C139  1  0.216910  0.283090  0.473000  1.0  -0.0659
  C  C140  1  0.216910  0.783090  0.973000  1.0  -0.0657
  C  C141  1  0.216910  0.716910  0.527000  1.0  -0.0649
  C  C142  1  0.216910  0.216910  0.027000  1.0  -0.0649
  C  C143  1  0.783090  0.716910  0.473000  1.0  -0.0659
  C  C144  1  0.783090  0.216910  0.973000  1.0  -0.0659
  C  C145  1  0.283090  0.216910  0.473000  1.0  -0.0661
  C  C146  1  0.783090  0.283090  0.527000  1.0  -0.0655
  C  C147  1  0.783090  0.783090  0.027000  1.0  -0.0655
  C  C148  1  0.283090  0.283090  0.027000  1.0  -0.0658
  C  C149  1  0.473000  0.216910  0.283090  1.0  -0.067
  C  C150  1  0.973000  0.216910  0.783090  1.0  -0.0668
  C  C151  1  0.527000  0.216910  0.716910  1.0  -0.0671
  C  C152  1  0.027000  0.216910  0.216910  1.0  -0.0671
  C  C153  1  0.473000  0.783090  0.716910  1.0  -0.0673
  C  C154  1  0.473000  0.283090  0.216910  1.0  -0.0675
  C  C155  1  0.973000  0.783090  0.216910  1.0  -0.0673
  C  C156  1  0.527000  0.783090  0.283090  1.0  -0.0663
  C  C157  1  0.027000  0.783090  0.783090  1.0  -0.0663
  C  C158  1  0.027000  0.283090  0.283090  1.0  -0.0665
  C  C159  1  0.473000  0.283090  0.783090  1.0  -0.0666
  C  C160  1  0.973000  0.283090  0.283090  1.0  -0.0666
  C  C161  1  0.527000  0.716910  0.783090  1.0  -0.0663
  C  C162  1  0.527000  0.216910  0.283090  1.0  -0.0663
  C  C163  1  0.027000  0.716910  0.283090  1.0  -0.0672
  C  C164  1  0.473000  0.716910  0.216910  1.0  -0.0663
  C  C165  1  0.973000  0.716910  0.716910  1.0  -0.0663
  C  C166  1  0.973000  0.216910  0.216910  1.0  -0.0663
  C  C167  1  0.527000  0.283090  0.216910  1.0  -0.0671
  C  C168  1  0.027000  0.283090  0.716910  1.0  -0.0671
  C  C169  1  0.283090  0.216910  0.527000  1.0  -0.0651
  C  C170  1  0.283090  0.716910  0.027000  1.0  -0.0651
  C  C171  1  0.716910  0.216910  0.473000  1.0  -0.0651
  C  C172  1  0.716910  0.716910  0.973000  1.0  -0.0651
  C  C173  1  0.216910  0.216910  0.973000  1.0  -0.0651
  C  C174  1  0.716910  0.783090  0.527000  1.0  -0.0655
  C  C175  1  0.716910  0.283090  0.027000  1.0  -0.0655
  C  C176  1  0.216910  0.283090  0.527000  1.0  -0.0655
  C  C177  1  0.283090  0.783090  0.473000  1.0  -0.0653
  C  C178  1  0.283090  0.283090  0.973000  1.0  -0.0653
  C  C179  1  0.216910  0.473000  0.716910  1.0  -0.0653
  C  C180  1  0.216910  0.973000  0.216910  1.0  -0.0653
  C  C181  1  0.216910  0.527000  0.283090  1.0  -0.0648
  C  C182  1  0.216910  0.027000  0.783090  1.0  -0.0648
  C  C183  1  0.783090  0.473000  0.283090  1.0  -0.0652
  C  C184  1  0.783090  0.973000  0.783090  1.0  -0.0652
  C  C185  1  0.283090  0.973000  0.283090  1.0  -0.0652
  C  C186  1  0.783090  0.527000  0.716910  1.0  -0.0665
  C  C187  1  0.783090  0.027000  0.216910  1.0  -0.0665
  C  C188  1  0.283090  0.527000  0.216910  1.0  -0.0665
  C  C189  1  0.716910  0.527000  0.783090  1.0  -0.0648
  C  C190  1  0.716910  0.027000  0.283090  1.0  -0.0648
  C  C191  1  0.283090  0.473000  0.783090  1.0  -0.0652
  C  C192  1  0.283090  0.027000  0.716910  1.0  -0.0665
  C  C193  1  0.716910  0.473000  0.216910  1.0  -0.0653
  C  C194  1  0.716910  0.973000  0.716910  1.0  -0.0653
  C  C195  1  0.783090  0.716910  0.527000  1.0  -0.0651
  C  C196  1  0.783090  0.216910  0.027000  1.0  -0.0651
  C  C197  1  0.783090  0.283090  0.473000  1.0  -0.0653
  C  C198  1  0.783090  0.783090  0.973000  1.0  -0.0653
  C  C199  1  0.216910  0.783090  0.027000  1.0  -0.0655
  C  C200  1  0.216910  0.716910  0.473000  1.0  -0.0651
  C  C201  1  0.527000  0.783090  0.716910  1.0  -0.0671
  C  C202  1  0.027000  0.783090  0.216910  1.0  -0.0671
  C  C203  1  0.473000  0.783090  0.283090  1.0  -0.0666
  C  C204  1  0.973000  0.783090  0.783090  1.0  -0.0666
  C  C205  1  0.027000  0.216910  0.783090  1.0  -0.0663
  C  C206  1  0.473000  0.216910  0.716910  1.0  -0.0663
  C  C207  1  0.527000  0.716910  0.216910  1.0  -0.0673
  C  C208  1  0.027000  0.716910  0.716910  1.0  -0.0667
  C  C209  1  0.973000  0.283090  0.716910  1.0  -0.0675
  C  C210  1  0.527000  0.283090  0.783090  1.0  -0.0667
  C  C211  1  0.473000  0.716910  0.783090  1.0  -0.0672
  C  C212  1  0.973000  0.716910  0.283090  1.0  -0.0672
  C  C213  1  0.716910  0.783090  0.473000  1.0  -0.066
  C  C214  1  0.716910  0.283090  0.973000  1.0  -0.066
  C  C215  1  0.283090  0.783090  0.527000  1.0  -0.0657
  C  C216  1  0.283090  0.716910  0.973000  1.0  -0.066
  C  C217  1  0.716910  0.216910  0.527000  1.0  -0.0652
  C  C218  1  0.716910  0.716910  0.027000  1.0  -0.0646
  C  C219  1  0.783090  0.527000  0.283090  1.0  -0.0654
  C  C220  1  0.783090  0.027000  0.783090  1.0  -0.0654
  C  C221  1  0.783090  0.473000  0.716910  1.0  -0.0668
  C  C222  1  0.783090  0.973000  0.216910  1.0  -0.0668
  C  C223  1  0.216910  0.527000  0.716910  1.0  -0.0658
  C  C224  1  0.216910  0.973000  0.783090  1.0  -0.0661
  C  C225  1  0.250000  0.388300  0.250000  1.0  0.7186
  C  C226  1  0.250000  0.446400  0.250000  1.0  -0.1151
  C  C227  1  0.250000  0.888300  0.750000  1.0  0.7186
  C  C228  1  0.250000  0.946400  0.750000  1.0  -0.1151
  C  C229  1  0.750000  0.611700  0.250000  1.0  0.7202
  C  C230  1  0.750000  0.553600  0.250000  1.0  -0.1163
  C  C231  1  0.750000  0.111700  0.750000  1.0  0.7202
  C  C232  1  0.750000  0.053600  0.750000  1.0  -0.1163
  C  C233  1  0.250000  0.111700  0.250000  1.0  0.7202
  C  C234  1  0.250000  0.053600  0.250000  1.0  -0.1163
  C  C235  1  0.750000  0.388300  0.750000  1.0  0.7186
  C  C236  1  0.750000  0.446400  0.750000  1.0  -0.1151
  C  C237  1  0.750000  0.888300  0.250000  1.0  0.7186
  C  C238  1  0.750000  0.946400  0.250000  1.0  -0.1151
  C  C239  1  0.250000  0.611700  0.750000  1.0  0.7202
  C  C240  1  0.250000  0.553600  0.750000  1.0  -0.1163
  C  C241  1  0.250000  0.250000  0.388300  1.0  0.7224
  C  C242  1  0.250000  0.250000  0.446400  1.0  -0.1171
  C  C243  1  0.250000  0.750000  0.888300  1.0  0.7224
  C  C244  1  0.250000  0.750000  0.946400  1.0  -0.1171
  C  C245  1  0.250000  0.750000  0.611700  1.0  0.7237
  C  C246  1  0.250000  0.750000  0.553600  1.0  -0.1176
  C  C247  1  0.250000  0.250000  0.111700  1.0  0.7237
  C  C248  1  0.250000  0.250000  0.053600  1.0  -0.1176
  C  C249  1  0.750000  0.750000  0.388300  1.0  0.7224
  C  C250  1  0.750000  0.750000  0.446400  1.0  -0.1171
  C  C251  1  0.750000  0.250000  0.888300  1.0  0.7224
  C  C252  1  0.750000  0.250000  0.946400  1.0  -0.1171
  C  C253  1  0.750000  0.250000  0.611700  1.0  0.7237
  C  C254  1  0.750000  0.250000  0.553600  1.0  -0.1176
  C  C255  1  0.750000  0.750000  0.111700  1.0  0.7237
  C  C256  1  0.750000  0.750000  0.053600  1.0  -0.1176
  C  C257  1  0.388300  0.250000  0.250000  1.0  0.7216
  C  C258  1  0.446400  0.250000  0.250000  1.0  -0.117
  C  C259  1  0.888300  0.250000  0.750000  1.0  0.7216
  C  C260  1  0.946400  0.250000  0.750000  1.0  -0.117
  C  C261  1  0.611700  0.250000  0.750000  1.0  0.7201
  C  C262  1  0.553600  0.250000  0.750000  1.0  -0.1171
  C  C263  1  0.111700  0.250000  0.250000  1.0  0.7201
  C  C264  1  0.053600  0.250000  0.250000  1.0  -0.1171
  C  C265  1  0.388300  0.750000  0.750000  1.0  0.7216
  C  C266  1  0.446400  0.750000  0.750000  1.0  -0.117
  C  C267  1  0.888300  0.750000  0.250000  1.0  0.7216
  C  C268  1  0.946400  0.750000  0.250000  1.0  -0.117
  C  C269  1  0.611700  0.750000  0.250000  1.0  0.7201
  C  C270  1  0.553600  0.750000  0.250000  1.0  -0.1171
  C  C271  1  0.111700  0.750000  0.750000  1.0  0.7201
  C  C272  1  0.053600  0.750000  0.750000  1.0  -0.1171
  C  C273  1  0.388300  0.250000  0.750000  1.0  0.7216
  C  C274  1  0.446400  0.250000  0.750000  1.0  -0.117
  C  C275  1  0.888300  0.250000  0.250000  1.0  0.7216
  C  C276  1  0.946400  0.250000  0.250000  1.0  -0.117
  C  C277  1  0.611700  0.750000  0.750000  1.0  0.7201
  C  C278  1  0.553600  0.750000  0.750000  1.0  -0.1171
  C  C279  1  0.611700  0.250000  0.250000  1.0  0.7201
  C  C280  1  0.553600  0.250000  0.250000  1.0  -0.1171
  C  C281  1  0.111700  0.750000  0.250000  1.0  0.7201
  C  C282  1  0.053600  0.750000  0.250000  1.0  -0.1171
  C  C283  1  0.388300  0.750000  0.250000  1.0  0.7216
  C  C284  1  0.446400  0.750000  0.250000  1.0  -0.117
  C  C285  1  0.888300  0.750000  0.750000  1.0  0.7216
  C  C286  1  0.946400  0.750000  0.750000  1.0  -0.117
  C  C287  1  0.111700  0.250000  0.750000  1.0  0.7201
  C  C288  1  0.053600  0.250000  0.750000  1.0  -0.1171
  C  C289  1  0.250000  0.250000  0.611700  1.0  0.7237
  C  C290  1  0.250000  0.250000  0.553600  1.0  -0.1176
  C  C291  1  0.250000  0.750000  0.111700  1.0  0.7237
  C  C292  1  0.250000  0.750000  0.053600  1.0  -0.1176
  C  C293  1  0.750000  0.250000  0.388300  1.0  0.7224
  C  C294  1  0.750000  0.250000  0.446400  1.0  -0.1171
  C  C295  1  0.750000  0.750000  0.888300  1.0  0.7224
  C  C296  1  0.750000  0.750000  0.946400  1.0  -0.1171
  C  C297  1  0.250000  0.250000  0.888300  1.0  0.7224
  C  C298  1  0.250000  0.250000  0.946400  1.0  -0.1171
  C  C299  1  0.750000  0.750000  0.611700  1.0  0.7237
  C  C300  1  0.750000  0.750000  0.553600  1.0  -0.1176
  C  C301  1  0.750000  0.250000  0.111700  1.0  0.7237
  C  C302  1  0.750000  0.250000  0.053600  1.0  -0.1176
  C  C303  1  0.250000  0.750000  0.388300  1.0  0.7224
  C  C304  1  0.250000  0.750000  0.446400  1.0  -0.1171
  C  C305  1  0.250000  0.388300  0.750000  1.0  0.7186
  C  C306  1  0.250000  0.446400  0.750000  1.0  -0.1151
  C  C307  1  0.250000  0.888300  0.250000  1.0  0.7186
  C  C308  1  0.250000  0.946400  0.250000  1.0  -0.1151
  C  C309  1  0.250000  0.611700  0.250000  1.0  0.7202
  C  C310  1  0.250000  0.553600  0.250000  1.0  -0.1163
  C  C311  1  0.250000  0.111700  0.750000  1.0  0.7202
  C  C312  1  0.250000  0.053600  0.750000  1.0  -0.1163
  C  C313  1  0.750000  0.388300  0.250000  1.0  0.7186
  C  C314  1  0.750000  0.446400  0.250000  1.0  -0.1151
  C  C315  1  0.750000  0.888300  0.750000  1.0  0.7186
  C  C316  1  0.750000  0.946400  0.750000  1.0  -0.1151
  C  C317  1  0.750000  0.611700  0.750000  1.0  0.7202
  C  C318  1  0.750000  0.553600  0.750000  1.0  -0.1163
  C  C319  1  0.750000  0.111700  0.250000  1.0  0.7202
  C  C320  1  0.750000  0.053600  0.250000  1.0  -0.1163
  O  O321  1  0.250000  0.250000  0.250000  1.0  -1.2795
  O  O322  1  0.750000  0.750000  0.250000  1.0  -1.2795
  O  O323  1  0.750000  0.250000  0.750000  1.0  -1.2795
  O  O324  1  0.250000  0.750000  0.750000  1.0  -1.2795
  O  O325  1  0.250000  0.250000  0.750000  1.0  -1.2795
  O  O326  1  0.750000  0.750000  0.750000  1.0  -1.2795
  O  O327  1  0.750000  0.250000  0.250000  1.0  -1.2795
  O  O328  1  0.250000  0.750000  0.250000  1.0  -1.2795
  O  O329  1  0.280400  0.366670  0.219600  1.0  -0.6077
  O  O330  1  0.280400  0.866670  0.719600  1.0  -0.6077
  O  O331  1  0.719600  0.633330  0.219600  1.0  -0.6075
  O  O332  1  0.719600  0.133330  0.719600  1.0  -0.6075
  O  O333  1  0.219600  0.133330  0.219600  1.0  -0.6075
  O  O334  1  0.719600  0.366670  0.780400  1.0  -0.6089
  O  O335  1  0.719600  0.866670  0.280400  1.0  -0.6089
  O  O336  1  0.219600  0.366670  0.280400  1.0  -0.6089
  O  O337  1  0.280400  0.633330  0.780400  1.0  -0.6076
  O  O338  1  0.280400  0.133330  0.280400  1.0  -0.6076
  O  O339  1  0.219600  0.280400  0.366670  1.0  -0.6101
  O  O340  1  0.219600  0.780400  0.866670  1.0  -0.6101
  O  O341  1  0.219600  0.719600  0.633330  1.0  -0.6098
  O  O342  1  0.219600  0.219600  0.133330  1.0  -0.6098
  O  O343  1  0.780400  0.719600  0.366670  1.0  -0.6092
  O  O344  1  0.780400  0.219600  0.866670  1.0  -0.6092
  O  O345  1  0.280400  0.219600  0.366670  1.0  -0.6092
  O  O346  1  0.780400  0.280400  0.633330  1.0  -0.6097
  O  O347  1  0.780400  0.780400  0.133330  1.0  -0.6097
  O  O348  1  0.280400  0.280400  0.133330  1.0  -0.6097
  O  O349  1  0.366670  0.219600  0.280400  1.0  -0.6105
  O  O350  1  0.866670  0.219600  0.780400  1.0  -0.6105
  O  O351  1  0.633330  0.219600  0.719600  1.0  -0.6091
  O  O352  1  0.133330  0.219600  0.219600  1.0  -0.6091
  O  O353  1  0.366670  0.780400  0.719600  1.0  -0.61
  O  O354  1  0.366670  0.280400  0.219600  1.0  -0.61
  O  O355  1  0.866670  0.780400  0.219600  1.0  -0.61
  O  O356  1  0.633330  0.780400  0.280400  1.0  -0.61
  O  O357  1  0.133330  0.780400  0.780400  1.0  -0.61
  O  O358  1  0.133330  0.280400  0.280400  1.0  -0.61
  O  O359  1  0.366670  0.280400  0.780400  1.0  -0.6105
  O  O360  1  0.866670  0.280400  0.280400  1.0  -0.6105
  O  O361  1  0.633330  0.719600  0.780400  1.0  -0.6095
  O  O362  1  0.633330  0.219600  0.280400  1.0  -0.6095
  O  O363  1  0.133330  0.719600  0.280400  1.0  -0.6095
  O  O364  1  0.366670  0.719600  0.219600  1.0  -0.6099
  O  O365  1  0.866670  0.719600  0.719600  1.0  -0.6099
  O  O366  1  0.866670  0.219600  0.219600  1.0  -0.6099
  O  O367  1  0.633330  0.280400  0.219600  1.0  -0.6095
  O  O368  1  0.133330  0.280400  0.719600  1.0  -0.6095
  O  O369  1  0.280400  0.219600  0.633330  1.0  -0.6092
  O  O370  1  0.280400  0.719600  0.133330  1.0  -0.6092
  O  O371  1  0.719600  0.219600  0.366670  1.0  -0.6096
  O  O372  1  0.719600  0.719600  0.866670  1.0  -0.6096
  O  O373  1  0.219600  0.219600  0.866670  1.0  -0.6096
  O  O374  1  0.719600  0.780400  0.633330  1.0  -0.6098
  O  O375  1  0.719600  0.280400  0.133330  1.0  -0.6098
  O  O376  1  0.219600  0.280400  0.633330  1.0  -0.6098
  O  O377  1  0.280400  0.780400  0.366670  1.0  -0.61
  O  O378  1  0.280400  0.280400  0.866670  1.0  -0.61
  O  O379  1  0.219600  0.366670  0.719600  1.0  -0.6076
  O  O380  1  0.219600  0.866670  0.219600  1.0  -0.6076
  O  O381  1  0.219600  0.633330  0.280400  1.0  -0.6079
  O  O382  1  0.219600  0.133330  0.780400  1.0  -0.6079
  O  O383  1  0.780400  0.366670  0.280400  1.0  -0.6085
  O  O384  1  0.780400  0.866670  0.780400  1.0  -0.6085
  O  O385  1  0.280400  0.866670  0.280400  1.0  -0.6085
  O  O386  1  0.780400  0.633330  0.719600  1.0  -0.6074
  O  O387  1  0.780400  0.133330  0.219600  1.0  -0.6074
  O  O388  1  0.280400  0.633330  0.219600  1.0  -0.6074
  O  O389  1  0.719600  0.633330  0.780400  1.0  -0.6079
  O  O390  1  0.719600  0.133330  0.280400  1.0  -0.6079
  O  O391  1  0.280400  0.366670  0.780400  1.0  -0.6085
  O  O392  1  0.280400  0.133330  0.719600  1.0  -0.6074
  O  O393  1  0.719600  0.366670  0.219600  1.0  -0.6076
  O  O394  1  0.719600  0.866670  0.719600  1.0  -0.6076
  O  O395  1  0.780400  0.719600  0.633330  1.0  -0.6092
  O  O396  1  0.780400  0.219600  0.133330  1.0  -0.6092
  O  O397  1  0.780400  0.280400  0.366670  1.0  -0.61
  O  O398  1  0.780400  0.780400  0.866670  1.0  -0.61
  O  O399  1  0.219600  0.780400  0.133330  1.0  -0.6098
  O  O400  1  0.219600  0.719600  0.366670  1.0  -0.6096
  O  O401  1  0.633330  0.780400  0.719600  1.0  -0.6095
  O  O402  1  0.133330  0.780400  0.219600  1.0  -0.6095
  O  O403  1  0.366670  0.780400  0.280400  1.0  -0.6105
  O  O404  1  0.866670  0.780400  0.780400  1.0  -0.6105
  O  O405  1  0.133330  0.219600  0.780400  1.0  -0.6095
  O  O406  1  0.366670  0.219600  0.719600  1.0  -0.6099
  O  O407  1  0.633330  0.719600  0.219600  1.0  -0.6091
  O  O408  1  0.133330  0.719600  0.719600  1.0  -0.6091
  O  O409  1  0.866670  0.280400  0.719600  1.0  -0.61
  O  O410  1  0.633330  0.280400  0.780400  1.0  -0.61
  O  O411  1  0.366670  0.719600  0.780400  1.0  -0.6105
  O  O412  1  0.866670  0.719600  0.280400  1.0  -0.6105
  O  O413  1  0.719600  0.780400  0.366670  1.0  -0.6101
  O  O414  1  0.719600  0.280400  0.866670  1.0  -0.6101
  O  O415  1  0.280400  0.780400  0.633330  1.0  -0.6097
  O  O416  1  0.280400  0.719600  0.866670  1.0  -0.6092
  O  O417  1  0.719600  0.219600  0.633330  1.0  -0.6098
  O  O418  1  0.719600  0.719600  0.133330  1.0  -0.6098
  O  O419  1  0.780400  0.633330  0.280400  1.0  -0.6076
  O  O420  1  0.780400  0.133330  0.780400  1.0  -0.6076
  O  O421  1  0.780400  0.366670  0.719600  1.0  -0.6077
  O  O422  1  0.780400  0.866670  0.219600  1.0  -0.6077
  O  O423  1  0.219600  0.633330  0.719600  1.0  -0.6075
  O  O424  1  0.219600  0.866670  0.780400  1.0  -0.6089
