# generated using pymatgen
data_CdH2C8S(NO2)2
_symmetry_space_group_name_H-M   'P 1'
_cell_length_a   19.67600000
_cell_length_b   19.67600000
_cell_length_c   19.30000000
_cell_angle_alpha   90.00000000
_cell_angle_beta   90.00000000
_cell_angle_gamma   120.00000000
_symmetry_Int_Tables_number   1
_chemical_formula_structural   CdH2C8S(NO2)2
_chemical_formula_sum   'Cd18 H36 C144 S18 N36 O72'
_cell_volume   6470.85351436
_cell_formula_units_Z   18
loop_
 _symmetry_equiv_pos_site_id
 _symmetry_equiv_pos_as_xyz
  1  'x, y, z'
loop_
 _atom_site_type_symbol
 _atom_site_label
 _atom_site_symmetry_multiplicity
 _atom_site_fract_x
 _atom_site_fract_y
 _atom_site_fract_z
 _atom_site_occupancy
 _atom_site_charge
  Cd  Cd1  1  0.110080  0.127010  0.586470  1.0  1.1015
  Cd  Cd2  1  0.776750  0.460340  0.919800  1.0  1.1012
  Cd  Cd3  1  0.443410  0.793680  0.253140  1.0  1.1013
  Cd  Cd4  1  0.872990  0.983070  0.586470  1.0  1.1006
  Cd  Cd5  1  0.539660  0.316400  0.919800  1.0  1.1006
  Cd  Cd6  1  0.206320  0.649740  0.253140  1.0  1.1006
  Cd  Cd7  1  0.016930  0.889920  0.586470  1.0  1.1025
  Cd  Cd8  1  0.683600  0.223250  0.919800  1.0  1.1025
  Cd  Cd9  1  0.350260  0.556590  0.253140  1.0  1.1028
  Cd  Cd10  1  0.889920  0.872990  0.413530  1.0  1.1007
  Cd  Cd11  1  0.556590  0.206320  0.746860  1.0  1.1005
  Cd  Cd12  1  0.223250  0.539660  0.080200  1.0  1.1005
  Cd  Cd13  1  0.127010  0.016930  0.413530  1.0  1.1019
  Cd  Cd14  1  0.793680  0.350260  0.746860  1.0  1.1019
  Cd  Cd15  1  0.460340  0.683600  0.080200  1.0  1.1019
  Cd  Cd16  1  0.983070  0.110080  0.413530  1.0  1.1024
  Cd  Cd17  1  0.649740  0.443410  0.746860  1.0  1.1026
  Cd  Cd18  1  0.316400  0.776750  0.080200  1.0  1.1024
  H  H19  1  0.247200  0.984200  0.743600  1.0  0.1412
  H  H20  1  0.353900  0.072100  0.809700  1.0  0.1313
  H  H21  1  0.913870  0.317530  0.076930  1.0  0.1412
  H  H22  1  0.020570  0.405430  0.143030  1.0  0.1313
  H  H23  1  0.580530  0.650870  0.410270  1.0  0.1412
  H  H24  1  0.687230  0.738770  0.476370  1.0  0.1313
  H  H25  1  0.015800  0.263000  0.743600  1.0  0.1416
  H  H26  1  0.927900  0.281800  0.809700  1.0  0.1306
  H  H27  1  0.682470  0.596330  0.076930  1.0  0.1416
  H  H28  1  0.594570  0.615130  0.143030  1.0  0.1306
  H  H29  1  0.349130  0.929670  0.410270  1.0  0.1416
  H  H30  1  0.261230  0.948470  0.476370  1.0  0.1306
  H  H31  1  0.737000  0.752800  0.743600  1.0  0.1405
  H  H32  1  0.718200  0.646100  0.809700  1.0  0.1313
  H  H33  1  0.403670  0.086130  0.076930  1.0  0.1405
  H  H34  1  0.384870  0.979430  0.143030  1.0  0.1313
  H  H35  1  0.070330  0.419470  0.410270  1.0  0.1405
  H  H36  1  0.051530  0.312770  0.476370  1.0  0.1313
  H  H37  1  0.752800  0.015800  0.256400  1.0  0.1407
  H  H38  1  0.646100  0.927900  0.190300  1.0  0.1317
  H  H39  1  0.419470  0.349130  0.589730  1.0  0.1407
  H  H40  1  0.312770  0.261230  0.523630  1.0  0.1317
  H  H41  1  0.086130  0.682470  0.923070  1.0  0.1407
  H  H42  1  0.979430  0.594570  0.856970  1.0  0.1317
  H  H43  1  0.984200  0.737000  0.256400  1.0  0.1413
  H  H44  1  0.072100  0.718200  0.190300  1.0  0.1316
  H  H45  1  0.650870  0.070330  0.589730  1.0  0.1413
  H  H46  1  0.738770  0.051530  0.523630  1.0  0.1316
  H  H47  1  0.317530  0.403670  0.923070  1.0  0.1413
  H  H48  1  0.405430  0.384870  0.856970  1.0  0.1316
  H  H49  1  0.263000  0.247200  0.256400  1.0  0.141
  H  H50  1  0.281800  0.353900  0.190300  1.0  0.1312
  H  H51  1  0.929670  0.580530  0.589730  1.0  0.141
  H  H52  1  0.948470  0.687230  0.523630  1.0  0.1312
  H  H53  1  0.596330  0.913870  0.923070  1.0  0.141
  H  H54  1  0.615130  0.020570  0.856970  1.0  0.1312
  C  C55  1  0.148200  0.997400  0.664800  1.0  0.7341
  C  C56  1  0.216000  0.058900  0.706180  1.0  -0.0989
  C  C57  1  0.260100  0.036500  0.744500  1.0  -0.0027
  C  C58  1  0.324800  0.090000  0.785800  1.0  -0.0677
  C  C59  1  0.345200  0.166900  0.791020  1.0  -0.0169
  C  C60  1  0.300300  0.192700  0.753480  1.0  0.1919
  C  C61  1  0.236610  0.139010  0.710280  1.0  0.194
  C  C62  1  0.412270  0.222520  0.836190  1.0  0.7534
  C  C63  1  0.814870  0.330730  0.998130  1.0  0.7341
  C  C64  1  0.882670  0.392230  0.039510  1.0  -0.0989
  C  C65  1  0.926770  0.369830  0.077830  1.0  -0.0027
  C  C66  1  0.991470  0.423330  0.119130  1.0  -0.0677
  C  C67  1  0.011870  0.500230  0.124350  1.0  -0.0169
  C  C68  1  0.966970  0.526030  0.086810  1.0  0.192
  C  C69  1  0.903280  0.472340  0.043610  1.0  0.194
  C  C70  1  0.078940  0.555850  0.169520  1.0  0.7534
  C  C71  1  0.481530  0.664070  0.331470  1.0  0.7341
  C  C72  1  0.549330  0.725570  0.372850  1.0  -0.0989
  C  C73  1  0.593430  0.703170  0.411170  1.0  -0.0027
  C  C74  1  0.658130  0.756670  0.452470  1.0  -0.0677
  C  C75  1  0.678530  0.833570  0.457690  1.0  -0.0169
  C  C76  1  0.633630  0.859370  0.420150  1.0  0.1919
  C  C77  1  0.569940  0.805680  0.376950  1.0  0.194
  C  C78  1  0.745600  0.889190  0.502860  1.0  0.7534
  C  C79  1  0.002600  0.150800  0.664800  1.0  0.7344
  C  C80  1  0.941100  0.157100  0.706180  1.0  -0.0963
  C  C81  1  0.963500  0.223600  0.744500  1.0  -0.0017
  C  C82  1  0.910000  0.234800  0.785800  1.0  -0.0621
  C  C83  1  0.833100  0.178300  0.791020  1.0  -0.0168
  C  C84  1  0.807300  0.107600  0.753480  1.0  0.1879
  C  C85  1  0.860990  0.097600  0.710280  1.0  0.1931
  C  C86  1  0.777480  0.189750  0.836190  1.0  0.7519
  C  C87  1  0.669270  0.484130  0.998130  1.0  0.7344
  C  C88  1  0.607770  0.490430  0.039510  1.0  -0.0962
  C  C89  1  0.630170  0.556930  0.077830  1.0  -0.0017
  C  C90  1  0.576670  0.568130  0.119130  1.0  -0.0621
  C  C91  1  0.499770  0.511630  0.124350  1.0  -0.0168
  C  C92  1  0.473970  0.440930  0.086810  1.0  0.1879
  C  C93  1  0.527660  0.430930  0.043610  1.0  0.1931
  C  C94  1  0.444150  0.523080  0.169520  1.0  0.7519
  C  C95  1  0.335930  0.817470  0.331470  1.0  0.7344
  C  C96  1  0.274430  0.823770  0.372850  1.0  -0.0963
  C  C97  1  0.296830  0.890270  0.411170  1.0  -0.0017
  C  C98  1  0.243330  0.901470  0.452470  1.0  -0.0621
  C  C99  1  0.166430  0.844970  0.457690  1.0  -0.0168
  C  C100  1  0.140630  0.774270  0.420150  1.0  0.188
  C  C101  1  0.194320  0.764270  0.376950  1.0  0.1931
  C  C102  1  0.110810  0.856420  0.502860  1.0  0.7518
  C  C103  1  0.849200  0.851800  0.664800  1.0  0.7323
  C  C104  1  0.842900  0.784000  0.706180  1.0  -0.0965
  C  C105  1  0.776400  0.739900  0.744500  1.0  -0.002
  C  C106  1  0.765200  0.675200  0.785800  1.0  -0.0669
  C  C107  1  0.821700  0.654800  0.791020  1.0  -0.0166
  C  C108  1  0.892400  0.699700  0.753480  1.0  0.1913
  C  C109  1  0.902400  0.763390  0.710280  1.0  0.1915
  C  C110  1  0.810250  0.587730  0.836190  1.0  0.7549
  C  C111  1  0.515870  0.185130  0.998130  1.0  0.7323
  C  C112  1  0.509570  0.117330  0.039510  1.0  -0.0964
  C  C113  1  0.443070  0.073230  0.077830  1.0  -0.0021
  C  C114  1  0.431870  0.008530  0.119130  1.0  -0.0669
  C  C115  1  0.488370  0.988130  0.124350  1.0  -0.0167
  C  C116  1  0.559070  0.033030  0.086810  1.0  0.1914
  C  C117  1  0.569070  0.096720  0.043610  1.0  0.1916
  C  C118  1  0.476920  0.921060  0.169520  1.0  0.7547
  C  C119  1  0.182530  0.518470  0.331470  1.0  0.7323
  C  C120  1  0.176230  0.450670  0.372850  1.0  -0.0965
  C  C121  1  0.109730  0.406570  0.411170  1.0  -0.002
  C  C122  1  0.098530  0.341870  0.452470  1.0  -0.0669
  C  C123  1  0.155030  0.321470  0.457690  1.0  -0.0166
  C  C124  1  0.225730  0.366370  0.420150  1.0  0.1912
  C  C125  1  0.235730  0.430060  0.376950  1.0  0.1913
  C  C126  1  0.143580  0.254400  0.502860  1.0  0.7549
  C  C127  1  0.851800  0.002600  0.335200  1.0  0.7344
  C  C128  1  0.784000  0.941100  0.293820  1.0  -0.0982
  C  C129  1  0.739900  0.963500  0.255500  1.0  -0.0046
  C  C130  1  0.675200  0.910000  0.214200  1.0  -0.0686
  C  C131  1  0.654800  0.833100  0.208980  1.0  -0.018
  C  C132  1  0.699700  0.807300  0.246520  1.0  0.1918
  C  C133  1  0.763390  0.860990  0.289720  1.0  0.194
  C  C134  1  0.587730  0.777480  0.163810  1.0  0.7535
  C  C135  1  0.518470  0.335930  0.668530  1.0  0.7344
  C  C136  1  0.450670  0.274430  0.627150  1.0  -0.0981
  C  C137  1  0.406570  0.296830  0.588830  1.0  -0.0046
  C  C138  1  0.341870  0.243330  0.547530  1.0  -0.0686
  C  C139  1  0.321470  0.166430  0.542310  1.0  -0.018
  C  C140  1  0.366370  0.140630  0.579850  1.0  0.1919
  C  C141  1  0.430060  0.194320  0.623050  1.0  0.194
  C  C142  1  0.254400  0.110810  0.497140  1.0  0.7534
  C  C143  1  0.185130  0.669270  0.001870  1.0  0.7344
  C  C144  1  0.117330  0.607770  0.960490  1.0  -0.0982
  C  C145  1  0.073230  0.630170  0.922170  1.0  -0.0046
  C  C146  1  0.008530  0.576670  0.880870  1.0  -0.0686
  C  C147  1  0.988130  0.499770  0.875650  1.0  -0.018
  C  C148  1  0.033030  0.473970  0.913190  1.0  0.1919
  C  C149  1  0.096720  0.527660  0.956390  1.0  0.194
  C  C150  1  0.921060  0.444150  0.830480  1.0  0.7535
  C  C151  1  0.997400  0.849200  0.335200  1.0  0.7328
  C  C152  1  0.058900  0.842900  0.293820  1.0  -0.0954
  C  C153  1  0.036500  0.776400  0.255500  1.0  -0.0033
  C  C154  1  0.090000  0.765200  0.214200  1.0  -0.0634
  C  C155  1  0.166900  0.821700  0.208980  1.0  -0.018
  C  C156  1  0.192700  0.892400  0.246520  1.0  0.1889
  C  C157  1  0.139010  0.902400  0.289720  1.0  0.1886
  C  C158  1  0.222520  0.810250  0.163810  1.0  0.7506
  C  C159  1  0.664070  0.182530  0.668530  1.0  0.7328
  C  C160  1  0.725570  0.176230  0.627150  1.0  -0.0954
  C  C161  1  0.703170  0.109730  0.588830  1.0  -0.0033
  C  C162  1  0.756670  0.098530  0.547530  1.0  -0.0634
  C  C163  1  0.833570  0.155030  0.542310  1.0  -0.018
  C  C164  1  0.859370  0.225730  0.579850  1.0  0.189
  C  C165  1  0.805680  0.235730  0.623050  1.0  0.1886
  C  C166  1  0.889190  0.143580  0.497140  1.0  0.7506
  C  C167  1  0.330730  0.515870  0.001870  1.0  0.7328
  C  C168  1  0.392230  0.509570  0.960490  1.0  -0.0954
  C  C169  1  0.369830  0.443070  0.922170  1.0  -0.0033
  C  C170  1  0.423330  0.431870  0.880870  1.0  -0.0634
  C  C171  1  0.500230  0.488370  0.875650  1.0  -0.018
  C  C172  1  0.526030  0.559070  0.913190  1.0  0.1889
  C  C173  1  0.472340  0.569070  0.956390  1.0  0.1886
  C  C174  1  0.555850  0.476920  0.830480  1.0  0.7506
  C  C175  1  0.150800  0.148200  0.335200  1.0  0.7345
  C  C176  1  0.157100  0.216000  0.293820  1.0  -0.0977
  C  C177  1  0.223600  0.260100  0.255500  1.0  -0.0024
  C  C178  1  0.234800  0.324800  0.214200  1.0  -0.0673
  C  C179  1  0.178300  0.345200  0.208980  1.0  -0.0172
  C  C180  1  0.107600  0.300300  0.246520  1.0  0.1883
  C  C181  1  0.097600  0.236610  0.289720  1.0  0.1908
  C  C182  1  0.189750  0.412270  0.163810  1.0  0.7537
  C  C183  1  0.817470  0.481530  0.668530  1.0  0.7345
  C  C184  1  0.823770  0.549330  0.627150  1.0  -0.0977
  C  C185  1  0.890270  0.593430  0.588830  1.0  -0.0024
  C  C186  1  0.901470  0.658130  0.547530  1.0  -0.0673
  C  C187  1  0.844970  0.678530  0.542310  1.0  -0.0172
  C  C188  1  0.774270  0.633630  0.579850  1.0  0.1883
  C  C189  1  0.764270  0.569940  0.623050  1.0  0.1906
  C  C190  1  0.856420  0.745600  0.497140  1.0  0.7537
  C  C191  1  0.484130  0.814870  0.001870  1.0  0.7345
  C  C192  1  0.490430  0.882670  0.960490  1.0  -0.0978
  C  C193  1  0.556930  0.926770  0.922170  1.0  -0.0024
  C  C194  1  0.568130  0.991470  0.880870  1.0  -0.0673
  C  C195  1  0.511630  0.011870  0.875650  1.0  -0.0172
  C  C196  1  0.440930  0.966970  0.913190  1.0  0.1885
  C  C197  1  0.430930  0.903280  0.956390  1.0  0.1908
  C  C198  1  0.523080  0.078940  0.830480  1.0  0.7536
  S  S199  1  0.247430  0.265540  0.700890  1.0  0.1101
  S  S200  1  0.914100  0.598870  0.034220  1.0  0.1101
  S  S201  1  0.580760  0.932210  0.367560  1.0  0.1101
  S  S202  1  0.734460  0.981890  0.700890  1.0  0.1147
  S  S203  1  0.401130  0.315220  0.034220  1.0  0.1147
  S  S204  1  0.067790  0.648560  0.367560  1.0  0.1147
  S  S205  1  0.018110  0.752570  0.700890  1.0  0.1085
  S  S206  1  0.684780  0.085900  0.034220  1.0  0.1085
  S  S207  1  0.351440  0.419240  0.367560  1.0  0.1084
  S  S208  1  0.752570  0.734460  0.299110  1.0  0.1107
  S  S209  1  0.419240  0.067790  0.632440  1.0  0.1108
  S  S210  1  0.085900  0.401130  0.965780  1.0  0.1107
  S  S211  1  0.265540  0.018110  0.299110  1.0  0.1112
  S  S212  1  0.932210  0.351440  0.632440  1.0  0.1112
  S  S213  1  0.598870  0.684780  0.965780  1.0  0.1112
  S  S214  1  0.981890  0.247430  0.299110  1.0  0.1117
  S  S215  1  0.648560  0.580760  0.632440  1.0  0.1116
  S  S216  1  0.315220  0.914100  0.965780  1.0  0.1117
  N  N217  1  0.202810  0.174580  0.676790  1.0  -0.3587
  N  N218  1  0.311600  0.266150  0.752470  1.0  -0.271
  N  N219  1  0.869480  0.507910  0.010120  1.0  -0.3587
  N  N220  1  0.978270  0.599480  0.085800  1.0  -0.271
  N  N221  1  0.536140  0.841250  0.343460  1.0  -0.3588
  N  N222  1  0.644930  0.932820  0.419140  1.0  -0.271
  N  N223  1  0.825420  0.028230  0.676790  1.0  -0.3604
  N  N224  1  0.733850  0.045450  0.752470  1.0  -0.2678
  N  N225  1  0.492090  0.361560  0.010120  1.0  -0.3604
  N  N226  1  0.400520  0.378780  0.085800  1.0  -0.2676
  N  N227  1  0.158750  0.694900  0.343460  1.0  -0.3603
  N  N228  1  0.067180  0.712120  0.419140  1.0  -0.2678
  N  N229  1  0.971770  0.797190  0.676790  1.0  -0.3592
  N  N230  1  0.954550  0.688400  0.752470  1.0  -0.2693
  N  N231  1  0.638440  0.130520  0.010120  1.0  -0.3592
  N  N232  1  0.621220  0.021730  0.085800  1.0  -0.2693
  N  N233  1  0.305100  0.463860  0.343460  1.0  -0.3592
  N  N234  1  0.287880  0.355070  0.419140  1.0  -0.2693
  N  N235  1  0.797190  0.825420  0.323210  1.0  -0.3581
  N  N236  1  0.688400  0.733850  0.247530  1.0  -0.2703
  N  N237  1  0.463860  0.158750  0.656540  1.0  -0.3582
  N  N238  1  0.355070  0.067180  0.580860  1.0  -0.2704
  N  N239  1  0.130520  0.492090  0.989880  1.0  -0.3582
  N  N240  1  0.021730  0.400520  0.914200  1.0  -0.2704
  N  N241  1  0.174580  0.971770  0.323210  1.0  -0.3611
  N  N242  1  0.266150  0.954550  0.247530  1.0  -0.2679
  N  N243  1  0.841250  0.305100  0.656540  1.0  -0.3612
  N  N244  1  0.932820  0.287880  0.580860  1.0  -0.2679
  N  N245  1  0.507910  0.638440  0.989880  1.0  -0.3611
  N  N246  1  0.599480  0.621220  0.914200  1.0  -0.2679
  N  N247  1  0.028230  0.202810  0.323210  1.0  -0.3607
  N  N248  1  0.045450  0.311600  0.247530  1.0  -0.2658
  N  N249  1  0.694900  0.536140  0.656540  1.0  -0.3607
  N  N250  1  0.712120  0.644930  0.580860  1.0  -0.2657
  N  N251  1  0.361560  0.869480  0.989880  1.0  -0.3607
  N  N252  1  0.378780  0.978270  0.914200  1.0  -0.2658
  O  O253  1  0.100110  0.014300  0.636000  1.0  -0.7198
  O  O254  1  0.139610  0.930820  0.659980  1.0  -0.5719
  O  O255  1  0.400300  0.260780  0.880800  1.0  -0.6114
  O  O256  1  0.478750  0.227200  0.828710  1.0  -0.639
  O  O257  1  0.766780  0.347630  0.969330  1.0  -0.7198
  O  O258  1  0.806280  0.264150  0.993310  1.0  -0.5719
  O  O259  1  0.066970  0.594110  0.214130  1.0  -0.6114
  O  O260  1  0.145420  0.560530  0.162040  1.0  -0.6391
  O  O261  1  0.433440  0.680970  0.302670  1.0  -0.7198
  O  O262  1  0.472940  0.597490  0.326650  1.0  -0.572
  O  O263  1  0.733630  0.927450  0.547470  1.0  -0.6114
  O  O264  1  0.812080  0.893870  0.495380  1.0  -0.6391
  O  O265  1  0.985700  0.085810  0.636000  1.0  -0.7169
  O  O266  1  0.069180  0.208790  0.659980  1.0  -0.5724
  O  O267  1  0.739220  0.139520  0.880800  1.0  -0.6146
  O  O268  1  0.772800  0.251550  0.828710  1.0  -0.6406
  O  O269  1  0.652370  0.419140  0.969330  1.0  -0.7169
  O  O270  1  0.735850  0.542120  0.993310  1.0  -0.5724
  O  O271  1  0.405890  0.472850  0.214130  1.0  -0.6146
  O  O272  1  0.439470  0.584880  0.162040  1.0  -0.6405
  O  O273  1  0.319030  0.752480  0.302670  1.0  -0.7169
  O  O274  1  0.402510  0.875460  0.326650  1.0  -0.5724
  O  O275  1  0.072550  0.806190  0.547470  1.0  -0.6146
  O  O276  1  0.106130  0.918220  0.495380  1.0  -0.6406
  O  O277  1  0.914190  0.899890  0.636000  1.0  -0.7175
  O  O278  1  0.791210  0.860390  0.659980  1.0  -0.5798
  O  O279  1  0.860480  0.599700  0.880800  1.0  -0.6059
  O  O280  1  0.748450  0.521250  0.828710  1.0  -0.6405
  O  O281  1  0.580860  0.233220  0.969330  1.0  -0.7175
  O  O282  1  0.457880  0.193720  0.993310  1.0  -0.5798
  O  O283  1  0.527150  0.933030  0.214130  1.0  -0.6059
  O  O284  1  0.415120  0.854580  0.162040  1.0  -0.6406
  O  O285  1  0.247520  0.566560  0.302670  1.0  -0.7175
  O  O286  1  0.124540  0.527060  0.326650  1.0  -0.5798
  O  O287  1  0.193810  0.266370  0.547470  1.0  -0.6059
  O  O288  1  0.081780  0.187920  0.495380  1.0  -0.6405
  O  O289  1  0.899890  0.985700  0.364000  1.0  -0.7146
  O  O290  1  0.860390  0.069180  0.340020  1.0  -0.57
  O  O291  1  0.599700  0.739220  0.119200  1.0  -0.6115
  O  O292  1  0.521250  0.772800  0.171290  1.0  -0.6395
  O  O293  1  0.566560  0.319030  0.697330  1.0  -0.7146
  O  O294  1  0.527060  0.402510  0.673350  1.0  -0.57
  O  O295  1  0.266370  0.072550  0.452530  1.0  -0.6115
  O  O296  1  0.187920  0.106130  0.504620  1.0  -0.6395
  O  O297  1  0.233220  0.652370  0.030670  1.0  -0.7146
  O  O298  1  0.193720  0.735850  0.006690  1.0  -0.57
  O  O299  1  0.933030  0.405890  0.785870  1.0  -0.6115
  O  O300  1  0.854580  0.439470  0.837960  1.0  -0.6395
  O  O301  1  0.014300  0.914190  0.364000  1.0  -0.7177
  O  O302  1  0.930820  0.791210  0.340020  1.0  -0.5744
  O  O303  1  0.260780  0.860480  0.119200  1.0  -0.6148
  O  O304  1  0.227200  0.748450  0.171290  1.0  -0.6384
  O  O305  1  0.680970  0.247520  0.697330  1.0  -0.7177
  O  O306  1  0.597490  0.124540  0.673350  1.0  -0.5745
  O  O307  1  0.927450  0.193810  0.452530  1.0  -0.6148
  O  O308  1  0.893870  0.081780  0.504620  1.0  -0.6384
  O  O309  1  0.347630  0.580860  0.030670  1.0  -0.7177
  O  O310  1  0.264150  0.457880  0.006690  1.0  -0.5744
  O  O311  1  0.594110  0.527150  0.785870  1.0  -0.6148
  O  O312  1  0.560530  0.415120  0.837960  1.0  -0.6384
  O  O313  1  0.085810  0.100110  0.364000  1.0  -0.7173
  O  O314  1  0.208790  0.139610  0.340020  1.0  -0.5796
  O  O315  1  0.139520  0.400300  0.119200  1.0  -0.607
  O  O316  1  0.251550  0.478750  0.171290  1.0  -0.6382
  O  O317  1  0.752480  0.433440  0.697330  1.0  -0.7173
  O  O318  1  0.875460  0.472940  0.673350  1.0  -0.5796
  O  O319  1  0.806190  0.733630  0.452530  1.0  -0.607
  O  O320  1  0.918220  0.812080  0.504620  1.0  -0.6382
  O  O321  1  0.419140  0.766780  0.030670  1.0  -0.7173
  O  O322  1  0.542120  0.806280  0.006690  1.0  -0.5796
  O  O323  1  0.472850  0.066970  0.785870  1.0  -0.607
  O  O324  1  0.584880  0.145420  0.837960  1.0  -0.6382
