# generated using pymatgen
data_CdH2C8S(NO2)2
_symmetry_space_group_name_H-M   'P 1'
_cell_length_a   19.37700000
_cell_length_b   19.37700000
_cell_length_c   19.81000000
_cell_angle_alpha   90.00000000
_cell_angle_beta   90.00000000
_cell_angle_gamma   120.00000000
_symmetry_Int_Tables_number   1
_chemical_formula_structural   CdH2C8S(NO2)2
_chemical_formula_sum   'Cd18 H36 C144 S18 N36 O72'
_cell_volume   6441.51742228
_cell_formula_units_Z   18
loop_
 _symmetry_equiv_pos_site_id
 _symmetry_equiv_pos_as_xyz
  1  'x, y, z'
loop_
 _atom_site_type_symbol
 _atom_site_label
 _atom_site_symmetry_multiplicity
 _atom_site_fract_x
 _atom_site_fract_y
 _atom_site_fract_z
 _atom_site_occupancy
 _atom_site_charge
  Cd  Cd1  1  0.317040  0.778620  0.582150  1.0  1.097
  Cd  Cd2  1  0.983710  0.111950  0.915480  1.0  1.0966
  Cd  Cd3  1  0.650370  0.445290  0.248820  1.0  1.097
  Cd  Cd4  1  0.221380  0.538420  0.582150  1.0  1.0955
  Cd  Cd5  1  0.888050  0.871750  0.915480  1.0  1.0955
  Cd  Cd6  1  0.554710  0.205090  0.248820  1.0  1.0955
  Cd  Cd7  1  0.461580  0.682960  0.582150  1.0  1.0955
  Cd  Cd8  1  0.128250  0.016290  0.915480  1.0  1.0966
  Cd  Cd9  1  0.794910  0.349630  0.248820  1.0  1.0955
  Cd  Cd10  1  0.682960  0.221380  0.417850  1.0  1.0979
  Cd  Cd11  1  0.349630  0.554710  0.751180  1.0  1.0979
  Cd  Cd12  1  0.016290  0.888050  0.084520  1.0  1.0975
  Cd  Cd13  1  0.778620  0.461580  0.417850  1.0  1.0966
  Cd  Cd14  1  0.445290  0.794910  0.751180  1.0  1.0966
  Cd  Cd15  1  0.111950  0.128250  0.084520  1.0  1.0966
  Cd  Cd16  1  0.538420  0.317040  0.417850  1.0  1.0952
  Cd  Cd17  1  0.205090  0.650370  0.751180  1.0  1.0952
  Cd  Cd18  1  0.871750  0.983710  0.084520  1.0  1.0963
  H  H19  1  0.597700  0.912300  0.424500  1.0  0.1387
  H  H20  1  0.613300  0.015500  0.354600  1.0  0.1242
  H  H21  1  0.264370  0.245630  0.757830  1.0  0.1387
  H  H22  1  0.279970  0.348830  0.687930  1.0  0.1242
  H  H23  1  0.931030  0.578970  0.091170  1.0  0.1387
  H  H24  1  0.946630  0.682170  0.021270  1.0  0.1242
  H  H25  1  0.087700  0.685400  0.424500  1.0  0.1386
  H  H26  1  0.984500  0.597800  0.354600  1.0  0.1245
  H  H27  1  0.754370  0.018730  0.757830  1.0  0.1386
  H  H28  1  0.651170  0.931130  0.687930  1.0  0.1245
  H  H29  1  0.421030  0.352070  0.091170  1.0  0.1386
  H  H30  1  0.317830  0.264470  0.021270  1.0  0.1245
  H  H31  1  0.314600  0.402300  0.424500  1.0  0.1393
  H  H32  1  0.402200  0.386700  0.354600  1.0  0.1248
  H  H33  1  0.981270  0.735630  0.757830  1.0  0.1393
  H  H34  1  0.068870  0.720030  0.687930  1.0  0.1248
  H  H35  1  0.647930  0.068970  0.091170  1.0  0.1393
  H  H36  1  0.735530  0.053370  0.021270  1.0  0.1248
  H  H37  1  0.402300  0.087700  0.575500  1.0  0.1379
  H  H38  1  0.386700  0.984500  0.645400  1.0  0.1247
  H  H39  1  0.068970  0.421030  0.908830  1.0  0.1379
  H  H40  1  0.053370  0.317830  0.978730  1.0  0.1247
  H  H41  1  0.735630  0.754370  0.242170  1.0  0.1379
  H  H42  1  0.720030  0.651170  0.312070  1.0  0.1247
  H  H43  1  0.912300  0.314600  0.575500  1.0  0.1382
  H  H44  1  0.015500  0.402200  0.645400  1.0  0.1247
  H  H45  1  0.578970  0.647930  0.908830  1.0  0.1382
  H  H46  1  0.682170  0.735530  0.978730  1.0  0.1247
  H  H47  1  0.245630  0.981270  0.242170  1.0  0.1382
  H  H48  1  0.348830  0.068870  0.312070  1.0  0.1247
  H  H49  1  0.685400  0.597700  0.575500  1.0  0.139
  H  H50  1  0.597800  0.613300  0.645400  1.0  0.1243
  H  H51  1  0.352070  0.931030  0.908830  1.0  0.139
  H  H52  1  0.264470  0.946630  0.978730  1.0  0.1243
  H  H53  1  0.018730  0.264370  0.242170  1.0  0.139
  H  H54  1  0.931130  0.279970  0.312070  1.0  0.1243
  C  C55  1  0.486000  0.816000  0.504900  1.0  0.756
  C  C56  1  0.491000  0.881500  0.462460  1.0  -0.0956
  C  C57  1  0.557300  0.924800  0.423100  1.0  -0.0409
  C  C58  1  0.567000  0.988100  0.380100  1.0  -0.0748
  C  C59  1  0.510000  0.009200  0.375600  1.0  0.0
  C  C60  1  0.439500  0.965300  0.414460  1.0  0.1901
  C  C61  1  0.430300  0.902800  0.458530  1.0  0.1849
  C  C62  1  0.521100  0.075900  0.330450  1.0  0.754
  C  C63  1  0.152670  0.149330  0.838230  1.0  0.756
  C  C64  1  0.157670  0.214830  0.795790  1.0  -0.0956
  C  C65  1  0.223970  0.258130  0.756430  1.0  -0.0409
  C  C66  1  0.233670  0.321430  0.713430  1.0  -0.0748
  C  C67  1  0.176670  0.342530  0.708930  1.0  0.0
  C  C68  1  0.106170  0.298630  0.747790  1.0  0.1901
  C  C69  1  0.096970  0.236130  0.791860  1.0  0.1849
  C  C70  1  0.187770  0.409230  0.663780  1.0  0.754
  C  C71  1  0.819330  0.482670  0.171570  1.0  0.756
  C  C72  1  0.824330  0.548170  0.129130  1.0  -0.0956
  C  C73  1  0.890630  0.591470  0.089770  1.0  -0.0404
  C  C74  1  0.900330  0.654770  0.046770  1.0  -0.0749
  C  C75  1  0.843330  0.675870  0.042270  1.0  -0.0002
  C  C76  1  0.772830  0.631970  0.081130  1.0  0.19
  C  C77  1  0.763630  0.569470  0.125200  1.0  0.1849
  C  C78  1  0.854430  0.742570  0.997120  1.0  0.754
  C  C79  1  0.184000  0.670000  0.504900  1.0  0.7566
  C  C80  1  0.118500  0.609500  0.462460  1.0  -0.0946
  C  C81  1  0.075200  0.632500  0.423100  1.0  -0.0423
  C  C82  1  0.011900  0.578900  0.380100  1.0  -0.0764
  C  C83  1  0.990800  0.500800  0.375600  1.0  -0.001
  C  C84  1  0.034700  0.474200  0.414460  1.0  0.1925
  C  C85  1  0.097200  0.527500  0.458530  1.0  0.188
  C  C86  1  0.924100  0.445200  0.330450  1.0  0.7539
  C  C87  1  0.850670  0.003330  0.838230  1.0  0.7566
  C  C88  1  0.785170  0.942830  0.795790  1.0  -0.0946
  C  C89  1  0.741870  0.965830  0.756430  1.0  -0.0366
  C  C90  1  0.678570  0.912230  0.713430  1.0  -0.0764
  C  C91  1  0.657470  0.834130  0.708930  1.0  -0.001
  C  C92  1  0.701370  0.807530  0.747790  1.0  0.1925
  C  C93  1  0.763870  0.860830  0.791860  1.0  0.188
  C  C94  1  0.590770  0.778530  0.663780  1.0  0.7539
  C  C95  1  0.517330  0.336670  0.171570  1.0  0.7566
  C  C96  1  0.451830  0.276170  0.129130  1.0  -0.0946
  C  C97  1  0.408530  0.299170  0.089770  1.0  -0.0423
  C  C98  1  0.345230  0.245570  0.046770  1.0  -0.0764
  C  C99  1  0.324130  0.167470  0.042270  1.0  -0.001
  C  C100  1  0.368030  0.140870  0.081130  1.0  0.1924
  C  C101  1  0.430530  0.194170  0.125200  1.0  0.188
  C  C102  1  0.257430  0.111870  0.997120  1.0  0.7539
  C  C103  1  0.330000  0.514000  0.504900  1.0  0.7556
  C  C104  1  0.390500  0.509000  0.462460  1.0  -0.094
  C  C105  1  0.367500  0.442700  0.423100  1.0  -0.036
  C  C106  1  0.421100  0.433000  0.380100  1.0  -0.0704
  C  C107  1  0.499200  0.490000  0.375600  1.0  -0.0009
  C  C108  1  0.525800  0.560500  0.414460  1.0  0.1906
  C  C109  1  0.472500  0.569700  0.458530  1.0  0.1853
  C  C110  1  0.554800  0.478900  0.330450  1.0  0.7509
  C  C111  1  0.996670  0.847330  0.838230  1.0  0.7556
  C  C112  1  0.057170  0.842330  0.795790  1.0  -0.094
  C  C113  1  0.034170  0.776030  0.756430  1.0  -0.0416
  C  C114  1  0.087770  0.766330  0.713430  1.0  -0.0704
  C  C115  1  0.165870  0.823330  0.708930  1.0  -0.0009
  C  C116  1  0.192470  0.893830  0.747790  1.0  0.1906
  C  C117  1  0.139170  0.903030  0.791860  1.0  0.1853
  C  C118  1  0.221470  0.812230  0.663780  1.0  0.7509
  C  C119  1  0.663330  0.180670  0.171570  1.0  0.7556
  C  C120  1  0.723830  0.175670  0.129130  1.0  -0.094
  C  C121  1  0.700830  0.109370  0.089770  1.0  -0.036
  C  C122  1  0.754430  0.099670  0.046770  1.0  -0.0705
  C  C123  1  0.832530  0.156670  0.042270  1.0  -0.0006
  C  C124  1  0.859130  0.227170  0.081130  1.0  0.1909
  C  C125  1  0.805830  0.236370  0.125200  1.0  0.1853
  C  C126  1  0.888130  0.145570  0.997120  1.0  0.751
  C  C127  1  0.514000  0.184000  0.495100  1.0  0.7546
  C  C128  1  0.509000  0.118500  0.537540  1.0  -0.0931
  C  C129  1  0.442700  0.075200  0.576900  1.0  -0.0418
  C  C130  1  0.433000  0.011900  0.619900  1.0  -0.0761
  C  C131  1  0.490000  0.990800  0.624400  1.0  -0.0005
  C  C132  1  0.560500  0.034700  0.585540  1.0  0.192
  C  C133  1  0.569700  0.097200  0.541470  1.0  0.1867
  C  C134  1  0.478900  0.924100  0.669550  1.0  0.754
  C  C135  1  0.180670  0.517330  0.828430  1.0  0.7546
  C  C136  1  0.175670  0.451830  0.870870  1.0  -0.0931
  C  C137  1  0.109370  0.408530  0.910230  1.0  -0.041
  C  C138  1  0.099670  0.345230  0.953230  1.0  -0.0761
  C  C139  1  0.156670  0.324130  0.957730  1.0  -0.0007
  C  C140  1  0.227170  0.368030  0.918870  1.0  0.1919
  C  C141  1  0.236370  0.430530  0.874800  1.0  0.1867
  C  C142  1  0.145570  0.257430  0.002880  1.0  0.754
  C  C143  1  0.847330  0.850670  0.161770  1.0  0.7546
  C  C144  1  0.842330  0.785170  0.204210  1.0  -0.0931
  C  C145  1  0.776030  0.741870  0.243570  1.0  -0.0418
  C  C146  1  0.766330  0.678570  0.286570  1.0  -0.0761
  C  C147  1  0.823330  0.657470  0.291070  1.0  -0.0005
  C  C148  1  0.893830  0.701370  0.252210  1.0  0.192
  C  C149  1  0.903030  0.763870  0.208140  1.0  0.1867
  C  C150  1  0.812230  0.590770  0.336220  1.0  0.754
  C  C151  1  0.816000  0.330000  0.495100  1.0  0.7556
  C  C152  1  0.881500  0.390500  0.537540  1.0  -0.0953
  C  C153  1  0.924800  0.367500  0.576900  1.0  -0.0408
  C  C154  1  0.988100  0.421100  0.619900  1.0  -0.0762
  C  C155  1  0.009200  0.499200  0.624400  1.0  -0.0009
  C  C156  1  0.965300  0.525800  0.585540  1.0  0.1922
  C  C157  1  0.902800  0.472500  0.541470  1.0  0.1878
  C  C158  1  0.075900  0.554800  0.669550  1.0  0.7531
  C  C159  1  0.482670  0.663330  0.828430  1.0  0.7556
  C  C160  1  0.548170  0.723830  0.870870  1.0  -0.0953
  C  C161  1  0.591470  0.700830  0.910230  1.0  -0.0408
  C  C162  1  0.654770  0.754430  0.953230  1.0  -0.0761
  C  C163  1  0.675870  0.832530  0.957730  1.0  -0.0009
  C  C164  1  0.631970  0.859130  0.918870  1.0  0.192
  C  C165  1  0.569470  0.805830  0.874800  1.0  0.1878
  C  C166  1  0.742570  0.888130  0.002880  1.0  0.7531
  C  C167  1  0.149330  0.996670  0.161770  1.0  0.7556
  C  C168  1  0.214830  0.057170  0.204210  1.0  -0.0953
  C  C169  1  0.258130  0.034170  0.243570  1.0  -0.0352
  C  C170  1  0.321430  0.087770  0.286570  1.0  -0.0762
  C  C171  1  0.342530  0.165870  0.291070  1.0  -0.0009
  C  C172  1  0.298630  0.192470  0.252210  1.0  0.1922
  C  C173  1  0.236130  0.139170  0.208140  1.0  0.1878
  C  C174  1  0.409230  0.221470  0.336220  1.0  0.7531
  C  C175  1  0.670000  0.486000  0.495100  1.0  0.7558
  C  C176  1  0.609500  0.491000  0.537540  1.0  -0.096
  C  C177  1  0.632500  0.557300  0.576900  1.0  -0.035
  C  C178  1  0.578900  0.567000  0.619900  1.0  -0.0714
  C  C179  1  0.500800  0.510000  0.624400  1.0  -0.0003
  C  C180  1  0.474200  0.439500  0.585540  1.0  0.1892
  C  C181  1  0.527500  0.430300  0.541470  1.0  0.1865
  C  C182  1  0.445200  0.521100  0.669550  1.0  0.7512
  C  C183  1  0.336670  0.819330  0.828430  1.0  0.7558
  C  C184  1  0.276170  0.824330  0.870870  1.0  -0.096
  C  C185  1  0.299170  0.890630  0.910230  1.0  -0.035
  C  C186  1  0.245570  0.900330  0.953230  1.0  -0.0715
  C  C187  1  0.167470  0.843330  0.957730  1.0  -1e-04
  C  C188  1  0.140870  0.772830  0.918870  1.0  0.1894
  C  C189  1  0.194170  0.763630  0.874800  1.0  0.1865
  C  C190  1  0.111870  0.854430  0.002880  1.0  0.7513
  C  C191  1  0.003330  0.152670  0.161770  1.0  0.7558
  C  C192  1  0.942830  0.157670  0.204210  1.0  -0.096
  C  C193  1  0.965830  0.223970  0.243570  1.0  -0.0407
  C  C194  1  0.912230  0.233670  0.286570  1.0  -0.0714
  C  C195  1  0.834130  0.176670  0.291070  1.0  -0.0003
  C  C196  1  0.807530  0.106170  0.252210  1.0  0.1892
  C  C197  1  0.860830  0.096970  0.208140  1.0  0.1865
  C  C198  1  0.778530  0.187770  0.336220  1.0  0.7512
  S  S199  1  0.313850  0.915150  0.468510  1.0  0.1179
  S  S200  1  0.980520  0.248480  0.801840  1.0  0.1166
  S  S201  1  0.647180  0.581820  0.135180  1.0  0.1179
  S  S202  1  0.084850  0.398700  0.468510  1.0  0.1175
  S  S203  1  0.751520  0.732030  0.801840  1.0  0.1176
  S  S204  1  0.418180  0.065370  0.135180  1.0  0.1176
  S  S205  1  0.601300  0.686150  0.468510  1.0  0.1186
  S  S206  1  0.267970  0.019480  0.801840  1.0  0.1187
  S  S207  1  0.934630  0.352820  0.135180  1.0  0.1187
  S  S208  1  0.686150  0.084850  0.531490  1.0  0.1169
  S  S209  1  0.352820  0.418180  0.864820  1.0  0.1169
  S  S210  1  0.019480  0.751520  0.198160  1.0  0.1157
  S  S211  1  0.915150  0.601300  0.531490  1.0  0.1175
  S  S212  1  0.581820  0.934630  0.864820  1.0  0.1176
  S  S213  1  0.248480  0.267970  0.198160  1.0  0.1175
  S  S214  1  0.398700  0.313850  0.531490  1.0  0.1222
  S  S215  1  0.065370  0.647180  0.864820  1.0  0.1224
  S  S216  1  0.732030  0.980520  0.198160  1.0  0.1224
  N  N217  1  0.361100  0.870400  0.493050  1.0  -0.3667
  N  N218  1  0.376500  0.977100  0.415890  1.0  -0.2783
  N  N219  1  0.027770  0.203730  0.826380  1.0  -0.3667
  N  N220  1  0.043170  0.310430  0.749220  1.0  -0.2783
  N  N221  1  0.694430  0.537070  0.159720  1.0  -0.3667
  N  N222  1  0.709830  0.643770  0.082560  1.0  -0.2783
  N  N223  1  0.129600  0.490700  0.493050  1.0  -0.3651
  N  N224  1  0.022900  0.399400  0.415890  1.0  -0.2822
  N  N225  1  0.796270  0.824030  0.826380  1.0  -0.3651
  N  N226  1  0.689570  0.732730  0.749220  1.0  -0.2822
  N  N227  1  0.462930  0.157370  0.159720  1.0  -0.3651
  N  N228  1  0.356230  0.066070  0.082560  1.0  -0.2822
  N  N229  1  0.509300  0.638900  0.493050  1.0  -0.3674
  N  N230  1  0.600600  0.623500  0.415890  1.0  -0.2804
  N  N231  1  0.175970  0.972230  0.826380  1.0  -0.3674
  N  N232  1  0.267270  0.956830  0.749220  1.0  -0.2804
  N  N233  1  0.842630  0.305570  0.159720  1.0  -0.3674
  N  N234  1  0.933930  0.290170  0.082560  1.0  -0.2804
  N  N235  1  0.638900  0.129600  0.506950  1.0  -0.3657
  N  N236  1  0.623500  0.022900  0.584110  1.0  -0.2813
  N  N237  1  0.305570  0.462930  0.840280  1.0  -0.3657
  N  N238  1  0.290170  0.356230  0.917440  1.0  -0.2813
  N  N239  1  0.972230  0.796270  0.173620  1.0  -0.3657
  N  N240  1  0.956830  0.689570  0.250780  1.0  -0.2813
  N  N241  1  0.870400  0.509300  0.506950  1.0  -0.3648
  N  N242  1  0.977100  0.600600  0.584110  1.0  -0.282
  N  N243  1  0.537070  0.842630  0.840280  1.0  -0.3648
  N  N244  1  0.643770  0.933930  0.917440  1.0  -0.282
  N  N245  1  0.203730  0.175970  0.173620  1.0  -0.3648
  N  N246  1  0.310430  0.267270  0.250780  1.0  -0.282
  N  N247  1  0.490700  0.361100  0.506950  1.0  -0.3673
  N  N248  1  0.399400  0.376500  0.584110  1.0  -0.2796
  N  N249  1  0.157370  0.694430  0.840280  1.0  -0.3673
  N  N250  1  0.066070  0.709830  0.917440  1.0  -0.2796
  N  N251  1  0.824030  0.027770  0.173620  1.0  -0.3673
  N  N252  1  0.732730  0.043170  0.250780  1.0  -0.2796
  O  O253  1  0.545860  0.808540  0.511330  1.0  -0.6021
  O  O254  1  0.419790  0.766860  0.533270  1.0  -0.6786
  O  O255  1  0.583110  0.143750  0.337670  1.0  -0.6273
  O  O256  1  0.470080  0.063000  0.286590  1.0  -0.6012
  O  O257  1  0.212530  0.141870  0.844660  1.0  -0.602
  O  O258  1  0.086460  0.100190  0.866600  1.0  -0.6786
  O  O259  1  0.249780  0.477080  0.671000  1.0  -0.6273
  O  O260  1  0.136750  0.396330  0.619920  1.0  -0.6012
  O  O261  1  0.879190  0.475210  0.178000  1.0  -0.6021
  O  O262  1  0.753120  0.433530  0.199940  1.0  -0.6786
  O  O263  1  0.916440  0.810420  0.004340  1.0  -0.6273
  O  O264  1  0.803410  0.729670  0.953260  1.0  -0.6016
  O  O265  1  0.191460  0.737320  0.511330  1.0  -0.594
  O  O266  1  0.233140  0.652930  0.533270  1.0  -0.6778
  O  O267  1  0.856250  0.439360  0.337670  1.0  -0.6281
  O  O268  1  0.937000  0.407080  0.286590  1.0  -0.6068
  O  O269  1  0.858130  0.070650  0.844660  1.0  -0.5939
  O  O270  1  0.899810  0.986260  0.866600  1.0  -0.6778
  O  O271  1  0.522920  0.772690  0.671000  1.0  -0.6281
  O  O272  1  0.603670  0.740410  0.619920  1.0  -0.6068
  O  O273  1  0.524790  0.403990  0.178000  1.0  -0.594
  O  O274  1  0.566470  0.319600  0.199940  1.0  -0.6778
  O  O275  1  0.189580  0.106030  0.004340  1.0  -0.628
  O  O276  1  0.270330  0.073750  0.953260  1.0  -0.6064
  O  O277  1  0.262680  0.454140  0.511330  1.0  -0.5951
  O  O278  1  0.347070  0.580210  0.533270  1.0  -0.6794
  O  O279  1  0.560640  0.416890  0.337670  1.0  -0.6264
  O  O280  1  0.592920  0.529920  0.286590  1.0  -0.6097
  O  O281  1  0.929350  0.787470  0.844660  1.0  -0.595
  O  O282  1  0.013740  0.913540  0.866600  1.0  -0.6794
  O  O283  1  0.227310  0.750220  0.671000  1.0  -0.6264
  O  O284  1  0.259590  0.863250  0.619920  1.0  -0.6097
  O  O285  1  0.596010  0.120810  0.178000  1.0  -0.5951
  O  O286  1  0.680400  0.246880  0.199940  1.0  -0.6794
  O  O287  1  0.893970  0.083560  0.004340  1.0  -0.6263
  O  O288  1  0.926250  0.196590  0.953260  1.0  -0.6091
  O  O289  1  0.454140  0.191460  0.488670  1.0  -0.6008
  O  O290  1  0.580210  0.233140  0.466730  1.0  -0.6784
  O  O291  1  0.416890  0.856250  0.662330  1.0  -0.6278
  O  O292  1  0.529920  0.937000  0.713410  1.0  -0.6014
  O  O293  1  0.120810  0.524790  0.822000  1.0  -0.6008
  O  O294  1  0.246880  0.566470  0.800060  1.0  -0.6784
  O  O295  1  0.083560  0.189580  0.995660  1.0  -0.6278
  O  O296  1  0.196590  0.270330  0.046740  1.0  -0.6018
  O  O297  1  0.787470  0.858130  0.155340  1.0  -0.6007
  O  O298  1  0.913540  0.899810  0.133400  1.0  -0.6784
  O  O299  1  0.750220  0.522920  0.329000  1.0  -0.6278
  O  O300  1  0.863250  0.603670  0.380080  1.0  -0.6014
  O  O301  1  0.808540  0.262680  0.488670  1.0  -0.5952
  O  O302  1  0.766860  0.347070  0.466730  1.0  -0.6774
  O  O303  1  0.143750  0.560640  0.662330  1.0  -0.6271
  O  O304  1  0.063000  0.592920  0.713410  1.0  -0.606
  O  O305  1  0.475210  0.596010  0.822000  1.0  -0.5952
  O  O306  1  0.433530  0.680400  0.800060  1.0  -0.6774
  O  O307  1  0.810420  0.893970  0.995660  1.0  -0.6271
  O  O308  1  0.729670  0.926250  0.046740  1.0  -0.6056
  O  O309  1  0.141870  0.929350  0.155340  1.0  -0.5952
  O  O310  1  0.100190  0.013740  0.133400  1.0  -0.6774
  O  O311  1  0.477080  0.227310  0.329000  1.0  -0.6271
  O  O312  1  0.396330  0.259590  0.380080  1.0  -0.606
  O  O313  1  0.737320  0.545860  0.488670  1.0  -0.5944
  O  O314  1  0.652930  0.419790  0.466730  1.0  -0.6771
  O  O315  1  0.439360  0.583110  0.662330  1.0  -0.6287
  O  O316  1  0.407080  0.470080  0.713410  1.0  -0.6096
  O  O317  1  0.403990  0.879190  0.822000  1.0  -0.5944
  O  O318  1  0.319600  0.753120  0.800060  1.0  -0.6771
  O  O319  1  0.106030  0.916440  0.995660  1.0  -0.6287
  O  O320  1  0.073750  0.803410  0.046740  1.0  -0.609
  O  O321  1  0.070650  0.212530  0.155340  1.0  -0.5944
  O  O322  1  0.986260  0.086460  0.133400  1.0  -0.6771
  O  O323  1  0.772690  0.249780  0.329000  1.0  -0.6287
  O  O324  1  0.740410  0.136750  0.380080  1.0  -0.6096
