# generated using pymatgen
data_Gd(CO)6
_symmetry_space_group_name_H-M   'P 1'
_cell_length_a   8.46120000
_cell_length_b   13.12720000
_cell_length_c   9.48550000
_cell_angle_alpha   90.00000000
_cell_angle_beta   94.65200000
_cell_angle_gamma   90.00000000
_symmetry_Int_Tables_number   1
_chemical_formula_structural   Gd(CO)6
_chemical_formula_sum   'Gd4 C24 O24'
_cell_volume   1050.10136997
_cell_formula_units_Z   4
loop_
 _symmetry_equiv_pos_site_id
 _symmetry_equiv_pos_as_xyz
  1  'x, y, z'
loop_
 _atom_site_type_symbol
 _atom_site_label
 _atom_site_symmetry_multiplicity
 _atom_site_fract_x
 _atom_site_fract_y
 _atom_site_fract_z
 _atom_site_occupancy
 _atom_site_charge
  Gd  Gd1  1  0.961080  0.268660  0.508060  1.0  2.1278
  Gd  Gd2  1  0.538920  0.768660  0.991940  1.0  2.1283
  Gd  Gd3  1  0.038920  0.731340  0.491940  1.0  2.1287
  Gd  Gd4  1  0.461080  0.231340  0.008060  1.0  2.1286
  C  C5  1  0.246600  0.147500  0.511300  1.0  0.6757
  C  C6  1  0.381900  0.074300  0.502200  1.0  -0.0918
  C  C7  1  0.476000  0.049100  0.626300  1.0  -0.0947
  C  C8  1  0.460900  0.111100  0.756600  1.0  0.67
  C  C9  1  0.407800  0.026200  0.375800  1.0  -0.1202
  C  C10  1  0.300800  0.052200  0.243300  1.0  0.7648
  C  C11  1  0.253400  0.647500  0.988700  1.0  0.6775
  C  C12  1  0.118100  0.574300  0.997800  1.0  -0.0919
  C  C13  1  0.024000  0.549100  0.873700  1.0  -0.094
  C  C14  1  0.039100  0.611100  0.743400  1.0  0.6691
  C  C15  1  0.092200  0.526200  0.124200  1.0  -0.1213
  C  C16  1  0.199200  0.552200  0.256700  1.0  0.7655
  C  C17  1  0.753400  0.852500  0.488700  1.0  0.6769
  C  C18  1  0.618100  0.925700  0.497800  1.0  -0.0921
  C  C19  1  0.524000  0.950900  0.373700  1.0  -0.0939
  C  C20  1  0.539100  0.888900  0.243400  1.0  0.6683
  C  C21  1  0.592200  0.973800  0.624200  1.0  -0.1212
  C  C22  1  0.699200  0.947800  0.756700  1.0  0.7656
  C  C23  1  0.746600  0.352500  0.011300  1.0  0.6758
  C  C24  1  0.881900  0.425700  0.002200  1.0  -0.0923
  C  C25  1  0.976000  0.450900  0.126300  1.0  -0.0946
  C  C26  1  0.960900  0.388900  0.256600  1.0  0.6699
  C  C27  1  0.907800  0.473800  0.875800  1.0  -0.1203
  C  C28  1  0.800800  0.447800  0.743300  1.0  0.7649
  O  O29  1  0.158700  0.138200  0.610900  1.0  -0.683
  O  O30  1  0.217200  0.212500  0.416200  1.0  -0.6251
  O  O31  1  0.350300  0.113900  0.157900  1.0  -0.798
  O  O32  1  0.168000  0.010800  0.232000  1.0  -0.5485
  O  O33  1  0.463200  0.205700  0.748900  1.0  -0.6358
  O  O34  1  0.450500  0.067700  0.873200  1.0  -0.64
  O  O35  1  0.341300  0.638200  0.889100  1.0  -0.686
  O  O36  1  0.282800  0.712500  0.083800  1.0  -0.6259
  O  O37  1  0.149700  0.613900  0.342100  1.0  -0.7957
  O  O38  1  0.332000  0.510800  0.268000  1.0  -0.5493
  O  O39  1  0.036800  0.705700  0.751100  1.0  -0.6363
  O  O40  1  0.049500  0.567700  0.626800  1.0  -0.6405
  O  O41  1  0.841300  0.861800  0.389100  1.0  -0.6858
  O  O42  1  0.782800  0.787500  0.583800  1.0  -0.6254
  O  O43  1  0.649700  0.886100  0.842100  1.0  -0.7945
  O  O44  1  0.832000  0.989200  0.768000  1.0  -0.5503
  O  O45  1  0.536800  0.794300  0.251100  1.0  -0.6371
  O  O46  1  0.549500  0.932300  0.126800  1.0  -0.64
  O  O47  1  0.658700  0.361800  0.110900  1.0  -0.6835
  O  O48  1  0.717200  0.287500  0.916200  1.0  -0.625
  O  O49  1  0.850300  0.386100  0.657900  1.0  -0.7974
  O  O50  1  0.668000  0.489200  0.732000  1.0  -0.5493
  O  O51  1  0.963200  0.294300  0.248900  1.0  -0.6366
  O  O52  1  0.950500  0.432300  0.373200  1.0  -0.6396
