# generated using pymatgen
data_Gd(CO)6
_symmetry_space_group_name_H-M   'P 1'
_cell_length_a   8.48560000
_cell_length_b   9.52250000
_cell_length_c   13.12810000
_cell_angle_alpha   90.00000000
_cell_angle_beta   90.00000000
_cell_angle_gamma   94.62000000
_symmetry_Int_Tables_number   1
_chemical_formula_structural   Gd(CO)6
_chemical_formula_sum   'Gd4 C24 O24'
_cell_volume   1057.35790451
_cell_formula_units_Z   4
loop_
 _symmetry_equiv_pos_site_id
 _symmetry_equiv_pos_as_xyz
  1  'x, y, z'
loop_
 _atom_site_type_symbol
 _atom_site_label
 _atom_site_symmetry_multiplicity
 _atom_site_fract_x
 _atom_site_fract_y
 _atom_site_fract_z
 _atom_site_occupancy
 _atom_site_charge
  Gd  Gd1  1  0.960810  0.008110  0.768780  1.0  2.1443
  Gd  Gd2  1  0.539190  0.491890  0.268780  1.0  2.145
  Gd  Gd3  1  0.039190  0.991890  0.231220  1.0  2.1447
  Gd  Gd4  1  0.460810  0.508110  0.731220  1.0  2.1443
  C  C5  1  0.475000  0.125100  0.549300  1.0  -0.0677
  C  C6  1  0.381800  0.003200  0.574700  1.0  -0.0647
  C  C7  1  0.591000  0.124300  0.474000  1.0  -0.116
  C  C8  1  0.461000  0.256800  0.610600  1.0  0.6775
  C  C9  1  0.246300  0.009900  0.647700  1.0  0.6863
  C  C10  1  0.700600  0.257300  0.447600  1.0  0.7677
  C  C11  1  0.025000  0.374900  0.049300  1.0  -0.068
  C  C12  1  0.118200  0.496800  0.074700  1.0  -0.0651
  C  C13  1  0.909000  0.375700  0.974000  1.0  -0.1157
  C  C14  1  0.039000  0.243200  0.110600  1.0  0.6783
  C  C15  1  0.253700  0.490100  0.147700  1.0  0.6874
  C  C16  1  0.799400  0.242700  0.947600  1.0  0.768
  C  C17  1  0.525000  0.874900  0.450700  1.0  -0.0679
  C  C18  1  0.618200  0.996800  0.425300  1.0  -0.0649
  C  C19  1  0.409000  0.875700  0.526000  1.0  -0.1156
  C  C20  1  0.539000  0.743200  0.389400  1.0  0.6777
  C  C21  1  0.753700  0.990100  0.352300  1.0  0.6873
  C  C22  1  0.299400  0.742700  0.552400  1.0  0.7673
  C  C23  1  0.975000  0.625100  0.950700  1.0  -0.0673
  C  C24  1  0.881800  0.503200  0.925300  1.0  -0.0649
  C  C25  1  0.091000  0.624300  0.026000  1.0  -0.1164
  C  C26  1  0.961000  0.756800  0.889400  1.0  0.6783
  C  C27  1  0.746300  0.509900  0.852300  1.0  0.6867
  C  C28  1  0.200600  0.757300  0.052400  1.0  0.7672
  O  O29  1  0.158400  0.111400  0.638900  1.0  -0.7159
  O  O30  1  0.217800  0.916700  0.712100  1.0  -0.6273
  O  O31  1  0.451700  0.373700  0.567700  1.0  -0.6322
  O  O32  1  0.833900  0.267700  0.489000  1.0  -0.5607
  O  O33  1  0.650400  0.342100  0.386000  1.0  -0.8161
  O  O34  1  0.462900  0.248400  0.706500  1.0  -0.6778
  O  O35  1  0.341600  0.388600  0.138900  1.0  -0.7142
  O  O36  1  0.282200  0.583300  0.212100  1.0  -0.6286
  O  O37  1  0.048300  0.126300  0.067700  1.0  -0.6308
  O  O38  1  0.666100  0.232300  0.989000  1.0  -0.558
  O  O39  1  0.849600  0.157900  0.886000  1.0  -0.8173
  O  O40  1  0.037100  0.251600  0.206500  1.0  -0.679
  O  O41  1  0.841600  0.888600  0.361100  1.0  -0.7141
  O  O42  1  0.782200  0.083300  0.287900  1.0  -0.6277
  O  O43  1  0.548300  0.626300  0.432300  1.0  -0.6295
  O  O44  1  0.166100  0.732300  0.511000  1.0  -0.5596
  O  O45  1  0.349600  0.657900  0.614000  1.0  -0.8165
  O  O46  1  0.537100  0.751600  0.293500  1.0  -0.6784
  O  O47  1  0.658400  0.611400  0.861100  1.0  -0.7159
  O  O48  1  0.717800  0.416700  0.787900  1.0  -0.6285
  O  O49  1  0.951700  0.873700  0.932300  1.0  -0.6318
  O  O50  1  0.333900  0.767700  0.011000  1.0  -0.5602
  O  O51  1  0.150400  0.842100  0.114000  1.0  -0.8158
  O  O52  1  0.962900  0.748400  0.793500  1.0  -0.6779
