# generated using pymatgen
data_Gd(CO)6
_symmetry_space_group_name_H-M   'P 1'
_cell_length_a   8.53260000
_cell_length_b   13.21280000
_cell_length_c   9.58830000
_cell_angle_alpha   90.00000000
_cell_angle_beta   94.58500000
_cell_angle_gamma   90.00000000
_symmetry_Int_Tables_number   1
_chemical_formula_structural   Gd(CO)6
_chemical_formula_sum   'Gd4 C24 O24'
_cell_volume   1077.52119508
_cell_formula_units_Z   4
loop_
 _symmetry_equiv_pos_site_id
 _symmetry_equiv_pos_as_xyz
  1  'x, y, z'
loop_
 _atom_site_type_symbol
 _atom_site_label
 _atom_site_symmetry_multiplicity
 _atom_site_fract_x
 _atom_site_fract_y
 _atom_site_fract_z
 _atom_site_occupancy
 _atom_site_charge
  Gd  Gd1  1  0.539410  0.268820  0.492060  1.0  2.1479
  Gd  Gd2  1  0.960590  0.768820  0.007940  1.0  2.1476
  Gd  Gd3  1  0.460590  0.731180  0.507940  1.0  2.1481
  Gd  Gd4  1  0.039410  0.231180  0.992060  1.0  2.1484
  C  C5  1  0.539300  0.389400  0.743700  1.0  0.6847
  C  C6  1  0.524400  0.450900  0.875800  1.0  -0.1271
  C  C7  1  0.616400  0.425700  0.995800  1.0  -0.1111
  C  C8  1  0.408300  0.527000  0.875500  1.0  -0.1366
  C  C9  1  0.753700  0.351000  0.989600  1.0  0.6869
  C  C10  1  0.301700  0.551400  0.744500  1.0  0.739
  C  C11  1  0.960700  0.889400  0.756300  1.0  0.686
  C  C12  1  0.975600  0.950900  0.624200  1.0  -0.1273
  C  C13  1  0.883600  0.925700  0.504200  1.0  -0.1111
  C  C14  1  0.091700  0.027000  0.624500  1.0  -0.137
  C  C15  1  0.746300  0.851000  0.510400  1.0  0.6855
  C  C16  1  0.198300  0.051400  0.755500  1.0  0.7384
  C  C17  1  0.460700  0.610600  0.256300  1.0  0.6858
  C  C18  1  0.475600  0.549100  0.124200  1.0  -0.1274
  C  C19  1  0.383600  0.574300  0.004200  1.0  -0.1101
  C  C20  1  0.591700  0.473000  0.124500  1.0  -0.1371
  C  C21  1  0.246300  0.649000  0.010400  1.0  0.6855
  C  C22  1  0.698300  0.448600  0.255500  1.0  0.738
  C  C23  1  0.039300  0.110600  0.243700  1.0  0.6854
  C  C24  1  0.024400  0.049100  0.375800  1.0  -0.1272
  C  C25  1  0.116400  0.074300  0.495800  1.0  -0.1104
  C  C26  1  0.908300  0.973000  0.375500  1.0  -0.1367
  C  C27  1  0.253700  0.149000  0.489600  1.0  0.687
  C  C28  1  0.801700  0.948600  0.244500  1.0  0.7385
  O  O29  1  0.550200  0.432400  0.626500  1.0  -0.6416
  O  O30  1  0.536300  0.293600  0.751800  1.0  -0.6671
  O  O31  1  0.783200  0.288300  0.082700  1.0  -0.5927
  O  O32  1  0.841000  0.359800  0.888000  1.0  -0.697
  O  O33  1  0.350500  0.614600  0.657300  1.0  -0.7486
  O  O34  1  0.167600  0.510100  0.731200  1.0  -0.5369
  O  O35  1  0.949800  0.932400  0.873500  1.0  -0.6417
  O  O36  1  0.963700  0.793600  0.748200  1.0  -0.6668
  O  O37  1  0.716800  0.788300  0.417300  1.0  -0.5944
  O  O38  1  0.659000  0.859800  0.612000  1.0  -0.6947
  O  O39  1  0.149500  0.114600  0.842700  1.0  -0.7459
  O  O40  1  0.332400  0.010100  0.768800  1.0  -0.539
  O  O41  1  0.449800  0.567600  0.373500  1.0  -0.6418
  O  O42  1  0.463700  0.706400  0.248200  1.0  -0.6668
  O  O43  1  0.216800  0.711700  0.917300  1.0  -0.5945
  O  O44  1  0.159000  0.640200  0.112000  1.0  -0.6944
  O  O45  1  0.649500  0.385400  0.342700  1.0  -0.7458
  O  O46  1  0.832400  0.489900  0.268800  1.0  -0.5398
  O  O47  1  0.050200  0.067600  0.126500  1.0  -0.6419
  O  O48  1  0.036300  0.206400  0.251800  1.0  -0.6668
  O  O49  1  0.283200  0.211700  0.582700  1.0  -0.5938
  O  O50  1  0.341000  0.140200  0.388000  1.0  -0.697
  O  O51  1  0.850500  0.885400  0.157300  1.0  -0.7476
  O  O52  1  0.667600  0.989900  0.231200  1.0  -0.5372
