# generated using pymatgen
data_CoHC3N7
_symmetry_space_group_name_H-M   'P 1'
_cell_length_a   9.91790000
_cell_length_b   7.42560000
_cell_length_c   19.78700000
_cell_angle_alpha   90.00000000
_cell_angle_beta   90.00000000
_cell_angle_gamma   90.00000000
_symmetry_Int_Tables_number   1
_chemical_formula_structural   CoHC3N7
_chemical_formula_sum   'Co8 H8 C24 N56'
_cell_volume   1457.24049049
_cell_formula_units_Z   8
loop_
 _symmetry_equiv_pos_site_id
 _symmetry_equiv_pos_as_xyz
  1  'x, y, z'
loop_
 _atom_site_type_symbol
 _atom_site_label
 _atom_site_symmetry_multiplicity
 _atom_site_fract_x
 _atom_site_fract_y
 _atom_site_fract_z
 _atom_site_occupancy
 _atom_site_charge
  Co  Co1  1  0.011250  0.973770  0.250000  1.0  0.8192
  Co  Co2  1  0.988750  0.026230  0.750000  1.0  0.8191
  Co  Co3  1  0.988750  0.473770  0.250000  1.0  0.8192
  Co  Co4  1  0.011250  0.526230  0.750000  1.0  0.8191
  Co  Co5  1  0.389470  0.750000  0.000000  1.0  0.8193
  Co  Co6  1  0.610530  0.250000  0.500000  1.0  0.8187
  Co  Co7  1  0.610530  0.250000  0.000000  1.0  0.8187
  Co  Co8  1  0.389470  0.750000  0.500000  1.0  0.8193
  H  H9  1  0.146300  0.449300  0.095100  1.0  0.081
  H  H10  1  0.853700  0.550700  0.595100  1.0  0.0808
  H  H11  1  0.853700  0.949300  0.404900  1.0  0.0806
  H  H12  1  0.146300  0.050700  0.904900  1.0  0.0808
  H  H13  1  0.853700  0.550700  0.904900  1.0  0.0828
  H  H14  1  0.146300  0.449300  0.404900  1.0  0.0834
  H  H15  1  0.146300  0.050700  0.595100  1.0  0.0835
  H  H16  1  0.853700  0.949300  0.095100  1.0  0.0831
  C  C17  1  0.152900  0.566700  0.111200  1.0  0.3116
  C  C18  1  0.206400  0.838800  0.121590  1.0  0.2972
  C  C19  1  0.283700  0.001500  0.109620  1.0  0.2758
  C  C20  1  0.847100  0.433300  0.611200  1.0  0.3115
  C  C21  1  0.793600  0.161200  0.621590  1.0  0.2961
  C  C22  1  0.716300  0.998500  0.609620  1.0  0.2761
  C  C23  1  0.847100  0.066700  0.388800  1.0  0.3117
  C  C24  1  0.793600  0.338800  0.378410  1.0  0.297
  C  C25  1  0.716300  0.501500  0.390380  1.0  0.2754
  C  C26  1  0.152900  0.933300  0.888800  1.0  0.3113
  C  C27  1  0.206400  0.661200  0.878410  1.0  0.2966
  C  C28  1  0.283700  0.498500  0.890380  1.0  0.2755
  C  C29  1  0.847100  0.433300  0.888800  1.0  0.3113
  C  C30  1  0.793600  0.161200  0.878410  1.0  0.2962
  C  C31  1  0.716300  0.998500  0.890380  1.0  0.2758
  C  C32  1  0.152900  0.566700  0.388800  1.0  0.3117
  C  C33  1  0.206400  0.838800  0.378410  1.0  0.2976
  C  C34  1  0.283700  0.001500  0.390380  1.0  0.2754
  C  C35  1  0.152900  0.933300  0.611200  1.0  0.3114
  C  C36  1  0.206400  0.661200  0.621590  1.0  0.2965
  C  C37  1  0.283700  0.498500  0.609620  1.0  0.2758
  C  C38  1  0.847100  0.066700  0.111200  1.0  0.3116
  C  C39  1  0.793600  0.338800  0.121590  1.0  0.2966
  C  C40  1  0.716300  0.501500  0.109620  1.0  0.2759
  N  N41  1  0.122400  0.807400  0.172280  1.0  -0.2863
  N  N42  1  0.088900  0.626800  0.165360  1.0  -0.2526
  N  N43  1  0.228300  0.695200  0.082240  1.0  -0.4666
  N  N44  1  0.377200  0.001400  0.060500  1.0  -0.2879
  N  N45  1  0.441300  0.161000  0.066200  1.0  -0.0402
  N  N46  1  0.285600  0.154800  0.144620  1.0  -0.3278
  N  N47  1  0.386300  0.252500  0.116100  1.0  -0.1273
  N  N48  1  0.877600  0.192600  0.672280  1.0  -0.2857
  N  N49  1  0.911100  0.373200  0.665360  1.0  -0.2514
  N  N50  1  0.771700  0.304800  0.582240  1.0  -0.4667
  N  N51  1  0.622800  0.998600  0.560500  1.0  -0.2875
  N  N52  1  0.558700  0.839000  0.566200  1.0  -0.0407
  N  N53  1  0.714400  0.845200  0.644620  1.0  -0.3269
  N  N54  1  0.613700  0.747500  0.616100  1.0  -0.1284
  N  N55  1  0.877600  0.307400  0.327720  1.0  -0.286
  N  N56  1  0.911100  0.126800  0.334640  1.0  -0.2515
  N  N57  1  0.771700  0.195200  0.417760  1.0  -0.4662
  N  N58  1  0.622800  0.501400  0.439500  1.0  -0.2873
  N  N59  1  0.558700  0.661000  0.433800  1.0  -0.0408
  N  N60  1  0.714400  0.654800  0.355380  1.0  -0.3262
  N  N61  1  0.613700  0.752500  0.383900  1.0  -0.1278
  N  N62  1  0.122400  0.692600  0.827720  1.0  -0.2867
  N  N63  1  0.088900  0.873200  0.834640  1.0  -0.2517
  N  N64  1  0.228300  0.804800  0.917760  1.0  -0.466
  N  N65  1  0.377200  0.498600  0.939500  1.0  -0.2877
  N  N66  1  0.441300  0.339000  0.933800  1.0  -0.0402
  N  N67  1  0.285600  0.345200  0.855380  1.0  -0.3268
  N  N68  1  0.386300  0.247500  0.883900  1.0  -0.127
  N  N69  1  0.877600  0.192600  0.827720  1.0  -0.286
  N  N70  1  0.911100  0.373200  0.834640  1.0  -0.2511
  N  N71  1  0.771700  0.304800  0.917760  1.0  -0.4663
  N  N72  1  0.622800  0.998600  0.939500  1.0  -0.2873
  N  N73  1  0.558700  0.839000  0.933800  1.0  -0.0412
  N  N74  1  0.714400  0.845200  0.855380  1.0  -0.3265
  N  N75  1  0.613700  0.747500  0.883900  1.0  -0.1236
  N  N76  1  0.122400  0.807400  0.327720  1.0  -0.2866
  N  N77  1  0.088900  0.626800  0.334640  1.0  -0.2511
  N  N78  1  0.228300  0.695200  0.417760  1.0  -0.4657
  N  N79  1  0.377200  0.001400  0.439500  1.0  -0.288
  N  N80  1  0.441300  0.161000  0.433800  1.0  -0.0401
  N  N81  1  0.285600  0.154800  0.355380  1.0  -0.3263
  N  N82  1  0.386300  0.252500  0.383900  1.0  -0.1232
  N  N83  1  0.122400  0.692600  0.672280  1.0  -0.2866
  N  N84  1  0.088900  0.873200  0.665360  1.0  -0.2534
  N  N85  1  0.228300  0.804800  0.582240  1.0  -0.467
  N  N86  1  0.377200  0.498600  0.560500  1.0  -0.2884
  N  N87  1  0.441300  0.339000  0.566200  1.0  -0.0401
  N  N88  1  0.285600  0.345200  0.644620  1.0  -0.3279
  N  N89  1  0.386300  0.247500  0.616100  1.0  -0.1239
  N  N90  1  0.877600  0.307400  0.172280  1.0  -0.2854
  N  N91  1  0.911100  0.126800  0.165360  1.0  -0.2519
  N  N92  1  0.771700  0.195200  0.082240  1.0  -0.4665
  N  N93  1  0.622800  0.501400  0.060500  1.0  -0.2869
  N  N94  1  0.558700  0.661000  0.066200  1.0  -0.0406
  N  N95  1  0.714400  0.654800  0.144620  1.0  -0.3269
  N  N96  1  0.613700  0.752500  0.116100  1.0  -0.1239
