# generated using pymatgen
data_Co3H34C54(NO3)4
_symmetry_space_group_name_H-M   'P 1'
_cell_length_a   13.95900000
_cell_length_b   23.45310000
_cell_length_c   25.58190000
_cell_angle_alpha   64.37060000
_cell_angle_beta   74.16730000
_cell_angle_gamma   72.68680000
_symmetry_Int_Tables_number   1
_chemical_formula_structural   Co3H34C54(NO3)4
_chemical_formula_sum   'Co12 H136 C216 N16 O48'
_cell_volume   7107.16932404
_cell_formula_units_Z   4
loop_
 _symmetry_equiv_pos_site_id
 _symmetry_equiv_pos_as_xyz
  1  'x, y, z'
loop_
 _atom_site_type_symbol
 _atom_site_label
 _atom_site_symmetry_multiplicity
 _atom_site_fract_x
 _atom_site_fract_y
 _atom_site_fract_z
 _atom_site_occupancy
 _atom_site_charge
  Co  Co1  1  0.622960  0.495180  0.758540  1.0  1.1226
  Co  Co2  1  0.549770  0.599110  0.834730  1.0  1.0654
  Co  Co3  1  0.684390  0.398600  0.690480  1.0  0.9512
  Co  Co4  1  0.123320  0.995180  0.258540  1.0  1.1232
  Co  Co5  1  0.016390  0.099110  0.334730  1.0  1.0624
  Co  Co6  1  0.226530  0.898600  0.190480  1.0  0.9478
  Co  Co7  1  0.876680  0.004820  0.741460  1.0  1.1236
  Co  Co8  1  0.983610  0.900890  0.665270  1.0  1.0636
  Co  Co9  1  0.773470  0.101400  0.809520  1.0  0.9506
  Co  Co10  1  0.377040  0.504820  0.241460  1.0  1.1237
  Co  Co11  1  0.450230  0.400890  0.165270  1.0  1.064
  Co  Co12  1  0.315610  0.601400  0.309520  1.0  0.9507
  H  H13  1  0.856300  0.465000  0.785600  1.0  0.077
  H  H14  1  0.030000  0.428900  0.776300  1.0  0.1268
  H  H15  1  0.056100  0.585000  0.790800  1.0  0.1016
  H  H16  1  0.882100  0.620700  0.800300  1.0  0.1115
  H  H17  1  0.213200  0.567200  0.746200  1.0  0.116
  H  H18  1  0.389300  0.529200  0.729400  1.0  0.0937
  H  H19  1  0.349800  0.348700  0.791100  1.0  0.1219
  H  H20  1  0.174600  0.388200  0.802200  1.0  0.0983
  H  H21  1  0.426200  0.762200  0.693800  1.0  0.1154
  H  H22  1  0.352300  0.840500  0.614100  1.0  0.1064
  H  H23  1  0.380800  0.709700  0.550900  1.0  0.0914
  H  H24  1  0.460500  0.630700  0.627500  1.0  0.1166
  H  H25  1  0.220000  0.892000  0.565000  1.0  0.1082
  H  H26  1  0.139600  0.968800  0.486400  1.0  0.1072
  H  H27  1  0.311500  0.874300  0.383500  1.0  0.0943
  H  H28  1  0.389800  0.795400  0.462600  1.0  0.1249
  H  H29  1  0.519000  0.733800  0.849200  1.0  0.0933
  H  H30  1  0.392000  0.737800  0.023800  1.0  0.0963
  H  H31  1  0.286600  0.911300  0.056700  1.0  0.0946
  H  H32  1  0.391100  0.767200  0.192800  1.0  0.1018
  H  H33  1  0.459100  0.735700  0.107900  1.0  0.1262
  H  H34  1  0.385600  0.927100  0.963300  1.0  0.138
  H  H35  1  0.418200  0.929000  0.866400  1.0  0.0844
  H  H36  1  0.417400  0.841200  0.851200  1.0  0.1229
  H  H37  1  0.328700  0.668300  0.996300  1.0  0.1099
  H  H38  1  0.384400  0.589500  0.951900  1.0  0.1012
  H  H39  1  0.841000  0.229500  0.817900  1.0  0.0952
  H  H40  1  0.903400  0.148500  0.898900  1.0  0.1247
  H  H41  1  0.858900  0.275900  0.971900  1.0  0.113
  H  H42  1  0.787700  0.358900  0.891100  1.0  0.1259
  H  H43  1  0.027000  0.098300  0.953500  1.0  0.1022
  H  H44  1  0.848600  0.188300  0.057300  1.0  0.1272
  H  H45  1  0.093300  0.016500  0.034100  1.0  0.0907
  H  H46  1  0.936500  0.113700  0.132700  1.0  0.0974
  H  H47  1  0.893100  0.965000  0.285600  1.0  0.0763
  H  H48  1  0.764800  0.928900  0.276300  1.0  0.1275
  H  H49  1  0.568100  0.085000  0.290800  1.0  0.1004
  H  H50  1  0.696900  0.120700  0.300300  1.0  0.1115
  H  H51  1  0.473400  0.067200  0.246200  1.0  0.116
  H  H52  1  0.352100  0.029200  0.229400  1.0  0.0947
  H  H53  1  0.510400  0.848700  0.291100  1.0  0.1208
  H  H54  1  0.635000  0.888200  0.302200  1.0  0.0992
  H  H55  1  0.117800  0.262200  0.193800  1.0  0.1144
  H  H56  1  0.193100  0.340500  0.114100  1.0  0.1064
  H  H57  1  0.358600  0.209700  0.050900  1.0  0.0896
  H  H58  1  0.281300  0.130700  0.127500  1.0  0.1155
  H  H59  1  0.323000  0.392000  0.065000  1.0  0.1075
  H  H60  1  0.405200  0.468800  0.986400  1.0  0.1062
  H  H61  1  0.430700  0.374300  0.883500  1.0  0.0942
  H  H62  1  0.352200  0.295400  0.962600  1.0  0.1262
  H  H63  1  0.898000  0.233800  0.349200  1.0  0.092
  H  H64  1  0.846400  0.237800  0.523800  1.0  0.0971
  H  H65  1  0.745400  0.411300  0.556700  1.0  0.0946
  H  H66  1  0.648900  0.267200  0.692800  1.0  0.1014
  H  H67  1  0.697300  0.235700  0.607900  1.0  0.1264
  H  H68  1  0.724000  0.427100  0.463300  1.0  0.1373
  H  H69  1  0.786400  0.429000  0.366400  1.0  0.0842
  H  H70  1  0.890200  0.341200  0.351200  1.0  0.1238
  H  H71  1  0.006700  0.168300  0.496300  1.0  0.1105
  H  H72  1  0.074200  0.089500  0.451900  1.0  0.1004
  H  H73  1  0.111600  0.729500  0.317900  1.0  0.0938
  H  H74  1  0.049200  0.648500  0.398900  1.0  0.1243
  H  H75  1  0.893300  0.775900  0.471900  1.0  0.111
  H  H76  1  0.962300  0.858900  0.391100  1.0  0.1267
  H  H77  1  0.921200  0.598300  0.453500  1.0  0.1017
  H  H78  1  0.905800  0.688300  0.557300  1.0  0.1272
  H  H79  1  0.856100  0.516500  0.534100  1.0  0.0909
  H  H80  1  0.817100  0.613700  0.632700  1.0  0.097
  H  H81  1  0.106900  0.035000  0.714400  1.0  0.0761
  H  H82  1  0.235200  0.071100  0.723700  1.0  0.1277
  H  H83  1  0.431900  0.915000  0.709200  1.0  0.1
  H  H84  1  0.303100  0.879300  0.699700  1.0  0.1111
  H  H85  1  0.526600  0.932800  0.753800  1.0  0.1152
  H  H86  1  0.647900  0.970800  0.770600  1.0  0.095
  H  H87  1  0.489600  0.151300  0.708900  1.0  0.1209
  H  H88  1  0.365000  0.111800  0.697800  1.0  0.1003
  H  H89  1  0.882200  0.737800  0.806200  1.0  0.1147
  H  H90  1  0.806900  0.659500  0.885900  1.0  0.1062
  H  H91  1  0.641400  0.790300  0.949100  1.0  0.0906
  H  H92  1  0.718700  0.869300  0.872500  1.0  0.1155
  H  H93  1  0.677000  0.608000  0.935000  1.0  0.108
  H  H94  1  0.594800  0.531200  0.013600  1.0  0.1062
  H  H95  1  0.569300  0.625700  0.116500  1.0  0.0938
  H  H96  1  0.647800  0.704600  0.037400  1.0  0.1257
  H  H97  1  0.102000  0.766200  0.650800  1.0  0.0934
  H  H98  1  0.153600  0.762200  0.476200  1.0  0.0974
  H  H99  1  0.254600  0.588700  0.443300  1.0  0.0947
  H  H100  1  0.351100  0.732800  0.307200  1.0  0.1015
  H  H101  1  0.302700  0.764300  0.392100  1.0  0.1251
  H  H102  1  0.276000  0.572900  0.536700  1.0  0.137
  H  H103  1  0.213600  0.571000  0.633600  1.0  0.0838
  H  H104  1  0.109800  0.658800  0.648800  1.0  0.1241
  H  H105  1  0.993300  0.831700  0.503700  1.0  0.1116
  H  H106  1  0.925800  0.910500  0.548100  1.0  0.1006
  H  H107  1  0.888400  0.270500  0.682100  1.0  0.0931
  H  H108  1  0.950800  0.351500  0.601100  1.0  0.1241
  H  H109  1  0.106700  0.224100  0.528100  1.0  0.1096
  H  H110  1  0.037700  0.141100  0.608900  1.0  0.1264
  H  H111  1  0.078800  0.401700  0.546500  1.0  0.1012
  H  H112  1  0.094200  0.311700  0.442700  1.0  0.1271
  H  H113  1  0.143900  0.483500  0.465900  1.0  0.0909
  H  H114  1  0.182900  0.386300  0.367300  1.0  0.0967
  H  H115  1  0.143700  0.535000  0.214400  1.0  0.0763
  H  H116  1  0.970000  0.571100  0.223700  1.0  0.1274
  H  H117  1  0.943900  0.415000  0.209200  1.0  0.1006
  H  H118  1  0.117900  0.379300  0.199700  1.0  0.1113
  H  H119  1  0.786800  0.432800  0.253800  1.0  0.1164
  H  H120  1  0.610700  0.470800  0.270600  1.0  0.0943
  H  H121  1  0.650200  0.651300  0.208900  1.0  0.1213
  H  H122  1  0.825400  0.611800  0.197800  1.0  0.0992
  H  H123  1  0.573800  0.237800  0.306200  1.0  0.1159
  H  H124  1  0.647700  0.159500  0.385900  1.0  0.1064
  H  H125  1  0.619200  0.290300  0.449100  1.0  0.0908
  H  H126  1  0.539500  0.369300  0.372500  1.0  0.1159
  H  H127  1  0.780000  0.108000  0.435000  1.0  0.1082
  H  H128  1  0.860400  0.031200  0.513600  1.0  0.1062
  H  H129  1  0.688500  0.125700  0.616500  1.0  0.0938
  H  H130  1  0.610200  0.204600  0.537400  1.0  0.1254
  H  H131  1  0.481000  0.266200  0.150800  1.0  0.0933
  H  H132  1  0.608000  0.262200  0.976200  1.0  0.0966
  H  H133  1  0.713400  0.088700  0.943300  1.0  0.0946
  H  H134  1  0.608900  0.232800  0.807200  1.0  0.1014
  H  H135  1  0.540900  0.264300  0.892100  1.0  0.1264
  H  H136  1  0.614400  0.072900  0.036700  1.0  0.1373
  H  H137  1  0.581800  0.071000  0.133600  1.0  0.0842
  H  H138  1  0.582600  0.158800  0.148800  1.0  0.123
  H  H139  1  0.671300  0.331700  0.003700  1.0  0.1091
  H  H140  1  0.615600  0.410500  0.048100  1.0  0.101
  H  H141  1  0.159000  0.770500  0.182100  1.0  0.0944
  H  H142  1  0.096600  0.851500  0.101100  1.0  0.1249
  H  H143  1  0.141100  0.724100  0.028100  1.0  0.1118
  H  H144  1  0.212300  0.641100  0.108900  1.0  0.1258
  H  H145  1  0.973000  0.901700  0.046500  1.0  0.1031
  H  H146  1  0.151400  0.811700  0.942700  1.0  0.1261
  H  H147  1  0.906700  0.983500  0.965900  1.0  0.0909
  H  H148  1  0.063500  0.886300  0.867300  1.0  0.097
  C  C149  1  0.737570  0.563460  0.807000  1.0  0.6978
  C  C150  1  0.850620  0.543160  0.796200  1.0  -0.0839
  C  C151  1  0.896000  0.489500  0.787500  1.0  -0.0527
  C  C152  1  0.000600  0.467700  0.781100  1.0  -0.1715
  C  C153  1  0.061500  0.505300  0.781700  1.0  0.0806
  C  C154  1  0.016300  0.560200  0.789600  1.0  -0.1064
  C  C155  1  0.911780  0.581540  0.796100  1.0  -0.1103
  C  C156  1  0.174420  0.480360  0.774600  1.0  0.075
  C  C157  1  0.239700  0.523500  0.753700  1.0  -0.1484
  C  C158  1  0.346400  0.500100  0.744300  1.0  -0.0732
  C  C159  1  0.387490  0.436420  0.756400  1.0  -0.1053
  C  C160  1  0.497720  0.414060  0.741900  1.0  0.6424
  C  C161  1  0.323600  0.392800  0.780200  1.0  -0.1208
  C  C162  1  0.217300  0.417500  0.787500  1.0  -0.1156
  C  C163  1  0.499900  0.636500  0.719500  1.0  0.707
  C  C164  1  0.451160  0.689080  0.668400  1.0  -0.1143
  C  C165  1  0.418700  0.751000  0.664600  1.0  -0.0577
  C  C166  1  0.373900  0.798100  0.616500  1.0  -0.1139
  C  C167  1  0.361100  0.783400  0.573000  1.0  0.0615
  C  C168  1  0.391500  0.721100  0.579100  1.0  -0.1075
  C  C169  1  0.438300  0.673000  0.625600  1.0  -0.1035
  C  C170  1  0.310900  0.835600  0.522400  1.0  0.0207
  C  C171  1  0.237700  0.887700  0.528900  1.0  -0.1065
  C  C172  1  0.189900  0.934100  0.481700  1.0  -0.0019
  C  C173  1  0.218290  0.928020  0.427600  1.0  -0.1198
  C  C174  1  0.165790  0.977020  0.376800  1.0  0.7048
  C  C175  1  0.292300  0.877500  0.420100  1.0  -0.0024
  C  C176  1  0.339900  0.830000  0.467600  1.0  -0.1337
  C  C177  1  0.478860  0.707480  0.880400  1.0  0.1711
  C  C178  1  0.412930  0.779240  0.936300  1.0  0.1783
  C  C179  1  0.398230  0.776640  0.992100  1.0  -0.1735
  C  C180  1  0.392900  0.829000  0.001600  1.0  0.1654
  C  C181  1  0.320580  0.871740  0.080500  1.0  0.1461
  C  C182  1  0.378200  0.792800  0.154800  1.0  0.0688
  C  C183  1  0.416100  0.774600  0.108200  1.0  -0.1295
  C  C184  1  0.394300  0.890100  0.956300  1.0  -0.1731
  C  C185  1  0.410200  0.890800  0.898600  1.0  -0.0931
  C  C186  1  0.414000  0.838300  0.889100  1.0  -0.2127
  C  C187  1  0.374000  0.672000  0.961400  1.0  -0.1156
  C  C188  1  0.404900  0.628700  0.936700  1.0  0.0303
  C  C189  1  0.756460  0.354580  0.795300  1.0  0.6794
  C  C190  1  0.805390  0.300520  0.846500  1.0  -0.1421
  C  C191  1  0.842300  0.239100  0.849300  1.0  -0.0055
  C  C192  1  0.881600  0.190700  0.897100  1.0  -0.1452
  C  C193  1  0.888500  0.205700  0.943100  1.0  0.0323
  C  C194  1  0.854200  0.266600  0.941000  1.0  -0.12
  C  C195  1  0.811220  0.316860  0.892500  1.0  -0.0763
  C  C196  1  0.932700  0.151800  0.995400  1.0  0.0695
  C  C197  1  0.005000  0.101500  0.990100  1.0  -0.1469
  C  C198  1  0.901900  0.155600  0.051000  1.0  -0.2011
  C  C199  1  0.077200  0.010100  0.141500  1.0  0.7247
  C  C200  1  0.026500  0.058700  0.090500  1.0  -0.1222
  C  C201  1  0.048300  0.053300  0.038300  1.0  -0.0505
  C  C202  1  0.953400  0.109400  0.096600  1.0  -0.0279
  C  C203  1  0.891970  0.063460  0.307000  1.0  0.6983
  C  C204  1  0.810020  0.043160  0.296200  1.0  -0.0832
  C  C205  1  0.827000  0.989500  0.287500  1.0  -0.0547
  C  C206  1  0.750600  0.967700  0.281100  1.0  -0.1703
  C  C207  1  0.651500  0.005300  0.281700  1.0  0.0789
  C  C208  1  0.633900  0.060200  0.289600  1.0  -0.1034
  C  C209  1  0.710580  0.081540  0.296100  1.0  -0.1105
  C  C210  1  0.570620  0.980360  0.274600  1.0  0.0749
  C  C211  1  0.483100  0.023500  0.253700  1.0  -0.1433
  C  C212  1  0.409200  0.000100  0.244300  1.0  -0.0715
  C  C213  1  0.419690  0.936420  0.256400  1.0  -0.1058
  C  C214  1  0.346320  0.914060  0.241900  1.0  0.6465
  C  C215  1  0.503400  0.892800  0.280200  1.0  -0.1179
  C  C216  1  0.577700  0.917500  0.287500  1.0  -0.1164
  C  C217  1  0.144100  0.136500  0.219500  1.0  0.705
  C  C218  1  0.191360  0.189080  0.168400  1.0  -0.1134
  C  C219  1  0.165700  0.251000  0.164600  1.0  -0.0572
  C  C220  1  0.211500  0.298100  0.116500  1.0  -0.1128
  C  C221  1  0.282500  0.283400  0.073000  1.0  0.0619
  C  C222  1  0.308300  0.221100  0.079100  1.0  -0.1075
  C  C223  1  0.263100  0.173000  0.125600  1.0  -0.1015
  C  C224  1  0.331100  0.335600  0.022400  1.0  0.0216
  C  C225  1  0.345700  0.387700  0.028900  1.0  -0.1106
  C  C226  1  0.394300  0.434100  0.981700  1.0  -0.0028
  C  C227  1  0.426090  0.428020  0.927600  1.0  -0.1185
  C  C228  1  0.480390  0.477020  0.876800  1.0  0.7034
  C  C229  1  0.410100  0.377500  0.920100  1.0  -0.0063
  C  C230  1  0.362500  0.330000  0.967600  1.0  -0.1364
  C  C231  1  0.933260  0.207480  0.380400  1.0  0.1713
  C  C232  1  0.871530  0.279240  0.436300  1.0  0.1791
  C  C233  1  0.833030  0.276640  0.492100  1.0  -0.1696
  C  C234  1  0.776500  0.329000  0.501600  1.0  0.165
  C  C235  1  0.727180  0.371740  0.580500  1.0  0.1471
  C  C236  1  0.674200  0.292800  0.654800  1.0  0.0653
  C  C237  1  0.701100  0.274600  0.608200  1.0  -0.1303
  C  C238  1  0.759300  0.390100  0.456300  1.0  -0.1765
  C  C239  1  0.800400  0.390800  0.398600  1.0  -0.0926
  C  C240  1  0.858600  0.338300  0.389100  1.0  -0.2169
  C  C241  1  0.992600  0.172000  0.461400  1.0  -0.1151
  C  C242  1  0.029700  0.128700  0.436700  1.0  0.0296
  C  C243  1  0.093660  0.854580  0.295300  1.0  0.6785
  C  C244  1  0.047590  0.800520  0.346500  1.0  -0.1429
  C  C245  1  0.069300  0.739100  0.349300  1.0  0.0024
  C  C246  1  0.030600  0.690700  0.397100  1.0  -0.1446
  C  C247  1  0.962700  0.705700  0.443100  1.0  0.0349
  C  C248  1  0.938200  0.766600  0.441000  1.0  -0.1205
  C  C249  1  0.979420  0.816860  0.392500  1.0  -0.0757
  C  C250  1  0.920100  0.651800  0.495400  1.0  0.0702
  C  C251  1  0.903400  0.601500  0.490100  1.0  -0.1498
  C  C252  1  0.891500  0.655600  0.551000  1.0  -0.2012
  C  C253  1  0.771200  0.510100  0.641500  1.0  0.7235
  C  C254  1  0.824300  0.558700  0.590500  1.0  -0.1221
  C  C255  1  0.860100  0.553300  0.538300  1.0  -0.053
  C  C256  1  0.840600  0.609400  0.596600  1.0  -0.0289
  C  C257  1  0.108030  0.936540  0.693000  1.0  0.6979
  C  C258  1  0.189980  0.956840  0.703800  1.0  -0.0854
  C  C259  1  0.173000  0.010500  0.712500  1.0  -0.0534
  C  C260  1  0.249400  0.032300  0.718900  1.0  -0.1695
  C  C261  1  0.348500  0.994700  0.718300  1.0  0.0792
  C  C262  1  0.366100  0.939800  0.710400  1.0  -0.1037
  C  C263  1  0.289420  0.918460  0.703900  1.0  -0.1094
  C  C264  1  0.429380  0.019640  0.725400  1.0  0.0759
  C  C265  1  0.516900  0.976500  0.746300  1.0  -0.1429
  C  C266  1  0.590800  0.999900  0.755700  1.0  -0.0739
  C  C267  1  0.580310  0.063580  0.743600  1.0  -0.1051
  C  C268  1  0.653680  0.085940  0.758100  1.0  0.647
  C  C269  1  0.496600  0.107200  0.719800  1.0  -0.1181
  C  C270  1  0.422300  0.082500  0.712500  1.0  -0.1135
  C  C271  1  0.855900  0.863500  0.780500  1.0  0.7042
  C  C272  1  0.808640  0.810920  0.831600  1.0  -0.1128
  C  C273  1  0.834300  0.749000  0.835400  1.0  -0.0557
  C  C274  1  0.788500  0.701900  0.883500  1.0  -0.1137
  C  C275  1  0.717500  0.716600  0.927000  1.0  0.0626
  C  C276  1  0.691700  0.778900  0.920900  1.0  -0.1076
  C  C277  1  0.736900  0.827000  0.874400  1.0  -0.1014
  C  C278  1  0.668900  0.664400  0.977600  1.0  0.0206
  C  C279  1  0.654300  0.612300  0.971100  1.0  -0.1087
  C  C280  1  0.605700  0.565900  0.018300  1.0  -0.0028
  C  C281  1  0.573910  0.571980  0.072400  1.0  -0.118
  C  C282  1  0.519610  0.522980  0.123200  1.0  0.7051
  C  C283  1  0.589900  0.622500  0.079900  1.0  -0.0056
  C  C284  1  0.637500  0.670000  0.032400  1.0  -0.1354
  C  C285  1  0.066740  0.792520  0.619600  1.0  0.1698
  C  C286  1  0.128470  0.720760  0.563700  1.0  0.1783
  C  C287  1  0.166970  0.723360  0.507900  1.0  -0.1705
  C  C288  1  0.223500  0.671000  0.498400  1.0  0.1655
  C  C289  1  0.272820  0.628260  0.419500  1.0  0.1464
  C  C290  1  0.325800  0.707200  0.345200  1.0  0.0676
  C  C291  1  0.298900  0.725400  0.391800  1.0  -0.1291
  C  C292  1  0.240700  0.609900  0.543700  1.0  -0.1752
  C  C293  1  0.199600  0.609200  0.601400  1.0  -0.0915
  C  C294  1  0.141400  0.661700  0.610900  1.0  -0.2162
  C  C295  1  0.007400  0.828000  0.538600  1.0  -0.1163
  C  C296  1  0.970300  0.871300  0.563300  1.0  0.0294
  C  C297  1  0.906340  0.145420  0.704700  1.0  0.6789
  C  C298  1  0.952410  0.199480  0.653500  1.0  -0.1435
  C  C299  1  0.930700  0.260900  0.650700  1.0  0.0004
  C  C300  1  0.969400  0.309300  0.602900  1.0  -0.1446
  C  C301  1  0.037300  0.294300  0.556900  1.0  0.0332
  C  C302  1  0.061800  0.233400  0.559000  1.0  -0.1195
  C  C303  1  0.020580  0.183140  0.607500  1.0  -0.0735
  C  C304  1  0.079900  0.348200  0.504600  1.0  0.0705
  C  C305  1  0.096600  0.398500  0.509900  1.0  -0.1465
  C  C306  1  0.108500  0.344400  0.449000  1.0  -0.1991
  C  C307  1  0.228800  0.489900  0.358500  1.0  0.7239
  C  C308  1  0.175700  0.441300  0.409500  1.0  -0.1222
  C  C309  1  0.139900  0.446700  0.461700  1.0  -0.0517
  C  C310  1  0.159400  0.390600  0.403400  1.0  -0.0296
  C  C311  1  0.262430  0.436540  0.193000  1.0  0.6984
  C  C312  1  0.149380  0.456840  0.203800  1.0  -0.0809
  C  C313  1  0.104000  0.510500  0.212500  1.0  -0.0528
  C  C314  1  0.999400  0.532300  0.218900  1.0  -0.1713
  C  C315  1  0.938500  0.494700  0.218300  1.0  0.08
  C  C316  1  0.983700  0.439800  0.210400  1.0  -0.1068
  C  C317  1  0.088220  0.418460  0.203900  1.0  -0.1089
  C  C318  1  0.825580  0.519640  0.225400  1.0  0.0746
  C  C319  1  0.760300  0.476500  0.246300  1.0  -0.1448
  C  C320  1  0.653600  0.499900  0.255700  1.0  -0.0729
  C  C321  1  0.612510  0.563580  0.243600  1.0  -0.1043
  C  C322  1  0.502280  0.585940  0.258100  1.0  0.6428
  C  C323  1  0.676400  0.607200  0.219800  1.0  -0.1208
  C  C324  1  0.782700  0.582500  0.212500  1.0  -0.1148
  C  C325  1  0.500100  0.363500  0.280500  1.0  0.7061
  C  C326  1  0.548840  0.310920  0.331600  1.0  -0.1165
  C  C327  1  0.581300  0.249000  0.335400  1.0  -0.0582
  C  C328  1  0.626100  0.201900  0.383500  1.0  -0.1139
  C  C329  1  0.638900  0.216600  0.427000  1.0  0.0616
  C  C330  1  0.608500  0.278900  0.420900  1.0  -0.1074
  C  C331  1  0.561700  0.327000  0.374400  1.0  -0.1042
  C  C332  1  0.689100  0.164400  0.477600  1.0  0.0217
  C  C333  1  0.762300  0.112300  0.471100  1.0  -0.1079
  C  C334  1  0.810100  0.065900  0.518300  1.0  -0.0038
  C  C335  1  0.781710  0.071980  0.572400  1.0  -0.1197
  C  C336  1  0.834210  0.022980  0.623200  1.0  0.7046
  C  C337  1  0.707700  0.122500  0.579900  1.0  -0.0036
  C  C338  1  0.660100  0.170000  0.532400  1.0  -0.1363
  C  C339  1  0.521140  0.292520  0.119600  1.0  0.1709
  C  C340  1  0.587070  0.220760  0.063700  1.0  0.1767
  C  C341  1  0.601770  0.223360  0.007900  1.0  -0.1716
  C  C342  1  0.607100  0.171000  0.998400  1.0  0.1646
  C  C343  1  0.679420  0.128260  0.919500  1.0  0.1467
  C  C344  1  0.621800  0.207200  0.845200  1.0  0.0688
  C  C345  1  0.583900  0.225400  0.891800  1.0  -0.1308
  C  C346  1  0.605700  0.109900  0.043700  1.0  -0.1736
  C  C347  1  0.589800  0.109200  0.101400  1.0  -0.0927
  C  C348  1  0.586000  0.161700  0.110900  1.0  -0.2123
  C  C349  1  0.626000  0.328000  0.038600  1.0  -0.1167
  C  C350  1  0.595100  0.371300  0.063300  1.0  0.0306
  C  C351  1  0.243540  0.645420  0.204700  1.0  0.6795
  C  C352  1  0.194610  0.699480  0.153500  1.0  -0.1427
  C  C353  1  0.157700  0.760900  0.150700  1.0  -0.008
  C  C354  1  0.118400  0.809300  0.102900  1.0  -0.1466
  C  C355  1  0.111500  0.794300  0.056900  1.0  0.0335
  C  C356  1  0.145800  0.733400  0.059000  1.0  -0.1178
  C  C357  1  0.188780  0.683140  0.107500  1.0  -0.0733
  C  C358  1  0.067300  0.848200  0.004600  1.0  0.0705
  C  C359  1  0.995000  0.898500  0.009900  1.0  -0.146
  C  C360  1  0.098100  0.844400  0.949000  1.0  -0.2
  C  C361  1  0.922800  0.989900  0.858500  1.0  0.7253
  C  C362  1  0.973500  0.941300  0.909500  1.0  -0.1243
  C  C363  1  0.951700  0.946700  0.961700  1.0  -0.0501
  C  C364  1  0.046600  0.890600  0.903400  1.0  -0.0301
  N  N365  1  0.471770  0.650660  0.885000  1.0  -0.3875
  N  N366  1  0.420830  0.723440  0.926300  1.0  0.0451
  N  N367  1  0.377130  0.826140  0.061200  1.0  0.0425
  N  N368  1  0.317900  0.854400  0.138600  1.0  -0.4547
  N  N369  1  0.992570  0.150660  0.385000  1.0  -0.3827
  N  N370  1  0.929430  0.223440  0.426300  1.0  0.0451
  N  N371  1  0.735530  0.326140  0.561200  1.0  0.0444
  N  N372  1  0.689100  0.354400  0.638600  1.0  -0.4536
  N  N373  1  0.007430  0.849340  0.615000  1.0  -0.3827
  N  N374  1  0.070570  0.776560  0.573700  1.0  0.0464
  N  N375  1  0.264470  0.673860  0.438800  1.0  0.0428
  N  N376  1  0.310900  0.645600  0.361400  1.0  -0.4536
  N  N377  1  0.528230  0.349340  0.115000  1.0  -0.389
  N  N378  1  0.579170  0.276560  0.073700  1.0  0.0449
  N  N379  1  0.622870  0.173860  0.938800  1.0  0.0445
  N  N380  1  0.682100  0.145600  0.861400  1.0  -0.4543
  O  O381  1  0.682040  0.534920  0.799600  1.0  -0.6456
  O  O382  1  0.696910  0.607080  0.827300  1.0  -0.5732
  O  O383  1  0.558310  0.454050  0.716730  1.0  -0.6917
  O  O384  1  0.533310  0.356080  0.751500  1.0  -0.6347
  O  O385  1  0.504160  0.653760  0.759120  1.0  -0.6142
  O  O386  1  0.530600  0.581900  0.718700  1.0  -0.6172
  O  O387  1  0.187280  0.967740  0.330700  1.0  -0.6078
  O  O388  1  0.103320  0.023940  0.385420  1.0  -0.6165
  O  O389  1  0.715390  0.406810  0.797410  1.0  -0.6088
  O  O390  1  0.763820  0.337530  0.752830  1.0  -0.6128
  O  O391  1  0.059660  0.021180  0.185700  1.0  -0.5972
  O  O392  1  0.141120  0.963660  0.131900  1.0  -0.5929
  O  O393  1  0.983440  0.034920  0.299600  1.0  -0.6461
  O  O394  1  0.868710  0.107080  0.327300  1.0  -0.5725
  O  O395  1  0.270910  0.954050  0.216730  1.0  -0.6911
  O  O396  1  0.359110  0.856080  0.251500  1.0  -0.6356
  O  O397  1  0.082960  0.153760  0.259120  1.0  -0.6149
  O  O398  1  0.168800  0.081900  0.218700  1.0  -0.6162
  O  O399  1  0.514280  0.467740  0.830700  1.0  -0.6082
  O  O400  1  0.487320  0.523940  0.885420  1.0  -0.6183
  O  O401  1  0.080390  0.906810  0.297410  1.0  -0.6084
  O  O402  1  0.145820  0.837530  0.252830  1.0  -0.6133
  O  O403  1  0.733460  0.521180  0.685700  1.0  -0.5979
  O  O404  1  0.763320  0.463660  0.631900  1.0  -0.5917
  O  O405  1  0.016560  0.965080  0.700400  1.0  -0.6457
  O  O406  1  0.131290  0.892920  0.672700  1.0  -0.5726
  O  O407  1  0.729090  0.045950  0.783270  1.0  -0.6915
  O  O408  1  0.640890  0.143920  0.748500  1.0  -0.6363
  O  O409  1  0.917040  0.846240  0.740880  1.0  -0.6156
  O  O410  1  0.831200  0.918100  0.781300  1.0  -0.6154
  O  O411  1  0.485720  0.532260  0.169300  1.0  -0.6075
  O  O412  1  0.512680  0.476060  0.114580  1.0  -0.6169
  O  O413  1  0.919610  0.093190  0.702590  1.0  -0.6077
  O  O414  1  0.854180  0.162470  0.747170  1.0  -0.6145
  O  O415  1  0.266540  0.478820  0.314300  1.0  -0.5988
  O  O416  1  0.236680  0.536340  0.368100  1.0  -0.5915
  O  O417  1  0.317960  0.465080  0.200400  1.0  -0.6459
  O  O418  1  0.303090  0.392920  0.172700  1.0  -0.5733
  O  O419  1  0.441690  0.545950  0.283270  1.0  -0.6893
  O  O420  1  0.466690  0.643920  0.248500  1.0  -0.6329
  O  O421  1  0.495840  0.346240  0.240880  1.0  -0.6148
  O  O422  1  0.469400  0.418100  0.281300  1.0  -0.6162
  O  O423  1  0.812720  0.032260  0.669300  1.0  -0.6079
  O  O424  1  0.896680  0.976060  0.614580  1.0  -0.6174
  O  O425  1  0.284610  0.593190  0.202590  1.0  -0.6089
  O  O426  1  0.236180  0.662470  0.247170  1.0  -0.6138
  O  O427  1  0.940340  0.978820  0.814300  1.0  -0.5967
  O  O428  1  0.858880  0.036340  0.868100  1.0  -0.5926
