# generated using pymatgen
data_Cu5H24C30(NO2)12
_symmetry_space_group_name_H-M   'P 1'
_cell_length_a   11.58300000
_cell_length_b   11.66500000
_cell_length_c   14.15900000
_cell_angle_alpha   93.93200000
_cell_angle_beta   111.98000000
_cell_angle_gamma   110.01800000
_symmetry_Int_Tables_number   1
_chemical_formula_structural   Cu5H24C30(NO2)12
_chemical_formula_sum   'Cu5 H24 C30 N12 O24'
_cell_volume   1623.83909103
_cell_formula_units_Z   1
loop_
 _symmetry_equiv_pos_site_id
 _symmetry_equiv_pos_as_xyz
  1  'x, y, z'
loop_
 _atom_site_type_symbol
 _atom_site_label
 _atom_site_symmetry_multiplicity
 _atom_site_fract_x
 _atom_site_fract_y
 _atom_site_fract_z
 _atom_site_occupancy
 _atom_site_charge
  Cu  Cu1  1  0.391200  0.353410  0.355170  1.0  0.8398
  Cu  Cu2  1  0.368430  0.912680  0.524510  1.0  0.8979
  Cu  Cu3  1  0.608800  0.646590  0.644830  1.0  0.8427
  Cu  Cu4  1  0.631570  0.087320  0.475490  1.0  0.8959
  Cu  Cu5  1  0.500000  0.000000  0.000000  1.0  0.7402
  H  H6  1  0.110400  0.965400  0.326600  1.0  0.1536
  H  H7  1  0.146200  0.107400  0.376100  1.0  0.1325
  H  H8  1  0.278900  0.180800  0.558700  1.0  0.1463
  H  H9  1  0.174100  0.100800  0.600700  1.0  0.1285
  H  H10  1  0.694900  0.600000  0.165100  1.0  0.1388
  H  H11  1  0.791400  0.741200  0.228200  1.0  0.1486
  H  H12  1  0.707000  0.434900  0.245100  1.0  0.1338
  H  H13  1  0.806100  0.460600  0.365600  1.0  0.1396
  H  H14  1  0.966500  0.535900  0.621400  1.0  0.1314
  H  H15  1  0.002300  0.585200  0.741100  1.0  0.1337
  H  H16  1  0.087300  0.894400  0.742700  1.0  0.1438
  H  H17  1  0.062700  0.790500  0.808800  1.0  0.1465
  H  H18  1  0.889600  0.034600  0.673400  1.0  0.1499
  H  H19  1  0.853800  0.892600  0.623900  1.0  0.1343
  H  H20  1  0.721100  0.819200  0.441300  1.0  0.1519
  H  H21  1  0.825900  0.899200  0.399300  1.0  0.1283
  H  H22  1  0.305100  0.400000  0.834900  1.0  0.1464
  H  H23  1  0.208600  0.258800  0.771800  1.0  0.1477
  H  H24  1  0.293000  0.565100  0.754900  1.0  0.1395
  H  H25  1  0.193900  0.539400  0.634400  1.0  0.1403
  H  H26  1  0.033500  0.464100  0.378600  1.0  0.1325
  H  H27  1  0.997700  0.414800  0.258900  1.0  0.1356
  H  H28  1  0.912700  0.105600  0.257300  1.0  0.1428
  H  H29  1  0.937300  0.209500  0.191200  1.0  0.1473
  C  C30  1  0.321300  0.079100  0.383700  1.0  0.7029
  C  C31  1  0.176700  0.037700  0.385600  1.0  -0.1801
  C  C32  1  0.244300  0.099600  0.577200  1.0  -0.2283
  C  C33  1  0.358300  0.092600  0.667900  1.0  0.7522
  C  C34  1  0.088500  0.889100  0.481800  1.0  0.5237
  C  C35  1  0.929500  0.697300  0.399700  1.0  0.5613
  C  C36  1  0.789800  0.656600  0.211700  1.0  -0.208
  C  C37  1  0.873400  0.662200  0.155100  1.0  0.5281
  C  C38  1  0.746900  0.492700  0.314000  1.0  -0.2434
  C  C39  1  0.634900  0.488000  0.343000  1.0  0.7149
  C  C40  1  0.023900  0.751400  0.573000  1.0  0.5698
  C  C41  1  0.960400  0.596900  0.669500  1.0  -0.2179
  C  C42  1  0.812900  0.568400  0.640900  1.0  0.7097
  C  C43  1  0.104900  0.819800  0.761000  1.0  -0.2388
  C  C44  1  0.255800  0.859100  0.819000  1.0  0.696
  C  C45  1  0.678700  0.920900  0.616300  1.0  0.7037
  C  C46  1  0.823300  0.962300  0.614400  1.0  -0.2114
  C  C47  1  0.755700  0.900400  0.422800  1.0  -0.2245
  C  C48  1  0.641700  0.907400  0.332100  1.0  0.7328
  C  C49  1  0.911500  0.110900  0.518200  1.0  0.5235
  C  C50  1  0.070500  0.302700  0.600300  1.0  0.5607
  C  C51  1  0.210200  0.343400  0.788300  1.0  -0.2085
  C  C52  1  0.126600  0.337800  0.844900  1.0  0.5255
  C  C53  1  0.253100  0.507300  0.686000  1.0  -0.2432
  C  C54  1  0.365100  0.512000  0.657000  1.0  0.7137
  C  C55  1  0.976100  0.248600  0.427000  1.0  0.5703
  C  C56  1  0.039600  0.403100  0.330500  1.0  -0.2153
  C  C57  1  0.187100  0.431600  0.359100  1.0  0.7071
  C  C58  1  0.895100  0.180200  0.239000  1.0  -0.2379
  C  C59  1  0.744200  0.140900  0.181000  1.0  0.6967
  N  N60  1  0.179300  0.003200  0.484000  1.0  -0.0762
  N  N61  1  0.001500  0.809300  0.388800  1.0  -0.5411
  N  N62  1  0.830600  0.613900  0.308500  1.0  -0.0174
  N  N63  1  0.938200  0.659600  0.488300  1.0  -0.5461
  N  N64  1  0.037200  0.721400  0.665300  1.0  -0.0084
  N  N65  1  0.096900  0.870200  0.574400  1.0  -0.5791
  N  N66  1  0.820700  0.996800  0.516000  1.0  -0.0748
  N  N67  1  0.998500  0.190700  0.611200  1.0  -0.5585
  N  N68  1  0.169400  0.386100  0.691500  1.0  -0.0199
  N  N69  1  0.061800  0.340400  0.511700  1.0  -0.5505
  N  N70  1  0.962800  0.278600  0.334700  1.0  -0.0064
  N  N71  1  0.903100  0.129800  0.425600  1.0  -0.5819
  O  O72  1  0.334600  0.140200  0.316500  1.0  -0.5512
  O  O73  1  0.404500  0.041900  0.444000  1.0  -0.6159
  O  O74  1  0.422200  0.029600  0.652000  1.0  -0.563
  O  O75  1  0.390100  0.154200  0.753900  1.0  -0.4746
  O  O76  1  0.979500  0.624000  0.195800  1.0  -0.4746
  O  O77  1  0.818400  0.700900  0.061100  1.0  -0.4246
  O  O78  1  0.611400  0.584500  0.353500  1.0  -0.5446
  O  O79  1  0.566500  0.384000  0.354200  1.0  -0.5699
  O  O80  1  0.779700  0.661800  0.645900  1.0  -0.6044
  O  O81  1  0.731100  0.456500  0.620100  1.0  -0.5083
  O  O82  1  0.319100  0.814700  0.784200  1.0  -0.5245
  O  O83  1  0.309000  0.939800  0.904200  1.0  -0.5711
  O  O84  1  0.665400  0.859800  0.683500  1.0  -0.556
  O  O85  1  0.595500  0.958100  0.556000  1.0  -0.6166
  O  O86  1  0.577800  0.970400  0.348000  1.0  -0.5627
  O  O87  1  0.609900  0.845800  0.246100  1.0  -0.4758
  O  O88  1  0.020500  0.376000  0.804200  1.0  -0.4746
  O  O89  1  0.181600  0.299100  0.938900  1.0  -0.4236
  O  O90  1  0.388600  0.415500  0.646500  1.0  -0.5533
  O  O91  1  0.433500  0.616000  0.645800  1.0  -0.5705
  O  O92  1  0.220300  0.338200  0.354100  1.0  -0.6048
  O  O93  1  0.268900  0.543500  0.379900  1.0  -0.5094
  O  O94  1  0.680900  0.185300  0.215800  1.0  -0.5211
  O  O95  1  0.691000  0.060200  0.095800  1.0  -0.5697
