# generated using pymatgen
data_Co2H32C41(NO3)4
_symmetry_space_group_name_H-M   'P 1'
_cell_length_a   9.31370000
_cell_length_b   10.40630000
_cell_length_c   23.88900000
_cell_angle_alpha   91.60300000
_cell_angle_beta   90.00000000
_cell_angle_gamma   90.00000000
_symmetry_Int_Tables_number   1
_chemical_formula_structural   Co2H32C41(NO3)4
_chemical_formula_sum   'Co4 H64 C82 N8 O24'
_cell_volume   2314.44339499
_cell_formula_units_Z   2
loop_
 _symmetry_equiv_pos_site_id
 _symmetry_equiv_pos_as_xyz
  1  'x, y, z'
loop_
 _atom_site_type_symbol
 _atom_site_label
 _atom_site_symmetry_multiplicity
 _atom_site_fract_x
 _atom_site_fract_y
 _atom_site_fract_z
 _atom_site_occupancy
 _atom_site_charge
  Co  Co1  1  0.140720  0.000000  0.750000  1.0  0.9069
  Co  Co2  1  0.859280  0.000000  0.250000  1.0  0.9049
  Co  Co3  1  0.500000  0.500000  0.500000  1.0  0.9349
  Co  Co4  1  0.500000  0.500000  0.000000  1.0  0.9349
  H  H5  1  0.869400  0.812100  0.627900  1.0  0.0955
  H  H6  1  0.292100  0.400900  0.301200  1.0  0.0703
  H  H7  1  0.188100  0.308600  0.267200  1.0  0.0766
  H  H8  1  0.924800  0.635700  0.382300  1.0  0.1313
  H  H9  1  0.515900  0.908500  0.544200  1.0  0.0927
  H  H10  1  0.746500  0.649200  0.446900  1.0  0.0762
  H  H11  1  0.733900  0.177100  0.631900  1.0  0.0926
  H  H12  1  0.568400  0.342400  0.160800  1.0  0.1322
  H  H13  1  0.818900  0.267600  0.355300  1.0  0.1299
  H  H14  1  0.409100  0.218100  0.304800  1.0  0.1157
  H  H15  1  0.539300  0.118600  0.576400  1.0  0.1044
  H  H16  1  0.639900  0.295000  0.419100  1.0  0.0623
  H  H17  1  0.606000  0.090400  0.311800  1.0  0.0589
  H  H18  1  0.764000  0.214700  0.173900  1.0  0.0683
  H  H19  1  0.123600  0.570100  0.330700  1.0  0.073
  H  H20  1  0.999100  0.609900  0.290200  1.0  0.0603
  H  H21  1  0.869400  0.187900  0.872100  1.0  0.0955
  H  H22  1  0.292100  0.599100  0.198800  1.0  0.0706
  H  H23  1  0.188100  0.691400  0.232800  1.0  0.076
  H  H24  1  0.924800  0.364300  0.117700  1.0  0.1315
  H  H25  1  0.515900  0.091500  0.955800  1.0  0.0926
  H  H26  1  0.746500  0.350800  0.053100  1.0  0.0759
  H  H27  1  0.733900  0.822900  0.868100  1.0  0.0931
  H  H28  1  0.568400  0.657600  0.339200  1.0  0.132
  H  H29  1  0.818900  0.732400  0.144700  1.0  0.1303
  H  H30  1  0.409100  0.781900  0.195200  1.0  0.1158
  H  H31  1  0.539300  0.881400  0.923600  1.0  0.1049
  H  H32  1  0.639900  0.705000  0.080900  1.0  0.0623
  H  H33  1  0.606000  0.909600  0.188200  1.0  0.0591
  H  H34  1  0.764000  0.785300  0.326100  1.0  0.0686
  H  H35  1  0.123600  0.429900  0.169300  1.0  0.0725
  H  H36  1  0.999100  0.390100  0.209800  1.0  0.0598
  H  H37  1  0.130600  0.187900  0.372100  1.0  0.0956
  H  H38  1  0.707900  0.599100  0.698800  1.0  0.07
  H  H39  1  0.811900  0.691400  0.732800  1.0  0.0758
  H  H40  1  0.075200  0.364300  0.617700  1.0  0.1316
  H  H41  1  0.484100  0.091500  0.455800  1.0  0.0928
  H  H42  1  0.253500  0.350800  0.553100  1.0  0.0761
  H  H43  1  0.266100  0.822900  0.368100  1.0  0.0931
  H  H44  1  0.431600  0.657600  0.839200  1.0  0.1317
  H  H45  1  0.181100  0.732400  0.644700  1.0  0.1301
  H  H46  1  0.590900  0.781900  0.695200  1.0  0.1159
  H  H47  1  0.460700  0.881400  0.423600  1.0  0.1052
  H  H48  1  0.360100  0.705000  0.580900  1.0  0.0627
  H  H49  1  0.394000  0.909600  0.688200  1.0  0.059
  H  H50  1  0.236000  0.785300  0.826100  1.0  0.0686
  H  H51  1  0.876400  0.429900  0.669300  1.0  0.0731
  H  H52  1  0.000900  0.390100  0.709800  1.0  0.0591
  H  H53  1  0.130600  0.812100  0.127900  1.0  0.095
  H  H54  1  0.707900  0.400900  0.801200  1.0  0.0692
  H  H55  1  0.811900  0.308600  0.767200  1.0  0.0767
  H  H56  1  0.075200  0.635700  0.882300  1.0  0.132
  H  H57  1  0.484100  0.908500  0.044200  1.0  0.0927
  H  H58  1  0.253500  0.649200  0.946900  1.0  0.0765
  H  H59  1  0.266100  0.177100  0.131900  1.0  0.0923
  H  H60  1  0.431600  0.342400  0.660800  1.0  0.132
  H  H61  1  0.181100  0.267600  0.855300  1.0  0.1299
  H  H62  1  0.590900  0.218100  0.804800  1.0  0.1158
  H  H63  1  0.460700  0.118600  0.076400  1.0  0.1048
  H  H64  1  0.360100  0.295000  0.919100  1.0  0.0629
  H  H65  1  0.394000  0.090400  0.811800  1.0  0.059
  H  H66  1  0.236000  0.214700  0.673900  1.0  0.0686
  H  H67  1  0.876400  0.570100  0.830700  1.0  0.0726
  H  H68  1  0.000900  0.609900  0.790200  1.0  0.0596
  C  C69  1  0.803800  0.874100  0.617200  1.0  -0.0219
  C  C70  1  0.246500  0.385500  0.265180  1.0  0.0557
  C  C71  1  0.866200  0.565000  0.388290  1.0  -0.3251
  C  C72  1  0.592000  0.931300  0.567650  1.0  -0.0187
  C  C73  1  0.822300  0.001200  0.635190  1.0  -0.1644
  C  C74  1  0.688500  0.839100  0.583400  1.0  -0.1796
  C  C75  1  0.946300  0.039000  0.670940  1.0  0.6433
  C  C76  1  0.886100  0.451000  0.357980  1.0  0.3454
  C  C77  1  0.464900  0.294100  0.231520  1.0  0.3518
  C  C78  1  0.758700  0.571600  0.427180  1.0  0.1772
  C  C79  1  0.669200  0.699800  0.565850  1.0  0.6903
  C  C80  1  0.722900  0.092000  0.619730  1.0  -0.012
  C  C81  1  0.574100  0.292000  0.192240  1.0  -0.244
  C  C82  1  0.803300  0.348100  0.372100  1.0  -0.2349
  C  C83  1  0.479300  0.218200  0.277110  1.0  -0.3202
  C  C84  1  0.606800  0.057300  0.586260  1.0  -0.1303
  C  C85  1  0.697400  0.365400  0.411200  1.0  0.1823
  C  C86  1  0.598400  0.143000  0.281130  1.0  0.1711
  C  C87  1  0.691000  0.214500  0.200410  1.0  0.1901
  C  C88  1  0.062700  0.540300  0.300090  1.0  0.0507
  C  C89  1  0.803800  0.125900  0.882800  1.0  -0.0224
  C  C90  1  0.246500  0.614500  0.234820  1.0  0.0577
  C  C91  1  0.866200  0.435000  0.111710  1.0  -0.328
  C  C92  1  0.592000  0.068700  0.932350  1.0  -0.0193
  C  C93  1  0.822300  0.998800  0.864810  1.0  -0.1639
  C  C94  1  0.688500  0.160900  0.916600  1.0  -0.178
  C  C95  1  0.946300  0.961000  0.829060  1.0  0.6435
  C  C96  1  0.886100  0.549000  0.142020  1.0  0.3443
  C  C97  1  0.464900  0.705900  0.268480  1.0  0.3514
  C  C98  1  0.758700  0.428400  0.072820  1.0  0.1773
  C  C99  1  0.669200  0.300200  0.934150  1.0  0.6926
  C  C100  1  0.722900  0.908000  0.880270  1.0  -0.0118
  C  C101  1  0.574100  0.708000  0.307760  1.0  -0.2432
  C  C102  1  0.803300  0.651900  0.127900  1.0  -0.2363
  C  C103  1  0.479300  0.781800  0.222890  1.0  -0.3194
  C  C104  1  0.606800  0.942700  0.913740  1.0  -0.13
  C  C105  1  0.697400  0.634600  0.088800  1.0  0.1821
  C  C106  1  0.598400  0.857000  0.218870  1.0  0.1703
  C  C107  1  0.691000  0.785500  0.299590  1.0  0.1902
  C  C108  1  0.062700  0.459700  0.199910  1.0  0.0509
  C  C109  1  0.196200  0.125900  0.382800  1.0  -0.0228
  C  C110  1  0.753500  0.614500  0.734820  1.0  0.0574
  C  C111  1  0.133800  0.435000  0.611710  1.0  -0.3277
  C  C112  1  0.408000  0.068700  0.432350  1.0  -0.0194
  C  C113  1  0.177700  0.998800  0.364810  1.0  -0.166
  C  C114  1  0.311500  0.160900  0.416600  1.0  -0.1775
  C  C115  1  0.053700  0.961000  0.329060  1.0  0.6416
  C  C116  1  0.113900  0.549000  0.642020  1.0  0.344
  C  C117  1  0.535100  0.705900  0.768480  1.0  0.3512
  C  C118  1  0.241300  0.428400  0.572820  1.0  0.178
  C  C119  1  0.330800  0.300200  0.434150  1.0  0.6829
  C  C120  1  0.277100  0.908000  0.380270  1.0  -0.012
  C  C121  1  0.425900  0.708000  0.807760  1.0  -0.2428
  C  C122  1  0.196700  0.651900  0.627900  1.0  -0.2368
  C  C123  1  0.520700  0.781800  0.722890  1.0  -0.3189
  C  C124  1  0.393200  0.942700  0.413740  1.0  -0.1305
  C  C125  1  0.302600  0.634600  0.588800  1.0  0.1823
  C  C126  1  0.401600  0.857000  0.718870  1.0  0.1698
  C  C127  1  0.309000  0.785500  0.799590  1.0  0.1913
  C  C128  1  0.937300  0.459700  0.699910  1.0  0.0504
  C  C129  1  0.196200  0.874100  0.117200  1.0  -0.0218
  C  C130  1  0.753500  0.385500  0.765180  1.0  0.0552
  C  C131  1  0.133800  0.565000  0.888290  1.0  -0.3261
  C  C132  1  0.408000  0.931300  0.067650  1.0  -0.0191
  C  C133  1  0.177700  0.001200  0.135190  1.0  -0.1665
  C  C134  1  0.311500  0.839100  0.083400  1.0  -0.1799
  C  C135  1  0.053700  0.039000  0.170940  1.0  0.6414
  C  C136  1  0.113900  0.451000  0.857980  1.0  0.345
  C  C137  1  0.535100  0.294100  0.731520  1.0  0.3516
  C  C138  1  0.241300  0.571600  0.927180  1.0  0.1773
  C  C139  1  0.330800  0.699800  0.065850  1.0  0.6806
  C  C140  1  0.277100  0.092000  0.119730  1.0  -0.0122
  C  C141  1  0.425900  0.292000  0.692240  1.0  -0.2434
  C  C142  1  0.196700  0.348100  0.872100  1.0  -0.2356
  C  C143  1  0.520700  0.218200  0.777110  1.0  -0.3195
  C  C144  1  0.393200  0.057300  0.086260  1.0  -0.1305
  C  C145  1  0.302600  0.365400  0.911200  1.0  0.1822
  C  C146  1  0.401600  0.143000  0.781130  1.0  0.1706
  C  C147  1  0.309000  0.214500  0.700410  1.0  0.1911
  C  C148  1  0.937300  0.540300  0.800090  1.0  0.0506
  C  C149  1  0.154200  0.500000  0.250000  1.0  -0.051
  C  C150  1  0.845800  0.500000  0.750000  1.0  -0.0501
  N  N151  1  0.705900  0.140000  0.243430  1.0  -0.3303
  N  N152  1  0.670300  0.475800  0.439070  1.0  -0.322
  N  N153  1  0.705900  0.860000  0.256570  1.0  -0.3303
  N  N154  1  0.670300  0.524200  0.060930  1.0  -0.3214
  N  N155  1  0.294100  0.860000  0.756570  1.0  -0.3326
  N  N156  1  0.329700  0.524200  0.560930  1.0  -0.3224
  N  N157  1  0.294100  0.140000  0.743430  1.0  -0.3332
  N  N158  1  0.329700  0.475800  0.939070  1.0  -0.3221
  O  O159  1  0.735800  0.618300  0.592170  1.0  -0.56
  O  O160  1  0.580800  0.675900  0.527100  1.0  -0.62
  O  O161  1  0.036700  0.952300  0.682100  1.0  -0.5943
  O  O162  1  0.958200  0.148900  0.689960  1.0  -0.6014
  O  O163  1  0.981000  0.432100  0.316570  1.0  -0.2537
  O  O164  1  0.353200  0.370300  0.221870  1.0  -0.2513
  O  O165  1  0.735800  0.381700  0.907830  1.0  -0.5598
  O  O166  1  0.580800  0.324100  0.972900  1.0  -0.6196
  O  O167  1  0.036700  0.047700  0.817900  1.0  -0.594
  O  O168  1  0.958200  0.851100  0.810040  1.0  -0.601
  O  O169  1  0.981000  0.567900  0.183430  1.0  -0.2529
  O  O170  1  0.353200  0.629700  0.278130  1.0  -0.2532
  O  O171  1  0.264200  0.381700  0.407830  1.0  -0.5603
  O  O172  1  0.419200  0.324100  0.472900  1.0  -0.619
  O  O173  1  0.963300  0.047700  0.317900  1.0  -0.5955
  O  O174  1  0.041800  0.851100  0.310040  1.0  -0.6012
  O  O175  1  0.019000  0.567900  0.683430  1.0  -0.2534
  O  O176  1  0.646800  0.629700  0.778130  1.0  -0.2534
  O  O177  1  0.264200  0.618300  0.092170  1.0  -0.5604
  O  O178  1  0.419200  0.675900  0.027100  1.0  -0.6194
  O  O179  1  0.963300  0.952300  0.182100  1.0  -0.5962
  O  O180  1  0.041800  0.148900  0.189960  1.0  -0.6017
  O  O181  1  0.019000  0.432100  0.816570  1.0  -0.2538
  O  O182  1  0.646800  0.370300  0.721870  1.0  -0.2519
