# generated using pymatgen
data_Zn2H32C41(N2O7)2
_symmetry_space_group_name_H-M   'P 1'
_cell_length_a   9.00560000
_cell_length_b   10.72630000
_cell_length_c   12.98990000
_cell_angle_alpha   104.04700000
_cell_angle_beta   90.00000000
_cell_angle_gamma   90.00000000
_symmetry_Int_Tables_number   1
_chemical_formula_structural   Zn2H32C41(N2O7)2
_chemical_formula_sum   'Zn2 H32 C41 N4 O14'
_cell_volume   1217.26052822
_cell_formula_units_Z   1
loop_
 _symmetry_equiv_pos_site_id
 _symmetry_equiv_pos_as_xyz
  1  'x, y, z'
loop_
 _atom_site_type_symbol
 _atom_site_label
 _atom_site_symmetry_multiplicity
 _atom_site_fract_x
 _atom_site_fract_y
 _atom_site_fract_z
 _atom_site_occupancy
 _atom_site_charge
  Zn  Zn1  1  0.619260  0.500000  0.000000  1.0  0.8647
  Zn  Zn2  1  0.934460  0.000000  0.500000  1.0  0.8727
  H  H3  1  0.775800  0.179500  0.386800  1.0  0.0913
  H  H4  1  0.602800  0.170000  0.256300  1.0  0.1346
  H  H5  1  0.619500  0.787500  0.201300  1.0  0.1398
  H  H6  1  0.774500  0.810100  0.340700  1.0  0.0834
  H  H7  1  0.511700  0.115300  0.077300  1.0  0.0624
  H  H8  1  0.377300  0.108100  0.153400  1.0  0.0737
  H  H9  1  0.302600  0.821600  0.029700  1.0  0.0797
  H  H10  1  0.200300  0.929100  0.098300  1.0  0.0747
  H  H11  1  0.900300  0.808800  0.843900  1.0  0.1115
  H  H12  1  0.707700  0.680800  0.866000  1.0  0.0747
  H  H13  1  0.887900  0.619000  0.118300  1.0  0.0716
  H  H14  1  0.089000  0.742400  0.102100  1.0  0.1389
  H  H15  1  0.311500  0.295700  0.755700  1.0  0.1041
  H  H16  1  0.992400  0.407000  0.583100  1.0  0.1157
  H  H17  1  0.237700  0.667600  0.782600  1.0  0.1019
  H  H18  1  0.775800  0.820500  0.613200  1.0  0.0798
  H  H19  1  0.602800  0.830000  0.743700  1.0  0.1333
  H  H20  1  0.619500  0.212500  0.798700  1.0  0.1394
  H  H21  1  0.774500  0.189900  0.659300  1.0  0.0836
  H  H22  1  0.511700  0.884700  0.922700  1.0  0.062
  H  H23  1  0.377300  0.891900  0.846600  1.0  0.0714
  H  H24  1  0.302600  0.178400  0.970300  1.0  0.08
  H  H25  1  0.200300  0.070900  0.901700  1.0  0.0744
  H  H26  1  0.900300  0.191200  0.156100  1.0  0.1311
  H  H27  1  0.707700  0.319200  0.134000  1.0  0.0756
  H  H28  1  0.887900  0.381000  0.881700  1.0  0.0725
  H  H29  1  0.089000  0.257600  0.897900  1.0  0.1387
  H  H30  1  0.311500  0.704300  0.244300  1.0  0.1052
  H  H31  1  0.992400  0.593000  0.416900  1.0  0.1209
  H  H32  1  0.237700  0.332400  0.217400  1.0  0.1049
  H  H33  1  0.049920  0.742510  0.705930  1.0  0.1256
  H  H34  1  0.967710  0.390520  0.427300  1.0  0.1498
  C  C35  1  0.742200  0.099300  0.349400  1.0  0.2069
  C  C36  1  0.640800  0.094900  0.269800  1.0  -0.3142
  C  C37  1  0.596300  0.974700  0.209600  1.0  0.3335
  C  C38  1  0.648700  0.869200  0.238400  1.0  -0.2871
  C  C39  1  0.743200  0.883600  0.320900  1.0  0.1857
  C  C40  1  0.437600  0.058900  0.095800  1.0  0.0613
  C  C41  1  0.243300  0.896800  0.028500  1.0  0.0545
  C  C42  1  0.018300  0.788400  0.969700  1.0  0.3705
  C  C43  1  0.901100  0.769600  0.900400  1.0  -0.2418
  C  C44  1  0.785700  0.693200  0.914300  1.0  0.1946
  C  C45  1  0.891400  0.656900  0.061100  1.0  0.1928
  C  C46  1  0.012500  0.731300  0.052500  1.0  -0.3139
  C  C47  1  0.421700  0.523500  0.856700  1.0  0.6634
  C  C48  1  0.295700  0.487600  0.779800  1.0  -0.1553
  C  C49  1  0.259100  0.361000  0.736100  1.0  0.0129
  C  C50  1  0.145400  0.330800  0.663700  1.0  -0.1457
  C  C51  1  0.068300  0.427500  0.632900  1.0  -0.127
  C  C52  1  0.215900  0.582200  0.750900  1.0  -0.105
  C  C53  1  0.104100  0.191400  0.616800  1.0  0.696
  C  C54  1  0.104700  0.554900  0.676500  1.0  0.3084
  C  C55  1  0.742200  0.900700  0.650600  1.0  0.197
  C  C56  1  0.640800  0.905100  0.730200  1.0  -0.3005
  C  C57  1  0.596300  0.025300  0.790400  1.0  0.3485
  C  C58  1  0.648700  0.130800  0.761600  1.0  -0.2951
  C  C59  1  0.743200  0.116400  0.679100  1.0  0.1891
  C  C60  1  0.437600  0.941100  0.904200  1.0  0.0623
  C  C61  1  0.243300  0.103200  0.971500  1.0  0.0525
  C  C62  1  0.018300  0.211600  0.030300  1.0  0.3717
  C  C63  1  0.901100  0.230400  0.099600  1.0  -0.2372
  C  C64  1  0.785700  0.306800  0.085700  1.0  0.195
  C  C65  1  0.891400  0.343100  0.938900  1.0  0.1924
  C  C66  1  0.012500  0.268700  0.947500  1.0  -0.3133
  C  C67  1  0.421700  0.476500  0.143300  1.0  0.6619
  C  C68  1  0.295700  0.512400  0.220200  1.0  -0.1677
  C  C69  1  0.259100  0.639000  0.263900  1.0  0.0072
  C  C70  1  0.145400  0.669200  0.336300  1.0  -0.1519
  C  C71  1  0.068300  0.572500  0.367100  1.0  -0.142
  C  C72  1  0.215900  0.417800  0.249100  1.0  -0.0935
  C  C73  1  0.104100  0.808600  0.383200  1.0  0.6887
  C  C74  1  0.104700  0.445100  0.323500  1.0  0.2952
  C  C75  1  0.341000  0.000000  0.000000  1.0  -0.0361
  N  N76  1  0.794800  0.997600  0.376200  1.0  -0.3371
  N  N77  1  0.779500  0.635600  0.993800  1.0  -0.3587
  N  N78  1  0.794800  0.002400  0.623800  1.0  -0.3348
  N  N79  1  0.779500  0.364400  0.006200  1.0  -0.3616
  O  O80  1  0.444000  0.635100  0.901300  1.0  -0.5843
  O  O81  1  0.503500  0.433200  0.872000  1.0  -0.6016
  O  O82  1  0.013900  0.172100  0.540200  1.0  -0.6069
  O  O83  1  0.153500  0.109100  0.654600  1.0  -0.542
  O  O84  1  0.128900  0.863300  0.951300  1.0  -0.2552
  O  O85  1  0.506200  0.954500  0.125800  1.0  -0.2455
  O  O86  1  0.029400  0.650000  0.647300  1.0  -0.4995
  O  O87  1  0.444000  0.364900  0.098700  1.0  -0.5839
  O  O88  1  0.503500  0.566800  0.128000  1.0  -0.6017
  O  O89  1  0.013900  0.827900  0.459800  1.0  -0.5966
  O  O90  1  0.153500  0.890900  0.345400  1.0  -0.5567
  O  O91  1  0.128900  0.136700  0.048700  1.0  -0.2472
  O  O92  1  0.506200  0.045500  0.874200  1.0  -0.2509
  O  O93  1  0.029400  0.350000  0.352700  1.0  -0.494
