# generated using pymatgen
data_ZnH2(C5O4)2
_symmetry_space_group_name_H-M   'P 1'
_cell_length_a   16.19360000
_cell_length_b   16.19360000
_cell_length_c   29.88400000
_cell_angle_alpha   90.00000000
_cell_angle_beta   90.00000000
_cell_angle_gamma   90.00000000
_symmetry_Int_Tables_number   1
_chemical_formula_structural   ZnH2(C5O4)2
_chemical_formula_sum   'Zn16 H32 C160 O128'
_cell_volume   7836.56143781
_cell_formula_units_Z   16
loop_
 _symmetry_equiv_pos_site_id
 _symmetry_equiv_pos_as_xyz
  1  'x, y, z'
loop_
 _atom_site_type_symbol
 _atom_site_label
 _atom_site_symmetry_multiplicity
 _atom_site_fract_x
 _atom_site_fract_y
 _atom_site_fract_z
 _atom_site_occupancy
 _atom_site_charge
  Zn  Zn1  1  0.222510  0.472510  0.125000  1.0  1.1547
  Zn  Zn2  1  0.722510  0.972510  0.625000  1.0  1.1547
  Zn  Zn3  1  0.277490  0.527490  0.625000  1.0  1.1557
  Zn  Zn4  1  0.777490  0.972510  0.375000  1.0  1.1552
  Zn  Zn5  1  0.722510  0.027490  0.875000  1.0  1.155
  Zn  Zn6  1  0.277490  0.472510  0.875000  1.0  1.1552
  Zn  Zn7  1  0.222510  0.527490  0.375000  1.0  1.155
  Zn  Zn8  1  0.777490  0.027490  0.125000  1.0  1.1557
  Zn  Zn9  1  0.777490  0.527490  0.875000  1.0  1.1557
  Zn  Zn10  1  0.277490  0.027490  0.375000  1.0  1.1557
  Zn  Zn11  1  0.722510  0.472510  0.375000  1.0  1.1547
  Zn  Zn12  1  0.222510  0.972510  0.875000  1.0  1.1547
  Zn  Zn13  1  0.222510  0.027490  0.625000  1.0  1.155
  Zn  Zn14  1  0.277490  0.972510  0.125000  1.0  1.1552
  Zn  Zn15  1  0.722510  0.527490  0.125000  1.0  1.155
  Zn  Zn16  1  0.777490  0.472510  0.625000  1.0  1.1552
  H  H17  1  0.250000  0.362300  0.000000  1.0  0.1295
  H  H18  1  0.250000  0.080100  0.000000  1.0  0.1077
  H  H19  1  0.750000  0.862300  0.500000  1.0  0.1295
  H  H20  1  0.750000  0.580100  0.500000  1.0  0.1077
  H  H21  1  0.250000  0.637700  0.500000  1.0  0.1298
  H  H22  1  0.250000  0.919900  0.500000  1.0  0.1074
  H  H23  1  0.750000  0.137700  0.000000  1.0  0.1298
  H  H24  1  0.750000  0.419900  0.000000  1.0  0.1074
  H  H25  1  0.887700  0.000000  0.250000  1.0  0.1299
  H  H26  1  0.169900  0.000000  0.250000  1.0  0.1079
  H  H27  1  0.387700  0.500000  0.750000  1.0  0.1299
  H  H28  1  0.669900  0.500000  0.750000  1.0  0.1079
  H  H29  1  0.612300  0.000000  0.750000  1.0  0.1283
  H  H30  1  0.330100  0.000000  0.750000  1.0  0.1091
  H  H31  1  0.112300  0.500000  0.250000  1.0  0.1283
  H  H32  1  0.830100  0.500000  0.250000  1.0  0.1091
  H  H33  1  0.750000  0.637700  0.000000  1.0  0.1298
  H  H34  1  0.750000  0.919900  0.000000  1.0  0.1074
  H  H35  1  0.250000  0.137700  0.500000  1.0  0.1298
  H  H36  1  0.250000  0.419900  0.500000  1.0  0.1074
  H  H37  1  0.750000  0.362300  0.500000  1.0  0.1295
  H  H38  1  0.750000  0.080100  0.500000  1.0  0.1077
  H  H39  1  0.250000  0.862300  0.000000  1.0  0.1295
  H  H40  1  0.250000  0.580100  0.000000  1.0  0.1077
  H  H41  1  0.112300  0.000000  0.750000  1.0  0.1283
  H  H42  1  0.830100  0.000000  0.750000  1.0  0.1091
  H  H43  1  0.612300  0.500000  0.250000  1.0  0.1283
  H  H44  1  0.330100  0.500000  0.250000  1.0  0.1091
  H  H45  1  0.387700  0.000000  0.250000  1.0  0.1299
  H  H46  1  0.669900  0.000000  0.250000  1.0  0.1079
  H  H47  1  0.887700  0.500000  0.750000  1.0  0.1299
  H  H48  1  0.169900  0.500000  0.750000  1.0  0.1079
  C  C49  1  0.257900  0.263000  0.040350  1.0  -0.0164
  C  C50  1  0.257000  0.176600  0.040370  1.0  -0.1234
  C  C51  1  0.274900  0.316500  0.081040  1.0  0.7274
  C  C52  1  0.258490  0.126040  0.082380  1.0  0.7269
  C  C53  1  0.757900  0.763000  0.540350  1.0  -0.0164
  C  C54  1  0.757000  0.676600  0.540370  1.0  -0.1234
  C  C55  1  0.774900  0.816500  0.581040  1.0  0.7274
  C  C56  1  0.758490  0.626040  0.582380  1.0  0.7269
  C  C57  1  0.242100  0.737000  0.540350  1.0  -0.0163
  C  C58  1  0.243000  0.823400  0.540370  1.0  -0.1233
  C  C59  1  0.225100  0.683500  0.581040  1.0  0.7287
  C  C60  1  0.241510  0.873960  0.582380  1.0  0.7272
  C  C61  1  0.742100  0.237000  0.040350  1.0  -0.0163
  C  C62  1  0.743000  0.323400  0.040370  1.0  -0.1233
  C  C63  1  0.725100  0.183500  0.081040  1.0  0.7287
  C  C64  1  0.741510  0.373960  0.082380  1.0  0.7272
  C  C65  1  0.987000  0.007900  0.290350  1.0  -0.0176
  C  C66  1  0.073400  0.007000  0.290370  1.0  -0.1235
  C  C67  1  0.933500  0.024900  0.331040  1.0  0.7289
  C  C68  1  0.123960  0.008490  0.332380  1.0  0.7273
  C  C69  1  0.487000  0.507900  0.790350  1.0  -0.0176
  C  C70  1  0.573400  0.507000  0.790370  1.0  -0.1235
  C  C71  1  0.433500  0.524900  0.831040  1.0  0.7289
  C  C72  1  0.623960  0.508490  0.832380  1.0  0.7273
  C  C73  1  0.513000  0.992100  0.790350  1.0  -0.0176
  C  C74  1  0.426600  0.993000  0.790370  1.0  -0.124
  C  C75  1  0.566500  0.975100  0.831040  1.0  0.729
  C  C76  1  0.376040  0.991510  0.832380  1.0  0.7272
  C  C77  1  0.013000  0.492100  0.290350  1.0  -0.0176
  C  C78  1  0.926600  0.493000  0.290370  1.0  -0.124
  C  C79  1  0.066500  0.475100  0.331040  1.0  0.729
  C  C80  1  0.876040  0.491510  0.332380  1.0  0.7272
  C  C81  1  0.242100  0.263000  0.959650  1.0  -0.0172
  C  C82  1  0.243000  0.176600  0.959630  1.0  -0.1188
  C  C83  1  0.225100  0.316500  0.918960  1.0  0.728
  C  C84  1  0.241510  0.126040  0.917620  1.0  0.7259
  C  C85  1  0.742100  0.763000  0.459650  1.0  -0.0172
  C  C86  1  0.743000  0.676600  0.459630  1.0  -0.1188
  C  C87  1  0.725100  0.816500  0.418960  1.0  0.728
  C  C88  1  0.741510  0.626040  0.417620  1.0  0.7259
  C  C89  1  0.257900  0.737000  0.459650  1.0  -0.0175
  C  C90  1  0.257000  0.823400  0.459630  1.0  -0.1186
  C  C91  1  0.274900  0.683500  0.418960  1.0  0.7271
  C  C92  1  0.258490  0.873960  0.417620  1.0  0.7257
  C  C93  1  0.757900  0.237000  0.959650  1.0  -0.0175
  C  C94  1  0.757000  0.323400  0.959630  1.0  -0.1186
  C  C95  1  0.774900  0.183500  0.918960  1.0  0.7271
  C  C96  1  0.758490  0.373960  0.917620  1.0  0.7257
  C  C97  1  0.513000  0.007900  0.709650  1.0  -0.0184
  C  C98  1  0.426600  0.007000  0.709630  1.0  -0.1191
  C  C99  1  0.566500  0.024900  0.668960  1.0  0.7278
  C  C100  1  0.376040  0.008490  0.667620  1.0  0.7261
  C  C101  1  0.013000  0.507900  0.209650  1.0  -0.0184
  C  C102  1  0.926600  0.507000  0.209630  1.0  -0.1191
  C  C103  1  0.066500  0.524900  0.168960  1.0  0.7278
  C  C104  1  0.876040  0.508490  0.167620  1.0  0.7261
  C  C105  1  0.987000  0.992100  0.209650  1.0  -0.0184
  C  C106  1  0.073400  0.993000  0.209630  1.0  -0.119
  C  C107  1  0.933500  0.975100  0.168960  1.0  0.7292
  C  C108  1  0.123960  0.991510  0.167620  1.0  0.7259
  C  C109  1  0.487000  0.492100  0.709650  1.0  -0.0184
  C  C110  1  0.573400  0.493000  0.709630  1.0  -0.119
  C  C111  1  0.433500  0.475100  0.668960  1.0  0.7292
  C  C112  1  0.623960  0.491510  0.667620  1.0  0.7259
  C  C113  1  0.742100  0.737000  0.959650  1.0  -0.0176
  C  C114  1  0.743000  0.823400  0.959630  1.0  -0.1228
  C  C115  1  0.725100  0.683500  0.918960  1.0  0.7287
  C  C116  1  0.741510  0.873960  0.917620  1.0  0.7259
  C  C117  1  0.242100  0.237000  0.459650  1.0  -0.0176
  C  C118  1  0.243000  0.323400  0.459630  1.0  -0.1228
  C  C119  1  0.225100  0.183500  0.418960  1.0  0.7287
  C  C120  1  0.241510  0.373960  0.417620  1.0  0.7259
  C  C121  1  0.757900  0.263000  0.459650  1.0  -0.0172
  C  C122  1  0.757000  0.176600  0.459630  1.0  -0.1228
  C  C123  1  0.774900  0.316500  0.418960  1.0  0.7263
  C  C124  1  0.758490  0.126040  0.417620  1.0  0.7258
  C  C125  1  0.257900  0.763000  0.959650  1.0  -0.0172
  C  C126  1  0.257000  0.676600  0.959630  1.0  -0.1228
  C  C127  1  0.274900  0.816500  0.918960  1.0  0.7263
  C  C128  1  0.258490  0.626040  0.917620  1.0  0.7258
  C  C129  1  0.013000  0.992100  0.709650  1.0  -0.0184
  C  C130  1  0.926600  0.993000  0.709630  1.0  -0.1236
  C  C131  1  0.066500  0.975100  0.668960  1.0  0.728
  C  C132  1  0.876040  0.991510  0.667620  1.0  0.726
  C  C133  1  0.513000  0.492100  0.209650  1.0  -0.0184
  C  C134  1  0.426600  0.493000  0.209630  1.0  -0.1236
  C  C135  1  0.566500  0.475100  0.168960  1.0  0.728
  C  C136  1  0.376040  0.491510  0.167620  1.0  0.726
  C  C137  1  0.487000  0.007900  0.209650  1.0  -0.0184
  C  C138  1  0.573400  0.007000  0.209630  1.0  -0.1231
  C  C139  1  0.433500  0.024900  0.168960  1.0  0.7292
  C  C140  1  0.623960  0.008490  0.167620  1.0  0.7261
  C  C141  1  0.987000  0.507900  0.709650  1.0  -0.0184
  C  C142  1  0.073400  0.507000  0.709630  1.0  -0.1231
  C  C143  1  0.933500  0.524900  0.668960  1.0  0.7292
  C  C144  1  0.123960  0.508490  0.667620  1.0  0.7261
  C  C145  1  0.757900  0.737000  0.040350  1.0  -0.0162
  C  C146  1  0.757000  0.823400  0.040370  1.0  -0.1191
  C  C147  1  0.774900  0.683500  0.081040  1.0  0.7281
  C  C148  1  0.758490  0.873960  0.082380  1.0  0.7269
  C  C149  1  0.257900  0.237000  0.540350  1.0  -0.0162
  C  C150  1  0.257000  0.323400  0.540370  1.0  -0.1191
  C  C151  1  0.274900  0.183500  0.581040  1.0  0.7281
  C  C152  1  0.258490  0.373960  0.582380  1.0  0.7269
  C  C153  1  0.742100  0.263000  0.540350  1.0  -0.0164
  C  C154  1  0.743000  0.176600  0.540370  1.0  -0.1192
  C  C155  1  0.725100  0.316500  0.581040  1.0  0.728
  C  C156  1  0.741510  0.126040  0.582380  1.0  0.7271
  C  C157  1  0.242100  0.763000  0.040350  1.0  -0.0164
  C  C158  1  0.243000  0.676600  0.040370  1.0  -0.1192
  C  C159  1  0.225100  0.816500  0.081040  1.0  0.728
  C  C160  1  0.241510  0.626040  0.082380  1.0  0.7271
  C  C161  1  0.487000  0.992100  0.290350  1.0  -0.0176
  C  C162  1  0.573400  0.993000  0.290370  1.0  -0.1194
  C  C163  1  0.433500  0.975100  0.331040  1.0  0.7293
  C  C164  1  0.623960  0.991510  0.332380  1.0  0.7271
  C  C165  1  0.987000  0.492100  0.790350  1.0  -0.0176
  C  C166  1  0.073400  0.493000  0.790370  1.0  -0.1194
  C  C167  1  0.933500  0.475100  0.831040  1.0  0.7293
  C  C168  1  0.123960  0.491510  0.832380  1.0  0.7271
  C  C169  1  0.013000  0.007900  0.790350  1.0  -0.0176
  C  C170  1  0.926600  0.007000  0.790370  1.0  -0.1195
  C  C171  1  0.066500  0.024900  0.831040  1.0  0.7286
  C  C172  1  0.876040  0.008490  0.832380  1.0  0.7274
  C  C173  1  0.513000  0.507900  0.290350  1.0  -0.0176
  C  C174  1  0.426600  0.507000  0.290370  1.0  -0.1195
  C  C175  1  0.566500  0.524900  0.331040  1.0  0.7286
  C  C176  1  0.376040  0.508490  0.332380  1.0  0.7274
  C  C177  1  0.250000  0.304900  0.000000  1.0  -0.0311
  C  C178  1  0.250000  0.137500  0.000000  1.0  0.0274
  C  C179  1  0.750000  0.804900  0.500000  1.0  -0.0311
  C  C180  1  0.750000  0.637500  0.500000  1.0  0.0274
  C  C181  1  0.250000  0.695100  0.500000  1.0  -0.0285
  C  C182  1  0.250000  0.862500  0.500000  1.0  0.0253
  C  C183  1  0.750000  0.195100  0.000000  1.0  -0.0285
  C  C184  1  0.750000  0.362500  0.000000  1.0  0.0253
  C  C185  1  0.945100  0.000000  0.250000  1.0  -0.0357
  C  C186  1  0.112500  0.000000  0.250000  1.0  0.0262
  C  C187  1  0.445100  0.500000  0.750000  1.0  -0.0357
  C  C188  1  0.612500  0.500000  0.750000  1.0  0.0262
  C  C189  1  0.554900  0.000000  0.750000  1.0  -0.0308
  C  C190  1  0.387500  0.000000  0.750000  1.0  0.0235
  C  C191  1  0.054900  0.500000  0.250000  1.0  -0.0308
  C  C192  1  0.887500  0.500000  0.250000  1.0  0.0235
  C  C193  1  0.750000  0.695100  0.000000  1.0  -0.0285
  C  C194  1  0.750000  0.862500  0.000000  1.0  0.0253
  C  C195  1  0.250000  0.195100  0.500000  1.0  -0.0285
  C  C196  1  0.250000  0.362500  0.500000  1.0  0.0253
  C  C197  1  0.750000  0.304900  0.500000  1.0  -0.0311
  C  C198  1  0.750000  0.137500  0.500000  1.0  0.0274
  C  C199  1  0.250000  0.804900  0.000000  1.0  -0.0311
  C  C200  1  0.250000  0.637500  0.000000  1.0  0.0274
  C  C201  1  0.054900  0.000000  0.750000  1.0  -0.0308
  C  C202  1  0.887500  0.000000  0.750000  1.0  0.0235
  C  C203  1  0.554900  0.500000  0.250000  1.0  -0.0308
  C  C204  1  0.387500  0.500000  0.250000  1.0  0.0235
  C  C205  1  0.445100  0.000000  0.250000  1.0  -0.0357
  C  C206  1  0.612500  0.000000  0.250000  1.0  0.0262
  C  C207  1  0.945100  0.500000  0.750000  1.0  -0.0357
  C  C208  1  0.112500  0.500000  0.750000  1.0  0.0262
  O  O209  1  0.220180  0.371200  0.088730  1.0  -0.5921
  O  O210  1  0.339230  0.306510  0.102050  1.0  -0.4174
  O  O211  1  0.275390  0.050000  0.076090  1.0  -0.5596
  O  O212  1  0.243440  0.156970  0.118840  1.0  -0.4431
  O  O213  1  0.720180  0.871200  0.588730  1.0  -0.5921
  O  O214  1  0.839230  0.806510  0.602050  1.0  -0.4174
  O  O215  1  0.775390  0.550000  0.576090  1.0  -0.5596
  O  O216  1  0.743440  0.656970  0.618840  1.0  -0.4431
  O  O217  1  0.279820  0.628800  0.588730  1.0  -0.5915
  O  O218  1  0.160770  0.693490  0.602050  1.0  -0.4173
  O  O219  1  0.224610  0.950000  0.576090  1.0  -0.5597
  O  O220  1  0.256560  0.843030  0.618840  1.0  -0.4422
  O  O221  1  0.779820  0.128800  0.088730  1.0  -0.5915
  O  O222  1  0.660770  0.193490  0.102050  1.0  -0.4173
  O  O223  1  0.724610  0.450000  0.076090  1.0  -0.5597
  O  O224  1  0.756560  0.343030  0.118840  1.0  -0.4422
  O  O225  1  0.878800  0.970180  0.338730  1.0  -0.5924
  O  O226  1  0.943490  0.089230  0.352050  1.0  -0.4122
  O  O227  1  0.200000  0.025390  0.326090  1.0  -0.5615
  O  O228  1  0.093030  0.993440  0.368840  1.0  -0.4432
  O  O229  1  0.378800  0.470180  0.838730  1.0  -0.5924
  O  O230  1  0.443490  0.589230  0.852050  1.0  -0.4122
  O  O231  1  0.700000  0.525390  0.826090  1.0  -0.5615
  O  O232  1  0.593030  0.493440  0.868840  1.0  -0.4432
  O  O233  1  0.621200  0.029820  0.838730  1.0  -0.5913
  O  O234  1  0.556510  0.910770  0.852050  1.0  -0.4129
  O  O235  1  0.300000  0.974610  0.826090  1.0  -0.56
  O  O236  1  0.406970  0.006560  0.868840  1.0  -0.4434
  O  O237  1  0.121200  0.529820  0.338730  1.0  -0.5913
  O  O238  1  0.056510  0.410770  0.352050  1.0  -0.4129
  O  O239  1  0.800000  0.474610  0.326090  1.0  -0.56
  O  O240  1  0.906970  0.506560  0.368840  1.0  -0.4434
  O  O241  1  0.279820  0.371200  0.911270  1.0  -0.5909
  O  O242  1  0.160770  0.306510  0.897950  1.0  -0.4188
  O  O243  1  0.224610  0.050000  0.923910  1.0  -0.559
  O  O244  1  0.256560  0.156970  0.881160  1.0  -0.4394
  O  O245  1  0.779820  0.871200  0.411270  1.0  -0.5909
  O  O246  1  0.660770  0.806510  0.397950  1.0  -0.4188
  O  O247  1  0.724610  0.550000  0.423910  1.0  -0.559
  O  O248  1  0.756560  0.656970  0.381160  1.0  -0.4394
  O  O249  1  0.220180  0.628800  0.411270  1.0  -0.5924
  O  O250  1  0.339230  0.693490  0.397950  1.0  -0.4183
  O  O251  1  0.275390  0.950000  0.423910  1.0  -0.5597
  O  O252  1  0.243440  0.843030  0.381160  1.0  -0.4404
  O  O253  1  0.720180  0.128800  0.911270  1.0  -0.5924
  O  O254  1  0.839230  0.193490  0.897950  1.0  -0.4183
  O  O255  1  0.775390  0.450000  0.923910  1.0  -0.5597
  O  O256  1  0.743440  0.343030  0.881160  1.0  -0.4404
  O  O257  1  0.621200  0.970180  0.661270  1.0  -0.5913
  O  O258  1  0.556510  0.089230  0.647950  1.0  -0.4141
  O  O259  1  0.300000  0.025390  0.673910  1.0  -0.5597
  O  O260  1  0.406970  0.993440  0.631160  1.0  -0.4404
  O  O261  1  0.121200  0.470180  0.161270  1.0  -0.5913
  O  O262  1  0.056510  0.589230  0.147950  1.0  -0.4141
  O  O263  1  0.800000  0.525390  0.173910  1.0  -0.5597
  O  O264  1  0.906970  0.493440  0.131160  1.0  -0.4404
  O  O265  1  0.878800  0.029820  0.161270  1.0  -0.5913
  O  O266  1  0.943490  0.910770  0.147950  1.0  -0.4142
  O  O267  1  0.200000  0.974610  0.173910  1.0  -0.5609
  O  O268  1  0.093030  0.006560  0.131160  1.0  -0.4411
  O  O269  1  0.378800  0.529820  0.661270  1.0  -0.5913
  O  O270  1  0.443490  0.410770  0.647950  1.0  -0.4142
  O  O271  1  0.700000  0.474610  0.673910  1.0  -0.5609
  O  O272  1  0.593030  0.506560  0.631160  1.0  -0.4411
  O  O273  1  0.779820  0.628800  0.911270  1.0  -0.5917
  O  O274  1  0.660770  0.693490  0.897950  1.0  -0.4191
  O  O275  1  0.724610  0.950000  0.923910  1.0  -0.5607
  O  O276  1  0.756560  0.843030  0.881160  1.0  -0.4403
  O  O277  1  0.279820  0.128800  0.411270  1.0  -0.5917
  O  O278  1  0.160770  0.193490  0.397950  1.0  -0.4191
  O  O279  1  0.224610  0.450000  0.423910  1.0  -0.5607
  O  O280  1  0.256560  0.343030  0.381160  1.0  -0.4403
  O  O281  1  0.720180  0.371200  0.411270  1.0  -0.5919
  O  O282  1  0.839230  0.306510  0.397950  1.0  -0.418
  O  O283  1  0.775390  0.050000  0.423910  1.0  -0.5602
  O  O284  1  0.743440  0.156970  0.381160  1.0  -0.4398
  O  O285  1  0.220180  0.871200  0.911270  1.0  -0.5919
  O  O286  1  0.339230  0.806510  0.897950  1.0  -0.418
  O  O287  1  0.275390  0.550000  0.923910  1.0  -0.5602
  O  O288  1  0.243440  0.656970  0.881160  1.0  -0.4398
  O  O289  1  0.121200  0.029820  0.661270  1.0  -0.5909
  O  O290  1  0.056510  0.910770  0.647950  1.0  -0.4153
  O  O291  1  0.800000  0.974610  0.673910  1.0  -0.5605
  O  O292  1  0.906970  0.006560  0.631160  1.0  -0.4404
  O  O293  1  0.621200  0.529820  0.161270  1.0  -0.5909
  O  O294  1  0.556510  0.410770  0.147950  1.0  -0.4153
  O  O295  1  0.300000  0.474610  0.173910  1.0  -0.5605
  O  O296  1  0.406970  0.506560  0.131160  1.0  -0.4404
  O  O297  1  0.378800  0.970180  0.161270  1.0  -0.5925
  O  O298  1  0.443490  0.089230  0.147950  1.0  -0.4131
  O  O299  1  0.700000  0.025390  0.173910  1.0  -0.5622
  O  O300  1  0.593030  0.993440  0.131160  1.0  -0.4413
  O  O301  1  0.878800  0.470180  0.661270  1.0  -0.5925
  O  O302  1  0.943490  0.589230  0.647950  1.0  -0.4131
  O  O303  1  0.200000  0.525390  0.673910  1.0  -0.5622
  O  O304  1  0.093030  0.493440  0.631160  1.0  -0.4413
  O  O305  1  0.720180  0.628800  0.088730  1.0  -0.5926
  O  O306  1  0.839230  0.693490  0.102050  1.0  -0.4175
  O  O307  1  0.775390  0.950000  0.076090  1.0  -0.5613
  O  O308  1  0.743440  0.843030  0.118840  1.0  -0.443
  O  O309  1  0.220180  0.128800  0.588730  1.0  -0.5926
  O  O310  1  0.339230  0.193490  0.602050  1.0  -0.4175
  O  O311  1  0.275390  0.450000  0.576090  1.0  -0.5613
  O  O312  1  0.243440  0.343030  0.618840  1.0  -0.443
  O  O313  1  0.779820  0.371200  0.588730  1.0  -0.5908
  O  O314  1  0.660770  0.306510  0.602050  1.0  -0.4169
  O  O315  1  0.724610  0.050000  0.576090  1.0  -0.5604
  O  O316  1  0.756560  0.156970  0.618840  1.0  -0.442
  O  O317  1  0.279820  0.871200  0.088730  1.0  -0.5908
  O  O318  1  0.160770  0.806510  0.102050  1.0  -0.4169
  O  O319  1  0.224610  0.550000  0.076090  1.0  -0.5604
  O  O320  1  0.256560  0.656970  0.118840  1.0  -0.442
  O  O321  1  0.378800  0.029820  0.338730  1.0  -0.5916
  O  O322  1  0.443490  0.910770  0.352050  1.0  -0.4123
  O  O323  1  0.700000  0.974610  0.326090  1.0  -0.5624
  O  O324  1  0.593030  0.006560  0.368840  1.0  -0.4432
  O  O325  1  0.878800  0.529820  0.838730  1.0  -0.5916
  O  O326  1  0.943490  0.410770  0.852050  1.0  -0.4123
  O  O327  1  0.200000  0.474610  0.826090  1.0  -0.5624
  O  O328  1  0.093030  0.506560  0.868840  1.0  -0.4432
  O  O329  1  0.121200  0.970180  0.838730  1.0  -0.5913
  O  O330  1  0.056510  0.089230  0.852050  1.0  -0.413
  O  O331  1  0.800000  0.025390  0.826090  1.0  -0.561
  O  O332  1  0.906970  0.993440  0.868840  1.0  -0.4437
  O  O333  1  0.621200  0.470180  0.338730  1.0  -0.5913
  O  O334  1  0.556510  0.589230  0.352050  1.0  -0.413
  O  O335  1  0.300000  0.525390  0.326090  1.0  -0.561
  O  O336  1  0.406970  0.493440  0.368840  1.0  -0.4437
