# generated using pymatgen
data_CdH24C36(N3Cl)2
_symmetry_space_group_name_H-M   'P 1'
_cell_length_a   12.79800000
_cell_length_b   20.61300000
_cell_length_c   18.89010000
_cell_angle_alpha   104.45000000
_cell_angle_beta   90.00000000
_cell_angle_gamma   90.00000000
_symmetry_Int_Tables_number   1
_chemical_formula_structural   CdH24C36(N3Cl)2
_chemical_formula_sum   'Cd4 H96 C144 N24 Cl8'
_cell_volume   4825.66306291
_cell_formula_units_Z   4
loop_
 _symmetry_equiv_pos_site_id
 _symmetry_equiv_pos_as_xyz
  1  'x, y, z'
loop_
 _atom_site_type_symbol
 _atom_site_label
 _atom_site_symmetry_multiplicity
 _atom_site_fract_x
 _atom_site_fract_y
 _atom_site_fract_z
 _atom_site_occupancy
 _atom_site_charge
  Cd  Cd1  1  0.503430  0.700960  0.077870  1.0  0.783
  Cd  Cd2  1  0.996570  0.700960  0.577870  1.0  0.7832
  Cd  Cd3  1  0.003430  0.299040  0.422130  1.0  0.7831
  Cd  Cd4  1  0.496570  0.299040  0.922130  1.0  0.7831
  H  H5  1  0.063300  0.345200  0.245200  1.0  0.0982
  H  H6  1  0.151100  0.441200  0.300500  1.0  0.1279
  H  H7  1  0.103200  0.512100  0.124600  1.0  0.1236
  H  H8  1  0.022600  0.414700  0.067100  1.0  0.1125
  H  H9  1  0.900200  0.029600  0.074600  1.0  0.0911
  H  H10  1  0.864100  0.918200  0.021800  1.0  0.1309
  H  H11  1  0.778400  0.968300  0.841400  1.0  0.1304
  H  H12  1  0.826700  0.077900  0.892700  1.0  0.118
  H  H13  1  0.335500  0.724000  0.207700  1.0  0.069
  H  H14  1  0.224200  0.675100  0.273500  1.0  0.1424
  H  H15  1  0.316000  0.499600  0.150500  1.0  0.1272
  H  H16  1  0.423800  0.552700  0.089800  1.0  0.0758
  H  H17  1  0.215100  0.669000  0.481900  1.0  0.0675
  H  H18  1  0.283200  0.618400  0.371000  1.0  0.1316
  H  H19  1  0.996700  0.552200  0.309600  1.0  0.1312
  H  H20  1  0.941600  0.598600  0.424700  1.0  0.0704
  H  H21  1  0.037100  0.827600  0.722200  1.0  0.0791
  H  H22  1  0.967600  0.884000  0.830700  1.0  0.1156
  H  H23  1  0.714600  0.769600  0.785400  1.0  0.1401
  H  H24  1  0.788700  0.719500  0.677100  1.0  0.0741
  H  H25  1  0.550500  0.844300  0.050600  1.0  0.0735
  H  H26  1  0.638800  0.903300  0.983000  1.0  0.1337
  H  H27  1  0.803600  0.736700  0.897100  1.0  0.1199
  H  H28  1  0.705200  0.684800  0.967100  1.0  0.0671
  H  H29  1  0.436700  0.345200  0.745200  1.0  0.0985
  H  H30  1  0.348900  0.441200  0.800500  1.0  0.1284
  H  H31  1  0.396800  0.512100  0.624600  1.0  0.1234
  H  H32  1  0.477400  0.414700  0.567100  1.0  0.1131
  H  H33  1  0.599800  0.029600  0.574600  1.0  0.0907
  H  H34  1  0.635900  0.918200  0.521800  1.0  0.1311
  H  H35  1  0.721600  0.968300  0.341400  1.0  0.1308
  H  H36  1  0.673300  0.077900  0.392700  1.0  0.1182
  H  H37  1  0.164500  0.724000  0.707700  1.0  0.0689
  H  H38  1  0.275800  0.675100  0.773500  1.0  0.1421
  H  H39  1  0.184000  0.499600  0.650500  1.0  0.1276
  H  H40  1  0.076200  0.552700  0.589800  1.0  0.0756
  H  H41  1  0.284900  0.669000  0.981900  1.0  0.0675
  H  H42  1  0.216800  0.618400  0.871000  1.0  0.1322
  H  H43  1  0.503300  0.552200  0.809600  1.0  0.1315
  H  H44  1  0.558400  0.598600  0.924700  1.0  0.0705
  H  H45  1  0.462900  0.827600  0.222200  1.0  0.079
  H  H46  1  0.532400  0.884000  0.330700  1.0  0.1151
  H  H47  1  0.785400  0.769600  0.285400  1.0  0.1403
  H  H48  1  0.711300  0.719500  0.177100  1.0  0.0743
  H  H49  1  0.949500  0.844300  0.550600  1.0  0.0737
  H  H50  1  0.861200  0.903300  0.483000  1.0  0.1341
  H  H51  1  0.696400  0.736700  0.397100  1.0  0.1197
  H  H52  1  0.794800  0.684800  0.467100  1.0  0.0667
  H  H53  1  0.563300  0.654800  0.254800  1.0  0.0985
  H  H54  1  0.651100  0.558800  0.199500  1.0  0.1285
  H  H55  1  0.603200  0.487900  0.375400  1.0  0.124
  H  H56  1  0.522600  0.585300  0.432900  1.0  0.1135
  H  H57  1  0.400200  0.970400  0.425400  1.0  0.0916
  H  H58  1  0.364100  0.081800  0.478200  1.0  0.1319
  H  H59  1  0.278400  0.031700  0.658600  1.0  0.1307
  H  H60  1  0.326700  0.922100  0.607300  1.0  0.1183
  H  H61  1  0.835500  0.276000  0.292300  1.0  0.0681
  H  H62  1  0.724200  0.324900  0.226500  1.0  0.1421
  H  H63  1  0.816000  0.500400  0.349500  1.0  0.1283
  H  H64  1  0.923800  0.447300  0.410200  1.0  0.0755
  H  H65  1  0.715100  0.331000  0.018100  1.0  0.0666
  H  H66  1  0.783200  0.381600  0.129000  1.0  0.1325
  H  H67  1  0.496700  0.447800  0.190400  1.0  0.1315
  H  H68  1  0.441600  0.401400  0.075300  1.0  0.0701
  H  H69  1  0.537100  0.172400  0.777800  1.0  0.0793
  H  H70  1  0.467600  0.116000  0.669300  1.0  0.116
  H  H71  1  0.214600  0.230400  0.714600  1.0  0.1416
  H  H72  1  0.288700  0.280500  0.822900  1.0  0.0746
  H  H73  1  0.050500  0.155700  0.449400  1.0  0.0736
  H  H74  1  0.138800  0.096700  0.517000  1.0  0.1335
  H  H75  1  0.303600  0.263300  0.602900  1.0  0.1202
  H  H76  1  0.205200  0.315200  0.532900  1.0  0.0673
  H  H77  1  0.936700  0.654800  0.754800  1.0  0.0985
  H  H78  1  0.848900  0.558800  0.699500  1.0  0.1285
  H  H79  1  0.896800  0.487900  0.875400  1.0  0.1232
  H  H80  1  0.977400  0.585300  0.932900  1.0  0.1133
  H  H81  1  0.099800  0.970400  0.925400  1.0  0.0922
  H  H82  1  0.135900  0.081800  0.978200  1.0  0.132
  H  H83  1  0.221600  0.031700  0.158600  1.0  0.1305
  H  H84  1  0.173300  0.922100  0.107300  1.0  0.1181
  H  H85  1  0.664500  0.276000  0.792300  1.0  0.0681
  H  H86  1  0.775800  0.324900  0.726500  1.0  0.1414
  H  H87  1  0.684000  0.500400  0.849500  1.0  0.1288
  H  H88  1  0.576200  0.447300  0.910200  1.0  0.0755
  H  H89  1  0.784900  0.331000  0.518100  1.0  0.0666
  H  H90  1  0.716800  0.381600  0.629000  1.0  0.1332
  H  H91  1  0.003300  0.447800  0.690400  1.0  0.1318
  H  H92  1  0.058400  0.401400  0.575300  1.0  0.0701
  H  H93  1  0.962900  0.172400  0.277800  1.0  0.0793
  H  H94  1  0.032400  0.116000  0.169300  1.0  0.1163
  H  H95  1  0.285400  0.230400  0.214600  1.0  0.1413
  H  H96  1  0.211300  0.280500  0.322900  1.0  0.0747
  H  H97  1  0.449500  0.155700  0.949400  1.0  0.0733
  H  H98  1  0.361200  0.096700  0.017000  1.0  0.1347
  H  H99  1  0.196400  0.263300  0.102900  1.0  0.1202
  H  H100  1  0.294800  0.315200  0.032900  1.0  0.0675
  C  C101  1  0.985800  0.306700  0.114800  1.0  -0.0543
  C  C102  1  0.952000  0.254000  0.087900  1.0  -0.0071
  C  C103  1  0.917200  0.189100  0.055600  1.0  -0.0465
  C  C104  1  0.891200  0.133500  0.025800  1.0  -0.0418
  C  C105  1  0.034100  0.368700  0.150100  1.0  0.0413
  C  C106  1  0.072500  0.378500  0.220300  1.0  -0.0918
  C  C107  1  0.123800  0.436000  0.253800  1.0  -0.1916
  C  C108  1  0.135000  0.487100  0.217600  1.0  0.1515
  C  C109  1  0.096200  0.478100  0.148600  1.0  -0.1809
  C  C110  1  0.047400  0.420200  0.114500  1.0  -0.0839
  C  C111  1  0.863000  0.065700  0.992400  1.0  0.083
  C  C112  1  0.875700  0.017700  0.026800  1.0  -0.0785
  C  C113  1  0.854500  0.950100  0.995300  1.0  -0.1817
  C  C114  1  0.820700  0.932500  0.927100  1.0  0.1703
  C  C115  1  0.805600  0.980400  0.888500  1.0  -0.1815
  C  C116  1  0.831000  0.046300  0.920200  1.0  -0.0759
  C  C117  1  0.331900  0.677500  0.195900  1.0  0.1971
  C  C118  1  0.263800  0.648900  0.235800  1.0  -0.278
  C  C119  1  0.256300  0.581000  0.218100  1.0  0.2495
  C  C120  1  0.318400  0.546200  0.163300  1.0  -0.2597
  C  C121  1  0.383100  0.578200  0.127400  1.0  0.199
  C  C122  1  0.170500  0.644200  0.446400  1.0  0.199
  C  C123  1  0.212200  0.614800  0.379800  1.0  -0.2606
  C  C124  1  0.147500  0.580200  0.326400  1.0  0.2327
  C  C125  1  0.043700  0.575200  0.344400  1.0  -0.2661
  C  C126  1  0.011100  0.604200  0.413000  1.0  0.2005
  C  C127  1  0.970900  0.815700  0.734900  1.0  0.1774
  C  C128  1  0.929900  0.849100  0.801000  1.0  -0.2563
  C  C129  1  0.834800  0.832300  0.824500  1.0  0.241
  C  C130  1  0.781100  0.782400  0.774400  1.0  -0.2694
  C  C131  1  0.826600  0.752600  0.709300  1.0  0.1903
  C  C132  1  0.601200  0.822200  0.018300  1.0  0.2007
  C  C133  1  0.655700  0.858600  0.978800  1.0  -0.2749
  C  C134  1  0.736800  0.828400  0.932200  1.0  0.2253
  C  C135  1  0.752600  0.760700  0.927900  1.0  -0.281
  C  C136  1  0.691600  0.729700  0.969900  1.0  0.1929
  C  C137  1  0.514200  0.306700  0.614800  1.0  -0.0533
  C  C138  1  0.548000  0.254000  0.587900  1.0  -0.0072
  C  C139  1  0.582800  0.189100  0.555600  1.0  -0.0476
  C  C140  1  0.608800  0.133500  0.525800  1.0  -0.0417
  C  C141  1  0.465900  0.368700  0.650100  1.0  0.0398
  C  C142  1  0.427500  0.378500  0.720300  1.0  -0.0906
  C  C143  1  0.376200  0.436000  0.753800  1.0  -0.188
  C  C144  1  0.365000  0.487100  0.717600  1.0  0.1514
  C  C145  1  0.403800  0.478100  0.648600  1.0  -0.1808
  C  C146  1  0.452600  0.420200  0.614500  1.0  -0.0843
  C  C147  1  0.637000  0.065700  0.492400  1.0  0.0813
  C  C148  1  0.624300  0.017700  0.526800  1.0  -0.0789
  C  C149  1  0.645500  0.950100  0.495300  1.0  -0.1814
  C  C150  1  0.679300  0.932500  0.427100  1.0  0.1712
  C  C151  1  0.694400  0.980400  0.388500  1.0  -0.1844
  C  C152  1  0.669000  0.046300  0.420200  1.0  -0.0775
  C  C153  1  0.168100  0.677500  0.695900  1.0  0.1973
  C  C154  1  0.236200  0.648900  0.735800  1.0  -0.2791
  C  C155  1  0.243700  0.581000  0.718100  1.0  0.2504
  C  C156  1  0.181600  0.546200  0.663300  1.0  -0.2595
  C  C157  1  0.116900  0.578200  0.627400  1.0  0.1982
  C  C158  1  0.329500  0.644200  0.946400  1.0  0.1984
  C  C159  1  0.287800  0.614800  0.879800  1.0  -0.26
  C  C160  1  0.352500  0.580200  0.826400  1.0  0.2332
  C  C161  1  0.456300  0.575200  0.844400  1.0  -0.2657
  C  C162  1  0.488900  0.604200  0.913000  1.0  0.2013
  C  C163  1  0.529100  0.815700  0.234900  1.0  0.1784
  C  C164  1  0.570100  0.849100  0.301000  1.0  -0.2556
  C  C165  1  0.665200  0.832300  0.324500  1.0  0.2419
  C  C166  1  0.718900  0.782400  0.274400  1.0  -0.2664
  C  C167  1  0.673400  0.752600  0.209300  1.0  0.1904
  C  C168  1  0.898800  0.822200  0.518300  1.0  0.2007
  C  C169  1  0.844300  0.858600  0.478800  1.0  -0.274
  C  C170  1  0.763200  0.828400  0.432200  1.0  0.2264
  C  C171  1  0.747400  0.760700  0.427900  1.0  -0.2803
  C  C172  1  0.808400  0.729700  0.469900  1.0  0.1928
  C  C173  1  0.485800  0.693300  0.385200  1.0  -0.0558
  C  C174  1  0.452000  0.746000  0.412100  1.0  -0.0093
  C  C175  1  0.417200  0.810900  0.444400  1.0  -0.047
  C  C176  1  0.391200  0.866500  0.474200  1.0  -0.0427
  C  C177  1  0.534100  0.631300  0.349900  1.0  0.041
  C  C178  1  0.572500  0.621500  0.279700  1.0  -0.091
  C  C179  1  0.623800  0.564000  0.246200  1.0  -0.1912
  C  C180  1  0.635000  0.512900  0.282400  1.0  0.1515
  C  C181  1  0.596200  0.521900  0.351400  1.0  -0.1819
  C  C182  1  0.547400  0.579800  0.385500  1.0  -0.0864
  C  C183  1  0.363000  0.934300  0.507600  1.0  0.0832
  C  C184  1  0.375700  0.982300  0.473200  1.0  -0.0779
  C  C185  1  0.354500  0.049900  0.504700  1.0  -0.1821
  C  C186  1  0.320700  0.067500  0.572900  1.0  0.1699
  C  C187  1  0.305600  0.019600  0.611500  1.0  -0.1836
  C  C188  1  0.331000  0.953700  0.579800  1.0  -0.0769
  C  C189  1  0.831900  0.322500  0.304100  1.0  0.1959
  C  C190  1  0.763800  0.351100  0.264200  1.0  -0.277
  C  C191  1  0.756300  0.419000  0.281900  1.0  0.2496
  C  C192  1  0.818400  0.453800  0.336700  1.0  -0.2599
  C  C193  1  0.883100  0.421800  0.372600  1.0  0.1979
  C  C194  1  0.670500  0.355800  0.053600  1.0  0.1985
  C  C195  1  0.712200  0.385200  0.120200  1.0  -0.2608
  C  C196  1  0.647500  0.419800  0.173600  1.0  0.2334
  C  C197  1  0.543700  0.424800  0.155600  1.0  -0.2648
  C  C198  1  0.511100  0.395800  0.087000  1.0  0.1996
  C  C199  1  0.470900  0.184300  0.765100  1.0  0.1778
  C  C200  1  0.429900  0.150900  0.699000  1.0  -0.2569
  C  C201  1  0.334800  0.167700  0.675500  1.0  0.2412
  C  C202  1  0.281100  0.217600  0.725600  1.0  -0.269
  C  C203  1  0.326600  0.247400  0.790700  1.0  0.1907
  C  C204  1  0.101200  0.177800  0.481700  1.0  0.2005
  C  C205  1  0.155700  0.141400  0.521200  1.0  -0.2747
  C  C206  1  0.236800  0.171600  0.567800  1.0  0.2255
  C  C207  1  0.252600  0.239300  0.572100  1.0  -0.2818
  C  C208  1  0.191600  0.270300  0.530100  1.0  0.1919
  C  C209  1  0.014200  0.693300  0.885200  1.0  -0.0544
  C  C210  1  0.048000  0.746000  0.912100  1.0  -0.008
  C  C211  1  0.082800  0.810900  0.944400  1.0  -0.047
  C  C212  1  0.108800  0.866500  0.974200  1.0  -0.0422
  C  C213  1  0.965900  0.631300  0.849900  1.0  0.0399
  C  C214  1  0.927500  0.621500  0.779700  1.0  -0.0899
  C  C215  1  0.876200  0.564000  0.746200  1.0  -0.1881
  C  C216  1  0.865000  0.512900  0.782400  1.0  0.1514
  C  C217  1  0.903800  0.521900  0.851400  1.0  -0.181
  C  C218  1  0.952600  0.579800  0.885500  1.0  -0.0859
  C  C219  1  0.137000  0.934300  0.007600  1.0  0.083
  C  C220  1  0.124300  0.982300  0.973200  1.0  -0.0781
  C  C221  1  0.145500  0.049900  0.004700  1.0  -0.1818
  C  C222  1  0.179300  0.067500  0.072900  1.0  0.1711
  C  C223  1  0.194400  0.019600  0.111500  1.0  -0.1833
  C  C224  1  0.169000  0.953700  0.079800  1.0  -0.0788
  C  C225  1  0.668100  0.322500  0.804100  1.0  0.1962
  C  C226  1  0.736200  0.351100  0.764200  1.0  -0.2783
  C  C227  1  0.743700  0.419000  0.781900  1.0  0.2504
  C  C228  1  0.681600  0.453800  0.836700  1.0  -0.2596
  C  C229  1  0.616900  0.421800  0.872600  1.0  0.197
  C  C230  1  0.829500  0.355800  0.553600  1.0  0.1988
  C  C231  1  0.787800  0.385200  0.620200  1.0  -0.2612
  C  C232  1  0.852500  0.419800  0.673600  1.0  0.2338
  C  C233  1  0.956300  0.424800  0.655600  1.0  -0.2651
  C  C234  1  0.988900  0.395800  0.587000  1.0  0.1998
  C  C235  1  0.029100  0.184300  0.265100  1.0  0.1787
  C  C236  1  0.070100  0.150900  0.199000  1.0  -0.2561
  C  C237  1  0.165200  0.167700  0.175500  1.0  0.242
  C  C238  1  0.218900  0.217600  0.225600  1.0  -0.269
  C  C239  1  0.173400  0.247400  0.290700  1.0  0.1907
  C  C240  1  0.398800  0.177800  0.981700  1.0  0.2008
  C  C241  1  0.344300  0.141400  0.021200  1.0  -0.2728
  C  C242  1  0.263200  0.171600  0.067800  1.0  0.2268
  C  C243  1  0.247400  0.239300  0.072100  1.0  -0.2812
  C  C244  1  0.308400  0.270300  0.030100  1.0  0.1916
  N  N245  1  0.185900  0.548400  0.255400  1.0  -0.1643
  N  N246  1  0.392000  0.644700  0.142800  1.0  -0.3492
  N  N247  1  0.072100  0.640000  0.464400  1.0  -0.3353
  N  N248  1  0.794600  0.864100  0.893300  1.0  -0.1286
  N  N249  1  0.920400  0.767000  0.688200  1.0  -0.347
  N  N250  1  0.616000  0.758300  0.013300  1.0  -0.3322
  N  N251  1  0.314100  0.548400  0.755400  1.0  -0.1635
  N  N252  1  0.108000  0.644700  0.642800  1.0  -0.3488
  N  N253  1  0.427900  0.640000  0.964400  1.0  -0.335
  N  N254  1  0.705400  0.864100  0.393300  1.0  -0.1273
  N  N255  1  0.579600  0.767000  0.188200  1.0  -0.348
  N  N256  1  0.884000  0.758300  0.513300  1.0  -0.3305
  N  N257  1  0.685900  0.451600  0.244600  1.0  -0.1642
  N  N258  1  0.892000  0.355300  0.357200  1.0  -0.3487
  N  N259  1  0.572100  0.360000  0.035600  1.0  -0.3361
  N  N260  1  0.294600  0.135900  0.606700  1.0  -0.128
  N  N261  1  0.420400  0.233000  0.811800  1.0  -0.3448
  N  N262  1  0.116000  0.241700  0.486700  1.0  -0.3324
  N  N263  1  0.814100  0.451600  0.744600  1.0  -0.1635
  N  N264  1  0.608000  0.355300  0.857200  1.0  -0.3484
  N  N265  1  0.927900  0.360000  0.535600  1.0  -0.3356
  N  N266  1  0.205400  0.135900  0.106700  1.0  -0.1267
  N  N267  1  0.079600  0.233000  0.311800  1.0  -0.3462
  N  N268  1  0.384000  0.241700  0.986700  1.0  -0.3316
  Cl  Cl269  1  0.357900  0.792670  0.086600  1.0  -0.6397
  Cl  Cl270  1  0.641300  0.606140  0.065360  1.0  -0.6334
  Cl  Cl271  1  0.142100  0.792670  0.586600  1.0  -0.6405
  Cl  Cl272  1  0.858700  0.606140  0.565360  1.0  -0.6314
  Cl  Cl273  1  0.857900  0.207330  0.413400  1.0  -0.6399
  Cl  Cl274  1  0.141300  0.393860  0.434640  1.0  -0.6329
  Cl  Cl275  1  0.642100  0.207330  0.913400  1.0  -0.6418
  Cl  Cl276  1  0.358700  0.393860  0.934640  1.0  -0.6317
