# generated using pymatgen
data_CdH12C18SN3O4
_symmetry_space_group_name_H-M   'P 1'
_cell_length_a   10.10930000
_cell_length_b   13.05700000
_cell_length_c   24.35900000
_cell_angle_alpha   85.54200000
_cell_angle_beta   85.31400000
_cell_angle_gamma   80.74900000
_symmetry_Int_Tables_number   1
_chemical_formula_structural   CdH12C18SN3O4
_chemical_formula_sum   'Cd6 H72 C108 S6 N18 O24'
_cell_volume   3156.06390617
_cell_formula_units_Z   6
loop_
 _symmetry_equiv_pos_site_id
 _symmetry_equiv_pos_as_xyz
  1  'x, y, z'
loop_
 _atom_site_type_symbol
 _atom_site_label
 _atom_site_symmetry_multiplicity
 _atom_site_fract_x
 _atom_site_fract_y
 _atom_site_fract_z
 _atom_site_occupancy
 _atom_site_charge
  Cd  Cd1  1  0.363660  0.544590  0.583100  1.0  1.1536
  Cd  Cd2  1  0.073430  0.407450  0.577770  1.0  1.1676
  Cd  Cd3  1  0.851580  0.678690  0.607290  1.0  1.0821
  Cd  Cd4  1  0.636340  0.455410  0.416900  1.0  1.155
  Cd  Cd5  1  0.926570  0.592550  0.422230  1.0  1.1588
  Cd  Cd6  1  0.148420  0.321310  0.392710  1.0  1.0844
  H  H7  1  0.141700  0.026200  0.801000  1.0  0.1143
  H  H8  1  0.208300  0.039300  0.890100  1.0  0.12
  H  H9  1  0.581900  0.920700  0.841400  1.0  0.1246
  H  H10  1  0.517700  0.917900  0.753200  1.0  0.0981
  H  H11  1  0.424100  0.770300  0.573100  1.0  0.0827
  H  H12  1  0.387200  0.927400  0.611800  1.0  0.1336
  H  H13  1  0.263400  0.781100  0.753600  1.0  0.1419
  H  H14  1  0.305400  0.628500  0.709700  1.0  0.0756
  H  H15  1  0.202900  0.311300  0.687800  1.0  0.0712
  H  H16  1  0.287800  0.161800  0.736200  1.0  0.1283
  H  H17  1  0.153600  0.005100  0.622000  1.0  0.1267
  H  H18  1  0.085000  0.159600  0.575800  1.0  0.0859
  H  H19  1  0.866400  0.101000  0.866400  1.0  0.1177
  H  H20  1  0.762900  0.050000  0.793700  1.0  0.1262
  H  H21  1  0.860300  0.296700  0.700100  1.0  0.1238
  H  H22  1  0.963200  0.348900  0.772200  1.0  0.1191
  H  H23  1  0.417100  0.364500  0.992000  1.0  0.1009
  H  H24  1  0.526000  0.420400  0.063900  1.0  0.1385
  H  H25  1  0.168200  0.488800  0.146800  1.0  0.1256
  H  H26  1  0.063100  0.434900  0.075000  1.0  0.1175
  H  H27  1  0.396700  0.403400  0.694000  1.0  0.0819
  H  H28  1  0.523000  0.258300  0.734800  1.0  0.1336
  H  H29  1  0.742000  0.222400  0.592000  1.0  0.1371
  H  H30  1  0.613100  0.368800  0.555500  1.0  0.0807
  H  H31  1  0.653400  0.897200  0.593700  1.0  0.0813
  H  H32  1  0.606900  0.058800  0.625900  1.0  0.1267
  H  H33  1  0.936100  0.990400  0.710000  1.0  0.1164
  H  H34  1  0.976000  0.830300  0.673500  1.0  0.0837
  H  H35  1  0.286500  0.232600  0.274100  1.0  0.0668
  H  H36  1  0.360000  0.294400  0.188700  1.0  0.1381
  H  H37  1  0.395100  0.558400  0.254800  1.0  0.1082
  H  H38  1  0.321800  0.489000  0.337400  1.0  0.0738
  H  H39  1  0.482800  0.802000  0.111900  1.0  0.054
  H  H40  1  0.369000  0.665700  0.107300  1.0  0.1374
  H  H41  1  0.649000  0.494700  0.198000  1.0  0.1355
  H  H42  1  0.755800  0.638000  0.195600  1.0  0.0808
  H  H43  1  0.858300  0.973800  0.199000  1.0  0.1142
  H  H44  1  0.791700  0.960700  0.109900  1.0  0.1199
  H  H45  1  0.418100  0.079300  0.158600  1.0  0.1235
  H  H46  1  0.482300  0.082100  0.246800  1.0  0.0981
  H  H47  1  0.575900  0.229700  0.426900  1.0  0.0827
  H  H48  1  0.612800  0.072600  0.388200  1.0  0.1345
  H  H49  1  0.736600  0.218900  0.246400  1.0  0.1425
  H  H50  1  0.694600  0.371500  0.290300  1.0  0.0755
  H  H51  1  0.797100  0.688700  0.312200  1.0  0.0714
  H  H52  1  0.712200  0.838200  0.263800  1.0  0.1287
  H  H53  1  0.846400  0.994900  0.378000  1.0  0.1267
  H  H54  1  0.915000  0.840400  0.424200  1.0  0.0859
  H  H55  1  0.133600  0.899000  0.133600  1.0  0.1185
  H  H56  1  0.237100  0.950000  0.206300  1.0  0.1265
  H  H57  1  0.139700  0.703300  0.299900  1.0  0.1239
  H  H58  1  0.036800  0.651100  0.227800  1.0  0.1184
  H  H59  1  0.582900  0.635500  0.008000  1.0  0.1001
  H  H60  1  0.474000  0.579600  0.936100  1.0  0.1377
  H  H61  1  0.831800  0.511200  0.853200  1.0  0.1272
  H  H62  1  0.936900  0.565100  0.925000  1.0  0.1164
  H  H63  1  0.603300  0.596600  0.306000  1.0  0.0818
  H  H64  1  0.477000  0.741700  0.265200  1.0  0.133
  H  H65  1  0.258000  0.777600  0.408000  1.0  0.1369
  H  H66  1  0.386900  0.631200  0.444500  1.0  0.0812
  H  H67  1  0.346600  0.102800  0.406300  1.0  0.082
  H  H68  1  0.393100  0.941200  0.374100  1.0  0.1262
  H  H69  1  0.063900  0.009600  0.290000  1.0  0.1165
  H  H70  1  0.024000  0.169700  0.326500  1.0  0.0832
  H  H71  1  0.713500  0.767400  0.725900  1.0  0.0674
  H  H72  1  0.640000  0.705600  0.811300  1.0  0.138
  H  H73  1  0.604900  0.441600  0.745200  1.0  0.108
  H  H74  1  0.678200  0.511000  0.662600  1.0  0.0751
  H  H75  1  0.517200  0.198000  0.888100  1.0  0.0548
  H  H76  1  0.631000  0.334300  0.892700  1.0  0.137
  H  H77  1  0.351000  0.505300  0.802000  1.0  0.1351
  H  H78  1  0.244200  0.362000  0.804400  1.0  0.0807
  C  C79  1  0.444500  0.987400  0.928600  1.0  -0.0245
  C  C80  1  0.478700  0.994900  0.972900  1.0  -0.0274
  C  C81  1  0.324000  0.971000  0.767900  1.0  0.1641
  C  C82  1  0.231300  0.006400  0.808600  1.0  -0.1615
  C  C83  1  0.271300  0.013200  0.862600  1.0  -0.0782
  C  C84  1  0.402400  0.981400  0.874200  1.0  0.0717
  C  C85  1  0.493100  0.944200  0.833700  1.0  -0.1274
  C  C86  1  0.453500  0.941200  0.780800  1.0  -0.1373
  C  C87  1  0.390800  0.773000  0.609800  1.0  0.1968
  C  C88  1  0.368300  0.868100  0.632700  1.0  -0.275
  C  C89  1  0.316600  0.874500  0.687600  1.0  0.2177
  C  C90  1  0.295000  0.781500  0.716700  1.0  -0.2456
  C  C91  1  0.321100  0.689700  0.689900  1.0  0.2015
  C  C92  1  0.196500  0.248200  0.673700  1.0  0.1999
  C  C93  1  0.247200  0.158400  0.703700  1.0  -0.2543
  C  C94  1  0.236800  0.062800  0.684400  1.0  0.2096
  C  C95  1  0.169000  0.066400  0.635700  1.0  -0.2574
  C  C96  1  0.126000  0.159800  0.608600  1.0  0.2062
  C  C97  1  0.985900  0.264300  0.872100  1.0  -0.065
  C  C98  1  0.041900  0.294400  0.907000  1.0  -0.0073
  C  C99  1  0.106200  0.331000  0.947200  1.0  -0.0417
  C  C100  1  0.163200  0.361700  0.982200  1.0  -0.0466
  C  C101  1  0.922800  0.232600  0.826900  1.0  0.0601
  C  C102  1  0.863900  0.140800  0.833000  1.0  -0.0949
  C  C103  1  0.802700  0.109800  0.789600  1.0  -0.1928
  C  C104  1  0.801500  0.169100  0.740000  1.0  0.1583
  C  C105  1  0.861300  0.257900  0.733700  1.0  -0.1485
  C  C106  1  0.922500  0.289500  0.777000  1.0  -0.0852
  C  C107  1  0.228600  0.397600  0.025400  1.0  0.0611
  C  C108  1  0.366500  0.390500  0.023000  1.0  -0.0681
  C  C109  1  0.433400  0.421800  0.066600  1.0  -0.182
  C  C110  1  0.355900  0.454100  0.112700  1.0  0.2042
  C  C111  1  0.218900  0.462800  0.115900  1.0  -0.1799
  C  C112  1  0.155900  0.432000  0.072200  1.0  -0.0838
  C  C113  1  0.467900  0.367000  0.673300  1.0  0.1723
  C  C114  1  0.543700  0.279900  0.698300  1.0  -0.2479
  C  C115  1  0.648600  0.226900  0.668200  1.0  0.181
  C  C116  1  0.673400  0.259000  0.613800  1.0  -0.2197
  C  C117  1  0.594600  0.346400  0.592100  1.0  0.2088
  C  C118  1  0.711700  0.916300  0.617300  1.0  0.1968
  C  C119  1  0.682200  0.013600  0.637000  1.0  -0.254
  C  C120  1  0.763500  0.044500  0.673000  1.0  0.2272
  C  C121  1  0.876600  0.973200  0.686300  1.0  -0.2511
  C  C122  1  0.900100  0.876700  0.664200  1.0  0.1883
  C  C123  1  0.307200  0.299800  0.270100  1.0  0.1906
  C  C124  1  0.351200  0.336200  0.218500  1.0  -0.2641
  C  C125  1  0.382300  0.436000  0.211400  1.0  0.2494
  C  C126  1  0.372000  0.492000  0.257400  1.0  -0.2639
  C  C127  1  0.327700  0.449300  0.307000  1.0  0.2106
  C  C128  1  0.517800  0.738300  0.128900  1.0  0.2051
  C  C129  1  0.446300  0.657400  0.126500  1.0  -0.2546
  C  C130  1  0.494100  0.563500  0.153700  1.0  0.2172
  C  C131  1  0.612600  0.556700  0.179700  1.0  -0.2603
  C  C132  1  0.676500  0.643700  0.178000  1.0  0.2026
  C  C133  1  0.555500  0.012600  0.071400  1.0  -0.0262
  C  C134  1  0.521300  0.005100  0.027100  1.0  -0.0279
  C  C135  1  0.676000  0.029000  0.232100  1.0  0.1634
  C  C136  1  0.768700  0.993600  0.191400  1.0  -0.1612
  C  C137  1  0.728700  0.986800  0.137400  1.0  -0.0755
  C  C138  1  0.597600  0.018600  0.125800  1.0  0.0706
  C  C139  1  0.506900  0.055800  0.166300  1.0  -0.129
  C  C140  1  0.546500  0.058800  0.219200  1.0  -0.136
  C  C141  1  0.609200  0.227000  0.390200  1.0  0.1982
  C  C142  1  0.631700  0.131900  0.367300  1.0  -0.2746
  C  C143  1  0.683400  0.125500  0.312400  1.0  0.2174
  C  C144  1  0.705000  0.218500  0.283300  1.0  -0.2441
  C  C145  1  0.678900  0.310300  0.310100  1.0  0.2008
  C  C146  1  0.803500  0.751800  0.326300  1.0  0.2002
  C  C147  1  0.752800  0.841600  0.296300  1.0  -0.2505
  C  C148  1  0.763200  0.937200  0.315600  1.0  0.21
  C  C149  1  0.831000  0.933600  0.364300  1.0  -0.2557
  C  C150  1  0.874000  0.840200  0.391400  1.0  0.2043
  C  C151  1  0.014100  0.735700  0.127900  1.0  -0.0658
  C  C152  1  0.958100  0.705600  0.093000  1.0  -0.0028
  C  C153  1  0.893800  0.669000  0.052800  1.0  -0.0421
  C  C154  1  0.836800  0.638300  0.017800  1.0  -0.0433
  C  C155  1  0.077200  0.767400  0.173100  1.0  0.0587
  C  C156  1  0.136100  0.859200  0.167000  1.0  -0.0942
  C  C157  1  0.197300  0.890200  0.210400  1.0  -0.2012
  C  C158  1  0.198500  0.830900  0.260000  1.0  0.1581
  C  C159  1  0.138700  0.742100  0.266300  1.0  -0.1492
  C  C160  1  0.077500  0.710500  0.223000  1.0  -0.0862
  C  C161  1  0.771400  0.602400  0.974600  1.0  0.0606
  C  C162  1  0.633500  0.609500  0.977000  1.0  -0.0671
  C  C163  1  0.566600  0.578200  0.933400  1.0  -0.1833
  C  C164  1  0.644100  0.545900  0.887300  1.0  0.205
  C  C165  1  0.781100  0.537200  0.884100  1.0  -0.1806
  C  C166  1  0.844100  0.568000  0.927800  1.0  -0.0844
  C  C167  1  0.532100  0.633000  0.326700  1.0  0.1731
  C  C168  1  0.456300  0.720100  0.301700  1.0  -0.2462
  C  C169  1  0.351400  0.773100  0.331800  1.0  0.1764
  C  C170  1  0.326600  0.741000  0.386200  1.0  -0.2203
  C  C171  1  0.405400  0.653600  0.407900  1.0  0.2062
  C  C172  1  0.288300  0.083700  0.382700  1.0  0.1948
  C  C173  1  0.317800  0.986400  0.363000  1.0  -0.2523
  C  C174  1  0.236500  0.955500  0.327000  1.0  0.2261
  C  C175  1  0.123400  0.026800  0.313700  1.0  -0.2494
  C  C176  1  0.099900  0.123300  0.335800  1.0  0.1892
  C  C177  1  0.692800  0.700200  0.729900  1.0  0.1888
  C  C178  1  0.648800  0.663800  0.781500  1.0  -0.2637
  C  C179  1  0.617700  0.564000  0.788600  1.0  0.2495
  C  C180  1  0.628000  0.508000  0.742600  1.0  -0.263
  C  C181  1  0.672300  0.550700  0.693000  1.0  0.2104
  C  C182  1  0.482200  0.261700  0.871100  1.0  0.2051
  C  C183  1  0.553700  0.342600  0.873500  1.0  -0.2515
  C  C184  1  0.505900  0.436500  0.846300  1.0  0.2161
  C  C185  1  0.387400  0.443300  0.820300  1.0  -0.2603
  C  C186  1  0.323500  0.356300  0.822000  1.0  0.2016
  S  S187  1  0.066300  0.529940  0.679100  1.0  1.6469
  S  S188  1  0.085780  0.665660  0.517930  1.0  1.6763
  S  S189  1  0.335640  0.377930  0.480130  1.0  1.6937
  S  S190  1  0.933700  0.470060  0.320900  1.0  1.646
  S  S191  1  0.914220  0.334340  0.482070  1.0  1.6766
  S  S192  1  0.664360  0.622070  0.519870  1.0  1.6924
  N  N193  1  0.286700  0.969900  0.712800  1.0  -0.1374
  N  N194  1  0.367600  0.684900  0.637200  1.0  -0.383
  N  N195  1  0.139300  0.251700  0.626400  1.0  -0.3872
  N  N196  1  0.735300  0.141500  0.694600  1.0  -0.1697
  N  N197  1  0.493200  0.400100  0.621200  1.0  -0.3618
  N  N198  1  0.818700  0.847500  0.630100  1.0  -0.3444
  N  N199  1  0.419600  0.477500  0.158600  1.0  -0.1675
  N  N200  1  0.292300  0.355200  0.315300  1.0  -0.3893
  N  N201  1  0.630000  0.734000  0.152700  1.0  -0.4235
  N  N202  1  0.713300  0.030100  0.287200  1.0  -0.1369
  N  N203  1  0.632400  0.315100  0.362800  1.0  -0.3824
  N  N204  1  0.860700  0.748300  0.373600  1.0  -0.3866
  N  N205  1  0.264700  0.858500  0.305400  1.0  -0.1705
  N  N206  1  0.506800  0.599900  0.378800  1.0  -0.3593
  N  N207  1  0.181300  0.152500  0.369900  1.0  -0.3433
  N  N208  1  0.580400  0.522500  0.841400  1.0  -0.1664
  N  N209  1  0.707700  0.644800  0.684700  1.0  -0.3892
  N  N210  1  0.370000  0.266000  0.847300  1.0  -0.4222
  O  O211  1  0.194600  0.496600  0.645980  1.0  -0.8346
  O  O212  1  0.965200  0.473300  0.658710  1.0  -0.7726
  O  O213  1  0.022700  0.641900  0.668900  1.0  -0.7412
  O  O214  1  0.086200  0.503600  0.736900  1.0  -0.7147
  O  O215  1  0.226700  0.656400  0.529240  1.0  -0.7318
  O  O216  1  0.020400  0.579600  0.545900  1.0  -0.8526
  O  O217  1  0.009800  0.761100  0.537900  1.0  -0.7473
  O  O218  1  0.076500  0.665400  0.458070  1.0  -0.7414
  O  O219  1  0.273900  0.419700  0.532710  1.0  -0.8262
  O  O220  1  0.264100  0.434600  0.433500  1.0  -0.7589
  O  O221  1  0.320600  0.272000  0.478000  1.0  -0.7164
  O  O222  1  0.471900  0.397100  0.474300  1.0  -0.7251
  O  O223  1  0.805400  0.503400  0.354020  1.0  -0.8331
  O  O224  1  0.034800  0.526700  0.341290  1.0  -0.7771
  O  O225  1  0.977300  0.358100  0.331100  1.0  -0.7421
  O  O226  1  0.913800  0.496400  0.263100  1.0  -0.716
  O  O227  1  0.773300  0.343600  0.470760  1.0  -0.7313
  O  O228  1  0.979600  0.420400  0.454100  1.0  -0.8487
  O  O229  1  0.990200  0.238900  0.462100  1.0  -0.7475
  O  O230  1  0.923500  0.334600  0.541930  1.0  -0.741
  O  O231  1  0.726100  0.580300  0.467290  1.0  -0.8273
  O  O232  1  0.735900  0.565400  0.566500  1.0  -0.7603
  O  O233  1  0.679400  0.728000  0.522000  1.0  -0.7189
  O  O234  1  0.528100  0.602900  0.525700  1.0  -0.722
