# generated using pymatgen
data_Ce2CuH14C30(NO8)2
_symmetry_space_group_name_H-M   'P 1'
_cell_length_a   7.99050000
_cell_length_b   17.24500000
_cell_length_c   23.29870000
_cell_angle_alpha   90.00000000
_cell_angle_beta   90.00000000
_cell_angle_gamma   90.00000000
_symmetry_Int_Tables_number   1
_chemical_formula_structural   Ce2CuH14C30(NO8)2
_chemical_formula_sum   'Ce8 Cu4 H56 C120 N8 O64'
_cell_volume   3210.47168423
_cell_formula_units_Z   4
loop_
 _symmetry_equiv_pos_site_id
 _symmetry_equiv_pos_as_xyz
  1  'x, y, z'
loop_
 _atom_site_type_symbol
 _atom_site_label
 _atom_site_symmetry_multiplicity
 _atom_site_fract_x
 _atom_site_fract_y
 _atom_site_fract_z
 _atom_site_occupancy
 _atom_site_charge
  Ce  Ce1  1  0.138370  0.896610  0.218030  1.0  2.3343
  Ce  Ce2  1  0.361630  0.103390  0.718030  1.0  2.3337
  Ce  Ce3  1  0.861630  0.396610  0.281970  1.0  2.3338
  Ce  Ce4  1  0.638370  0.603390  0.781970  1.0  2.334
  Ce  Ce5  1  0.861630  0.103390  0.781970  1.0  2.3337
  Ce  Ce6  1  0.638370  0.896610  0.281970  1.0  2.3341
  Ce  Ce7  1  0.138370  0.603390  0.718030  1.0  2.334
  Ce  Ce8  1  0.361630  0.396610  0.218030  1.0  2.334
  Cu  Cu9  1  0.500000  0.000000  0.500000  1.0  0.8413
  Cu  Cu10  1  0.000000  0.000000  0.000000  1.0  0.8413
  Cu  Cu11  1  0.500000  0.500000  0.000000  1.0  0.8413
  Cu  Cu12  1  0.000000  0.500000  0.500000  1.0  0.8413
  H  H13  1  0.874900  0.831000  0.507400  1.0  0.0974
  H  H14  1  0.117700  0.758200  0.509800  1.0  0.1096
  H  H15  1  0.316600  0.774300  0.439000  1.0  0.0947
  H  H16  1  0.703700  0.836800  0.661300  1.0  0.1362
  H  H17  1  0.720100  0.930500  0.591700  1.0  0.0857
  H  H18  1  0.249700  0.898100  0.550900  1.0  0.0773
  H  H19  1  0.226000  0.800100  0.616200  1.0  0.1332
  H  H20  1  0.625100  0.169000  0.007400  1.0  0.0978
  H  H21  1  0.382300  0.241800  0.009800  1.0  0.1094
  H  H22  1  0.183400  0.225700  0.939000  1.0  0.0945
  H  H23  1  0.796300  0.163200  0.161300  1.0  0.1365
  H  H24  1  0.779900  0.069500  0.091700  1.0  0.0858
  H  H25  1  0.250300  0.101900  0.050900  1.0  0.077
  H  H26  1  0.274000  0.199900  0.116200  1.0  0.1324
  H  H27  1  0.125100  0.331000  0.992600  1.0  0.0977
  H  H28  1  0.882300  0.258200  0.990200  1.0  0.1091
  H  H29  1  0.683400  0.274300  0.061000  1.0  0.0949
  H  H30  1  0.296300  0.336800  0.838700  1.0  0.1354
  H  H31  1  0.279900  0.430500  0.908300  1.0  0.0855
  H  H32  1  0.750300  0.398100  0.949100  1.0  0.0767
  H  H33  1  0.774000  0.300100  0.883800  1.0  0.1326
  H  H34  1  0.374900  0.669000  0.492600  1.0  0.0974
  H  H35  1  0.617700  0.741800  0.490200  1.0  0.1091
  H  H36  1  0.816600  0.725700  0.561000  1.0  0.0947
  H  H37  1  0.203700  0.663200  0.338700  1.0  0.1357
  H  H38  1  0.220100  0.569500  0.408300  1.0  0.0854
  H  H39  1  0.749700  0.601900  0.449100  1.0  0.0772
  H  H40  1  0.726000  0.699900  0.383800  1.0  0.1327
  H  H41  1  0.125100  0.169000  0.492600  1.0  0.0977
  H  H42  1  0.882300  0.241800  0.490200  1.0  0.1093
  H  H43  1  0.683400  0.225700  0.561000  1.0  0.0949
  H  H44  1  0.296300  0.163200  0.338700  1.0  0.1355
  H  H45  1  0.279900  0.069500  0.408300  1.0  0.0853
  H  H46  1  0.750300  0.101900  0.449100  1.0  0.077
  H  H47  1  0.774000  0.199900  0.383800  1.0  0.1326
  H  H48  1  0.374900  0.831000  0.992600  1.0  0.0977
  H  H49  1  0.617700  0.758200  0.990200  1.0  0.1089
  H  H50  1  0.816600  0.774300  0.061000  1.0  0.0951
  H  H51  1  0.203700  0.836800  0.838700  1.0  0.1357
  H  H52  1  0.220100  0.930500  0.908300  1.0  0.0854
  H  H53  1  0.749700  0.898100  0.949100  1.0  0.0771
  H  H54  1  0.726000  0.800100  0.883800  1.0  0.1333
  H  H55  1  0.874900  0.669000  0.007400  1.0  0.0976
  H  H56  1  0.117700  0.741800  0.009800  1.0  0.1093
  H  H57  1  0.316600  0.725700  0.939000  1.0  0.0943
  H  H58  1  0.703700  0.663200  0.161300  1.0  0.1369
  H  H59  1  0.720100  0.569500  0.091700  1.0  0.0857
  H  H60  1  0.249700  0.601900  0.050900  1.0  0.0772
  H  H61  1  0.226000  0.699900  0.116200  1.0  0.1328
  H  H62  1  0.625100  0.331000  0.507400  1.0  0.0976
  H  H63  1  0.382300  0.258200  0.509800  1.0  0.1097
  H  H64  1  0.183400  0.274300  0.439000  1.0  0.0946
  H  H65  1  0.796300  0.336800  0.661300  1.0  0.1357
  H  H66  1  0.779900  0.430500  0.591700  1.0  0.0858
  H  H67  1  0.250300  0.398100  0.550900  1.0  0.077
  H  H68  1  0.274000  0.300100  0.616200  1.0  0.1323
  C  C69  1  0.328400  0.859900  0.348330  1.0  0.6962
  C  C70  1  0.010100  0.962300  0.347250  1.0  0.7235
  C  C71  1  0.760400  0.929700  0.431800  1.0  0.7387
  C  C72  1  0.194300  0.855500  0.393410  1.0  -0.1513
  C  C73  1  0.046800  0.899700  0.391030  1.0  -0.0108
  C  C74  1  0.926200  0.888300  0.433930  1.0  -0.148
  C  C75  1  0.954400  0.836600  0.478530  1.0  -0.0099
  C  C76  1  0.099800  0.793500  0.480260  1.0  -0.1277
  C  C77  1  0.218600  0.803300  0.437770  1.0  -0.0428
  C  C78  1  0.445400  0.742400  0.690220  1.0  0.7313
  C  C79  1  0.463100  0.806300  0.646520  1.0  -0.0373
  C  C80  1  0.610900  0.847500  0.638560  1.0  -0.1296
  C  C81  1  0.619700  0.904200  0.597090  1.0  0.16
  C  C82  1  0.342700  0.884400  0.572680  1.0  0.1497
  C  C83  1  0.327200  0.826200  0.612250  1.0  -0.1208
  C  C84  1  0.171600  0.140100  0.848330  1.0  0.6962
  C  C85  1  0.489900  0.037700  0.847250  1.0  0.7229
  C  C86  1  0.739600  0.070300  0.931800  1.0  0.7384
  C  C87  1  0.305700  0.144500  0.893410  1.0  -0.1516
  C  C88  1  0.453200  0.100300  0.891030  1.0  -0.0119
  C  C89  1  0.573800  0.111700  0.933930  1.0  -0.1482
  C  C90  1  0.545600  0.163400  0.978530  1.0  -0.0118
  C  C91  1  0.400200  0.206500  0.980260  1.0  -0.1269
  C  C92  1  0.281400  0.196700  0.937770  1.0  -0.0414
  C  C93  1  0.054600  0.257600  0.190220  1.0  0.7314
  C  C94  1  0.036900  0.193700  0.146520  1.0  -0.0383
  C  C95  1  0.889100  0.152500  0.138560  1.0  -0.1296
  C  C96  1  0.880300  0.095800  0.097090  1.0  0.1606
  C  C97  1  0.157300  0.115600  0.072680  1.0  0.1497
  C  C98  1  0.172800  0.173800  0.112250  1.0  -0.1212
  C  C99  1  0.671600  0.359900  0.151670  1.0  0.6961
  C  C100  1  0.989900  0.462300  0.152750  1.0  0.7227
  C  C101  1  0.239600  0.429700  0.068200  1.0  0.7384
  C  C102  1  0.805700  0.355500  0.106590  1.0  -0.1514
  C  C103  1  0.953200  0.399700  0.108970  1.0  -0.0102
  C  C104  1  0.073800  0.388300  0.066070  1.0  -0.1477
  C  C105  1  0.045600  0.336600  0.021470  1.0  -0.0106
  C  C106  1  0.900200  0.293500  0.019740  1.0  -0.127
  C  C107  1  0.781400  0.303300  0.062230  1.0  -0.0414
  C  C108  1  0.554600  0.242400  0.809780  1.0  0.7339
  C  C109  1  0.536900  0.306300  0.853480  1.0  -0.0393
  C  C110  1  0.389100  0.347500  0.861440  1.0  -0.1273
  C  C111  1  0.380300  0.404200  0.902910  1.0  0.1594
  C  C112  1  0.657300  0.384400  0.927320  1.0  0.1494
  C  C113  1  0.672800  0.326200  0.887750  1.0  -0.1211
  C  C114  1  0.828400  0.640100  0.651670  1.0  0.6966
  C  C115  1  0.510100  0.537700  0.652750  1.0  0.7239
  C  C116  1  0.260400  0.570300  0.568200  1.0  0.7391
  C  C117  1  0.694300  0.644500  0.606590  1.0  -0.1519
  C  C118  1  0.546800  0.600300  0.608970  1.0  -0.0111
  C  C119  1  0.426200  0.611700  0.566070  1.0  -0.148
  C  C120  1  0.454400  0.663400  0.521470  1.0  -0.0097
  C  C121  1  0.599800  0.706500  0.519740  1.0  -0.1273
  C  C122  1  0.718600  0.696700  0.562230  1.0  -0.0431
  C  C123  1  0.945400  0.757600  0.309780  1.0  0.7337
  C  C124  1  0.963100  0.693700  0.353480  1.0  -0.0377
  C  C125  1  0.110900  0.652500  0.361440  1.0  -0.1301
  C  C126  1  0.119700  0.595800  0.402910  1.0  0.1599
  C  C127  1  0.842700  0.615600  0.427320  1.0  0.1496
  C  C128  1  0.827200  0.673800  0.387750  1.0  -0.1205
  C  C129  1  0.671600  0.140100  0.651670  1.0  0.6966
  C  C130  1  0.989900  0.037700  0.652750  1.0  0.724
  C  C131  1  0.239600  0.070300  0.568200  1.0  0.7385
  C  C132  1  0.805700  0.144500  0.606590  1.0  -0.1517
  C  C133  1  0.953200  0.100300  0.608970  1.0  -0.0113
  C  C134  1  0.073800  0.111700  0.566070  1.0  -0.148
  C  C135  1  0.045600  0.163400  0.521470  1.0  -0.0113
  C  C136  1  0.900200  0.206500  0.519740  1.0  -0.1266
  C  C137  1  0.781400  0.196700  0.562230  1.0  -0.0415
  C  C138  1  0.554600  0.257600  0.309780  1.0  0.7331
  C  C139  1  0.536900  0.193700  0.353480  1.0  -0.0382
  C  C140  1  0.389100  0.152500  0.361440  1.0  -0.1282
  C  C141  1  0.380300  0.095800  0.402910  1.0  0.1601
  C  C142  1  0.657300  0.115600  0.427320  1.0  0.1495
  C  C143  1  0.672800  0.173800  0.387750  1.0  -0.1213
  C  C144  1  0.828400  0.859900  0.151670  1.0  0.6969
  C  C145  1  0.510100  0.962300  0.152750  1.0  0.7224
  C  C146  1  0.260400  0.929700  0.068200  1.0  0.7388
  C  C147  1  0.694300  0.855500  0.106590  1.0  -0.1518
  C  C148  1  0.546800  0.899700  0.108970  1.0  -0.01
  C  C149  1  0.426200  0.888300  0.066070  1.0  -0.1477
  C  C150  1  0.454400  0.836600  0.021470  1.0  -0.0095
  C  C151  1  0.599800  0.793500  0.019740  1.0  -0.1277
  C  C152  1  0.718600  0.803300  0.062230  1.0  -0.0428
  C  C153  1  0.945400  0.742400  0.809780  1.0  0.7343
  C  C154  1  0.963100  0.806300  0.853480  1.0  -0.039
  C  C155  1  0.110900  0.847500  0.861440  1.0  -0.1288
  C  C156  1  0.119700  0.904200  0.902910  1.0  0.1596
  C  C157  1  0.842700  0.884400  0.927320  1.0  0.1491
  C  C158  1  0.827200  0.826200  0.887750  1.0  -0.1205
  C  C159  1  0.328400  0.640100  0.848330  1.0  0.6957
  C  C160  1  0.010100  0.537700  0.847250  1.0  0.7231
  C  C161  1  0.760400  0.570300  0.931800  1.0  0.7391
  C  C162  1  0.194300  0.644500  0.893410  1.0  -0.1515
  C  C163  1  0.046800  0.600300  0.891030  1.0  -0.0117
  C  C164  1  0.926200  0.611700  0.933930  1.0  -0.1483
  C  C165  1  0.954400  0.663400  0.978530  1.0  -0.0098
  C  C166  1  0.099800  0.706500  0.980260  1.0  -0.1274
  C  C167  1  0.218600  0.696700  0.937770  1.0  -0.0432
  C  C168  1  0.445400  0.757600  0.190220  1.0  0.7312
  C  C169  1  0.463100  0.693700  0.146520  1.0  -0.0379
  C  C170  1  0.610900  0.652500  0.138560  1.0  -0.1307
  C  C171  1  0.619700  0.595800  0.097090  1.0  0.1604
  C  C172  1  0.342700  0.615600  0.072680  1.0  0.15
  C  C173  1  0.327200  0.673800  0.112250  1.0  -0.1204
  C  C174  1  0.171600  0.359900  0.348330  1.0  0.696
  C  C175  1  0.489900  0.462300  0.347250  1.0  0.7237
  C  C176  1  0.739600  0.429700  0.431800  1.0  0.738
  C  C177  1  0.305700  0.355500  0.393410  1.0  -0.151
  C  C178  1  0.453200  0.399700  0.391030  1.0  -0.0111
  C  C179  1  0.573800  0.388300  0.433930  1.0  -0.148
  C  C180  1  0.545600  0.336600  0.478530  1.0  -0.0114
  C  C181  1  0.400200  0.293500  0.480260  1.0  -0.1271
  C  C182  1  0.281400  0.303300  0.437770  1.0  -0.0412
  C  C183  1  0.054600  0.242400  0.690220  1.0  0.7317
  C  C184  1  0.036900  0.306300  0.646520  1.0  -0.0376
  C  C185  1  0.889100  0.347500  0.638560  1.0  -0.1291
  C  C186  1  0.880300  0.404200  0.597090  1.0  0.1598
  C  C187  1  0.157300  0.384400  0.572680  1.0  0.1497
  C  C188  1  0.172800  0.326200  0.612250  1.0  -0.1214
  N  N189  1  0.487400  0.922780  0.564040  1.0  -0.3352
  N  N190  1  0.012600  0.077220  0.064040  1.0  -0.3355
  N  N191  1  0.512600  0.422780  0.935960  1.0  -0.3351
  N  N192  1  0.987400  0.577220  0.435960  1.0  -0.3346
  N  N193  1  0.512600  0.077220  0.435960  1.0  -0.3345
  N  N194  1  0.987400  0.922780  0.935960  1.0  -0.335
  N  N195  1  0.487400  0.577220  0.064040  1.0  -0.3356
  N  N196  1  0.012600  0.422780  0.564040  1.0  -0.3353
  O  O197  1  0.314200  0.909040  0.307020  1.0  -0.8279
  O  O198  1  0.453000  0.816400  0.351780  1.0  -0.6076
  O  O199  1  0.952500  0.942110  0.298050  1.0  -0.9292
  O  O200  1  0.028400  0.029600  0.363490  1.0  -0.5323
  O  O201  1  0.684500  0.936510  0.385550  1.0  -0.7267
  O  O202  1  0.708700  0.953120  0.480340  1.0  -0.5699
  O  O203  1  0.301400  0.713350  0.693020  1.0  -0.7144
  O  O204  1  0.568100  0.723000  0.719810  1.0  -0.6645
  O  O205  1  0.185800  0.090960  0.807020  1.0  -0.828
  O  O206  1  0.047000  0.183600  0.851780  1.0  -0.6077
  O  O207  1  0.547500  0.057890  0.798050  1.0  -0.9302
  O  O208  1  0.471600  0.970400  0.863490  1.0  -0.5325
  O  O209  1  0.815500  0.063490  0.885550  1.0  -0.7264
  O  O210  1  0.791300  0.046880  0.980340  1.0  -0.5694
  O  O211  1  0.198600  0.286650  0.193020  1.0  -0.7151
  O  O212  1  0.931900  0.277000  0.219810  1.0  -0.6643
  O  O213  1  0.685800  0.409040  0.192980  1.0  -0.8287
  O  O214  1  0.547000  0.316400  0.148220  1.0  -0.6071
  O  O215  1  0.047500  0.442110  0.201950  1.0  -0.9303
  O  O216  1  0.971600  0.529600  0.136510  1.0  -0.533
  O  O217  1  0.315500  0.436510  0.114450  1.0  -0.7268
  O  O218  1  0.291300  0.453120  0.019660  1.0  -0.5698
  O  O219  1  0.698600  0.213350  0.806980  1.0  -0.7151
  O  O220  1  0.431900  0.223000  0.780190  1.0  -0.6651
  O  O221  1  0.814200  0.590960  0.692980  1.0  -0.8277
  O  O222  1  0.953000  0.683600  0.648220  1.0  -0.6068
  O  O223  1  0.452500  0.557890  0.701950  1.0  -0.9294
  O  O224  1  0.528400  0.470400  0.636510  1.0  -0.5334
  O  O225  1  0.184500  0.563490  0.614450  1.0  -0.727
  O  O226  1  0.208700  0.546880  0.519660  1.0  -0.5693
  O  O227  1  0.801400  0.786650  0.306980  1.0  -0.715
  O  O228  1  0.068100  0.777000  0.280190  1.0  -0.6655
  O  O229  1  0.685800  0.090960  0.692980  1.0  -0.8275
  O  O230  1  0.547000  0.183600  0.648220  1.0  -0.6067
  O  O231  1  0.047500  0.057890  0.701950  1.0  -0.9287
  O  O232  1  0.971600  0.970400  0.636510  1.0  -0.5333
  O  O233  1  0.315500  0.063490  0.614450  1.0  -0.7268
  O  O234  1  0.291300  0.046880  0.519660  1.0  -0.5696
  O  O235  1  0.698600  0.286650  0.306980  1.0  -0.7156
  O  O236  1  0.431900  0.277000  0.280190  1.0  -0.6652
  O  O237  1  0.814200  0.909040  0.192980  1.0  -0.8283
  O  O238  1  0.953000  0.816400  0.148220  1.0  -0.6068
  O  O239  1  0.452500  0.942110  0.201950  1.0  -0.9307
  O  O240  1  0.528400  0.029600  0.136510  1.0  -0.5332
  O  O241  1  0.184500  0.936510  0.114450  1.0  -0.7272
  O  O242  1  0.208700  0.953120  0.019660  1.0  -0.5696
  O  O243  1  0.801400  0.713350  0.806980  1.0  -0.7145
  O  O244  1  0.068100  0.723000  0.780190  1.0  -0.6652
  O  O245  1  0.314200  0.590960  0.807020  1.0  -0.8281
  O  O246  1  0.453000  0.683600  0.851780  1.0  -0.6075
  O  O247  1  0.952500  0.557890  0.798050  1.0  -0.9305
  O  O248  1  0.028400  0.470400  0.863490  1.0  -0.5328
  O  O249  1  0.684500  0.563490  0.885550  1.0  -0.727
  O  O250  1  0.708700  0.546880  0.980340  1.0  -0.5691
  O  O251  1  0.301400  0.786650  0.193020  1.0  -0.7145
  O  O252  1  0.568100  0.777000  0.219810  1.0  -0.6642
  O  O253  1  0.185800  0.409040  0.307020  1.0  -0.8284
  O  O254  1  0.047000  0.316400  0.351780  1.0  -0.6084
  O  O255  1  0.547500  0.442110  0.298050  1.0  -0.9294
  O  O256  1  0.471600  0.529600  0.363490  1.0  -0.532
  O  O257  1  0.815500  0.436510  0.385550  1.0  -0.7261
  O  O258  1  0.791300  0.453120  0.480340  1.0  -0.5701
  O  O259  1  0.198600  0.213350  0.693020  1.0  -0.7152
  O  O260  1  0.931900  0.223000  0.719810  1.0  -0.6648
