# generated using pymatgen
data_Pr2CuH14C30(NO8)2
_symmetry_space_group_name_H-M   'P 1'
_cell_length_a   7.95290000
_cell_length_b   17.24660000
_cell_length_c   23.27020000
_cell_angle_alpha   90.00000000
_cell_angle_beta   90.00000000
_cell_angle_gamma   90.00000000
_symmetry_Int_Tables_number   1
_chemical_formula_structural   Pr2CuH14C30(NO8)2
_chemical_formula_sum   'Pr8 Cu4 H56 C120 N8 O64'
_cell_volume   3191.75192130
_cell_formula_units_Z   4
loop_
 _symmetry_equiv_pos_site_id
 _symmetry_equiv_pos_as_xyz
  1  'x, y, z'
loop_
 _atom_site_type_symbol
 _atom_site_label
 _atom_site_symmetry_multiplicity
 _atom_site_fract_x
 _atom_site_fract_y
 _atom_site_fract_z
 _atom_site_occupancy
 _atom_site_charge
  Pr  Pr1  1  0.860850  0.895960  0.281620  1.0  2.2678
  Pr  Pr2  1  0.639150  0.104040  0.781620  1.0  2.2681
  Pr  Pr3  1  0.139150  0.395960  0.218380  1.0  2.2683
  Pr  Pr4  1  0.360850  0.604040  0.718380  1.0  2.268
  Pr  Pr5  1  0.139150  0.104040  0.718380  1.0  2.2683
  Pr  Pr6  1  0.360850  0.895960  0.218380  1.0  2.268
  Pr  Pr7  1  0.860850  0.604040  0.781620  1.0  2.2679
  Pr  Pr8  1  0.639150  0.395960  0.281620  1.0  2.2679
  Cu  Cu9  1  0.500000  0.000000  0.000000  1.0  0.7967
  Cu  Cu10  1  0.000000  0.000000  0.500000  1.0  0.7967
  Cu  Cu11  1  0.500000  0.500000  0.500000  1.0  0.7967
  Cu  Cu12  1  0.000000  0.500000  0.000000  1.0  0.7967
  H  H13  1  0.125500  0.830000  0.993300  1.0  0.0973
  H  H14  1  0.880700  0.757800  0.990200  1.0  0.1111
  H  H15  1  0.680800  0.773800  0.061300  1.0  0.0955
  H  H16  1  0.294500  0.836700  0.838400  1.0  0.1416
  H  H17  1  0.280300  0.930700  0.908400  1.0  0.0811
  H  H18  1  0.751200  0.897200  0.949000  1.0  0.0739
  H  H19  1  0.774500  0.799600  0.883300  1.0  0.1353
  H  H20  1  0.374500  0.170000  0.493300  1.0  0.097
  H  H21  1  0.619300  0.242200  0.490200  1.0  0.1111
  H  H22  1  0.819200  0.226200  0.561300  1.0  0.0952
  H  H23  1  0.205500  0.163300  0.338400  1.0  0.1421
  H  H24  1  0.219700  0.069300  0.408400  1.0  0.0809
  H  H25  1  0.748800  0.102800  0.449000  1.0  0.074
  H  H26  1  0.725500  0.200400  0.383300  1.0  0.1351
  H  H27  1  0.874500  0.330000  0.506700  1.0  0.097
  H  H28  1  0.119300  0.257800  0.509800  1.0  0.1113
  H  H29  1  0.319200  0.273800  0.438700  1.0  0.0951
  H  H30  1  0.705500  0.336700  0.661600  1.0  0.1421
  H  H31  1  0.719700  0.430700  0.591600  1.0  0.0813
  H  H32  1  0.248800  0.397200  0.551000  1.0  0.0744
  H  H33  1  0.225500  0.299600  0.616700  1.0  0.1357
  H  H34  1  0.625500  0.670000  0.006700  1.0  0.0974
  H  H35  1  0.380700  0.742200  0.009800  1.0  0.1112
  H  H36  1  0.180800  0.726200  0.938700  1.0  0.0954
  H  H37  1  0.794500  0.663300  0.161600  1.0  0.1424
  H  H38  1  0.780300  0.569300  0.091600  1.0  0.0815
  H  H39  1  0.251200  0.602800  0.051000  1.0  0.0741
  H  H40  1  0.274500  0.700400  0.116700  1.0  0.135
  H  H41  1  0.874500  0.170000  0.006700  1.0  0.0972
  H  H42  1  0.119300  0.242200  0.009800  1.0  0.1111
  H  H43  1  0.319200  0.226200  0.938700  1.0  0.0948
  H  H44  1  0.705500  0.163300  0.161600  1.0  0.1428
  H  H45  1  0.719700  0.069300  0.091600  1.0  0.0813
  H  H46  1  0.248800  0.102800  0.051000  1.0  0.0741
  H  H47  1  0.225500  0.200400  0.116700  1.0  0.1352
  H  H48  1  0.625500  0.830000  0.506700  1.0  0.097
  H  H49  1  0.380700  0.757800  0.509800  1.0  0.1114
  H  H50  1  0.180800  0.773800  0.438700  1.0  0.095
  H  H51  1  0.794500  0.836700  0.661600  1.0  0.1417
  H  H52  1  0.780300  0.930700  0.591600  1.0  0.0815
  H  H53  1  0.251200  0.897200  0.551000  1.0  0.0743
  H  H54  1  0.274500  0.799600  0.616700  1.0  0.1351
  H  H55  1  0.125500  0.670000  0.493300  1.0  0.0972
  H  H56  1  0.880700  0.742200  0.490200  1.0  0.1113
  H  H57  1  0.680800  0.726200  0.561300  1.0  0.0958
  H  H58  1  0.294500  0.663300  0.338400  1.0  0.1417
  H  H59  1  0.280300  0.569300  0.408400  1.0  0.081
  H  H60  1  0.751200  0.602800  0.449000  1.0  0.074
  H  H61  1  0.774500  0.700400  0.383300  1.0  0.1352
  H  H62  1  0.374500  0.330000  0.993300  1.0  0.0974
  H  H63  1  0.619300  0.257800  0.990200  1.0  0.1109
  H  H64  1  0.819200  0.273800  0.061300  1.0  0.0955
  H  H65  1  0.205500  0.336700  0.838400  1.0  0.142
  H  H66  1  0.219700  0.430700  0.908400  1.0  0.0809
  H  H67  1  0.748800  0.397200  0.949000  1.0  0.0741
  H  H68  1  0.725500  0.299600  0.883300  1.0  0.1357
  C  C69  1  0.669800  0.858300  0.152240  1.0  0.7017
  C  C70  1  0.990400  0.961700  0.152870  1.0  0.7212
  C  C71  1  0.240900  0.928100  0.069260  1.0  0.7395
  C  C72  1  0.803800  0.854900  0.107300  1.0  -0.1513
  C  C73  1  0.953500  0.898400  0.109410  1.0  -0.0066
  C  C74  1  0.074000  0.887300  0.066730  1.0  -0.1478
  C  C75  1  0.045300  0.835700  0.022000  1.0  -0.0159
  C  C76  1  0.898900  0.792800  0.019900  1.0  -0.1269
  C  C77  1  0.779400  0.802800  0.062600  1.0  -0.0239
  C  C78  1  0.554900  0.742500  0.809660  1.0  0.729
  C  C79  1  0.536300  0.806300  0.853380  1.0  -0.0417
  C  C80  1  0.388000  0.847300  0.861100  1.0  -0.1348
  C  C81  1  0.380900  0.904200  0.902900  1.0  0.1627
  C  C82  1  0.657600  0.883900  0.927100  1.0  0.1485
  C  C83  1  0.673000  0.825800  0.887400  1.0  -0.1259
  C  C84  1  0.830200  0.141700  0.652240  1.0  0.7023
  C  C85  1  0.509600  0.038300  0.652870  1.0  0.7217
  C  C86  1  0.259100  0.071900  0.569260  1.0  0.7401
  C  C87  1  0.696200  0.145100  0.607300  1.0  -0.151
  C  C88  1  0.546500  0.101600  0.609410  1.0  -0.0069
  C  C89  1  0.426000  0.112700  0.566730  1.0  -0.1475
  C  C90  1  0.454700  0.164300  0.522000  1.0  -0.0138
  C  C91  1  0.601100  0.207200  0.519900  1.0  -0.1272
  C  C92  1  0.720600  0.197200  0.562600  1.0  -0.0256
  C  C93  1  0.945100  0.257500  0.309660  1.0  0.729
  C  C94  1  0.963700  0.193700  0.353380  1.0  -0.0395
  C  C95  1  0.112000  0.152700  0.361100  1.0  -0.1372
  C  C96  1  0.119100  0.095800  0.402900  1.0  0.1631
  C  C97  1  0.842400  0.116100  0.427100  1.0  0.1489
  C  C98  1  0.827000  0.174200  0.387400  1.0  -0.1251
  C  C99  1  0.330200  0.358300  0.347760  1.0  0.7015
  C  C100  1  0.009600  0.461700  0.347130  1.0  0.7229
  C  C101  1  0.759100  0.428100  0.430740  1.0  0.7386
  C  C102  1  0.196200  0.354900  0.392700  1.0  -0.1514
  C  C103  1  0.046500  0.398400  0.390590  1.0  -0.0072
  C  C104  1  0.926000  0.387300  0.433270  1.0  -0.148
  C  C105  1  0.954700  0.335700  0.478000  1.0  -0.0137
  C  C106  1  0.101100  0.292800  0.480100  1.0  -0.1271
  C  C107  1  0.220600  0.302800  0.437400  1.0  -0.0256
  C  C108  1  0.445100  0.242500  0.690340  1.0  0.7278
  C  C109  1  0.463700  0.306300  0.646620  1.0  -0.0393
  C  C110  1  0.612000  0.347300  0.638900  1.0  -0.1356
  C  C111  1  0.619100  0.404200  0.597100  1.0  0.1639
  C  C112  1  0.342400  0.383900  0.572900  1.0  0.1484
  C  C113  1  0.327000  0.325800  0.612600  1.0  -0.1259
  C  C114  1  0.169800  0.641700  0.847760  1.0  0.7013
  C  C115  1  0.490400  0.538300  0.847130  1.0  0.7214
  C  C116  1  0.740900  0.571900  0.930740  1.0  0.7388
  C  C117  1  0.303800  0.645100  0.892700  1.0  -0.1515
  C  C118  1  0.453500  0.601600  0.890590  1.0  -0.0073
  C  C119  1  0.574000  0.612700  0.933270  1.0  -0.148
  C  C120  1  0.545300  0.664300  0.978000  1.0  -0.0161
  C  C121  1  0.398900  0.707200  0.980100  1.0  -0.1264
  C  C122  1  0.279400  0.697200  0.937400  1.0  -0.0236
  C  C123  1  0.054900  0.757500  0.190340  1.0  0.7285
  C  C124  1  0.036300  0.693700  0.146620  1.0  -0.0404
  C  C125  1  0.888000  0.652700  0.138900  1.0  -0.1359
  C  C126  1  0.880900  0.595800  0.097100  1.0  0.164
  C  C127  1  0.157600  0.616100  0.072900  1.0  0.1488
  C  C128  1  0.173000  0.674200  0.112600  1.0  -0.1264
  C  C129  1  0.330200  0.141700  0.847760  1.0  0.702
  C  C130  1  0.009600  0.038300  0.847130  1.0  0.7216
  C  C131  1  0.759100  0.071900  0.930740  1.0  0.7389
  C  C132  1  0.196200  0.145100  0.892700  1.0  -0.1511
  C  C133  1  0.046500  0.101600  0.890590  1.0  -0.0072
  C  C134  1  0.926000  0.112700  0.933270  1.0  -0.1478
  C  C135  1  0.954700  0.164300  0.978000  1.0  -0.0134
  C  C136  1  0.101100  0.207200  0.980100  1.0  -0.1269
  C  C137  1  0.220600  0.197200  0.937400  1.0  -0.0257
  C  C138  1  0.445100  0.257500  0.190340  1.0  0.7279
  C  C139  1  0.463700  0.193700  0.146620  1.0  -0.0401
  C  C140  1  0.612000  0.152700  0.138900  1.0  -0.1362
  C  C141  1  0.619100  0.095800  0.097100  1.0  0.1639
  C  C142  1  0.342400  0.116100  0.072900  1.0  0.1489
  C  C143  1  0.327000  0.174200  0.112600  1.0  -0.1254
  C  C144  1  0.169800  0.858300  0.347760  1.0  0.7017
  C  C145  1  0.490400  0.961700  0.347130  1.0  0.7228
  C  C146  1  0.740900  0.928100  0.430740  1.0  0.7383
  C  C147  1  0.303800  0.854900  0.392700  1.0  -0.1512
  C  C148  1  0.453500  0.898400  0.390590  1.0  -0.0073
  C  C149  1  0.574000  0.887300  0.433270  1.0  -0.1482
  C  C150  1  0.545300  0.835700  0.478000  1.0  -0.0158
  C  C151  1  0.398900  0.792800  0.480100  1.0  -0.1266
  C  C152  1  0.279400  0.802800  0.437400  1.0  -0.0237
  C  C153  1  0.054900  0.742500  0.690340  1.0  0.7286
  C  C154  1  0.036300  0.806300  0.646620  1.0  -0.0394
  C  C155  1  0.888000  0.847300  0.638900  1.0  -0.1359
  C  C156  1  0.880900  0.904200  0.597100  1.0  0.1635
  C  C157  1  0.157600  0.883900  0.572900  1.0  0.1485
  C  C158  1  0.173000  0.825800  0.612600  1.0  -0.1266
  C  C159  1  0.669800  0.641700  0.652240  1.0  0.7013
  C  C160  1  0.990400  0.538300  0.652870  1.0  0.7217
  C  C161  1  0.240900  0.571900  0.569260  1.0  0.7399
  C  C162  1  0.803800  0.645100  0.607300  1.0  -0.1509
  C  C163  1  0.953500  0.601600  0.609410  1.0  -0.0069
  C  C164  1  0.074000  0.612700  0.566730  1.0  -0.1477
  C  C165  1  0.045300  0.664300  0.522000  1.0  -0.0164
  C  C166  1  0.898900  0.707200  0.519900  1.0  -0.1265
  C  C167  1  0.779400  0.697200  0.562600  1.0  -0.0238
  C  C168  1  0.554900  0.757500  0.309660  1.0  0.7285
  C  C169  1  0.536300  0.693700  0.353380  1.0  -0.0397
  C  C170  1  0.388000  0.652700  0.361100  1.0  -0.1354
  C  C171  1  0.380900  0.595800  0.402900  1.0  0.1633
  C  C172  1  0.657600  0.616100  0.427100  1.0  0.149
  C  C173  1  0.673000  0.674200  0.387400  1.0  -0.1261
  C  C174  1  0.830200  0.358300  0.152240  1.0  0.7018
  C  C175  1  0.509600  0.461700  0.152870  1.0  0.7212
  C  C176  1  0.259100  0.428100  0.069260  1.0  0.7398
  C  C177  1  0.696200  0.354900  0.107300  1.0  -0.1515
  C  C178  1  0.546500  0.398400  0.109410  1.0  -0.0067
  C  C179  1  0.426000  0.387300  0.066730  1.0  -0.1476
  C  C180  1  0.454700  0.335700  0.022000  1.0  -0.014
  C  C181  1  0.601100  0.292800  0.019900  1.0  -0.1276
  C  C182  1  0.720600  0.302800  0.062600  1.0  -0.0256
  C  C183  1  0.945100  0.242500  0.809660  1.0  0.7294
  C  C184  1  0.963700  0.306300  0.853380  1.0  -0.0416
  C  C185  1  0.112000  0.347300  0.861100  1.0  -0.1363
  C  C186  1  0.119100  0.404200  0.902900  1.0  0.1631
  C  C187  1  0.842400  0.383900  0.927100  1.0  0.1482
  C  C188  1  0.827000  0.325800  0.887400  1.0  -0.1253
  N  N189  1  0.513200  0.922700  0.935890  1.0  -0.3283
  N  N190  1  0.986800  0.077300  0.435890  1.0  -0.3278
  N  N191  1  0.486800  0.422700  0.564110  1.0  -0.3284
  N  N192  1  0.013200  0.577300  0.064110  1.0  -0.3283
  N  N193  1  0.486800  0.077300  0.064110  1.0  -0.3283
  N  N194  1  0.013200  0.922700  0.564110  1.0  -0.3285
  N  N195  1  0.513200  0.577300  0.435890  1.0  -0.3277
  N  N196  1  0.986800  0.422700  0.935890  1.0  -0.3281
  O  O197  1  0.684100  0.907900  0.193440  1.0  -0.8241
  O  O198  1  0.544900  0.815600  0.148850  1.0  -0.5912
  O  O199  1  0.047000  0.941240  0.202410  1.0  -0.9203
  O  O200  1  0.970900  0.029100  0.136710  1.0  -0.5238
  O  O201  1  0.315700  0.935600  0.114990  1.0  -0.7101
  O  O202  1  0.293000  0.951700  0.020690  1.0  -0.576
  O  O203  1  0.698000  0.713100  0.806570  1.0  -0.6946
  O  O204  1  0.429900  0.722810  0.780230  1.0  -0.6666
  O  O205  1  0.815900  0.092100  0.693440  1.0  -0.8228
  O  O206  1  0.955100  0.184400  0.648850  1.0  -0.5901
  O  O207  1  0.453000  0.058760  0.702410  1.0  -0.9188
  O  O208  1  0.529100  0.970900  0.636710  1.0  -0.5241
  O  O209  1  0.184300  0.064400  0.614990  1.0  -0.7096
  O  O210  1  0.207000  0.048300  0.520690  1.0  -0.5756
  O  O211  1  0.802000  0.286900  0.306570  1.0  -0.6942
  O  O212  1  0.070100  0.277190  0.280230  1.0  -0.6669
  O  O213  1  0.315900  0.407900  0.306560  1.0  -0.8232
  O  O214  1  0.455100  0.315600  0.351150  1.0  -0.5913
  O  O215  1  0.953000  0.441240  0.297590  1.0  -0.9193
  O  O216  1  0.029100  0.529100  0.363290  1.0  -0.5236
  O  O217  1  0.684300  0.435600  0.385010  1.0  -0.7088
  O  O218  1  0.707000  0.451700  0.479310  1.0  -0.576
  O  O219  1  0.302000  0.213100  0.693430  1.0  -0.6939
  O  O220  1  0.570100  0.222810  0.719770  1.0  -0.665
  O  O221  1  0.184100  0.592100  0.806560  1.0  -0.824
  O  O222  1  0.044900  0.684400  0.851150  1.0  -0.5918
  O  O223  1  0.547000  0.558760  0.797590  1.0  -0.9197
  O  O224  1  0.470900  0.470900  0.863290  1.0  -0.5236
  O  O225  1  0.815700  0.564400  0.885010  1.0  -0.7091
  O  O226  1  0.793000  0.548300  0.979310  1.0  -0.5757
  O  O227  1  0.198000  0.786900  0.193430  1.0  -0.6947
  O  O228  1  0.929900  0.777190  0.219770  1.0  -0.6644
  O  O229  1  0.315900  0.092100  0.806560  1.0  -0.8238
  O  O230  1  0.455100  0.184400  0.851150  1.0  -0.591
  O  O231  1  0.953000  0.058760  0.797590  1.0  -0.9199
  O  O232  1  0.029100  0.970900  0.863290  1.0  -0.5239
  O  O233  1  0.684300  0.064400  0.885010  1.0  -0.7093
  O  O234  1  0.707000  0.048300  0.979310  1.0  -0.5754
  O  O235  1  0.302000  0.286900  0.193430  1.0  -0.6937
  O  O236  1  0.570100  0.277190  0.219770  1.0  -0.6655
  O  O237  1  0.184100  0.907900  0.306560  1.0  -0.8238
  O  O238  1  0.044900  0.815600  0.351150  1.0  -0.5923
  O  O239  1  0.547000  0.941240  0.297590  1.0  -0.9196
  O  O240  1  0.470900  0.029100  0.363290  1.0  -0.5233
  O  O241  1  0.815700  0.935600  0.385010  1.0  -0.7087
  O  O242  1  0.793000  0.951700  0.479310  1.0  -0.5763
  O  O243  1  0.198000  0.713100  0.693430  1.0  -0.6949
  O  O244  1  0.929900  0.722810  0.719770  1.0  -0.6659
  O  O245  1  0.684100  0.592100  0.693440  1.0  -0.8229
  O  O246  1  0.544900  0.684400  0.648850  1.0  -0.5908
  O  O247  1  0.047000  0.558760  0.702410  1.0  -0.9184
  O  O248  1  0.970900  0.470900  0.636710  1.0  -0.5239
  O  O249  1  0.315700  0.564400  0.614990  1.0  -0.7099
  O  O250  1  0.293000  0.548300  0.520690  1.0  -0.576
  O  O251  1  0.698000  0.786900  0.306570  1.0  -0.6952
  O  O252  1  0.429900  0.777190  0.280230  1.0  -0.6654
  O  O253  1  0.815900  0.407900  0.193440  1.0  -0.8236
  O  O254  1  0.955100  0.315600  0.148850  1.0  -0.5902
  O  O255  1  0.453000  0.441240  0.202410  1.0  -0.9207
  O  O256  1  0.529100  0.529100  0.136710  1.0  -0.524
  O  O257  1  0.184300  0.435600  0.114990  1.0  -0.71
  O  O258  1  0.207000  0.451700  0.020690  1.0  -0.5759
  O  O259  1  0.802000  0.213100  0.806570  1.0  -0.6937
  O  O260  1  0.070100  0.222810  0.780230  1.0  -0.6659
