# generated using pymatgen
data_La2CuH14C30(NO8)2
_symmetry_space_group_name_H-M   'P 1'
_cell_length_a   8.01910000
_cell_length_b   17.30500000
_cell_length_c   23.30340000
_cell_angle_alpha   90.00000000
_cell_angle_beta   90.00000000
_cell_angle_gamma   90.00000000
_symmetry_Int_Tables_number   1
_chemical_formula_structural   La2CuH14C30(NO8)2
_chemical_formula_sum   'La8 Cu4 H56 C120 N8 O64'
_cell_volume   3233.82506394
_cell_formula_units_Z   4
loop_
 _symmetry_equiv_pos_site_id
 _symmetry_equiv_pos_as_xyz
  1  'x, y, z'
loop_
 _atom_site_type_symbol
 _atom_site_label
 _atom_site_symmetry_multiplicity
 _atom_site_fract_x
 _atom_site_fract_y
 _atom_site_fract_z
 _atom_site_occupancy
 _atom_site_charge
  La  La1  1  0.637020  0.896710  0.782410  1.0  2.2289
  La  La2  1  0.862980  0.103290  0.282410  1.0  2.2282
  La  La3  1  0.362980  0.396710  0.717590  1.0  2.2291
  La  La4  1  0.137020  0.603290  0.217590  1.0  2.2283
  La  La5  1  0.362980  0.103290  0.217590  1.0  2.2283
  La  La6  1  0.137020  0.896710  0.717590  1.0  2.2291
  La  La7  1  0.637020  0.603290  0.282410  1.0  2.2283
  La  La8  1  0.862980  0.396710  0.782410  1.0  2.2289
  Cu  Cu9  1  0.000000  0.000000  0.500000  1.0  0.8393
  Cu  Cu10  1  0.500000  0.000000  0.000000  1.0  0.8393
  Cu  Cu11  1  0.000000  0.500000  0.000000  1.0  0.8393
  Cu  Cu12  1  0.500000  0.500000  0.500000  1.0  0.8393
  H  H13  1  0.372800  0.831900  0.492300  1.0  0.098
  H  H14  1  0.614700  0.757800  0.489900  1.0  0.1126
  H  H15  1  0.812900  0.774500  0.560500  1.0  0.0956
  H  H16  1  0.797300  0.162900  0.661500  1.0  0.1369
  H  H17  1  0.781600  0.069000  0.591300  1.0  0.0882
  H  H18  1  0.249600  0.101100  0.550900  1.0  0.0781
  H  H19  1  0.271300  0.201200  0.615300  1.0  0.129
  H  H20  1  0.127200  0.168100  0.992300  1.0  0.0979
  H  H21  1  0.885300  0.242200  0.989900  1.0  0.1131
  H  H22  1  0.687100  0.225500  0.060500  1.0  0.0956
  H  H23  1  0.702700  0.837100  0.161500  1.0  0.1369
  H  H24  1  0.718400  0.931000  0.091300  1.0  0.0877
  H  H25  1  0.250400  0.898900  0.050900  1.0  0.0783
  H  H26  1  0.228700  0.798800  0.115300  1.0  0.1294
  H  H27  1  0.627200  0.331900  0.007700  1.0  0.0978
  H  H28  1  0.385300  0.257800  0.010100  1.0  0.1132
  H  H29  1  0.187100  0.274500  0.939500  1.0  0.095
  H  H30  1  0.202700  0.662900  0.838500  1.0  0.1363
  H  H31  1  0.218400  0.569000  0.908700  1.0  0.0874
  H  H32  1  0.750400  0.601100  0.949100  1.0  0.0784
  H  H33  1  0.728700  0.701200  0.884700  1.0  0.1286
  H  H34  1  0.872800  0.668100  0.507700  1.0  0.0982
  H  H35  1  0.114700  0.742200  0.510100  1.0  0.1128
  H  H36  1  0.312900  0.725500  0.439500  1.0  0.095
  H  H37  1  0.297300  0.337100  0.338500  1.0  0.136
  H  H38  1  0.281600  0.431000  0.408700  1.0  0.0876
  H  H39  1  0.749600  0.398900  0.449100  1.0  0.0779
  H  H40  1  0.771300  0.298800  0.384700  1.0  0.1292
  H  H41  1  0.627200  0.168100  0.507700  1.0  0.0983
  H  H42  1  0.385300  0.242200  0.510100  1.0  0.1129
  H  H43  1  0.187100  0.225500  0.439500  1.0  0.095
  H  H44  1  0.202700  0.837100  0.338500  1.0  0.1363
  H  H45  1  0.218400  0.931000  0.408700  1.0  0.0873
  H  H46  1  0.750400  0.898900  0.449100  1.0  0.0782
  H  H47  1  0.728700  0.798800  0.384700  1.0  0.1294
  H  H48  1  0.872800  0.831900  0.007700  1.0  0.0978
  H  H49  1  0.114700  0.757800  0.010100  1.0  0.1131
  H  H50  1  0.312900  0.774500  0.939500  1.0  0.0952
  H  H51  1  0.297300  0.162900  0.838500  1.0  0.1361
  H  H52  1  0.281600  0.069000  0.908700  1.0  0.0877
  H  H53  1  0.749600  0.101100  0.949100  1.0  0.0783
  H  H54  1  0.771300  0.201200  0.884700  1.0  0.129
  H  H55  1  0.372800  0.668100  0.992300  1.0  0.0977
  H  H56  1  0.614700  0.742200  0.989900  1.0  0.1128
  H  H57  1  0.812900  0.725500  0.060500  1.0  0.0954
  H  H58  1  0.797300  0.337100  0.161500  1.0  0.1362
  H  H59  1  0.781600  0.431000  0.091300  1.0  0.0881
  H  H60  1  0.249600  0.398900  0.050900  1.0  0.078
  H  H61  1  0.271300  0.298800  0.115300  1.0  0.1293
  H  H62  1  0.127200  0.331900  0.492300  1.0  0.098
  H  H63  1  0.885300  0.257800  0.489900  1.0  0.1128
  H  H64  1  0.687100  0.274500  0.560500  1.0  0.0954
  H  H65  1  0.702700  0.662900  0.661500  1.0  0.1374
  H  H66  1  0.718400  0.569000  0.591300  1.0  0.0878
  H  H67  1  0.250400  0.601100  0.550900  1.0  0.0782
  H  H68  1  0.228700  0.701200  0.615300  1.0  0.129
  C  C69  1  0.825700  0.859680  0.651140  1.0  0.6996
  C  C70  1  0.507700  0.962620  0.652220  1.0  0.7102
  C  C71  1  0.259700  0.930520  0.567700  1.0  0.7382
  C  C72  1  0.691200  0.855860  0.606330  1.0  -0.1538
  C  C73  1  0.544700  0.899660  0.608750  1.0  -0.008
  C  C74  1  0.425000  0.889140  0.565640  1.0  -0.1474
  C  C75  1  0.452200  0.837300  0.521080  1.0  -0.0122
  C  C76  1  0.597400  0.793400  0.519270  1.0  -0.126
  C  C77  1  0.715200  0.803380  0.561690  1.0  -0.0272
  C  C78  1  0.055500  0.256910  0.689960  1.0  0.7291
  C  C79  1  0.036300  0.193190  0.646060  1.0  -0.0399
  C  C80  1  0.889600  0.152360  0.638620  1.0  -0.1284
  C  C81  1  0.881400  0.095500  0.596710  1.0  0.1602
  C  C82  1  0.156600  0.115190  0.572350  1.0  0.1434
  C  C83  1  0.171400  0.174300  0.611760  1.0  -0.121
  C  C84  1  0.674300  0.140320  0.151140  1.0  0.6997
  C  C85  1  0.992300  0.037380  0.152220  1.0  0.7112
  C  C86  1  0.240300  0.069480  0.067700  1.0  0.7387
  C  C87  1  0.808800  0.144140  0.106330  1.0  -0.1551
  C  C88  1  0.955300  0.100340  0.108750  1.0  -0.0084
  C  C89  1  0.075000  0.110860  0.065640  1.0  -0.147
  C  C90  1  0.047800  0.162700  0.021080  1.0  -0.0143
  C  C91  1  0.902600  0.206600  0.019270  1.0  -0.1255
  C  C92  1  0.784800  0.196620  0.061690  1.0  -0.0269
  C  C93  1  0.444500  0.743090  0.189960  1.0  0.7286
  C  C94  1  0.463700  0.806810  0.146060  1.0  -0.0376
  C  C95  1  0.610400  0.847640  0.138620  1.0  -0.1278
  C  C96  1  0.618600  0.904500  0.096710  1.0  0.1596
  C  C97  1  0.343400  0.884810  0.072350  1.0  0.1434
  C  C98  1  0.328600  0.825700  0.111760  1.0  -0.1205
  C  C99  1  0.174300  0.359680  0.848860  1.0  0.6992
  C  C100  1  0.492300  0.462620  0.847780  1.0  0.712
  C  C101  1  0.740300  0.430520  0.932300  1.0  0.7372
  C  C102  1  0.308800  0.355860  0.893670  1.0  -0.1548
  C  C103  1  0.455300  0.399660  0.891250  1.0  -0.0089
  C  C104  1  0.575000  0.389140  0.934360  1.0  -0.1476
  C  C105  1  0.547800  0.337300  0.978920  1.0  -0.0131
  C  C106  1  0.402600  0.293400  0.980730  1.0  -0.1257
  C  C107  1  0.284800  0.303380  0.938310  1.0  -0.0268
  C  C108  1  0.944500  0.756910  0.810040  1.0  0.7305
  C  C109  1  0.963700  0.693190  0.853940  1.0  -0.0374
  C  C110  1  0.110400  0.652360  0.861380  1.0  -0.1294
  C  C111  1  0.118600  0.595500  0.903290  1.0  0.159
  C  C112  1  0.843400  0.615190  0.927650  1.0  0.1434
  C  C113  1  0.828600  0.674300  0.888240  1.0  -0.1206
  C  C114  1  0.325700  0.640320  0.348860  1.0  0.6993
  C  C115  1  0.007700  0.537380  0.347780  1.0  0.711
  C  C116  1  0.759700  0.569480  0.432300  1.0  0.7384
  C  C117  1  0.191200  0.644140  0.393670  1.0  -0.1544
  C  C118  1  0.044700  0.600340  0.391250  1.0  -0.0086
  C  C119  1  0.925000  0.610860  0.434360  1.0  -0.1478
  C  C120  1  0.952200  0.662700  0.478920  1.0  -0.0112
  C  C121  1  0.097400  0.706600  0.480730  1.0  -0.1254
  C  C122  1  0.215200  0.696620  0.438310  1.0  -0.0273
  C  C123  1  0.555500  0.243090  0.310040  1.0  0.7306
  C  C124  1  0.536300  0.306810  0.353940  1.0  -0.039
  C  C125  1  0.389600  0.347640  0.361380  1.0  -0.1271
  C  C126  1  0.381400  0.404500  0.403290  1.0  0.1587
  C  C127  1  0.656600  0.384810  0.427650  1.0  0.1433
  C  C128  1  0.671400  0.325700  0.388240  1.0  -0.1211
  C  C129  1  0.174300  0.140320  0.348860  1.0  0.6992
  C  C130  1  0.492300  0.037380  0.347780  1.0  0.7108
  C  C131  1  0.740300  0.069480  0.432300  1.0  0.7381
  C  C132  1  0.308800  0.144140  0.393670  1.0  -0.1554
  C  C133  1  0.455300  0.100340  0.391250  1.0  -0.0089
  C  C134  1  0.575000  0.110860  0.434360  1.0  -0.1474
  C  C135  1  0.547800  0.162700  0.478920  1.0  -0.0135
  C  C136  1  0.402600  0.206600  0.480730  1.0  -0.1253
  C  C137  1  0.284800  0.196620  0.438310  1.0  -0.0267
  C  C138  1  0.944500  0.743090  0.310040  1.0  0.731
  C  C139  1  0.963700  0.806810  0.353940  1.0  -0.0387
  C  C140  1  0.110400  0.847640  0.361380  1.0  -0.1283
  C  C141  1  0.118600  0.904500  0.403290  1.0  0.1589
  C  C142  1  0.843400  0.884810  0.427650  1.0  0.1431
  C  C143  1  0.828600  0.825700  0.388240  1.0  -0.1202
  C  C144  1  0.325700  0.859680  0.848860  1.0  0.6986
  C  C145  1  0.007700  0.962620  0.847780  1.0  0.712
  C  C146  1  0.759700  0.930520  0.932300  1.0  0.7377
  C  C147  1  0.191200  0.855860  0.893670  1.0  -0.1539
  C  C148  1  0.044700  0.899660  0.891250  1.0  -0.0088
  C  C149  1  0.925000  0.889140  0.934360  1.0  -0.1478
  C  C150  1  0.952200  0.837300  0.978920  1.0  -0.0113
  C  C151  1  0.097400  0.793400  0.980730  1.0  -0.1258
  C  C152  1  0.215200  0.803380  0.938310  1.0  -0.0271
  C  C153  1  0.555500  0.256910  0.810040  1.0  0.7299
  C  C154  1  0.536300  0.193190  0.853940  1.0  -0.0377
  C  C155  1  0.389600  0.152360  0.861380  1.0  -0.1277
  C  C156  1  0.381400  0.095500  0.903290  1.0  0.1595
  C  C157  1  0.656600  0.115190  0.927650  1.0  0.1432
  C  C158  1  0.671400  0.174300  0.888240  1.0  -0.1213
  C  C159  1  0.825700  0.640320  0.151140  1.0  0.6996
  C  C160  1  0.507700  0.537380  0.152220  1.0  0.7113
  C  C161  1  0.259700  0.569480  0.067700  1.0  0.7389
  C  C162  1  0.691200  0.644140  0.106330  1.0  -0.1544
  C  C163  1  0.544700  0.600340  0.108750  1.0  -0.0081
  C  C164  1  0.425000  0.610860  0.065640  1.0  -0.1474
  C  C165  1  0.452200  0.662700  0.021080  1.0  -0.0121
  C  C166  1  0.597400  0.706600  0.019270  1.0  -0.1257
  C  C167  1  0.715200  0.696620  0.061690  1.0  -0.0274
  C  C168  1  0.055500  0.243090  0.189960  1.0  0.7292
  C  C169  1  0.036300  0.306810  0.146060  1.0  -0.0379
  C  C170  1  0.889600  0.347640  0.138620  1.0  -0.1282
  C  C171  1  0.881400  0.404500  0.096710  1.0  0.1595
  C  C172  1  0.156600  0.384810  0.072350  1.0  0.1435
  C  C173  1  0.171400  0.325700  0.111760  1.0  -0.1213
  C  C174  1  0.674300  0.359680  0.651140  1.0  0.6986
  C  C175  1  0.992300  0.462620  0.652220  1.0  0.7102
  C  C176  1  0.240300  0.430520  0.567700  1.0  0.738
  C  C177  1  0.808800  0.355860  0.606330  1.0  -0.1544
  C  C178  1  0.955300  0.399660  0.608750  1.0  -0.0082
  C  C179  1  0.075000  0.389140  0.565640  1.0  -0.1472
  C  C180  1  0.047800  0.337300  0.521080  1.0  -0.0137
  C  C181  1  0.902600  0.293400  0.519270  1.0  -0.1258
  C  C182  1  0.784800  0.303380  0.561690  1.0  -0.027
  C  C183  1  0.444500  0.756910  0.689960  1.0  0.7286
  C  C184  1  0.463700  0.693190  0.646060  1.0  -0.0393
  C  C185  1  0.610400  0.652360  0.638620  1.0  -0.1285
  C  C186  1  0.618600  0.595500  0.596710  1.0  0.1599
  C  C187  1  0.343400  0.615190  0.572350  1.0  0.1435
  C  C188  1  0.328600  0.674300  0.611760  1.0  -0.1201
  N  N189  1  0.012700  0.077460  0.563860  1.0  -0.3326
  N  N190  1  0.487300  0.922540  0.063860  1.0  -0.3327
  N  N191  1  0.987300  0.577460  0.936140  1.0  -0.3313
  N  N192  1  0.512700  0.422540  0.436140  1.0  -0.3322
  N  N193  1  0.987300  0.922540  0.436140  1.0  -0.3321
  N  N194  1  0.512700  0.077460  0.936140  1.0  -0.3313
  N  N195  1  0.012700  0.422540  0.063860  1.0  -0.3328
  N  N196  1  0.487300  0.577460  0.563860  1.0  -0.3326
  O  O197  1  0.812100  0.908650  0.692320  1.0  -0.809
  O  O198  1  0.949500  0.816880  0.647110  1.0  -0.5954
  O  O199  1  0.450800  0.941780  0.701330  1.0  -0.9026
  O  O200  1  0.528300  0.029540  0.636010  1.0  -0.5274
  O  O201  1  0.184000  0.936720  0.613470  1.0  -0.7067
  O  O202  1  0.209300  0.954230  0.519250  1.0  -0.5735
  O  O203  1  0.198100  0.285710  0.693300  1.0  -0.6966
  O  O204  1  0.932300  0.276550  0.719510  1.0  -0.6595
  O  O205  1  0.687900  0.091350  0.192320  1.0  -0.8083
  O  O206  1  0.550500  0.183120  0.147110  1.0  -0.5958
  O  O207  1  0.049200  0.058220  0.201330  1.0  -0.9013
  O  O208  1  0.971700  0.970460  0.136010  1.0  -0.5279
  O  O209  1  0.316000  0.063280  0.113470  1.0  -0.7063
  O  O210  1  0.290700  0.045770  0.019250  1.0  -0.5736
  O  O211  1  0.301900  0.714290  0.193300  1.0  -0.6968
  O  O212  1  0.567700  0.723450  0.219510  1.0  -0.6599
  O  O213  1  0.187900  0.408650  0.807680  1.0  -0.8103
  O  O214  1  0.050500  0.316880  0.852890  1.0  -0.5975
  O  O215  1  0.549200  0.441780  0.798670  1.0  -0.9019
  O  O216  1  0.471700  0.529540  0.863990  1.0  -0.5267
  O  O217  1  0.816000  0.436720  0.886530  1.0  -0.7059
  O  O218  1  0.790700  0.454230  0.980750  1.0  -0.5737
  O  O219  1  0.801900  0.785710  0.806700  1.0  -0.6968
  O  O220  1  0.067700  0.776550  0.780490  1.0  -0.6609
  O  O221  1  0.312100  0.591350  0.307680  1.0  -0.8091
  O  O222  1  0.449500  0.683120  0.352890  1.0  -0.5963
  O  O223  1  0.950800  0.558220  0.298670  1.0  -0.9016
  O  O224  1  0.028300  0.470460  0.363990  1.0  -0.5277
  O  O225  1  0.684000  0.563280  0.386530  1.0  -0.7056
  O  O226  1  0.709300  0.545770  0.480750  1.0  -0.5731
  O  O227  1  0.698100  0.214290  0.306700  1.0  -0.6963
  O  O228  1  0.432300  0.223450  0.280490  1.0  -0.6606
  O  O229  1  0.187900  0.091350  0.307680  1.0  -0.8095
  O  O230  1  0.050500  0.183120  0.352890  1.0  -0.5971
  O  O231  1  0.549200  0.058220  0.298670  1.0  -0.902
  O  O232  1  0.471700  0.970460  0.363990  1.0  -0.5276
  O  O233  1  0.816000  0.063280  0.386530  1.0  -0.7058
  O  O234  1  0.790700  0.045770  0.480750  1.0  -0.5734
  O  O235  1  0.801900  0.714290  0.306700  1.0  -0.6963
  O  O236  1  0.067700  0.723450  0.280490  1.0  -0.6609
  O  O237  1  0.312100  0.908650  0.807680  1.0  -0.8092
  O  O238  1  0.449500  0.816880  0.852890  1.0  -0.5966
  O  O239  1  0.950800  0.941780  0.798670  1.0  -0.9014
  O  O240  1  0.028300  0.029540  0.863990  1.0  -0.5269
  O  O241  1  0.684000  0.936720  0.886530  1.0  -0.7057
  O  O242  1  0.709300  0.954230  0.980750  1.0  -0.5737
  O  O243  1  0.698100  0.285710  0.806700  1.0  -0.6967
  O  O244  1  0.432300  0.276550  0.780490  1.0  -0.6606
  O  O245  1  0.812100  0.591350  0.192320  1.0  -0.8082
  O  O246  1  0.949500  0.683120  0.147110  1.0  -0.5964
  O  O247  1  0.450800  0.558220  0.201330  1.0  -0.9012
  O  O248  1  0.528300  0.470460  0.136010  1.0  -0.5281
  O  O249  1  0.184000  0.563280  0.113470  1.0  -0.7061
  O  O250  1  0.209300  0.545770  0.019250  1.0  -0.5735
  O  O251  1  0.198100  0.214290  0.193300  1.0  -0.697
  O  O252  1  0.932300  0.223450  0.219510  1.0  -0.66
  O  O253  1  0.687900  0.408650  0.692320  1.0  -0.8099
  O  O254  1  0.550500  0.316880  0.647110  1.0  -0.5969
  O  O255  1  0.049200  0.441780  0.701330  1.0  -0.9026
  O  O256  1  0.971700  0.529540  0.636010  1.0  -0.5272
  O  O257  1  0.316000  0.436720  0.613470  1.0  -0.7067
  O  O258  1  0.290700  0.454230  0.519250  1.0  -0.5737
  O  O259  1  0.301900  0.785710  0.693300  1.0  -0.6966
  O  O260  1  0.567700  0.776550  0.719510  1.0  -0.6593
