# generated using pymatgen
data_Cu3H8(C11O6)2
_symmetry_space_group_name_H-M   'P 1'
_cell_length_a   17.55750000
_cell_length_b   17.55750000
_cell_length_c   17.55750000
_cell_angle_alpha   108.33900000
_cell_angle_beta   110.04000000
_cell_angle_gamma   110.04000000
_symmetry_Int_Tables_number   1
_chemical_formula_structural   Cu3H8(C11O6)2
_chemical_formula_sum   'Cu12 H32 C88 O48'
_cell_volume   4165.26146519
_cell_formula_units_Z   4
loop_
 _symmetry_equiv_pos_site_id
 _symmetry_equiv_pos_as_xyz
  1  'x, y, z'
loop_
 _atom_site_type_symbol
 _atom_site_label
 _atom_site_symmetry_multiplicity
 _atom_site_fract_x
 _atom_site_fract_y
 _atom_site_fract_z
 _atom_site_occupancy
 _atom_site_charge
  Cu  Cu1  1  0.470320  0.044680  0.047160  1.0  0.9284
  Cu  Cu2  1  0.529680  0.576840  0.574360  1.0  0.9329
  Cu  Cu3  1  0.997520  0.423160  0.952840  1.0  0.9368
  Cu  Cu4  1  0.002480  0.955320  0.425640  1.0  0.9305
  Cu  Cu5  1  0.529680  0.955320  0.952840  1.0  0.9292
  Cu  Cu6  1  0.470320  0.423160  0.425640  1.0  0.9359
  Cu  Cu7  1  0.002480  0.576840  0.047160  1.0  0.9366
  Cu  Cu8  1  0.997520  0.044680  0.574360  1.0  0.9301
  Cu  Cu9  1  0.066000  0.500000  0.566000  1.0  0.9302
  Cu  Cu10  1  0.934000  0.500000  0.434000  1.0  0.9299
  Cu  Cu11  1  0.434400  0.434400  0.000000  1.0  0.9658
  Cu  Cu12  1  0.565600  0.565600  0.000000  1.0  0.9683
  H  H13  1  0.454400  0.746600  0.996200  1.0  0.1545
  H  H14  1  0.662900  0.888400  0.145700  1.0  0.1368
  H  H15  1  0.736400  0.200900  0.264100  1.0  0.1393
  H  H16  1  0.236300  0.837000  0.992900  1.0  0.1451
  H  H17  1  0.545600  0.541800  0.292200  1.0  0.1528
  H  H18  1  0.337100  0.482800  0.225500  1.0  0.1383
  H  H19  1  0.263600  0.527700  0.464500  1.0  0.1369
  H  H20  1  0.763700  0.756600  0.600700  1.0  0.1472
  H  H21  1  0.750400  0.458200  0.003800  1.0  0.1566
  H  H22  1  0.742700  0.517200  0.854300  1.0  0.1366
  H  H23  1  0.936800  0.472300  0.735900  1.0  0.1374
  H  H24  1  0.844100  0.243400  0.007100  1.0  0.1434
  H  H25  1  0.249600  0.253400  0.707800  1.0  0.1578
  H  H26  1  0.257300  0.111600  0.774500  1.0  0.1359
  H  H27  1  0.063200  0.799100  0.535500  1.0  0.1365
  H  H28  1  0.155900  0.163000  0.399300  1.0  0.1445
  H  H29  1  0.545600  0.253400  0.003800  1.0  0.1549
  H  H30  1  0.337100  0.111600  0.854300  1.0  0.1373
  H  H31  1  0.263600  0.799100  0.735900  1.0  0.1391
  H  H32  1  0.763700  0.163000  0.007100  1.0  0.145
  H  H33  1  0.454400  0.458200  0.707800  1.0  0.153
  H  H34  1  0.662900  0.517200  0.774500  1.0  0.1369
  H  H35  1  0.736400  0.472300  0.535500  1.0  0.1369
  H  H36  1  0.236300  0.243400  0.399300  1.0  0.1458
  H  H37  1  0.249600  0.541800  0.996200  1.0  0.1557
  H  H38  1  0.257300  0.482800  0.145700  1.0  0.1367
  H  H39  1  0.063200  0.527700  0.264100  1.0  0.1363
  H  H40  1  0.155900  0.756600  0.992900  1.0  0.1441
  H  H41  1  0.750400  0.746600  0.292200  1.0  0.1577
  H  H42  1  0.742700  0.888400  0.225500  1.0  0.1341
  H  H43  1  0.936800  0.200900  0.464500  1.0  0.1373
  H  H44  1  0.844100  0.837000  0.600700  1.0  0.1445
  C  C45  1  0.345800  0.765800  0.990200  1.0  -0.0911
  C  C46  1  0.395400  0.720600  0.992800  1.0  -0.0855
  C  C47  1  0.392900  0.851000  0.985300  1.0  0.6626
  C  C48  1  0.727200  0.079700  0.234100  1.0  0.0112
  C  C49  1  0.767600  0.169400  0.281800  1.0  -0.0278
  C  C50  1  0.632600  0.029200  0.141200  1.0  0.6348
  C  C51  1  0.654200  0.644400  0.420000  1.0  -0.0884
  C  C52  1  0.604600  0.597400  0.325200  1.0  -0.0785
  C  C53  1  0.607100  0.592400  0.458100  1.0  0.6662
  C  C54  1  0.272800  0.506900  0.352500  1.0  0.0226
  C  C55  1  0.232400  0.514200  0.401800  1.0  -0.0291
  C  C56  1  0.367400  0.508600  0.396600  1.0  0.6356
  C  C57  1  0.775600  0.355600  0.009800  1.0  -0.0915
  C  C58  1  0.727800  0.402600  0.007200  1.0  -0.0847
  C  C59  1  0.865700  0.407600  0.014700  1.0  0.6635
  C  C60  1  0.845600  0.493100  0.765900  1.0  0.0242
  C  C61  1  0.887600  0.485800  0.718200  1.0  -0.0275
  C  C62  1  0.888000  0.491400  0.858800  1.0  0.636
  C  C63  1  0.224400  0.234200  0.580000  1.0  -0.0909
  C  C64  1  0.272200  0.279400  0.674800  1.0  -0.0794
  C  C65  1  0.134300  0.149000  0.541900  1.0  0.6628
  C  C66  1  0.154400  0.920300  0.647500  1.0  0.0178
  C  C67  1  0.112400  0.830600  0.598200  1.0  -0.0277
  C  C68  1  0.112000  0.970800  0.603400  1.0  0.6348
  C  C69  1  0.654200  0.234200  0.009800  1.0  -0.0903
  C  C70  1  0.604600  0.279400  0.007200  1.0  -0.0849
  C  C71  1  0.607100  0.149000  0.014700  1.0  0.6629
  C  C72  1  0.272800  0.920300  0.765900  1.0  0.0128
  C  C73  1  0.232400  0.830600  0.718200  1.0  -0.0277
  C  C74  1  0.367400  0.970800  0.858800  1.0  0.636
  C  C75  1  0.345800  0.355600  0.580000  1.0  -0.0892
  C  C76  1  0.395400  0.402600  0.674800  1.0  -0.0772
  C  C77  1  0.392900  0.407600  0.541900  1.0  0.664
  C  C78  1  0.727200  0.493100  0.647500  1.0  0.0226
  C  C79  1  0.767600  0.485800  0.598200  1.0  -0.0301
  C  C80  1  0.632600  0.491400  0.603400  1.0  0.6344
  C  C81  1  0.224400  0.644400  0.990200  1.0  -0.0912
  C  C82  1  0.272200  0.597400  0.992800  1.0  -0.084
  C  C83  1  0.134300  0.592400  0.985300  1.0  0.6656
  C  C84  1  0.154400  0.506900  0.234100  1.0  0.0236
  C  C85  1  0.112400  0.514200  0.281800  1.0  -0.0295
  C  C86  1  0.112000  0.508600  0.141200  1.0  0.6348
  C  C87  1  0.775600  0.765800  0.420000  1.0  -0.0897
  C  C88  1  0.727800  0.720600  0.325200  1.0  -0.0797
  C  C89  1  0.865700  0.851000  0.458100  1.0  0.6634
  C  C90  1  0.845600  0.079700  0.352500  1.0  0.0174
  C  C91  1  0.887600  0.169400  0.401800  1.0  -0.0277
  C  C92  1  0.888000  0.029200  0.396600  1.0  0.6347
  C  C93  1  0.756800  0.024300  0.267500  1.0  -0.0729
  C  C94  1  0.699000  0.912500  0.213500  1.0  -0.366
  C  C95  1  0.634000  0.882000  0.248000  1.0  -0.0209
  C  C96  1  0.858900  0.219400  0.360500  1.0  -0.0848
  C  C97  1  0.912300  0.326400  0.414100  1.0  0.7355
  C  C98  1  0.243200  0.510700  0.267500  1.0  -0.0723
  C  C99  1  0.301000  0.514500  0.213500  1.0  -0.3647
  C  C100  1  0.366000  0.614000  0.248000  1.0  -0.0219
  C  C101  1  0.141100  0.501600  0.360500  1.0  -0.0852
  C  C102  1  0.087700  0.501800  0.414100  1.0  0.7408
  C  C103  1  0.756800  0.489300  0.732500  1.0  -0.0722
  C  C104  1  0.699000  0.485500  0.786500  1.0  -0.3655
  C  C105  1  0.634000  0.386000  0.752000  1.0  -0.0226
  C  C106  1  0.858900  0.498400  0.639500  1.0  -0.0861
  C  C107  1  0.912300  0.498200  0.585900  1.0  0.7409
  C  C108  1  0.243200  0.975700  0.732500  1.0  -0.0722
  C  C109  1  0.301000  0.087500  0.786500  1.0  -0.3699
  C  C110  1  0.366000  0.118000  0.752000  1.0  -0.0225
  C  C111  1  0.141100  0.780600  0.639500  1.0  -0.086
  C  C112  1  0.087700  0.673600  0.585900  1.0  0.7353
  C  C113  1  0.412900  0.587300  0.000200  1.0  0.5934
  C  C114  1  0.142000  0.716000  0.858000  1.0  -0.0238
  C  C115  1  0.253900  0.726500  0.980400  1.0  0.1064
  C  C116  1  0.356800  0.633700  0.990500  1.0  -0.1197
  C  C117  1  0.197700  0.769200  0.966900  1.0  -0.3639
  C  C118  1  0.587100  0.587300  0.174400  1.0  0.598
  C  C119  1  0.858000  0.716000  0.574000  1.0  -0.0226
  C  C120  1  0.746100  0.726500  0.472600  1.0  0.1088
  C  C121  1  0.643200  0.633700  0.276900  1.0  -0.12
  C  C122  1  0.802300  0.769200  0.571500  1.0  -0.3647
  C  C123  1  0.587100  0.412700  0.999800  1.0  0.5936
  C  C124  1  0.858000  0.284000  0.142000  1.0  -0.0301
  C  C125  1  0.746100  0.273500  0.019600  1.0  0.1066
  C  C126  1  0.643200  0.366300  0.009500  1.0  -0.1184
  C  C127  1  0.802300  0.230800  0.033100  1.0  -0.3636
  C  C128  1  0.412900  0.412700  0.825600  1.0  0.5978
  C  C129  1  0.142000  0.284000  0.426000  1.0  -0.0158
  C  C130  1  0.253900  0.273500  0.527400  1.0  0.1083
  C  C131  1  0.356800  0.366300  0.723100  1.0  -0.1175
  C  C132  1  0.197700  0.230800  0.428500  1.0  -0.3644
  O  O133  1  0.570600  0.055200  0.146800  1.0  -0.5611
  O  O134  1  0.987500  0.364300  0.486400  1.0  -0.5266
  O  O135  1  0.435500  0.853200  0.948100  1.0  -0.5369
  O  O136  1  0.385400  0.921000  0.027000  1.0  -0.5961
  O  O137  1  0.373500  0.505800  0.995300  1.0  -0.5431
  O  O138  1  0.623900  0.980500  0.073800  1.0  -0.5226
  O  O139  1  0.429400  0.576200  0.484600  1.0  -0.5712
  O  O140  1  0.012500  0.498900  0.376800  1.0  -0.5283
  O  O141  1  0.564500  0.512600  0.417700  1.0  -0.5356
  O  O142  1  0.614600  0.641600  0.535600  1.0  -0.5944
  O  O143  1  0.626500  0.621800  0.132300  1.0  -0.5388
  O  O144  1  0.376100  0.449900  0.356600  1.0  -0.5185
  O  O145  1  0.908400  0.423800  0.853200  1.0  -0.5696
  O  O146  1  0.877900  0.501100  0.513600  1.0  -0.5296
  O  O147  1  0.905100  0.487400  0.051900  1.0  -0.5429
  O  O148  1  0.894000  0.358400  0.973000  1.0  -0.5889
  O  O149  1  0.510500  0.378200  0.004700  1.0  -0.5418
  O  O150  1  0.906700  0.550100  0.926200  1.0  -0.5272
  O  O151  1  0.091600  0.944800  0.515400  1.0  -0.5679
  O  O152  1  0.122100  0.635700  0.623200  1.0  -0.5328
  O  O153  1  0.094900  0.146800  0.582300  1.0  -0.5366
  O  O154  1  0.106000  0.079000  0.464400  1.0  -0.5936
  O  O155  1  0.489500  0.494200  0.867700  1.0  -0.5397
  O  O156  1  0.093300  0.019500  0.643400  1.0  -0.5303
  O  O157  1  0.429400  0.944800  0.853200  1.0  -0.5628
  O  O158  1  0.012500  0.635700  0.513600  1.0  -0.5262
  O  O159  1  0.564500  0.146800  0.051900  1.0  -0.5364
  O  O160  1  0.614600  0.079000  0.973000  1.0  -0.5953
  O  O161  1  0.626500  0.494200  0.004700  1.0  -0.5422
  O  O162  1  0.376100  0.019500  0.926200  1.0  -0.5243
  O  O163  1  0.570600  0.423800  0.515400  1.0  -0.573
  O  O164  1  0.987500  0.501100  0.623200  1.0  -0.5302
  O  O165  1  0.435500  0.487400  0.582300  1.0  -0.5364
  O  O166  1  0.385400  0.358400  0.464400  1.0  -0.5944
  O  O167  1  0.373500  0.378200  0.867700  1.0  -0.539
  O  O168  1  0.623900  0.550100  0.643400  1.0  -0.5165
  O  O169  1  0.091600  0.576200  0.146800  1.0  -0.5687
  O  O170  1  0.122100  0.498900  0.486400  1.0  -0.5306
  O  O171  1  0.094900  0.512600  0.948100  1.0  -0.5427
  O  O172  1  0.106000  0.641600  0.027000  1.0  -0.5891
  O  O173  1  0.489500  0.621800  0.995300  1.0  -0.5417
  O  O174  1  0.093300  0.449900  0.073800  1.0  -0.5259
  O  O175  1  0.908400  0.055200  0.484600  1.0  -0.5663
  O  O176  1  0.877900  0.364300  0.376800  1.0  -0.5325
  O  O177  1  0.905100  0.853200  0.417700  1.0  -0.5389
  O  O178  1  0.894000  0.921000  0.535600  1.0  -0.5929
  O  O179  1  0.510500  0.505800  0.132300  1.0  -0.5391
  O  O180  1  0.906700  0.980500  0.356600  1.0  -0.5268
