# generated using pymatgen
data_Cu6H28C44N14O25
_symmetry_space_group_name_H-M   'P 1'
_cell_length_a   16.99060000
_cell_length_b   19.44380000
_cell_length_c   19.44380000
_cell_angle_alpha   68.11550000
_cell_angle_beta   73.06560000
_cell_angle_gamma   106.93400000
_symmetry_Int_Tables_number   1
_chemical_formula_structural   Cu6H28C44N14O25
_chemical_formula_sum   'Cu18 H84 C132 N42 O75'
_cell_volume   5090.95878519
_cell_formula_units_Z   3
loop_
 _symmetry_equiv_pos_site_id
 _symmetry_equiv_pos_as_xyz
  1  'x, y, z'
loop_
 _atom_site_type_symbol
 _atom_site_label
 _atom_site_symmetry_multiplicity
 _atom_site_fract_x
 _atom_site_fract_y
 _atom_site_fract_z
 _atom_site_occupancy
 _atom_site_charge
  Cu  Cu1  1  0.052750  0.576080  0.379610  1.0  0.9577
  Cu  Cu2  1  0.114400  0.444250  0.499870  1.0  0.935
  Cu  Cu3  1  0.970440  0.727320  0.316830  1.0  0.9479
  Cu  Cu4  1  0.432360  0.379610  0.044310  1.0  0.9579
  Cu  Cu5  1  0.614270  0.499870  0.055880  1.0  0.9355
  Cu  Cu6  1  0.287270  0.316830  0.955850  1.0  0.9479
  Cu  Cu7  1  0.476670  0.044310  0.576080  1.0  0.9577
  Cu  Cu8  1  0.670150  0.055880  0.444250  1.0  0.9347
  Cu  Cu9  1  0.243120  0.955850  0.727320  1.0  0.9493
  Cu  Cu10  1  0.947250  0.423920  0.620390  1.0  0.956
  Cu  Cu11  1  0.885600  0.555750  0.500130  1.0  0.9324
  Cu  Cu12  1  0.029560  0.272680  0.683170  1.0  0.9467
  Cu  Cu13  1  0.567640  0.620390  0.955690  1.0  0.9585
  Cu  Cu14  1  0.385730  0.500130  0.944120  1.0  0.9323
  Cu  Cu15  1  0.712730  0.683170  0.044150  1.0  0.9455
  Cu  Cu16  1  0.523330  0.955690  0.423920  1.0  0.9567
  Cu  Cu17  1  0.329850  0.944120  0.555750  1.0  0.9329
  Cu  Cu18  1  0.756880  0.044150  0.272680  1.0  0.9464
  H  H19  1  0.695000  0.866000  0.193700  1.0  0.1377
  H  H20  1  0.482900  0.677100  0.219000  1.0  0.1351
  H  H21  1  0.430300  0.795000  0.348900  1.0  0.1412
  H  H22  1  0.229900  0.766100  0.260600  1.0  0.1646
  H  H23  1  0.334700  0.790900  0.205000  1.0  0.1642
  H  H24  1  0.309700  0.809700  0.279900  1.0  0.1535
  H  H25  1  0.338600  0.560400  0.408900  1.0  0.1458
  H  H26  1  0.036200  0.230200  0.163300  1.0  0.1342
  H  H27  1  0.189900  0.421800  0.180900  1.0  0.1415
  H  H28  1  0.929500  0.254100  0.364800  1.0  0.1397
  H  H29  1  0.987000  0.524000  0.260000  1.0  0.1476
  H  H30  1  0.958400  0.437800  0.260500  1.0  0.1567
  H  H31  1  0.057500  0.514000  0.193600  1.0  0.1556
  H  H32  1  0.108800  0.333800  0.406700  1.0  0.1234
  H  H33  1  0.888700  0.193700  0.940300  1.0  0.1373
  H  H34  1  0.701900  0.219000  0.103900  1.0  0.1362
  H  H35  1  0.779200  0.348900  0.856100  1.0  0.1419
  H  H36  1  0.490500  0.260600  0.973300  1.0  0.1672
  H  H37  1  0.539700  0.205000  0.004100  1.0  0.164
  H  H38  1  0.589600  0.279900  0.910400  1.0  0.152
  H  H39  1  0.747500  0.408900  0.030700  1.0  0.1447
  H  H40  1  0.199500  0.163300  0.606500  1.0  0.1355
  H  H41  1  0.370800  0.180900  0.397300  1.0  0.1403
  H  H42  1  0.294300  0.364800  0.381100  1.0  0.1417
  H  H43  1  0.247000  0.260000  0.216000  1.0  0.1461
  H  H44  1  0.218900  0.260500  0.301700  1.0  0.1535
  H  H45  1  0.251100  0.193600  0.292400  1.0  0.1556
  H  H46  1  0.515500  0.406700  0.259500  1.0  0.1237
  H  H47  1  0.829000  0.940300  0.866000  1.0  0.1383
  H  H48  1  0.805800  0.103900  0.677100  1.0  0.1357
  H  H49  1  0.635300  0.856100  0.795000  1.0  0.1418
  H  H50  1  0.463800  0.973300  0.766100  1.0  0.1635
  H  H51  1  0.543800  0.004100  0.790900  1.0  0.1659
  H  H52  1  0.500000  0.910400  0.809700  1.0  0.1548
  H  H53  1  0.778200  0.030700  0.560400  1.0  0.1443
  H  H54  1  0.806000  0.606500  0.230200  1.0  0.1355
  H  H55  1  0.768100  0.397300  0.421800  1.0  0.1429
  H  H56  1  0.675400  0.381100  0.254100  1.0  0.1407
  H  H57  1  0.463000  0.216000  0.524000  1.0  0.1475
  H  H58  1  0.520600  0.301700  0.437800  1.0  0.1552
  H  H59  1  0.543500  0.292400  0.514000  1.0  0.1565
  H  H60  1  0.775000  0.259500  0.333800  1.0  0.1221
  H  H61  1  0.305000  0.134000  0.806300  1.0  0.1369
  H  H62  1  0.517100  0.322900  0.781000  1.0  0.1343
  H  H63  1  0.569700  0.205000  0.651100  1.0  0.1412
  H  H64  1  0.770100  0.233900  0.739400  1.0  0.1653
  H  H65  1  0.665300  0.209100  0.795000  1.0  0.1639
  H  H66  1  0.690300  0.190300  0.720100  1.0  0.1532
  H  H67  1  0.661400  0.439600  0.591100  1.0  0.1452
  H  H68  1  0.963800  0.769800  0.836700  1.0  0.1346
  H  H69  1  0.810100  0.578200  0.819100  1.0  0.141
  H  H70  1  0.070500  0.745900  0.635200  1.0  0.1397
  H  H71  1  0.013000  0.476000  0.740000  1.0  0.1474
  H  H72  1  0.041600  0.562200  0.739500  1.0  0.1565
  H  H73  1  0.942500  0.486000  0.806400  1.0  0.1578
  H  H74  1  0.891200  0.666200  0.593300  1.0  0.1241
  H  H75  1  0.111300  0.806300  0.059700  1.0  0.1371
  H  H76  1  0.298100  0.781000  0.896100  1.0  0.1357
  H  H77  1  0.220800  0.651100  0.143900  1.0  0.1421
  H  H78  1  0.509500  0.739400  0.026700  1.0  0.1649
  H  H79  1  0.460300  0.795000  0.995900  1.0  0.1626
  H  H80  1  0.410400  0.720100  0.089600  1.0  0.1517
  H  H81  1  0.252500  0.591100  0.969300  1.0  0.1438
  H  H82  1  0.800500  0.836700  0.393500  1.0  0.1355
  H  H83  1  0.629200  0.819100  0.602700  1.0  0.1401
  H  H84  1  0.705700  0.635200  0.618900  1.0  0.1417
  H  H85  1  0.753000  0.740000  0.784000  1.0  0.147
  H  H86  1  0.781100  0.739500  0.698300  1.0  0.1539
  H  H87  1  0.748900  0.806400  0.707600  1.0  0.1568
  H  H88  1  0.484500  0.593300  0.740500  1.0  0.1228
  H  H89  1  0.171000  0.059700  0.134000  1.0  0.1388
  H  H90  1  0.194200  0.896100  0.322900  1.0  0.1349
  H  H91  1  0.364700  0.143900  0.205000  1.0  0.1418
  H  H92  1  0.536200  0.026700  0.233900  1.0  0.1622
  H  H93  1  0.456200  0.995900  0.209100  1.0  0.1653
  H  H94  1  0.500000  0.089600  0.190300  1.0  0.1555
  H  H95  1  0.221800  0.969300  0.439600  1.0  0.145
  H  H96  1  0.194000  0.393500  0.769800  1.0  0.1356
  H  H97  1  0.231900  0.602700  0.578200  1.0  0.1421
  H  H98  1  0.324600  0.618900  0.745900  1.0  0.141
  H  H99  1  0.537000  0.784000  0.476000  1.0  0.1469
  H  H100  1  0.479400  0.698300  0.562200  1.0  0.1552
  H  H101  1  0.456500  0.707600  0.486000  1.0  0.1562
  H  H102  1  0.225000  0.740500  0.666200  1.0  0.1229
  C  C103  1  0.601910  0.904480  0.298450  1.0  0.6889
  C  C104  1  0.567680  0.840780  0.273840  1.0  -0.1153
  C  C105  1  0.630870  0.831060  0.217950  1.0  0.0514
  C  C106  1  0.599210  0.769480  0.197950  1.0  -0.1172
  C  C107  1  0.504940  0.718110  0.233190  1.0  -0.1191
  C  C108  1  0.443970  0.728380  0.289570  1.0  0.1344
  C  C109  1  0.473400  0.789030  0.310530  1.0  -0.1335
  C  C110  1  0.668020  0.756410  0.139850  1.0  0.7466
  C  C111  1  0.288650  0.770680  0.261130  1.0  -0.4213
  C  C112  1  0.276140  0.687260  0.319040  1.0  0.3825
  C  C113  1  0.306760  0.589400  0.388520  1.0  0.1388
  C  C114  1  0.878550  0.156840  0.303090  1.0  0.7633
  C  C115  1  0.969320  0.230800  0.269140  1.0  -0.1151
  C  C116  1  0.042710  0.259040  0.193010  1.0  0.0218
  C  C117  1  0.125460  0.329430  0.160440  1.0  -0.1295
  C  C118  1  0.134550  0.373620  0.202770  1.0  -0.0783
  C  C119  1  0.060290  0.344830  0.278050  1.0  0.1403
  C  C120  1  0.978340  0.273380  0.312560  1.0  -0.1054
  C  C121  1  0.205620  0.357990  0.079590  1.0  0.7068
  C  C122  1  0.009600  0.485710  0.250810  1.0  -0.3957
  C  C123  1  0.048390  0.457020  0.309150  1.0  0.3723
  C  C124  1  0.091470  0.376270  0.384460  1.0  0.191
  C  C125  1  0.900360  0.298450  0.797070  1.0  0.6879
  C  C126  1  0.841520  0.273840  0.885380  1.0  -0.1163
  C  C127  1  0.848820  0.217950  0.950990  1.0  0.0495
  C  C128  1  0.797160  0.197950  0.032570  1.0  -0.1199
  C  C129  1  0.738130  0.233190  0.048700  1.0  -0.1209
  C  C130  1  0.733540  0.289570  0.982050  1.0  0.1345
  C  C131  1  0.783930  0.310530  0.900440  1.0  -0.1352
  C  C132  1  0.807870  0.139850  0.103740  1.0  0.7471
  C  C133  1  0.549780  0.261130  0.968190  1.0  -0.4219
  C  C134  1  0.595180  0.319040  0.993700  1.0  0.3825
  C  C135  1  0.695280  0.388520  0.022080  1.0  0.1389
  C  C136  1  0.181640  0.303090  0.540070  1.0  0.7611
  C  C137  1  0.238460  0.269140  0.500060  1.0  -0.1134
  C  C138  1  0.235720  0.193010  0.547950  1.0  0.0225
  C  C139  1  0.285900  0.160440  0.510130  1.0  -0.131
  C  C140  1  0.337320  0.202770  0.423610  1.0  -0.078
  C  C141  1  0.338340  0.278050  0.377120  1.0  0.1416
  C  C142  1  0.290900  0.312560  0.414060  1.0  -0.105
  C  C143  1  0.285210  0.079590  0.562420  1.0  0.7081
  C  C144  1  0.260410  0.250810  0.263480  1.0  -0.3931
  C  C145  1  0.357540  0.309150  0.233830  1.0  0.3697
  C  C146  1  0.475930  0.384460  0.239270  1.0  0.1921
  C  C147  1  0.697430  0.797070  0.904480  1.0  0.6877
  C  C148  1  0.726900  0.885380  0.840780  1.0  -0.1152
  C  C149  1  0.799810  0.950990  0.831060  1.0  0.0513
  C  C150  1  0.829730  0.032570  0.769480  1.0  -0.122
  C  C151  1  0.786830  0.048700  0.718110  1.0  -0.1173
  C  C152  1  0.715590  0.982050  0.728380  1.0  0.1345
  C  C153  1  0.684370  0.900440  0.789030  1.0  -0.1349
  C  C154  1  0.911610  0.103740  0.756410  1.0  0.749
  C  C155  1  0.517970  0.968190  0.770680  1.0  -0.422
  C  C156  1  0.588880  0.993700  0.687260  1.0  0.383
  C  C157  1  0.717360  0.022080  0.589400  1.0  0.1394
  C  C158  1  0.721710  0.540070  0.156840  1.0  0.7626
  C  C159  1  0.738520  0.500060  0.230800  1.0  -0.1148
  C  C160  1  0.783670  0.547950  0.259040  1.0  0.0222
  C  C161  1  0.796030  0.510130  0.329430  1.0  -0.1293
  C  C162  1  0.760930  0.423610  0.373620  1.0  -0.0796
  C  C163  1  0.715460  0.377120  0.344830  1.0  0.1402
  C  C164  1  0.704960  0.414060  0.273380  1.0  -0.1055
  C  C165  1  0.847630  0.562420  0.357990  1.0  0.7078
  C  C166  1  0.523890  0.263480  0.485710  1.0  -0.3936
  C  C167  1  0.591370  0.233830  0.457020  1.0  0.3712
  C  C168  1  0.715200  0.239270  0.376270  1.0  0.1909
  C  C169  1  0.398090  0.095520  0.701550  1.0  0.688
  C  C170  1  0.432320  0.159220  0.726160  1.0  -0.1154
  C  C171  1  0.369130  0.168940  0.782050  1.0  0.0508
  C  C172  1  0.400790  0.230520  0.802050  1.0  -0.1184
  C  C173  1  0.495060  0.281890  0.766810  1.0  -0.1181
  C  C174  1  0.556030  0.271620  0.710430  1.0  0.1336
  C  C175  1  0.526600  0.210970  0.689470  1.0  -0.1337
  C  C176  1  0.331980  0.243590  0.860150  1.0  0.7486
  C  C177  1  0.711350  0.229320  0.738870  1.0  -0.4219
  C  C178  1  0.723860  0.312740  0.680960  1.0  0.3832
  C  C179  1  0.693240  0.410600  0.611480  1.0  0.1382
  C  C180  1  0.121450  0.843160  0.696910  1.0  0.7644
  C  C181  1  0.030680  0.769200  0.730860  1.0  -0.1137
  C  C182  1  0.957290  0.740960  0.806990  1.0  0.0201
  C  C183  1  0.874540  0.670570  0.839560  1.0  -0.1283
  C  C184  1  0.865450  0.626380  0.797230  1.0  -0.0783
  C  C185  1  0.939710  0.655170  0.721950  1.0  0.1415
  C  C186  1  0.021660  0.726620  0.687440  1.0  -0.1048
  C  C187  1  0.794380  0.642010  0.920410  1.0  0.7068
  C  C188  1  0.990400  0.514290  0.749190  1.0  -0.3952
  C  C189  1  0.951610  0.542980  0.690850  1.0  0.3721
  C  C190  1  0.908530  0.623730  0.615540  1.0  0.1922
  C  C191  1  0.099640  0.701550  0.202930  1.0  0.6867
  C  C192  1  0.158480  0.726160  0.114620  1.0  -0.1155
  C  C193  1  0.151180  0.782050  0.049010  1.0  0.0476
  C  C194  1  0.202840  0.802050  0.967430  1.0  -0.1209
  C  C195  1  0.261870  0.766810  0.951300  1.0  -0.1204
  C  C196  1  0.266460  0.710430  0.017950  1.0  0.1337
  C  C197  1  0.216070  0.689470  0.099560  1.0  -0.1327
  C  C198  1  0.192130  0.860150  0.896260  1.0  0.7489
  C  C199  1  0.450220  0.738870  0.031810  1.0  -0.4207
  C  C200  1  0.404820  0.680960  0.006300  1.0  0.3823
  C  C201  1  0.304720  0.611480  0.977920  1.0  0.1389
  C  C202  1  0.818360  0.696910  0.459930  1.0  0.7614
  C  C203  1  0.761540  0.730860  0.499940  1.0  -0.1134
  C  C204  1  0.764280  0.806990  0.452050  1.0  0.023
  C  C205  1  0.714100  0.839560  0.489870  1.0  -0.1305
  C  C206  1  0.662680  0.797230  0.576390  1.0  -0.0788
  C  C207  1  0.661660  0.721950  0.622880  1.0  0.1412
  C  C208  1  0.709100  0.687440  0.585940  1.0  -0.1052
  C  C209  1  0.714790  0.920410  0.437580  1.0  0.7076
  C  C210  1  0.739590  0.749190  0.736520  1.0  -0.3946
  C  C211  1  0.642460  0.690850  0.766170  1.0  0.371
  C  C212  1  0.524070  0.615540  0.760730  1.0  0.1915
  C  C213  1  0.302570  0.202930  0.095520  1.0  0.6884
  C  C214  1  0.273100  0.114620  0.159220  1.0  -0.1151
  C  C215  1  0.200190  0.049010  0.168940  1.0  0.0519
  C  C216  1  0.170270  0.967430  0.230520  1.0  -0.1222
  C  C217  1  0.213170  0.951300  0.281890  1.0  -0.117
  C  C218  1  0.284410  0.017950  0.271620  1.0  0.1343
  C  C219  1  0.315630  0.099560  0.210970  1.0  -0.1319
  C  C220  1  0.088390  0.896260  0.243590  1.0  0.7512
  C  C221  1  0.482030  0.031810  0.229320  1.0  -0.4223
  C  C222  1  0.411120  0.006300  0.312740  1.0  0.3833
  C  C223  1  0.282640  0.977920  0.410600  1.0  0.1391
  C  C224  1  0.278290  0.459930  0.843160  1.0  0.7643
  C  C225  1  0.261480  0.499940  0.769200  1.0  -0.1162
  C  C226  1  0.216330  0.452050  0.740960  1.0  0.022
  C  C227  1  0.203970  0.489870  0.670570  1.0  -0.1305
  C  C228  1  0.239070  0.576390  0.626380  1.0  -0.0811
  C  C229  1  0.284540  0.622880  0.655170  1.0  0.141
  C  C230  1  0.295040  0.585940  0.726620  1.0  -0.1067
  C  C231  1  0.152370  0.437580  0.642010  1.0  0.7083
  C  C232  1  0.476110  0.736520  0.514290  1.0  -0.3956
  C  C233  1  0.408630  0.766170  0.542980  1.0  0.3717
  C  C234  1  0.284800  0.760730  0.623730  1.0  0.1908
  N  N235  1  0.218120  0.557230  0.411700  1.0  -0.1573
  N  N236  1  0.197400  0.618000  0.368070  1.0  -0.2759
  N  N237  1  0.346140  0.671450  0.330290  1.0  -0.0411
  N  N238  1  0.060770  0.480880  0.361630  1.0  -0.2264
  N  N239  1  0.087180  0.428960  0.410060  1.0  -0.1707
  N  N240  1  0.067580  0.390840  0.321660  1.0  0.0146
  N  N241  1  0.629820  0.411700  0.031070  1.0  -0.1565
  N  N242  1  0.565470  0.368070  0.013930  1.0  -0.2759
  N  N243  1  0.676430  0.330290  0.998260  1.0  -0.0396
  N  N244  1  0.422400  0.361630  0.157490  1.0  -0.2261
  N  N245  1  0.497240  0.410060  0.160980  1.0  -0.1752
  N  N246  1  0.389240  0.321660  0.287500  1.0  0.0154
  N  N247  1  0.660890  0.031070  0.557230  1.0  -0.1568
  N  N248  1  0.579400  0.013930  0.618000  1.0  -0.2739
  N  N249  1  0.674690  0.998260  0.671450  1.0  -0.0408
  N  N250  1  0.579890  0.157490  0.480880  1.0  -0.2264
  N  N251  1  0.658220  0.160980  0.428960  1.0  -0.1734
  N  N252  1  0.676740  0.287500  0.390840  1.0  0.0154
  N  N253  1  0.781880  0.442770  0.588300  1.0  -0.1586
  N  N254  1  0.802600  0.382000  0.631930  1.0  -0.2767
  N  N255  1  0.653860  0.328550  0.669710  1.0  -0.0413
  N  N256  1  0.939230  0.519120  0.638370  1.0  -0.2258
  N  N257  1  0.912820  0.571040  0.589940  1.0  -0.1717
  N  N258  1  0.932420  0.609160  0.678340  1.0  0.0153
  N  N259  1  0.370180  0.588300  0.968930  1.0  -0.1572
  N  N260  1  0.434530  0.631930  0.986070  1.0  -0.277
  N  N261  1  0.323570  0.669710  0.001740  1.0  -0.0424
  N  N262  1  0.577600  0.638370  0.842510  1.0  -0.2275
  N  N263  1  0.502760  0.589940  0.839020  1.0  -0.174
  N  N264  1  0.610760  0.678340  0.712500  1.0  0.0156
  N  N265  1  0.339110  0.968930  0.442770  1.0  -0.1566
  N  N266  1  0.420600  0.986070  0.382000  1.0  -0.2745
  N  N267  1  0.325310  0.001740  0.328550  1.0  -0.0413
  N  N268  1  0.420110  0.842510  0.519120  1.0  -0.2275
  N  N269  1  0.341780  0.839020  0.571040  1.0  -0.1743
  N  N270  1  0.323260  0.712500  0.609160  1.0  0.0146
  N  N271  1  0.451500  0.793500  0.731100  1.0  0.6558
  N  N272  1  0.182600  0.731100  0.475400  1.0  0.6552
  N  N273  1  0.658000  0.475400  0.793500  1.0  0.6547
  N  N274  1  0.548500  0.206500  0.268900  1.0  0.6549
  N  N275  1  0.817400  0.268900  0.524600  1.0  0.655
  N  N276  1  0.342000  0.524600  0.206500  1.0  0.6549
  O  O277  1  0.004010  0.647650  0.406960  1.0  -0.6839
  O  O278  1  0.541480  0.901220  0.357500  1.0  -0.5829
  O  O279  1  0.685920  0.953710  0.259360  1.0  -0.5719
  O  O280  1  0.631990  0.701140  0.123940  1.0  -0.5551
  O  O281  1  0.751040  0.796760  0.114140  1.0  -0.471
  O  O282  1  0.821070  0.126360  0.377010  1.0  -0.6096
  O  O283  1  0.867880  0.132690  0.252750  1.0  -0.5745
  O  O284  1  0.280650  0.417200  0.058430  1.0  -0.5889
  O  O285  1  0.191780  0.319790  0.040820  1.0  -0.5748
  O  O286  1  0.410970  0.406960  0.945390  1.0  -0.6829
  O  O287  1  0.898980  0.357500  0.741280  1.0  -0.5843
  O  O288  1  0.945280  0.259360  0.786930  1.0  -0.572
  O  O289  1  0.755930  0.123940  0.174920  1.0  -0.5532
  O  O290  1  0.865180  0.114140  0.089100  1.0  -0.4631
  O  O291  1  0.198080  0.377010  0.496630  1.0  -0.6101
  O  O292  1  0.120630  0.252750  0.614560  1.0  -0.5767
  O  O293  1  0.339080  0.058430  0.524370  1.0  -0.5872
  O  O294  1  0.232600  0.040820  0.639390  1.0  -0.5701
  O  O295  1  0.356360  0.945390  0.647650  1.0  -0.6837
  O  O296  1  0.640260  0.741280  0.901220  1.0  -0.5833
  O  O297  1  0.732210  0.786930  0.953710  1.0  -0.5736
  O  O298  1  0.930850  0.174920  0.701140  1.0  -0.5544
  O  O299  1  0.954280  0.089100  0.796760  1.0  -0.4783
  O  O300  1  0.694710  0.496630  0.126360  1.0  -0.61
  O  O301  1  0.735190  0.614560  0.132690  1.0  -0.5759
  O  O302  1  0.863450  0.524370  0.417200  1.0  -0.5882
  O  O303  1  0.871990  0.639390  0.319790  1.0  -0.5731
  O  O304  1  0.995990  0.352350  0.593040  1.0  -0.6845
  O  O305  1  0.458520  0.098780  0.642500  1.0  -0.582
  O  O306  1  0.314080  0.046290  0.740640  1.0  -0.572
  O  O307  1  0.368010  0.298860  0.876060  1.0  -0.5537
  O  O308  1  0.248960  0.203240  0.885860  1.0  -0.4715
  O  O309  1  0.178930  0.873640  0.622990  1.0  -0.6115
  O  O310  1  0.132120  0.867310  0.747250  1.0  -0.5763
  O  O311  1  0.719350  0.582800  0.941570  1.0  -0.5884
  O  O312  1  0.808220  0.680210  0.959180  1.0  -0.5749
  O  O313  1  0.589030  0.593040  0.054610  1.0  -0.6807
  O  O314  1  0.101020  0.642500  0.258720  1.0  -0.5861
  O  O315  1  0.054720  0.740640  0.213070  1.0  -0.5708
  O  O316  1  0.244070  0.876060  0.825080  1.0  -0.5533
  O  O317  1  0.134820  0.885860  0.910900  1.0  -0.4638
  O  O318  1  0.801920  0.622990  0.503370  1.0  -0.6119
  O  O319  1  0.879370  0.747250  0.385440  1.0  -0.577
  O  O320  1  0.660920  0.941570  0.475630  1.0  -0.5868
  O  O321  1  0.767400  0.959180  0.360610  1.0  -0.5691
  O  O322  1  0.643640  0.054610  0.352350  1.0  -0.6853
  O  O323  1  0.359740  0.258720  0.098780  1.0  -0.5857
  O  O324  1  0.267790  0.213070  0.046290  1.0  -0.5722
  O  O325  1  0.069150  0.825080  0.298860  1.0  -0.553
  O  O326  1  0.045720  0.910900  0.203240  1.0  -0.4781
  O  O327  1  0.305290  0.503370  0.873640  1.0  -0.6096
  O  O328  1  0.264810  0.385440  0.867310  1.0  -0.5757
  O  O329  1  0.136550  0.475630  0.582800  1.0  -0.588
  O  O330  1  0.128010  0.360610  0.680210  1.0  -0.5725
  O  O331  1  0.000000  0.500000  0.500000  1.0  -0.7794
  O  O332  1  0.500000  0.500000  0.000000  1.0  -0.7794
  O  O333  1  0.500000  0.000000  0.500000  1.0  -0.7794
  O  O334  1  0.528250  0.810350  0.736100  1.0  -0.5658
  O  O335  1  0.387010  0.812810  0.755780  1.0  -0.5574
  O  O336  1  0.449600  0.752000  0.693500  1.0  -0.556
  O  O337  1  0.264350  0.736100  0.453550  1.0  -0.5672
  O  O338  1  0.142790  0.755780  0.431410  1.0  -0.5575
  O  O339  1  0.143100  0.693500  0.554500  1.0  -0.557
  O  O340  1  0.717900  0.453550  0.810350  1.0  -0.5652
  O  O341  1  0.574200  0.431410  0.812810  1.0  -0.5564
  O  O342  1  0.697600  0.554500  0.752000  1.0  -0.5594
  O  O343  1  0.471750  0.189650  0.263900  1.0  -0.5657
  O  O344  1  0.612990  0.187190  0.244220  1.0  -0.5575
  O  O345  1  0.550400  0.248000  0.306500  1.0  -0.5561
  O  O346  1  0.735650  0.263900  0.546450  1.0  -0.5661
  O  O347  1  0.857210  0.244220  0.568590  1.0  -0.5579
  O  O348  1  0.856900  0.306500  0.445500  1.0  -0.5574
  O  O349  1  0.282100  0.546450  0.189650  1.0  -0.5646
  O  O350  1  0.425800  0.568590  0.187190  1.0  -0.5573
  O  O351  1  0.302400  0.445500  0.248000  1.0  -0.5604
