# generated using pymatgen
data_Cu9H32C60Se2(N9O17)2
_symmetry_space_group_name_H-M   'P 1'
_cell_length_a   22.33260000
_cell_length_b   22.33260000
_cell_length_c   22.33260000
_cell_angle_alpha   109.47100000
_cell_angle_beta   109.47100000
_cell_angle_gamma   109.47100000
_symmetry_Int_Tables_number   1
_chemical_formula_structural   Cu9H32C60Se2(N9O17)2
_chemical_formula_sum   'Cu18 H64 C120 Se4 N36 O68'
_cell_volume   8574.31666689
_cell_formula_units_Z   2
loop_
 _symmetry_equiv_pos_site_id
 _symmetry_equiv_pos_as_xyz
  1  'x, y, z'
loop_
 _atom_site_type_symbol
 _atom_site_label
 _atom_site_symmetry_multiplicity
 _atom_site_fract_x
 _atom_site_fract_y
 _atom_site_fract_z
 _atom_site_occupancy
 _atom_site_charge
  Cu  Cu1  1  0.907630  0.513190  0.000000  1.0  0.7761
  Cu  Cu2  1  0.513190  0.907630  0.000000  1.0  0.776
  Cu  Cu3  1  0.486810  0.486810  0.394440  1.0  0.7777
  Cu  Cu4  1  0.092370  0.092370  0.605560  1.0  0.7767
  Cu  Cu5  1  0.394440  0.486810  0.486810  1.0  0.776
  Cu  Cu6  1  0.605560  0.092370  0.092370  1.0  0.7752
  Cu  Cu7  1  0.000000  0.907630  0.513190  1.0  0.7773
  Cu  Cu8  1  0.000000  0.513190  0.907630  1.0  0.7778
  Cu  Cu9  1  0.907630  0.000000  0.513190  1.0  0.7763
  Cu  Cu10  1  0.513190  0.000000  0.907630  1.0  0.7766
  Cu  Cu11  1  0.092370  0.605560  0.092370  1.0  0.7771
  Cu  Cu12  1  0.486810  0.394440  0.486810  1.0  0.7774
  Cu  Cu13  1  0.551570  0.000000  0.551570  1.0  0.862
  Cu  Cu14  1  0.448430  0.000000  0.448430  1.0  0.8634
  Cu  Cu15  1  0.551570  0.551570  0.000000  1.0  0.8598
  Cu  Cu16  1  0.448430  0.448430  0.000000  1.0  0.8604
  Cu  Cu17  1  0.000000  0.448430  0.448430  1.0  0.8614
  Cu  Cu18  1  0.000000  0.551570  0.551570  1.0  0.8593
  H  H19  1  0.744800  0.406700  0.854700  1.0  0.121
  H  H20  1  0.552000  0.890100  0.145300  1.0  0.1224
  H  H21  1  0.448000  0.593300  0.338100  1.0  0.1217
  H  H22  1  0.255200  0.109900  0.661900  1.0  0.1222
  H  H23  1  0.338100  0.448000  0.593300  1.0  0.122
  H  H24  1  0.661900  0.255200  0.109900  1.0  0.1222
  H  H25  1  0.854700  0.744800  0.406700  1.0  0.1227
  H  H26  1  0.145300  0.552000  0.890100  1.0  0.122
  H  H27  1  0.890100  0.145300  0.552000  1.0  0.1207
  H  H28  1  0.406700  0.854700  0.744800  1.0  0.1218
  H  H29  1  0.109900  0.661900  0.255200  1.0  0.1224
  H  H30  1  0.593300  0.338100  0.448000  1.0  0.1202
  H  H31  1  0.890100  0.552000  0.145300  1.0  0.1218
  H  H32  1  0.406700  0.744800  0.854700  1.0  0.1216
  H  H33  1  0.109900  0.255200  0.661900  1.0  0.123
  H  H34  1  0.593300  0.448000  0.338100  1.0  0.1219
  H  H35  1  0.744800  0.854700  0.406700  1.0  0.1205
  H  H36  1  0.552000  0.145300  0.890100  1.0  0.1219
  H  H37  1  0.448000  0.338100  0.593300  1.0  0.1216
  H  H38  1  0.255200  0.661900  0.109900  1.0  0.1207
  H  H39  1  0.338100  0.593300  0.448000  1.0  0.1207
  H  H40  1  0.661900  0.109900  0.255200  1.0  0.1229
  H  H41  1  0.854700  0.406700  0.744800  1.0  0.1218
  H  H42  1  0.145300  0.890100  0.552000  1.0  0.1217
  H  H43  1  0.528600  0.228400  0.528600  1.0  0.1254
  H  H44  1  0.693800  0.241400  0.693800  1.0  0.1359
  H  H45  1  0.700800  0.427800  0.700800  1.0  0.139
  H  H46  1  0.699800  0.000000  0.471400  1.0  0.1263
  H  H47  1  0.547600  0.000000  0.306200  1.0  0.138
  H  H48  1  0.727000  0.000000  0.299200  1.0  0.1385
  H  H49  1  0.300200  0.771600  0.300200  1.0  0.1255
  H  H50  1  0.452400  0.758600  0.452400  1.0  0.1357
  H  H51  1  0.273000  0.572200  0.273000  1.0  0.1395
  H  H52  1  0.471400  0.000000  0.699800  1.0  0.1263
  H  H53  1  0.306200  0.000000  0.547600  1.0  0.1377
  H  H54  1  0.299200  0.000000  0.727000  1.0  0.1386
  H  H55  1  0.300200  0.300200  0.771600  1.0  0.1264
  H  H56  1  0.452400  0.452400  0.758600  1.0  0.1369
  H  H57  1  0.273000  0.273000  0.572200  1.0  0.139
  H  H58  1  0.699800  0.471400  0.000000  1.0  0.1268
  H  H59  1  0.547600  0.306200  0.000000  1.0  0.1376
  H  H60  1  0.727000  0.299200  0.000000  1.0  0.1385
  H  H61  1  0.528600  0.528600  0.228400  1.0  0.1264
  H  H62  1  0.693800  0.693800  0.241400  1.0  0.136
  H  H63  1  0.700800  0.700800  0.427800  1.0  0.1397
  H  H64  1  0.471400  0.699800  0.000000  1.0  0.1262
  H  H65  1  0.306200  0.547600  0.000000  1.0  0.1376
  H  H66  1  0.299200  0.727000  0.000000  1.0  0.1382
  H  H67  1  0.000000  0.471400  0.699800  1.0  0.1268
  H  H68  1  0.000000  0.306200  0.547600  1.0  0.138
  H  H69  1  0.000000  0.299200  0.727000  1.0  0.139
  H  H70  1  0.228400  0.528600  0.528600  1.0  0.1266
  H  H71  1  0.241400  0.693800  0.693800  1.0  0.1358
  H  H72  1  0.427800  0.700800  0.700800  1.0  0.139
  H  H73  1  0.000000  0.699800  0.471400  1.0  0.1263
  H  H74  1  0.000000  0.547600  0.306200  1.0  0.1384
  H  H75  1  0.000000  0.727000  0.299200  1.0  0.1387
  H  H76  1  0.771600  0.300200  0.300200  1.0  0.1259
  H  H77  1  0.758600  0.452400  0.452400  1.0  0.1361
  H  H78  1  0.572200  0.273000  0.273000  1.0  0.1383
  H  H79  1  0.000000  0.483600  0.000000  1.0  0.4699
  H  H80  1  0.483600  0.000000  0.000000  1.0  0.468
  H  H81  1  0.516400  0.516400  0.516400  1.0  0.4675
  H  H82  1  0.000000  0.000000  0.483600  1.0  0.4705
  C  C83  1  0.783210  0.413870  0.843540  1.0  0.1646
  C  C84  1  0.570330  0.939670  0.156460  1.0  0.1621
  C  C85  1  0.429670  0.586130  0.369340  1.0  0.166
  C  C86  1  0.216790  0.060330  0.630660  1.0  0.1647
  C  C87  1  0.369340  0.429670  0.586130  1.0  0.1649
  C  C88  1  0.630660  0.216790  0.060330  1.0  0.1625
  C  C89  1  0.843540  0.783210  0.413870  1.0  0.1661
  C  C90  1  0.156460  0.570330  0.939670  1.0  0.1614
  C  C91  1  0.939670  0.156460  0.570330  1.0  0.1614
  C  C92  1  0.413870  0.843540  0.783210  1.0  0.166
  C  C93  1  0.060330  0.630660  0.216790  1.0  0.1635
  C  C94  1  0.586130  0.369340  0.429670  1.0  0.1634
  C  C95  1  0.939670  0.570330  0.156460  1.0  0.1613
  C  C96  1  0.413870  0.783210  0.843540  1.0  0.1638
  C  C97  1  0.060330  0.216790  0.630660  1.0  0.1651
  C  C98  1  0.586130  0.429670  0.369340  1.0  0.1657
  C  C99  1  0.783210  0.843540  0.413870  1.0  0.1651
  C  C100  1  0.570330  0.156460  0.939670  1.0  0.1624
  C  C101  1  0.429670  0.369340  0.586130  1.0  0.1642
  C  C102  1  0.216790  0.630660  0.060330  1.0  0.1632
  C  C103  1  0.369340  0.586130  0.429670  1.0  0.1646
  C  C104  1  0.630660  0.060330  0.216790  1.0  0.1652
  C  C105  1  0.843540  0.413870  0.783210  1.0  0.1658
  C  C106  1  0.156460  0.939670  0.570330  1.0  0.1616
  C  C107  1  0.576800  0.371000  0.576800  1.0  0.6428
  C  C108  1  0.609660  0.332960  0.609660  1.0  -0.0667
  C  C109  1  0.573720  0.257040  0.573720  1.0  -0.0389
  C  C110  1  0.606950  0.222900  0.606950  1.0  -0.1002
  C  C111  1  0.671860  0.263920  0.671860  1.0  -0.0807
  C  C112  1  0.704270  0.339340  0.704270  1.0  0.1513
  C  C113  1  0.676290  0.375780  0.676290  1.0  -0.0772
  C  C114  1  0.565760  0.139120  0.565760  1.0  0.7179
  C  C115  1  0.794200  0.000000  0.423200  1.0  0.6409
  C  C116  1  0.723300  0.000000  0.390340  1.0  -0.0679
  C  C117  1  0.683320  0.000000  0.426280  1.0  -0.0418
  C  C118  1  0.615950  0.000000  0.393050  1.0  -0.1074
  C  C119  1  0.592060  0.000000  0.328140  1.0  -0.0795
  C  C120  1  0.635070  0.000000  0.295730  1.0  0.1512
  C  C121  1  0.699490  0.000000  0.323710  1.0  -0.076
  C  C122  1  0.573360  0.000000  0.434240  1.0  0.7186
  C  C123  1  0.205800  0.629000  0.205800  1.0  0.6435
  C  C124  1  0.276700  0.667040  0.276700  1.0  -0.0668
  C  C125  1  0.316680  0.742960  0.316680  1.0  -0.039
  C  C126  1  0.384050  0.777100  0.384050  1.0  -0.103
  C  C127  1  0.407940  0.736080  0.407940  1.0  -0.0804
  C  C128  1  0.364930  0.660660  0.364930  1.0  0.1515
  C  C129  1  0.300510  0.624220  0.300510  1.0  -0.077
  C  C130  1  0.426640  0.860880  0.426640  1.0  0.7179
  C  C131  1  0.423200  0.000000  0.794200  1.0  0.6446
  C  C132  1  0.390340  0.000000  0.723300  1.0  -0.0662
  C  C133  1  0.426280  0.000000  0.683320  1.0  -0.0368
  C  C134  1  0.393050  0.000000  0.615950  1.0  -0.1067
  C  C135  1  0.328140  0.000000  0.592060  1.0  -0.0801
  C  C136  1  0.295730  0.000000  0.635070  1.0  0.152
  C  C137  1  0.323710  0.000000  0.699490  1.0  -0.0765
  C  C138  1  0.434240  0.000000  0.573360  1.0  0.7175
  C  C139  1  0.205800  0.205800  0.629000  1.0  0.6431
  C  C140  1  0.276700  0.276700  0.667040  1.0  -0.067
  C  C141  1  0.316680  0.316680  0.742960  1.0  -0.0424
  C  C142  1  0.384050  0.384050  0.777100  1.0  -0.1065
  C  C143  1  0.407940  0.407940  0.736080  1.0  -0.0779
  C  C144  1  0.364930  0.364930  0.660660  1.0  0.1514
  C  C145  1  0.300510  0.300510  0.624220  1.0  -0.0772
  C  C146  1  0.426640  0.426640  0.860880  1.0  0.7183
  C  C147  1  0.794200  0.423200  0.000000  1.0  0.6415
  C  C148  1  0.723300  0.390340  0.000000  1.0  -0.0675
  C  C149  1  0.683320  0.426280  0.000000  1.0  -0.0379
  C  C150  1  0.615950  0.393050  0.000000  1.0  -0.1044
  C  C151  1  0.592060  0.328140  0.000000  1.0  -0.0816
  C  C152  1  0.635070  0.295730  0.000000  1.0  0.1518
  C  C153  1  0.699490  0.323710  0.000000  1.0  -0.0766
  C  C154  1  0.573360  0.434240  0.000000  1.0  0.7175
  C  C155  1  0.576800  0.576800  0.371000  1.0  0.6437
  C  C156  1  0.609660  0.609660  0.332960  1.0  -0.0662
  C  C157  1  0.573720  0.573720  0.257040  1.0  -0.0363
  C  C158  1  0.606950  0.606950  0.222900  1.0  -0.1033
  C  C159  1  0.671860  0.671860  0.263920  1.0  -0.0798
  C  C160  1  0.704270  0.704270  0.339340  1.0  0.1516
  C  C161  1  0.676290  0.676290  0.375780  1.0  -0.0763
  C  C162  1  0.565760  0.565760  0.139120  1.0  0.7184
  C  C163  1  0.423200  0.794200  0.000000  1.0  0.644
  C  C164  1  0.390340  0.723300  0.000000  1.0  -0.0664
  C  C165  1  0.426280  0.683320  0.000000  1.0  -0.0392
  C  C166  1  0.393050  0.615950  0.000000  1.0  -0.1039
  C  C167  1  0.328140  0.592060  0.000000  1.0  -0.08
  C  C168  1  0.295730  0.635070  0.000000  1.0  0.1517
  C  C169  1  0.323710  0.699490  0.000000  1.0  -0.0768
  C  C170  1  0.434240  0.573360  0.000000  1.0  0.7171
  C  C171  1  0.000000  0.423200  0.794200  1.0  0.6446
  C  C172  1  0.000000  0.390340  0.723300  1.0  -0.0661
  C  C173  1  0.000000  0.426280  0.683320  1.0  -0.0372
  C  C174  1  0.000000  0.393050  0.615950  1.0  -0.1067
  C  C175  1  0.000000  0.328140  0.592060  1.0  -0.0794
  C  C176  1  0.000000  0.295730  0.635070  1.0  0.152
  C  C177  1  0.000000  0.323710  0.699490  1.0  -0.0759
  C  C178  1  0.000000  0.434240  0.573360  1.0  0.7183
  C  C179  1  0.371000  0.576800  0.576800  1.0  0.6407
  C  C180  1  0.332960  0.609660  0.609660  1.0  -0.0677
  C  C181  1  0.257040  0.573720  0.573720  1.0  -0.0372
  C  C182  1  0.222900  0.606950  0.606950  1.0  -0.1008
  C  C183  1  0.263920  0.671860  0.671860  1.0  -0.0816
  C  C184  1  0.339340  0.704270  0.704270  1.0  0.1516
  C  C185  1  0.375780  0.676290  0.676290  1.0  -0.0768
  C  C186  1  0.139120  0.565760  0.565760  1.0  0.7177
  C  C187  1  0.000000  0.794200  0.423200  1.0  0.6432
  C  C188  1  0.000000  0.723300  0.390340  1.0  -0.0669
  C  C189  1  0.000000  0.683320  0.426280  1.0  -0.0427
  C  C190  1  0.000000  0.615950  0.393050  1.0  -0.1065
  C  C191  1  0.000000  0.592060  0.328140  1.0  -0.0789
  C  C192  1  0.000000  0.635070  0.295730  1.0  0.1514
  C  C193  1  0.000000  0.699490  0.323710  1.0  -0.0774
  C  C194  1  0.000000  0.573360  0.434240  1.0  0.7184
  C  C195  1  0.629000  0.205800  0.205800  1.0  0.6441
  C  C196  1  0.667040  0.276700  0.276700  1.0  -0.0665
  C  C197  1  0.742960  0.316680  0.316680  1.0  -0.0392
  C  C198  1  0.777100  0.384050  0.384050  1.0  -0.1041
  C  C199  1  0.736080  0.407940  0.407940  1.0  -0.0792
  C  C200  1  0.660660  0.364930  0.364930  1.0  0.1518
  C  C201  1  0.624220  0.300510  0.300510  1.0  -0.0767
  C  C202  1  0.860880  0.426640  0.426640  1.0  0.7172
  Se  Se203  1  0.000000  0.668800  0.000000  1.0  1.1372
  Se  Se204  1  0.668800  0.000000  0.000000  1.0  1.1348
  Se  Se205  1  0.331200  0.331200  0.331200  1.0  1.1325
  Se  Se206  1  0.000000  0.000000  0.668800  1.0  1.137
  N  N207  1  0.853800  0.452350  0.890910  1.0  -0.2154
  N  N208  1  0.561440  0.962890  0.109090  1.0  -0.2163
  N  N209  1  0.438560  0.547650  0.401450  1.0  -0.2158
  N  N210  1  0.146200  0.037110  0.598550  1.0  -0.2042
  N  N211  1  0.401450  0.438560  0.547650  1.0  -0.2157
  N  N212  1  0.598550  0.146200  0.037110  1.0  -0.2049
  N  N213  1  0.890910  0.853800  0.452350  1.0  -0.2158
  N  N214  1  0.109090  0.561440  0.962890  1.0  -0.2168
  N  N215  1  0.962890  0.109090  0.561440  1.0  -0.2183
  N  N216  1  0.452350  0.890910  0.853800  1.0  -0.2186
  N  N217  1  0.037110  0.598550  0.146200  1.0  -0.2036
  N  N218  1  0.547650  0.401450  0.438560  1.0  -0.2141
  N  N219  1  0.962890  0.561440  0.109090  1.0  -0.2179
  N  N220  1  0.452350  0.853800  0.890910  1.0  -0.2136
  N  N221  1  0.037110  0.146200  0.598550  1.0  -0.2054
  N  N222  1  0.547650  0.438560  0.401450  1.0  -0.2152
  N  N223  1  0.853800  0.890910  0.452350  1.0  -0.2189
  N  N224  1  0.561440  0.109090  0.962890  1.0  -0.2182
  N  N225  1  0.438560  0.401450  0.547650  1.0  -0.214
  N  N226  1  0.146200  0.598550  0.037110  1.0  -0.2039
  N  N227  1  0.401450  0.547650  0.438560  1.0  -0.2153
  N  N228  1  0.598550  0.037110  0.146200  1.0  -0.2036
  N  N229  1  0.890910  0.452350  0.853800  1.0  -0.2158
  N  N230  1  0.109090  0.962890  0.561440  1.0  -0.2155
  N  N231  1  0.775320  0.386140  0.775320  1.0  -0.0446
  N  N232  1  0.610820  0.000000  0.224680  1.0  -0.0406
  N  N233  1  0.389180  0.613860  0.389180  1.0  -0.0445
  N  N234  1  0.224680  0.000000  0.610820  1.0  -0.0415
  N  N235  1  0.389180  0.389180  0.613860  1.0  -0.0437
  N  N236  1  0.610820  0.224680  0.000000  1.0  -0.0411
  N  N237  1  0.775320  0.775320  0.386140  1.0  -0.0445
  N  N238  1  0.224680  0.610820  0.000000  1.0  -0.039
  N  N239  1  0.000000  0.224680  0.610820  1.0  -0.0406
  N  N240  1  0.386140  0.775320  0.775320  1.0  -0.0447
  N  N241  1  0.000000  0.610820  0.224680  1.0  -0.0406
  N  N242  1  0.613860  0.389180  0.389180  1.0  -0.0421
  O  O243  1  0.515550  0.330380  0.515550  1.0  -0.5725
  O  O244  1  0.608330  0.441060  0.608330  1.0  -0.5321
  O  O245  1  0.596030  0.109180  0.596030  1.0  -0.5753
  O  O246  1  0.507300  0.107260  0.507300  1.0  -0.5511
  O  O247  1  0.814830  0.000000  0.484450  1.0  -0.5726
  O  O248  1  0.832730  0.000000  0.391670  1.0  -0.5329
  O  O249  1  0.513150  0.000000  0.403970  1.0  -0.5758
  O  O250  1  0.599960  0.000000  0.492700  1.0  -0.5505
  O  O251  1  0.185170  0.669620  0.185170  1.0  -0.5715
  O  O252  1  0.167270  0.558940  0.167270  1.0  -0.5271
  O  O253  1  0.486850  0.890820  0.486850  1.0  -0.5756
  O  O254  1  0.400040  0.892740  0.400040  1.0  -0.5509
  O  O255  1  0.484450  0.000000  0.814830  1.0  -0.5724
  O  O256  1  0.391670  0.000000  0.832730  1.0  -0.5336
  O  O257  1  0.403970  0.000000  0.513150  1.0  -0.5768
  O  O258  1  0.492700  0.000000  0.599960  1.0  -0.5513
  O  O259  1  0.185170  0.185170  0.669620  1.0  -0.5709
  O  O260  1  0.167270  0.167270  0.558940  1.0  -0.5273
  O  O261  1  0.486850  0.486850  0.890820  1.0  -0.576
  O  O262  1  0.400040  0.400040  0.892740  1.0  -0.5502
  O  O263  1  0.814830  0.484450  0.000000  1.0  -0.5718
  O  O264  1  0.832730  0.391670  0.000000  1.0  -0.5336
  O  O265  1  0.513150  0.403970  0.000000  1.0  -0.5778
  O  O266  1  0.599960  0.492700  0.000000  1.0  -0.5507
  O  O267  1  0.515550  0.515550  0.330380  1.0  -0.5722
  O  O268  1  0.608330  0.608330  0.441060  1.0  -0.5376
  O  O269  1  0.596030  0.596030  0.109180  1.0  -0.5785
  O  O270  1  0.507300  0.507300  0.107260  1.0  -0.5509
  O  O271  1  0.484450  0.814830  0.000000  1.0  -0.5725
  O  O272  1  0.391670  0.832730  0.000000  1.0  -0.53
  O  O273  1  0.403970  0.513150  0.000000  1.0  -0.5774
  O  O274  1  0.492700  0.599960  0.000000  1.0  -0.5509
  O  O275  1  0.000000  0.484450  0.814830  1.0  -0.5716
  O  O276  1  0.000000  0.391670  0.832730  1.0  -0.5332
  O  O277  1  0.000000  0.403970  0.513150  1.0  -0.5778
  O  O278  1  0.000000  0.492700  0.599960  1.0  -0.5509
  O  O279  1  0.330380  0.515550  0.515550  1.0  -0.5721
  O  O280  1  0.441060  0.608330  0.608330  1.0  -0.5363
  O  O281  1  0.109180  0.596030  0.596030  1.0  -0.5785
  O  O282  1  0.107260  0.507300  0.507300  1.0  -0.5512
  O  O283  1  0.000000  0.814830  0.484450  1.0  -0.5713
  O  O284  1  0.000000  0.832730  0.391670  1.0  -0.5333
  O  O285  1  0.000000  0.513150  0.403970  1.0  -0.576
  O  O286  1  0.000000  0.599960  0.492700  1.0  -0.5507
  O  O287  1  0.669620  0.185170  0.185170  1.0  -0.5725
  O  O288  1  0.558940  0.167270  0.167270  1.0  -0.5233
  O  O289  1  0.890820  0.486850  0.486850  1.0  -0.5777
  O  O290  1  0.892740  0.400040  0.400040  1.0  -0.551
  O  O291  1  0.000000  0.520740  0.000000  1.0  -0.9117
  O  O292  1  0.000000  0.742380  0.000000  1.0  -0.563
  O  O293  1  0.520740  0.000000  0.000000  1.0  -0.9128
  O  O294  1  0.742380  0.000000  0.000000  1.0  -0.5614
  O  O295  1  0.479260  0.479260  0.479260  1.0  -0.9144
  O  O296  1  0.257620  0.257620  0.257620  1.0  -0.5813
  O  O297  1  0.000000  0.000000  0.520740  1.0  -0.9144
  O  O298  1  0.000000  0.000000  0.742380  1.0  -0.5589
  O  O299  1  0.927240  0.619840  0.000000  1.0  -0.6714
  O  O300  1  0.619840  0.927240  0.000000  1.0  -0.6662
  O  O301  1  0.380160  0.380160  0.307400  1.0  -0.6721
  O  O302  1  0.072760  0.072760  0.692600  1.0  -0.6573
  O  O303  1  0.307400  0.380160  0.380160  1.0  -0.6711
  O  O304  1  0.692600  0.072760  0.072760  1.0  -0.6624
  O  O305  1  0.000000  0.927240  0.619840  1.0  -0.6647
  O  O306  1  0.000000  0.619840  0.927240  1.0  -0.6755
  O  O307  1  0.927240  0.000000  0.619840  1.0  -0.6649
  O  O308  1  0.619840  0.000000  0.927240  1.0  -0.6715
  O  O309  1  0.072760  0.692600  0.072760  1.0  -0.6649
  O  O310  1  0.380160  0.307400  0.380160  1.0  -0.67
