# generated using pymatgen
data_Cu9H32C60S2(N9O17)2
_symmetry_space_group_name_H-M   'P 1'
_cell_length_a   22.40040000
_cell_length_b   22.40040000
_cell_length_c   22.40040000
_cell_angle_alpha   109.47100000
_cell_angle_beta   109.47100000
_cell_angle_gamma   109.47100000
_symmetry_Int_Tables_number   1
_chemical_formula_structural   Cu9H32C60S2(N9O17)2
_chemical_formula_sum   'Cu18 H64 C120 S4 N36 O68'
_cell_volume   8652.64682380
_cell_formula_units_Z   2
loop_
 _symmetry_equiv_pos_site_id
 _symmetry_equiv_pos_as_xyz
  1  'x, y, z'
loop_
 _atom_site_type_symbol
 _atom_site_label
 _atom_site_symmetry_multiplicity
 _atom_site_fract_x
 _atom_site_fract_y
 _atom_site_fract_z
 _atom_site_occupancy
 _atom_site_charge
  Cu  Cu1  1  0.908160  0.505630  0.000000  1.0  0.7458
  Cu  Cu2  1  0.505630  0.908160  0.000000  1.0  0.7472
  Cu  Cu3  1  0.494370  0.494370  0.402530  1.0  0.7483
  Cu  Cu4  1  0.091840  0.091840  0.597470  1.0  0.7464
  Cu  Cu5  1  0.402530  0.494370  0.494370  1.0  0.7459
  Cu  Cu6  1  0.597470  0.091840  0.091840  1.0  0.7466
  Cu  Cu7  1  0.000000  0.908160  0.505630  1.0  0.747
  Cu  Cu8  1  0.000000  0.505630  0.908160  1.0  0.7482
  Cu  Cu9  1  0.908160  0.000000  0.505630  1.0  0.7454
  Cu  Cu10  1  0.505630  0.000000  0.908160  1.0  0.7478
  Cu  Cu11  1  0.091840  0.597470  0.091840  1.0  0.7464
  Cu  Cu12  1  0.494370  0.402530  0.494370  1.0  0.7469
  Cu  Cu13  1  0.551870  0.000000  0.551870  1.0  0.962
  Cu  Cu14  1  0.448130  0.000000  0.448130  1.0  0.9638
  Cu  Cu15  1  0.551870  0.551870  0.000000  1.0  0.9619
  Cu  Cu16  1  0.448130  0.448130  0.000000  1.0  0.9634
  Cu  Cu17  1  0.000000  0.448130  0.448130  1.0  0.9637
  Cu  Cu18  1  0.000000  0.551870  0.551870  1.0  0.9611
  H  H19  1  0.746100  0.401800  0.853100  1.0  0.1151
  H  H20  1  0.548700  0.893000  0.146900  1.0  0.1171
  H  H21  1  0.451300  0.598200  0.344300  1.0  0.1162
  H  H22  1  0.253900  0.107000  0.655700  1.0  0.1161
  H  H23  1  0.344300  0.451300  0.598200  1.0  0.116
  H  H24  1  0.655700  0.253900  0.107000  1.0  0.1162
  H  H25  1  0.853100  0.746100  0.401800  1.0  0.1162
  H  H26  1  0.146900  0.548700  0.893000  1.0  0.1157
  H  H27  1  0.893000  0.146900  0.548700  1.0  0.1145
  H  H28  1  0.401800  0.853100  0.746100  1.0  0.1161
  H  H29  1  0.107000  0.655700  0.253900  1.0  0.1162
  H  H30  1  0.598200  0.344300  0.451300  1.0  0.1145
  H  H31  1  0.893000  0.548700  0.146900  1.0  0.1157
  H  H32  1  0.401800  0.746100  0.853100  1.0  0.1158
  H  H33  1  0.107000  0.253900  0.655700  1.0  0.1164
  H  H34  1  0.598200  0.451300  0.344300  1.0  0.1156
  H  H35  1  0.746100  0.853100  0.401800  1.0  0.1147
  H  H36  1  0.548700  0.146900  0.893000  1.0  0.1161
  H  H37  1  0.451300  0.344300  0.598200  1.0  0.1156
  H  H38  1  0.253900  0.655700  0.107000  1.0  0.1149
  H  H39  1  0.344300  0.598200  0.451300  1.0  0.1151
  H  H40  1  0.655700  0.107000  0.253900  1.0  0.1171
  H  H41  1  0.853100  0.401800  0.746100  1.0  0.1161
  H  H42  1  0.146900  0.893000  0.548700  1.0  0.1161
  H  H43  1  0.530100  0.230400  0.530100  1.0  0.129
  H  H44  1  0.691400  0.236600  0.691400  1.0  0.1375
  H  H45  1  0.702400  0.424800  0.702400  1.0  0.1339
  H  H46  1  0.700300  0.000000  0.469900  1.0  0.1306
  H  H47  1  0.545200  0.000000  0.308600  1.0  0.1378
  H  H48  1  0.722400  0.000000  0.297600  1.0  0.1331
  H  H49  1  0.299700  0.769600  0.299700  1.0  0.1298
  H  H50  1  0.454800  0.763400  0.454800  1.0  0.1374
  H  H51  1  0.277600  0.575200  0.277600  1.0  0.1337
  H  H52  1  0.469900  0.000000  0.700300  1.0  0.1296
  H  H53  1  0.308600  0.000000  0.545200  1.0  0.138
  H  H54  1  0.297600  0.000000  0.722400  1.0  0.1338
  H  H55  1  0.299700  0.299700  0.769600  1.0  0.1308
  H  H56  1  0.454800  0.454800  0.763400  1.0  0.1384
  H  H57  1  0.277600  0.277600  0.575200  1.0  0.1343
  H  H58  1  0.700300  0.469900  0.000000  1.0  0.1306
  H  H59  1  0.545200  0.308600  0.000000  1.0  0.1377
  H  H60  1  0.722400  0.297600  0.000000  1.0  0.1325
  H  H61  1  0.530100  0.530100  0.230400  1.0  0.1304
  H  H62  1  0.691400  0.691400  0.236600  1.0  0.1378
  H  H63  1  0.702400  0.702400  0.424800  1.0  0.1348
  H  H64  1  0.469900  0.700300  0.000000  1.0  0.1297
  H  H65  1  0.308600  0.545200  0.000000  1.0  0.1378
  H  H66  1  0.297600  0.722400  0.000000  1.0  0.1329
  H  H67  1  0.000000  0.469900  0.700300  1.0  0.131
  H  H68  1  0.000000  0.308600  0.545200  1.0  0.1379
  H  H69  1  0.000000  0.297600  0.722400  1.0  0.1338
  H  H70  1  0.230400  0.530100  0.530100  1.0  0.1304
  H  H71  1  0.236600  0.691400  0.691400  1.0  0.1376
  H  H72  1  0.424800  0.702400  0.702400  1.0  0.1339
  H  H73  1  0.000000  0.700300  0.469900  1.0  0.1308
  H  H74  1  0.000000  0.545200  0.308600  1.0  0.1378
  H  H75  1  0.000000  0.722400  0.297600  1.0  0.1336
  H  H76  1  0.769600  0.299700  0.299700  1.0  0.1294
  H  H77  1  0.763400  0.454800  0.454800  1.0  0.1383
  H  H78  1  0.575200  0.277600  0.277600  1.0  0.1335
  H  H79  1  0.000000  0.474000  0.000000  1.0  0.4719
  H  H80  1  0.474000  0.000000  0.000000  1.0  0.4705
  H  H81  1  0.526000  0.526000  0.526000  1.0  0.4717
  H  H82  1  0.000000  0.000000  0.474000  1.0  0.4723
  C  C83  1  0.784640  0.408860  0.842300  1.0  0.1563
  C  C84  1  0.566560  0.942340  0.157700  1.0  0.1557
  C  C85  1  0.433440  0.591140  0.375780  1.0  0.1583
  C  C86  1  0.215360  0.057660  0.624220  1.0  0.1551
  C  C87  1  0.375780  0.433440  0.591140  1.0  0.1545
  C  C88  1  0.624220  0.215360  0.057660  1.0  0.1533
  C  C89  1  0.842300  0.784640  0.408860  1.0  0.1559
  C  C90  1  0.157700  0.566560  0.942340  1.0  0.1563
  C  C91  1  0.942340  0.157700  0.566560  1.0  0.1542
  C  C92  1  0.408860  0.842300  0.784640  1.0  0.1563
  C  C93  1  0.057660  0.624220  0.215360  1.0  0.1537
  C  C94  1  0.591140  0.375780  0.433440  1.0  0.156
  C  C95  1  0.942340  0.566560  0.157700  1.0  0.1544
  C  C96  1  0.408860  0.784640  0.842300  1.0  0.1552
  C  C97  1  0.057660  0.215360  0.624220  1.0  0.1543
  C  C98  1  0.591140  0.433440  0.375780  1.0  0.1567
  C  C99  1  0.784640  0.842300  0.408860  1.0  0.155
  C  C100  1  0.566560  0.157700  0.942340  1.0  0.1562
  C  C101  1  0.433440  0.375780  0.591140  1.0  0.155
  C  C102  1  0.215360  0.624220  0.057660  1.0  0.1544
  C  C103  1  0.375780  0.591140  0.433440  1.0  0.1562
  C  C104  1  0.624220  0.057660  0.215360  1.0  0.1551
  C  C105  1  0.842300  0.408860  0.784640  1.0  0.1584
  C  C106  1  0.157700  0.942340  0.566560  1.0  0.1552
  C  C107  1  0.580230  0.372860  0.580230  1.0  0.664
  C  C108  1  0.611290  0.333000  0.611290  1.0  -0.1114
  C  C109  1  0.574980  0.257920  0.574980  1.0  -0.0305
  C  C110  1  0.606830  0.221060  0.606830  1.0  -0.104
  C  C111  1  0.670420  0.260060  0.670420  1.0  -0.0849
  C  C112  1  0.705360  0.337780  0.705360  1.0  0.1667
  C  C113  1  0.677330  0.372860  0.677330  1.0  -0.0877
  C  C114  1  0.565690  0.138980  0.565690  1.0  0.7036
  C  C115  1  0.792630  0.000000  0.419770  1.0  0.6641
  C  C116  1  0.721710  0.000000  0.388710  1.0  -0.1125
  C  C117  1  0.682940  0.000000  0.425020  1.0  -0.0274
  C  C118  1  0.614230  0.000000  0.393170  1.0  -0.1058
  C  C119  1  0.589640  0.000000  0.329580  1.0  -0.0845
  C  C120  1  0.632420  0.000000  0.294640  1.0  0.167
  C  C121  1  0.695530  0.000000  0.322670  1.0  -0.0848
  C  C122  1  0.573290  0.000000  0.434310  1.0  0.7042
  C  C123  1  0.207370  0.627140  0.207370  1.0  0.6647
  C  C124  1  0.278290  0.667000  0.278290  1.0  -0.1111
  C  C125  1  0.317060  0.742080  0.317060  1.0  -0.0306
  C  C126  1  0.385770  0.778940  0.385770  1.0  -0.1031
  C  C127  1  0.410360  0.739940  0.410360  1.0  -0.0851
  C  C128  1  0.367580  0.662220  0.367580  1.0  0.1668
  C  C129  1  0.304470  0.627140  0.304470  1.0  -0.0879
  C  C130  1  0.426710  0.861020  0.426710  1.0  0.7042
  C  C131  1  0.419770  0.000000  0.792630  1.0  0.669
  C  C132  1  0.388710  0.000000  0.721710  1.0  -0.1123
  C  C133  1  0.425020  0.000000  0.682940  1.0  -0.0284
  C  C134  1  0.393170  0.000000  0.614230  1.0  -0.1052
  C  C135  1  0.329580  0.000000  0.589640  1.0  -0.0835
  C  C136  1  0.294640  0.000000  0.632420  1.0  0.1667
  C  C137  1  0.322670  0.000000  0.695530  1.0  -0.0862
  C  C138  1  0.434310  0.000000  0.573290  1.0  0.7037
  C  C139  1  0.207370  0.207370  0.627140  1.0  0.6675
  C  C140  1  0.278290  0.278290  0.667000  1.0  -0.1115
  C  C141  1  0.317060  0.317060  0.742080  1.0  -0.0283
  C  C142  1  0.385770  0.385770  0.778940  1.0  -0.1057
  C  C143  1  0.410360  0.410360  0.739940  1.0  -0.0824
  C  C144  1  0.367580  0.367580  0.662220  1.0  0.1667
  C  C145  1  0.304470  0.304470  0.627140  1.0  -0.0888
  C  C146  1  0.426710  0.426710  0.861020  1.0  0.7046
  C  C147  1  0.792630  0.419770  0.000000  1.0  0.6635
  C  C148  1  0.721710  0.388710  0.000000  1.0  -0.1129
  C  C149  1  0.682940  0.425020  0.000000  1.0  -0.03
  C  C150  1  0.614230  0.393170  0.000000  1.0  -0.1042
  C  C151  1  0.589640  0.329580  0.000000  1.0  -0.0864
  C  C152  1  0.632420  0.294640  0.000000  1.0  0.166
  C  C153  1  0.695530  0.322670  0.000000  1.0  -0.0859
  C  C154  1  0.573290  0.434310  0.000000  1.0  0.7033
  C  C155  1  0.580230  0.580230  0.372860  1.0  0.6685
  C  C156  1  0.611290  0.611290  0.333000  1.0  -0.1115
  C  C157  1  0.574980  0.574980  0.257920  1.0  -0.0295
  C  C158  1  0.606830  0.606830  0.221060  1.0  -0.1052
  C  C159  1  0.670420  0.670420  0.260060  1.0  -0.0841
  C  C160  1  0.705360  0.705360  0.337780  1.0  0.167
  C  C161  1  0.677330  0.677330  0.372860  1.0  -0.086
  C  C162  1  0.565690  0.565690  0.138980  1.0  0.704
  C  C163  1  0.419770  0.792630  0.000000  1.0  0.6673
  C  C164  1  0.388710  0.721710  0.000000  1.0  -0.1113
  C  C165  1  0.425020  0.682940  0.000000  1.0  -0.0303
  C  C166  1  0.393170  0.614230  0.000000  1.0  -0.1039
  C  C167  1  0.329580  0.589640  0.000000  1.0  -0.0841
  C  C168  1  0.294640  0.632420  0.000000  1.0  0.1658
  C  C169  1  0.322670  0.695530  0.000000  1.0  -0.0882
  C  C170  1  0.434310  0.573290  0.000000  1.0  0.703
  C  C171  1  0.000000  0.419770  0.792630  1.0  0.6688
  C  C172  1  0.000000  0.388710  0.721710  1.0  -0.1115
  C  C173  1  0.000000  0.425020  0.682940  1.0  -0.0295
  C  C174  1  0.000000  0.393170  0.614230  1.0  -0.1051
  C  C175  1  0.000000  0.329580  0.589640  1.0  -0.0839
  C  C176  1  0.000000  0.294640  0.632420  1.0  0.1666
  C  C177  1  0.000000  0.322670  0.695530  1.0  -0.0857
  C  C178  1  0.000000  0.434310  0.573290  1.0  0.7043
  C  C179  1  0.372860  0.580230  0.580230  1.0  0.6633
  C  C180  1  0.333000  0.611290  0.611290  1.0  -0.1129
  C  C181  1  0.257920  0.574980  0.574980  1.0  -0.0307
  C  C182  1  0.221060  0.606830  0.606830  1.0  -0.1042
  C  C183  1  0.260060  0.670420  0.670420  1.0  -0.0867
  C  C184  1  0.337780  0.705360  0.705360  1.0  0.1665
  C  C185  1  0.372860  0.677330  0.677330  1.0  -0.0865
  C  C186  1  0.138980  0.565690  0.565690  1.0  0.7031
  C  C187  1  0.000000  0.792630  0.419770  1.0  0.6673
  C  C188  1  0.000000  0.721710  0.388710  1.0  -0.1117
  C  C189  1  0.000000  0.682940  0.425020  1.0  -0.0285
  C  C190  1  0.000000  0.614230  0.393170  1.0  -0.1054
  C  C191  1  0.000000  0.589640  0.329580  1.0  -0.0828
  C  C192  1  0.000000  0.632420  0.294640  1.0  0.166
  C  C193  1  0.000000  0.695530  0.322670  1.0  -0.0885
  C  C194  1  0.000000  0.573290  0.434310  1.0  0.7044
  C  C195  1  0.627140  0.207370  0.207370  1.0  0.6676
  C  C196  1  0.667000  0.278290  0.278290  1.0  -0.111
  C  C197  1  0.742080  0.317060  0.317060  1.0  -0.0303
  C  C198  1  0.778940  0.385770  0.385770  1.0  -0.1044
  C  C199  1  0.739940  0.410360  0.410360  1.0  -0.0843
  C  C200  1  0.662220  0.367580  0.367580  1.0  0.1667
  C  C201  1  0.627140  0.304470  0.304470  1.0  -0.088
  C  C202  1  0.861020  0.426710  0.426710  1.0  0.7032
  S  S203  1  0.000000  0.655440  0.000000  1.0  1.5538
  S  S204  1  0.655440  0.000000  0.000000  1.0  1.5499
  S  S205  1  0.344560  0.344560  0.344560  1.0  1.5535
  S  S206  1  0.000000  0.000000  0.655440  1.0  1.5525
  N  N207  1  0.854720  0.446850  0.891750  1.0  -0.2524
  N  N208  1  0.555100  0.962970  0.108250  1.0  -0.2594
  N  N209  1  0.444900  0.553150  0.407870  1.0  -0.2538
  N  N210  1  0.145280  0.037030  0.592130  1.0  -0.2439
  N  N211  1  0.407870  0.444900  0.553150  1.0  -0.2541
  N  N212  1  0.592130  0.145280  0.037030  1.0  -0.2463
  N  N213  1  0.891750  0.854720  0.446850  1.0  -0.2543
  N  N214  1  0.108250  0.555100  0.962970  1.0  -0.2598
  N  N215  1  0.962970  0.108250  0.555100  1.0  -0.2616
  N  N216  1  0.446850  0.891750  0.854720  1.0  -0.2573
  N  N217  1  0.037030  0.592130  0.145280  1.0  -0.245
  N  N218  1  0.553150  0.407870  0.444900  1.0  -0.2525
  N  N219  1  0.962970  0.555100  0.108250  1.0  -0.2634
  N  N220  1  0.446850  0.854720  0.891750  1.0  -0.2547
  N  N221  1  0.037030  0.145280  0.592130  1.0  -0.2486
  N  N222  1  0.553150  0.444900  0.407870  1.0  -0.2558
  N  N223  1  0.854720  0.891750  0.446850  1.0  -0.2591
  N  N224  1  0.555100  0.108250  0.962970  1.0  -0.2644
  N  N225  1  0.444900  0.407870  0.553150  1.0  -0.256
  N  N226  1  0.145280  0.592130  0.037030  1.0  -0.2462
  N  N227  1  0.407870  0.553150  0.444900  1.0  -0.2557
  N  N228  1  0.592130  0.037030  0.145280  1.0  -0.2464
  N  N229  1  0.891750  0.446850  0.854720  1.0  -0.2562
  N  N230  1  0.108250  0.962970  0.555100  1.0  -0.2612
  N  N231  1  0.775500  0.382000  0.775500  1.0  0.0163
  N  N232  1  0.606500  0.000000  0.224500  1.0  0.018
  N  N233  1  0.393500  0.618000  0.393500  1.0  0.0161
  N  N234  1  0.224500  0.000000  0.606500  1.0  0.0148
  N  N235  1  0.393500  0.393500  0.618000  1.0  0.018
  N  N236  1  0.606500  0.224500  0.000000  1.0  0.0163
  N  N237  1  0.775500  0.775500  0.382000  1.0  0.0165
  N  N238  1  0.224500  0.606500  0.000000  1.0  0.0143
  N  N239  1  0.000000  0.224500  0.606500  1.0  0.0168
  N  N240  1  0.382000  0.775500  0.775500  1.0  0.0162
  N  N241  1  0.000000  0.606500  0.224500  1.0  0.0179
  N  N242  1  0.618000  0.393500  0.393500  1.0  0.0137
  O  O243  1  0.520440  0.334440  0.520440  1.0  -0.5752
  O  O244  1  0.613120  0.441580  0.613120  1.0  -0.5379
  O  O245  1  0.595050  0.107960  0.595050  1.0  -0.5754
  O  O246  1  0.507250  0.106420  0.507250  1.0  -0.5611
  O  O247  1  0.814000  0.000000  0.479560  1.0  -0.5745
  O  O248  1  0.828460  0.000000  0.386880  1.0  -0.5421
  O  O249  1  0.512910  0.000000  0.404950  1.0  -0.5757
  O  O250  1  0.599170  0.000000  0.492750  1.0  -0.5605
  O  O251  1  0.186000  0.665560  0.186000  1.0  -0.5758
  O  O252  1  0.171540  0.558420  0.171540  1.0  -0.5329
  O  O253  1  0.487090  0.892040  0.487090  1.0  -0.5755
  O  O254  1  0.400830  0.893580  0.400830  1.0  -0.5612
  O  O255  1  0.479560  0.000000  0.814000  1.0  -0.5768
  O  O256  1  0.386880  0.000000  0.828460  1.0  -0.5424
  O  O257  1  0.404950  0.000000  0.512910  1.0  -0.5761
  O  O258  1  0.492750  0.000000  0.599170  1.0  -0.5614
  O  O259  1  0.186000  0.186000  0.665560  1.0  -0.5735
  O  O260  1  0.171540  0.171540  0.558420  1.0  -0.5335
  O  O261  1  0.487090  0.487090  0.892040  1.0  -0.5746
  O  O262  1  0.400830  0.400830  0.893580  1.0  -0.5605
  O  O263  1  0.814000  0.479560  0.000000  1.0  -0.5769
  O  O264  1  0.828460  0.386880  0.000000  1.0  -0.543
  O  O265  1  0.512910  0.404950  0.000000  1.0  -0.576
  O  O266  1  0.599170  0.492750  0.000000  1.0  -0.5608
  O  O267  1  0.520440  0.520440  0.334440  1.0  -0.5745
  O  O268  1  0.613120  0.613120  0.441580  1.0  -0.543
  O  O269  1  0.595050  0.595050  0.107960  1.0  -0.5768
  O  O270  1  0.507250  0.507250  0.106420  1.0  -0.5607
  O  O271  1  0.479560  0.814000  0.000000  1.0  -0.577
  O  O272  1  0.386880  0.828460  0.000000  1.0  -0.5375
  O  O273  1  0.404950  0.512910  0.000000  1.0  -0.5755
  O  O274  1  0.492750  0.599170  0.000000  1.0  -0.5612
  O  O275  1  0.000000  0.479560  0.814000  1.0  -0.5753
  O  O276  1  0.000000  0.386880  0.828460  1.0  -0.5432
  O  O277  1  0.000000  0.404950  0.512910  1.0  -0.5768
  O  O278  1  0.000000  0.492750  0.599170  1.0  -0.5605
  O  O279  1  0.334440  0.520440  0.520440  1.0  -0.5753
  O  O280  1  0.441580  0.613120  0.613120  1.0  -0.5438
  O  O281  1  0.107960  0.595050  0.595050  1.0  -0.5763
  O  O282  1  0.106420  0.507250  0.507250  1.0  -0.5611
  O  O283  1  0.000000  0.814000  0.479560  1.0  -0.5743
  O  O284  1  0.000000  0.828460  0.386880  1.0  -0.5417
  O  O285  1  0.000000  0.512910  0.404950  1.0  -0.5755
  O  O286  1  0.000000  0.599170  0.492750  1.0  -0.5609
  O  O287  1  0.665560  0.186000  0.186000  1.0  -0.5772
  O  O288  1  0.558420  0.171540  0.171540  1.0  -0.5285
  O  O289  1  0.892040  0.487090  0.487090  1.0  -0.5752
  O  O290  1  0.893580  0.400830  0.400830  1.0  -0.5613
  O  O291  1  0.000000  0.511660  0.000000  1.0  -0.9081
  O  O292  1  0.000000  0.721360  0.000000  1.0  -0.578
  O  O293  1  0.511660  0.000000  0.000000  1.0  -0.9103
  O  O294  1  0.721360  0.000000  0.000000  1.0  -0.5742
  O  O295  1  0.488340  0.488340  0.488340  1.0  -0.9122
  O  O296  1  0.278640  0.278640  0.278640  1.0  -0.5854
  O  O297  1  0.000000  0.000000  0.511660  1.0  -0.9119
  O  O298  1  0.000000  0.000000  0.721360  1.0  -0.5786
  O  O299  1  0.933520  0.611460  0.000000  1.0  -0.7249
  O  O300  1  0.611460  0.933520  0.000000  1.0  -0.724
  O  O301  1  0.388540  0.388540  0.322060  1.0  -0.731
  O  O302  1  0.066480  0.066480  0.677940  1.0  -0.7179
  O  O303  1  0.322060  0.388540  0.388540  1.0  -0.7259
  O  O304  1  0.677940  0.066480  0.066480  1.0  -0.7154
  O  O305  1  0.000000  0.933520  0.611460  1.0  -0.73
  O  O306  1  0.000000  0.611460  0.933520  1.0  -0.7337
  O  O307  1  0.933520  0.000000  0.611460  1.0  -0.7251
  O  O308  1  0.611460  0.000000  0.933520  1.0  -0.731
  O  O309  1  0.066480  0.677940  0.066480  1.0  -0.7204
  O  O310  1  0.388540  0.322060  0.388540  1.0  -0.728
