# generated using pymatgen
data_CoH8C15(NO)4
_symmetry_space_group_name_H-M   'P 1'
_cell_length_a   8.02310000
_cell_length_b   9.53040000
_cell_length_c   15.47140000
_cell_angle_alpha   96.70900000
_cell_angle_beta   103.63700000
_cell_angle_gamma   99.06300000
_symmetry_Int_Tables_number   1
_chemical_formula_structural   CoH8C15(NO)4
_chemical_formula_sum   'Co2 H16 C30 N8 O8'
_cell_volume   1120.58672200
_cell_formula_units_Z   2
loop_
 _symmetry_equiv_pos_site_id
 _symmetry_equiv_pos_as_xyz
  1  'x, y, z'
loop_
 _atom_site_type_symbol
 _atom_site_label
 _atom_site_symmetry_multiplicity
 _atom_site_fract_x
 _atom_site_fract_y
 _atom_site_fract_z
 _atom_site_occupancy
 _atom_site_charge
  Co  Co1  1  0.000000  0.500000  0.000000  1.0  0.9066
  Co  Co2  1  0.000000  0.000000  0.500000  1.0  0.9444
  H  H3  1  0.445000  0.743900  0.833900  1.0  0.1196
  H  H4  1  0.113100  0.466500  0.621200  1.0  0.1201
  H  H5  1  0.524300  0.336400  0.777900  1.0  0.1069
  H  H6  1  0.156500  0.719000  0.559400  1.0  0.106
  H  H7  1  0.238200  0.057000  0.888900  1.0  0.1308
  H  H8  1  0.264300  0.040500  0.044000  1.0  0.1192
  H  H9  1  0.171900  0.824400  0.084800  1.0  0.0875
  H  H10  1  0.033700  0.629200  0.832700  1.0  0.085
  H  H11  1  0.555000  0.256100  0.166100  1.0  0.1197
  H  H12  1  0.886900  0.533500  0.378800  1.0  0.1204
  H  H13  1  0.475700  0.663600  0.222100  1.0  0.1068
  H  H14  1  0.843500  0.281000  0.440600  1.0  0.1042
  H  H15  1  0.761800  0.943000  0.111100  1.0  0.1313
  H  H16  1  0.735700  0.959500  0.956000  1.0  0.1197
  H  H17  1  0.828100  0.175600  0.915200  1.0  0.0876
  H  H18  1  0.966300  0.370800  0.167300  1.0  0.0849
  C  C19  1  0.659500  0.572200  0.903100  1.0  0.6617
  C  C20  1  0.504800  0.543000  0.819800  1.0  -0.1158
  C  C21  1  0.411500  0.651000  0.798100  1.0  -0.1016
  C  C22  1  0.267700  0.620800  0.722900  1.0  0.103
  C  C23  1  0.214500  0.485900  0.670400  1.0  -0.1187
  C  C24  1  0.311100  0.378500  0.690400  1.0  -0.098
  C  C25  1  0.456900  0.408400  0.764700  1.0  -0.0085
  C  C26  1  0.260700  0.233700  0.631500  1.0  0.667
  C  C27  1  0.138100  0.771500  0.611300  1.0  0.1417
  C  C28  1  0.128200  0.839300  0.749100  1.0  0.2816
  C  C29  1  0.138300  0.840900  0.845400  1.0  -0.0844
  C  C30  1  0.203900  0.967800  0.907500  1.0  -0.0192
  C  C31  1  0.217000  0.957700  0.999100  1.0  -0.1543
  C  C32  1  0.161400  0.828500  0.022700  1.0  0.1572
  C  C33  1  0.081800  0.714100  0.875900  1.0  0.1548
  C  C34  1  0.340500  0.427800  0.096900  1.0  0.6618
  C  C35  1  0.495200  0.457000  0.180200  1.0  -0.1164
  C  C36  1  0.588500  0.349000  0.201900  1.0  -0.1024
  C  C37  1  0.732300  0.379200  0.277100  1.0  0.1032
  C  C38  1  0.785500  0.514100  0.329600  1.0  -0.1195
  C  C39  1  0.688900  0.621500  0.309600  1.0  -0.0979
  C  C40  1  0.543100  0.591600  0.235300  1.0  -0.0095
  C  C41  1  0.739300  0.766300  0.368500  1.0  0.6663
  C  C42  1  0.861900  0.228500  0.388700  1.0  0.14
  C  C43  1  0.871800  0.160700  0.250900  1.0  0.2816
  C  C44  1  0.861700  0.159100  0.154600  1.0  -0.0831
  C  C45  1  0.796100  0.032200  0.092500  1.0  -0.0177
  C  C46  1  0.783000  0.042300  0.000900  1.0  -0.157
  C  C47  1  0.838600  0.171500  0.977300  1.0  0.1583
  C  C48  1  0.918200  0.285900  0.124100  1.0  0.155
  N  N49  1  0.177300  0.735400  0.696080  1.0  -0.0486
  N  N50  1  0.072100  0.887700  0.612040  1.0  -0.2153
  N  N51  1  0.064100  0.932500  0.699590  1.0  -0.2789
  N  N52  1  0.091900  0.705600  0.962900  1.0  -0.3358
  N  N53  1  0.822700  0.264600  0.303920  1.0  -0.0492
  N  N54  1  0.927900  0.112300  0.387960  1.0  -0.2119
  N  N55  1  0.935900  0.067500  0.300410  1.0  -0.2792
  N  N56  1  0.908100  0.294400  0.037100  1.0  -0.3384
  O  O57  1  0.673600  0.679600  0.961380  1.0  -0.5836
  O  O58  1  0.761500  0.481600  0.906820  1.0  -0.6108
  O  O59  1  0.377800  0.157900  0.632720  1.0  -0.5829
  O  O60  1  0.104700  0.197600  0.582590  1.0  -0.6079
  O  O61  1  0.326400  0.320400  0.038620  1.0  -0.586
  O  O62  1  0.238500  0.518400  0.093180  1.0  -0.6109
  O  O63  1  0.622200  0.842100  0.367280  1.0  -0.5818
  O  O64  1  0.895300  0.802400  0.417410  1.0  -0.6087
