# generated using pymatgen
data_CuH8C15(NO)4
_symmetry_space_group_name_H-M   'P 1'
_cell_length_a   7.82920000
_cell_length_b   9.36210000
_cell_length_c   15.14670000
_cell_angle_alpha   94.70300000
_cell_angle_beta   102.88900000
_cell_angle_gamma   101.23100000
_symmetry_Int_Tables_number   1
_chemical_formula_structural   CuH8C15(NO)4
_chemical_formula_sum   'Cu2 H16 C30 N8 O8'
_cell_volume   1052.34647330
_cell_formula_units_Z   2
loop_
 _symmetry_equiv_pos_site_id
 _symmetry_equiv_pos_as_xyz
  1  'x, y, z'
loop_
 _atom_site_type_symbol
 _atom_site_label
 _atom_site_symmetry_multiplicity
 _atom_site_fract_x
 _atom_site_fract_y
 _atom_site_fract_z
 _atom_site_occupancy
 _atom_site_charge
  Cu  Cu1  1  0.000000  0.500000  0.000000  1.0  0.6392
  Cu  Cu2  1  0.000000  0.000000  0.500000  1.0  0.7746
  H  H3  1  0.460600  0.741900  0.824100  1.0  0.1084
  H  H4  1  0.117100  0.461100  0.611900  1.0  0.111
  H  H5  1  0.537400  0.329800  0.768600  1.0  0.1054
  H  H6  1  0.156300  0.720800  0.548400  1.0  0.1034
  H  H7  1  0.269000  0.054300  0.883600  1.0  0.1179
  H  H8  1  0.287900  0.039900  0.040500  1.0  0.1125
  H  H9  1  0.190200  0.811100  0.086200  1.0  0.0845
  H  H10  1  0.039500  0.619900  0.831200  1.0  0.0852
  H  H11  1  0.539400  0.258100  0.175900  1.0  0.1087
  H  H12  1  0.882900  0.538900  0.388100  1.0  0.1105
  H  H13  1  0.462600  0.670200  0.231400  1.0  0.1051
  H  H14  1  0.843700  0.279200  0.451600  1.0  0.1034
  H  H15  1  0.731000  0.945700  0.116400  1.0  0.1182
  H  H16  1  0.712100  0.960100  0.959500  1.0  0.1122
  H  H17  1  0.809800  0.188900  0.913800  1.0  0.0841
  H  H18  1  0.960500  0.380100  0.168800  1.0  0.0853
  C  C19  1  0.674700  0.570900  0.895700  1.0  0.6832
  C  C20  1  0.521300  0.539100  0.811300  1.0  -0.1571
  C  C21  1  0.425400  0.648000  0.788400  1.0  -0.0596
  C  C22  1  0.279000  0.618200  0.713500  1.0  0.121
  C  C23  1  0.221700  0.481100  0.660900  1.0  -0.072
  C  C24  1  0.319300  0.373300  0.680800  1.0  -0.1207
  C  C25  1  0.469800  0.402800  0.755600  1.0  0.0046
  C  C26  1  0.265200  0.226000  0.621800  1.0  0.7071
  C  C27  1  0.140800  0.771900  0.601800  1.0  0.1598
  C  C28  1  0.138800  0.837100  0.743100  1.0  0.2673
  C  C29  1  0.153400  0.836200  0.841500  1.0  -0.0257
  C  C30  1  0.227500  0.963500  0.903900  1.0  -0.0486
  C  C31  1  0.239600  0.955000  0.996500  1.0  -0.1521
  C  C32  1  0.178600  0.818100  0.023000  1.0  0.1367
  C  C33  1  0.092200  0.705900  0.873900  1.0  0.139
  C  C34  1  0.325300  0.429100  0.104300  1.0  0.6823
  C  C35  1  0.478700  0.460900  0.188700  1.0  -0.1574
  C  C36  1  0.574600  0.352000  0.211600  1.0  -0.0608
  C  C37  1  0.721000  0.381800  0.286500  1.0  0.1204
  C  C38  1  0.778300  0.518900  0.339100  1.0  -0.0727
  C  C39  1  0.680700  0.626700  0.319200  1.0  -0.1206
  C  C40  1  0.530200  0.597200  0.244400  1.0  0.0035
  C  C41  1  0.734800  0.774000  0.378200  1.0  0.7063
  C  C42  1  0.859200  0.228100  0.398200  1.0  0.1572
  C  C43  1  0.861200  0.162900  0.256900  1.0  0.2683
  C  C44  1  0.846600  0.163800  0.158500  1.0  -0.0243
  C  C45  1  0.772500  0.036500  0.096100  1.0  -0.0477
  C  C46  1  0.760400  0.045000  0.003500  1.0  -0.1542
  C  C47  1  0.821400  0.181900  0.977000  1.0  0.1388
  C  C48  1  0.907800  0.294100  0.126100  1.0  0.1386
  N  N49  1  0.185400  0.734700  0.687100  1.0  -0.0693
  N  N50  1  0.073200  0.888900  0.604200  1.0  -0.2048
  N  N51  1  0.071600  0.932300  0.693600  1.0  -0.2894
  N  N52  1  0.104500  0.696500  0.962800  1.0  -0.3183
  N  N53  1  0.814600  0.265300  0.312900  1.0  -0.0695
  N  N54  1  0.926800  0.111100  0.395800  1.0  -0.2046
  N  N55  1  0.928400  0.067700  0.306400  1.0  -0.2892
  N  N56  1  0.895500  0.303500  0.037200  1.0  -0.3189
  O  O57  1  0.693000  0.683300  0.950300  1.0  -0.5627
  O  O58  1  0.777000  0.478100  0.902940  1.0  -0.5936
  O  O59  1  0.380400  0.150000  0.619600  1.0  -0.5096
  O  O60  1  0.100300  0.189700  0.576840  1.0  -0.5682
  O  O61  1  0.307000  0.316700  0.049700  1.0  -0.5639
  O  O62  1  0.223000  0.521900  0.097060  1.0  -0.5928
  O  O63  1  0.619600  0.850000  0.380400  1.0  -0.5075
  O  O64  1  0.899700  0.810300  0.423160  1.0  -0.568
