# generated using pymatgen
data_Cu13H36C32(N12O)4
_symmetry_space_group_name_H-M   'P 1'
_cell_length_a   15.32500000
_cell_length_b   16.47200000
_cell_length_c   17.07200000
_cell_angle_alpha   70.14400000
_cell_angle_beta   64.56700000
_cell_angle_gamma   67.51600000
_symmetry_Int_Tables_number   1
_chemical_formula_structural   Cu13H36C32(N12O)4
_chemical_formula_sum   'Cu13 H36 C32 N48 O4'
_cell_volume   3515.69652512
_cell_formula_units_Z   1
loop_
 _symmetry_equiv_pos_site_id
 _symmetry_equiv_pos_as_xyz
  1  'x, y, z'
loop_
 _atom_site_type_symbol
 _atom_site_label
 _atom_site_symmetry_multiplicity
 _atom_site_fract_x
 _atom_site_fract_y
 _atom_site_fract_z
 _atom_site_occupancy
 _atom_site_charge
  Cu  Cu1  1  0.430810  0.315580  0.122370  1.0  0.7467
  Cu  Cu2  1  0.141280  0.120450  0.333333  1.0  0.6107
  Cu  Cu3  1  0.872950  0.069770  0.689960  1.0  0.7961
  Cu  Cu4  1  0.789160  0.082100  0.916550  1.0  0.718
  Cu  Cu5  1  0.644140  0.307040  0.933710  1.0  0.7841
  Cu  Cu6  1  0.569190  0.684420  0.877630  1.0  0.7473
  Cu  Cu7  1  0.858720  0.879550  0.666667  1.0  0.6117
  Cu  Cu8  1  0.127050  0.930230  0.310040  1.0  0.7993
  Cu  Cu9  1  0.210840  0.917900  0.083450  1.0  0.7176
  Cu  Cu10  1  0.355860  0.692960  0.066290  1.0  0.787
  Cu  Cu11  1  0.500000  0.500000  0.000000  1.0  0.8452
  Cu  Cu12  1  0.000000  0.000000  0.000000  1.0  0.5511
  Cu  Cu13  1  0.000000  0.000000  0.500000  1.0  0.8306
  H  H14  1  0.997600  0.073600  0.348800  1.0  0.3666
  H  H15  1  0.584200  0.357700  0.069900  1.0  0.2725
  H  H16  1  0.403600  0.227200  0.335500  1.0  0.0904
  H  H17  1  0.279500  0.136200  0.423600  1.0  0.0891
  H  H18  1  0.071500  0.278000  0.450900  1.0  0.0904
  H  H19  1  0.946900  0.262000  0.603200  1.0  0.0916
  H  H20  1  0.264500  0.184800  0.122100  1.0  0.0892
  H  H21  1  0.702900  0.904300  0.984800  1.0  0.086
  H  H22  1  0.165100  0.982300  0.808400  1.0  0.0908
  H  H23  1  0.116200  0.020900  0.676500  1.0  0.0886
  H  H24  1  0.810700  0.322100  0.016100  1.0  0.0953
  H  H25  1  0.947500  0.185000  0.051800  1.0  0.0961
  H  H26  1  0.716600  0.269300  0.630900  1.0  0.0958
  H  H27  1  0.624900  0.373000  0.734800  1.0  0.0959
  H  H28  1  0.598500  0.001400  0.073900  1.0  0.0848
  H  H29  1  0.449300  0.099900  0.161700  1.0  0.0996
  H  H30  1  0.237900  0.424300  0.277400  1.0  0.0902
  H  H31  1  0.202200  0.589600  0.249000  1.0  0.0862
  H  H32  1  0.002400  0.926400  0.651200  1.0  0.3651
  H  H33  1  0.415800  0.642300  0.930100  1.0  0.2741
  H  H34  1  0.596400  0.772800  0.664500  1.0  0.0942
  H  H35  1  0.720500  0.863800  0.576400  1.0  0.0879
  H  H36  1  0.928500  0.722000  0.549100  1.0  0.0907
  H  H37  1  0.053100  0.738000  0.396800  1.0  0.0917
  H  H38  1  0.735500  0.815200  0.877900  1.0  0.0931
  H  H39  1  0.297100  0.095700  0.015200  1.0  0.0814
  H  H40  1  0.834900  0.017700  0.191600  1.0  0.0919
  H  H41  1  0.883800  0.979100  0.323500  1.0  0.0924
  H  H42  1  0.189300  0.677900  0.983900  1.0  0.0942
  H  H43  1  0.052500  0.815000  0.948200  1.0  0.0923
  H  H44  1  0.283400  0.730700  0.369100  1.0  0.0956
  H  H45  1  0.375100  0.627000  0.265200  1.0  0.0952
  H  H46  1  0.401500  0.998600  0.926100  1.0  0.0842
  H  H47  1  0.550700  0.900100  0.838300  1.0  0.0987
  H  H48  1  0.762100  0.575700  0.722600  1.0  0.092
  H  H49  1  0.797800  0.410400  0.751000  1.0  0.0868
  C  C50  1  0.358300  0.218900  0.316500  1.0  -0.0656
  C  C51  1  0.290300  0.170000  0.364400  1.0  -0.0668
  C  C52  1  0.042200  0.229500  0.481400  1.0  -0.0018
  C  C53  1  0.974000  0.221100  0.565000  1.0  -0.0644
  C  C54  1  0.249600  0.129600  0.135900  1.0  -0.0678
  C  C55  1  0.733300  0.919400  0.922200  1.0  -0.0309
  C  C56  1  0.098500  0.000800  0.807900  1.0  -0.0545
  C  C57  1  0.071300  0.022300  0.735700  1.0  -0.0344
  C  C58  1  0.825900  0.263400  0.007600  1.0  -0.0562
  C  C59  1  0.902100  0.188000  0.026000  1.0  -0.065
  C  C60  1  0.716900  0.257200  0.689300  1.0  -0.056
  C  C61  1  0.666667  0.313500  0.745800  1.0  -0.0663
  C  C62  1  0.584400  0.064700  0.064300  1.0  -0.0232
  C  C63  1  0.502800  0.118100  0.111800  1.0  -0.054
  C  C64  1  0.273400  0.460900  0.226600  1.0  -0.0304
  C  C65  1  0.255100  0.551400  0.211300  1.0  -0.04
  C  C66  1  0.641700  0.781100  0.683500  1.0  -0.064
  C  C67  1  0.709700  0.830000  0.635600  1.0  -0.0649
  C  C68  1  0.957800  0.770500  0.518600  1.0  -0.0022
  C  C69  1  0.026000  0.778900  0.435000  1.0  -0.0622
  C  C70  1  0.750400  0.870400  0.864100  1.0  -0.0702
  C  C71  1  0.266700  0.080600  0.077800  1.0  -0.0307
  C  C72  1  0.901500  0.999200  0.192100  1.0  -0.0563
  C  C73  1  0.928700  0.977700  0.264300  1.0  -0.0342
  C  C74  1  0.174100  0.736600  0.992400  1.0  -0.0525
  C  C75  1  0.097900  0.812000  0.974000  1.0  -0.0664
  C  C76  1  0.283100  0.742800  0.310700  1.0  -0.0553
  C  C77  1  0.333400  0.686500  0.254200  1.0  -0.0621
  C  C78  1  0.415600  0.935300  0.935700  1.0  -0.0246
  C  C79  1  0.497200  0.881900  0.888200  1.0  -0.0544
  C  C80  1  0.726600  0.539100  0.773400  1.0  -0.0313
  C  C81  1  0.744900  0.448600  0.788700  1.0  -0.0418
  N  N82  1  0.242200  0.179200  0.311900  1.0  -0.1574
  N  N83  1  0.280300  0.228900  0.232300  1.0  -0.2097
  N  N84  1  0.347300  0.252900  0.236100  1.0  -0.2043
  N  N85  1  0.952000  0.142300  0.583300  1.0  -0.2263
  N  N86  1  0.004500  0.106800  0.511300  1.0  -0.0585
  N  N87  1  0.061400  0.159500  0.449300  1.0  -0.2421
  N  N88  1  0.207700  0.083800  0.215600  1.0  -0.1743
  N  N89  1  0.801500  0.988100  0.793400  1.0  -0.0499
  N  N90  1  0.766600  0.992600  0.876100  1.0  -0.2946
  N  N91  1  0.972600  0.045300  0.761400  1.0  -0.2079
  N  N92  1  0.938200  0.038200  0.848300  1.0  -0.0699
  N  N93  1  0.015300  0.010500  0.876700  1.0  -0.2101
  N  N94  1  0.899700  0.121300  0.001000  1.0  -0.2167
  N  N95  1  0.825700  0.150300  0.970000  1.0  -0.0741
  N  N96  1  0.778300  0.235500  0.975100  1.0  -0.16
  N  N97  1  0.768400  0.179500  0.731000  1.0  -0.2802
  N  N98  1  0.747400  0.190200  0.810900  1.0  -0.0979
  N  N99  1  0.687100  0.268600  0.822100  1.0  -0.2304
  N  N100  1  0.643800  0.115000  0.000100  1.0  -0.3275
  N  N101  1  0.594400  0.198900  0.009900  1.0  -0.0899
  N  N102  1  0.510000  0.203600  0.076000  1.0  -0.2342
  N  N103  1  0.350200  0.433700  0.157100  1.0  -0.2583
  N  N104  1  0.379800  0.505000  0.101300  1.0  -0.0678
  N  N105  1  0.322400  0.577900  0.135700  1.0  -0.2074
  N  N106  1  0.757800  0.820800  0.688100  1.0  -0.157
  N  N107  1  0.719700  0.771100  0.767700  1.0  -0.2104
  N  N108  1  0.652700  0.747100  0.763900  1.0  -0.2038
  N  N109  1  0.048000  0.857700  0.416700  1.0  -0.2267
  N  N110  1  0.995500  0.893200  0.488700  1.0  -0.0597
  N  N111  1  0.938600  0.840500  0.550700  1.0  -0.2412
  N  N112  1  0.792300  0.916200  0.784400  1.0  -0.1752
  N  N113  1  0.198500  0.011900  0.206600  1.0  -0.0507
  N  N114  1  0.233400  0.007400  0.123900  1.0  -0.2962
  N  N115  1  0.027400  0.954700  0.238600  1.0  -0.2067
  N  N116  1  0.061800  0.961800  0.151700  1.0  -0.0723
  N  N117  1  0.984700  0.989500  0.123300  1.0  -0.2091
  N  N118  1  0.100300  0.878700  0.999000  1.0  -0.2173
  N  N119  1  0.174300  0.849700  0.030000  1.0  -0.0737
  N  N120  1  0.221700  0.764500  0.024900  1.0  -0.1624
  N  N121  1  0.231600  0.820500  0.269000  1.0  -0.2773
  N  N122  1  0.252600  0.809800  0.189100  1.0  -0.095
  N  N123  1  0.312900  0.731400  0.177900  1.0  -0.2309
  N  N124  1  0.356200  0.885000  0.999900  1.0  -0.3276
  N  N125  1  0.405600  0.801100  0.990100  1.0  -0.092
  N  N126  1  0.490000  0.796400  0.924000  1.0  -0.234
  N  N127  1  0.649800  0.566300  0.842900  1.0  -0.2588
  N  N128  1  0.620200  0.495000  0.898700  1.0  -0.0692
  N  N129  1  0.677600  0.422100  0.864300  1.0  -0.206
  O  O130  1  0.056200  0.037900  0.369200  1.0  -0.9126
  O  O131  1  0.542900  0.367900  0.033500  1.0  -0.8336
  O  O132  1  0.943800  0.962100  0.630800  1.0  -0.9129
  O  O133  1  0.457100  0.632100  0.966500  1.0  -0.8333
