# generated using pymatgen
data_U3H10(C6O7)2
_symmetry_space_group_name_H-M   'P 1'
_cell_length_a   8.23310000
_cell_length_b   10.86510000
_cell_length_c   28.55820000
_cell_angle_alpha   90.00000000
_cell_angle_beta   90.00000000
_cell_angle_gamma   90.00000000
_symmetry_Int_Tables_number   1
_chemical_formula_structural   U3H10(C6O7)2
_chemical_formula_sum   'U12 H40 C48 O56'
_cell_volume   2554.62965315
_cell_formula_units_Z   4
loop_
 _symmetry_equiv_pos_site_id
 _symmetry_equiv_pos_as_xyz
  1  'x, y, z'
loop_
 _atom_site_type_symbol
 _atom_site_label
 _atom_site_symmetry_multiplicity
 _atom_site_fract_x
 _atom_site_fract_y
 _atom_site_fract_z
 _atom_site_occupancy
 _atom_site_charge
  U  U1  1  0.647610  0.666510  0.927790  1.0  1.3517
  U  U2  1  0.396590  0.167860  0.929750  1.0  1.3467
  U  U3  1  0.281460  0.557060  0.750860  1.0  1.1751
  U  U4  1  0.852390  0.333490  0.427790  1.0  1.3509
  U  U5  1  0.103410  0.832140  0.429750  1.0  1.3468
  U  U6  1  0.218540  0.442940  0.250860  1.0  1.1758
  U  U7  1  0.352390  0.166510  0.572210  1.0  1.3517
  U  U8  1  0.603410  0.667860  0.570250  1.0  1.3464
  U  U9  1  0.718540  0.057060  0.749140  1.0  1.1752
  U  U10  1  0.147610  0.833490  0.072210  1.0  1.3524
  U  U11  1  0.896590  0.332140  0.070250  1.0  1.3464
  U  U12  1  0.781460  0.942940  0.249140  1.0  1.1762
  H  H13  1  0.334000  0.786600  0.961800  1.0  0.3639
  H  H14  1  0.706900  0.252100  0.963500  1.0  0.3574
  H  H15  1  0.093400  0.877500  0.918300  1.0  0.1159
  H  H16  1  0.048200  0.814000  0.870500  1.0  0.1295
  H  H17  1  0.202400  0.553600  0.937400  1.0  0.1248
  H  H18  1  0.057800  0.591900  0.904900  1.0  0.1454
  H  H19  1  0.953700  0.367100  0.912900  1.0  0.1238
  H  H20  1  0.984200  0.303500  0.864500  1.0  0.131
  H  H21  1  0.986800  0.094200  0.901900  1.0  0.143
  H  H22  1  0.840000  0.055100  0.933400  1.0  0.1097
  H  H23  1  0.166000  0.213400  0.461800  1.0  0.3673
  H  H24  1  0.793100  0.747900  0.463500  1.0  0.3552
  H  H25  1  0.406600  0.122500  0.418300  1.0  0.1162
  H  H26  1  0.451800  0.186000  0.370500  1.0  0.1293
  H  H27  1  0.297600  0.446400  0.437400  1.0  0.1228
  H  H28  1  0.442200  0.408100  0.404900  1.0  0.1465
  H  H29  1  0.546300  0.632900  0.412900  1.0  0.1234
  H  H30  1  0.515800  0.696500  0.364500  1.0  0.1313
  H  H31  1  0.513200  0.905800  0.401900  1.0  0.1432
  H  H32  1  0.660000  0.944900  0.433400  1.0  0.108
  H  H33  1  0.666000  0.286600  0.538200  1.0  0.3602
  H  H34  1  0.293100  0.752100  0.536500  1.0  0.3478
  H  H35  1  0.906600  0.377500  0.581700  1.0  0.1164
  H  H36  1  0.951800  0.314000  0.629500  1.0  0.1296
  H  H37  1  0.797600  0.053600  0.562600  1.0  0.1229
  H  H38  1  0.942200  0.091900  0.595100  1.0  0.1462
  H  H39  1  0.046300  0.867100  0.587100  1.0  0.1236
  H  H40  1  0.015800  0.803500  0.635500  1.0  0.1317
  H  H41  1  0.013200  0.594200  0.598100  1.0  0.1414
  H  H42  1  0.160000  0.555100  0.566600  1.0  0.1092
  H  H43  1  0.834000  0.713400  0.038200  1.0  0.3518
  H  H44  1  0.206900  0.247900  0.036500  1.0  0.3534
  H  H45  1  0.593400  0.622500  0.081700  1.0  0.1169
  H  H46  1  0.548200  0.686000  0.129500  1.0  0.1309
  H  H47  1  0.702400  0.946400  0.062600  1.0  0.1211
  H  H48  1  0.557800  0.908100  0.095100  1.0  0.1454
  H  H49  1  0.453700  0.132900  0.087100  1.0  0.1235
  H  H50  1  0.484200  0.196500  0.135500  1.0  0.1314
  H  H51  1  0.486800  0.405800  0.098100  1.0  0.1417
  H  H52  1  0.340000  0.444900  0.066600  1.0  0.1087
  C  C53  1  0.244000  0.722200  0.904600  1.0  0.2783
  C  C54  1  0.319400  0.659300  0.861200  1.0  0.6347
  C  C55  1  0.137800  0.839000  0.890400  1.0  -0.4141
  C  C56  1  0.244900  0.928700  0.864800  1.0  0.7505
  C  C57  1  0.134800  0.622200  0.927800  1.0  -0.4234
  C  C58  1  0.043300  0.669100  0.969600  1.0  0.7517
  C  C59  1  0.802100  0.223100  0.901300  1.0  0.3049
  C  C60  1  0.715900  0.163100  0.859800  1.0  0.6259
  C  C61  1  0.900400  0.331400  0.885900  1.0  -0.4323
  C  C62  1  0.798000  0.431300  0.861500  1.0  0.7566
  C  C63  1  0.908500  0.123900  0.924600  1.0  -0.4163
  C  C64  1  0.998700  0.167900  0.967500  1.0  0.7229
  C  C65  1  0.256000  0.277800  0.404600  1.0  0.2784
  C  C66  1  0.180600  0.340700  0.361200  1.0  0.6358
  C  C67  1  0.362200  0.161000  0.390400  1.0  -0.4087
  C  C68  1  0.255100  0.071300  0.364800  1.0  0.7509
  C  C69  1  0.365200  0.377800  0.427800  1.0  -0.4189
  C  C70  1  0.456700  0.330900  0.469600  1.0  0.7518
  C  C71  1  0.697900  0.776900  0.401300  1.0  0.3041
  C  C72  1  0.784100  0.836900  0.359800  1.0  0.6253
  C  C73  1  0.599600  0.668600  0.385900  1.0  -0.4238
  C  C74  1  0.702000  0.568700  0.361500  1.0  0.7547
  C  C75  1  0.591500  0.876100  0.424600  1.0  -0.4132
  C  C76  1  0.501300  0.832100  0.467500  1.0  0.7216
  C  C77  1  0.756000  0.222200  0.595400  1.0  0.2799
  C  C78  1  0.680600  0.159300  0.638800  1.0  0.6356
  C  C79  1  0.862200  0.339000  0.609600  1.0  -0.4121
  C  C80  1  0.755100  0.428700  0.635200  1.0  0.7524
  C  C81  1  0.865200  0.122200  0.572200  1.0  -0.4262
  C  C82  1  0.956700  0.169100  0.530400  1.0  0.753
  C  C83  1  0.197900  0.723100  0.598700  1.0  0.305
  C  C84  1  0.284100  0.663100  0.640200  1.0  0.6293
  C  C85  1  0.099600  0.831400  0.614100  1.0  -0.434
  C  C86  1  0.202000  0.931300  0.638500  1.0  0.757
  C  C87  1  0.091500  0.623900  0.575400  1.0  -0.4181
  C  C88  1  0.001300  0.667900  0.532500  1.0  0.7252
  C  C89  1  0.744000  0.777800  0.095400  1.0  0.279
  C  C90  1  0.819400  0.840700  0.138800  1.0  0.6343
  C  C91  1  0.637800  0.661000  0.109600  1.0  -0.4154
  C  C92  1  0.744900  0.571300  0.135200  1.0  0.753
  C  C93  1  0.634800  0.877800  0.072200  1.0  -0.4233
  C  C94  1  0.543300  0.830900  0.030400  1.0  0.7532
  C  C95  1  0.302100  0.276900  0.098700  1.0  0.3063
  C  C96  1  0.215900  0.336900  0.140200  1.0  0.6262
  C  C97  1  0.400400  0.168600  0.114100  1.0  -0.4315
  C  C98  1  0.298000  0.068700  0.138500  1.0  0.7568
  C  C99  1  0.408500  0.376100  0.075400  1.0  -0.4155
  C  C100  1  0.498700  0.332100  0.032500  1.0  0.725
  O  O101  1  0.373500  0.759800  0.933800  1.0  -0.5867
  O  O102  1  0.469200  0.642700  0.862500  1.0  -0.6146
  O  O103  1  0.226700  0.628700  0.828700  1.0  -0.6036
  O  O104  1  0.252900  0.038400  0.881100  1.0  -0.6415
  O  O105  1  0.313000  0.896800  0.827500  1.0  -0.6084
  O  O106  1  0.893200  0.646900  0.972800  1.0  -0.6522
  O  O107  1  0.121900  0.723400  0.000700  1.0  -0.6563
  O  O108  1  0.672600  0.264200  0.932400  1.0  -0.584
  O  O109  1  0.565400  0.144400  0.862900  1.0  -0.6245
  O  O110  1  0.803400  0.130200  0.825900  1.0  -0.5993
  O  O111  1  0.796800  0.539400  0.877500  1.0  -0.6631
  O  O112  1  0.722200  0.400400  0.825800  1.0  -0.6155
  O  O113  1  0.918800  0.226700  0.998500  1.0  -0.6654
  O  O114  1  0.147400  0.145500  0.971600  1.0  -0.6382
  O  O115  1  0.126500  0.240200  0.433800  1.0  -0.5858
  O  O116  1  0.030800  0.357300  0.362500  1.0  -0.6141
  O  O117  1  0.273300  0.371300  0.328700  1.0  -0.6041
  O  O118  1  0.247100  0.961600  0.381100  1.0  -0.6421
  O  O119  1  0.187000  0.103200  0.327500  1.0  -0.6097
  O  O120  1  0.606800  0.353100  0.472800  1.0  -0.6501
  O  O121  1  0.378100  0.276600  0.500700  1.0  -0.6556
  O  O122  1  0.827400  0.735800  0.432400  1.0  -0.5841
  O  O123  1  0.934600  0.855600  0.362900  1.0  -0.6224
  O  O124  1  0.696600  0.869800  0.325900  1.0  -0.5972
  O  O125  1  0.703200  0.460600  0.377500  1.0  -0.6633
  O  O126  1  0.777800  0.599600  0.325800  1.0  -0.6146
  O  O127  1  0.581200  0.773300  0.498500  1.0  -0.6659
  O  O128  1  0.352600  0.854500  0.471600  1.0  -0.6378
  O  O129  1  0.626500  0.259800  0.566200  1.0  -0.5849
  O  O130  1  0.530800  0.142700  0.637500  1.0  -0.6186
  O  O131  1  0.773300  0.128700  0.671300  1.0  -0.6068
  O  O132  1  0.747100  0.538400  0.618900  1.0  -0.642
  O  O133  1  0.687000  0.396800  0.672500  1.0  -0.6151
  O  O134  1  0.106800  0.146900  0.527200  1.0  -0.6506
  O  O135  1  0.878100  0.223400  0.499300  1.0  -0.6556
  O  O136  1  0.327400  0.764200  0.567600  1.0  -0.5822
  O  O137  1  0.434600  0.644400  0.637100  1.0  -0.6236
  O  O138  1  0.196600  0.630200  0.674100  1.0  -0.6002
  O  O139  1  0.203200  0.039400  0.622500  1.0  -0.6617
  O  O140  1  0.277800  0.900400  0.674200  1.0  -0.6146
  O  O141  1  0.081200  0.726700  0.501500  1.0  -0.6672
  O  O142  1  0.852600  0.645500  0.528400  1.0  -0.6384
  O  O143  1  0.873500  0.740200  0.066200  1.0  -0.5854
  O  O144  1  0.969200  0.857300  0.137500  1.0  -0.6198
  O  O145  1  0.726700  0.871300  0.171300  1.0  -0.6052
  O  O146  1  0.752900  0.461600  0.118900  1.0  -0.6433
  O  O147  1  0.813000  0.603200  0.172500  1.0  -0.6144
  O  O148  1  0.393200  0.853100  0.027200  1.0  -0.6502
  O  O149  1  0.621900  0.776600  0.999300  1.0  -0.6567
  O  O150  1  0.172600  0.235800  0.067600  1.0  -0.5817
  O  O151  1  0.065400  0.355600  0.137100  1.0  -0.6307
  O  O152  1  0.303400  0.369800  0.174100  1.0  -0.5996
  O  O153  1  0.296800  0.960600  0.122500  1.0  -0.663
  O  O154  1  0.222200  0.099600  0.174200  1.0  -0.6135
  O  O155  1  0.418800  0.273300  0.001500  1.0  -0.6661
  O  O156  1  0.647400  0.354500  0.028400  1.0  -0.6382
