# generated using pymatgen
data_CdH5C9N7
_symmetry_space_group_name_H-M   'P 1'
_cell_length_a   13.16800000
_cell_length_b   24.39000000
_cell_length_c   15.89100000
_cell_angle_alpha   90.00000000
_cell_angle_beta   90.00000000
_cell_angle_gamma   90.00000000
_symmetry_Int_Tables_number   1
_chemical_formula_structural   CdH5C9N7
_chemical_formula_sum   'Cd16 H80 C144 N112'
_cell_volume   5103.67306032
_cell_formula_units_Z   16
loop_
 _symmetry_equiv_pos_site_id
 _symmetry_equiv_pos_as_xyz
  1  'x, y, z'
loop_
 _atom_site_type_symbol
 _atom_site_label
 _atom_site_symmetry_multiplicity
 _atom_site_fract_x
 _atom_site_fract_y
 _atom_site_fract_z
 _atom_site_occupancy
 _atom_site_charge
  Cd  Cd1  1  0.898160  0.727540  0.986230  1.0  0.8604
  Cd  Cd2  1  0.785990  0.475290  0.110540  1.0  0.8588
  Cd  Cd3  1  0.601840  0.772460  0.486230  1.0  0.8613
  Cd  Cd4  1  0.714010  0.024710  0.610540  1.0  0.8599
  Cd  Cd5  1  0.898160  0.272460  0.513770  1.0  0.8614
  Cd  Cd6  1  0.785990  0.524710  0.389460  1.0  0.8591
  Cd  Cd7  1  0.601840  0.227540  0.013770  1.0  0.8628
  Cd  Cd8  1  0.714010  0.975290  0.889460  1.0  0.8599
  Cd  Cd9  1  0.101840  0.272460  0.013770  1.0  0.8625
  Cd  Cd10  1  0.214010  0.524710  0.889460  1.0  0.8602
  Cd  Cd11  1  0.398160  0.227540  0.513770  1.0  0.8616
  Cd  Cd12  1  0.285990  0.975290  0.389460  1.0  0.8591
  Cd  Cd13  1  0.101840  0.727540  0.486230  1.0  0.8616
  Cd  Cd14  1  0.214010  0.475290  0.610540  1.0  0.8593
  Cd  Cd15  1  0.398160  0.772460  0.986230  1.0  0.8602
  Cd  Cd16  1  0.285990  0.024710  0.110540  1.0  0.8591
  H  H17  1  0.901400  0.753300  0.773600  1.0  0.0794
  H  H18  1  0.618400  0.703000  0.998100  1.0  0.0775
  H  H19  1  0.882200  0.074700  0.834400  1.0  0.0701
  H  H20  1  0.888000  0.645400  0.318000  1.0  0.0584
  H  H21  1  0.051700  0.095000  0.833500  1.0  0.1299
  H  H22  1  0.106700  0.941500  0.914000  1.0  0.1173
  H  H23  1  0.168200  0.026800  0.872700  1.0  0.101
  H  H24  1  0.800000  0.575100  0.768700  1.0  0.1192
  H  H25  1  0.861200  0.714100  0.647500  1.0  0.1096
  H  H26  1  0.817600  0.622800  0.643000  1.0  0.1032
  H  H27  1  0.598600  0.746700  0.273600  1.0  0.0793
  H  H28  1  0.881600  0.797000  0.498100  1.0  0.0774
  H  H29  1  0.617800  0.425300  0.334400  1.0  0.0709
  H  H30  1  0.612000  0.854600  0.818000  1.0  0.0588
  H  H31  1  0.448300  0.405000  0.333500  1.0  0.1296
  H  H32  1  0.393300  0.558500  0.414000  1.0  0.1171
  H  H33  1  0.331800  0.473200  0.372700  1.0  0.1006
  H  H34  1  0.700000  0.924900  0.268700  1.0  0.1189
  H  H35  1  0.638800  0.785900  0.147500  1.0  0.1097
  H  H36  1  0.682400  0.877200  0.143000  1.0  0.1027
  H  H37  1  0.901400  0.246700  0.726400  1.0  0.0795
  H  H38  1  0.618400  0.297000  0.501900  1.0  0.0772
  H  H39  1  0.882200  0.925300  0.665600  1.0  0.0711
  H  H40  1  0.888000  0.354600  0.182000  1.0  0.0588
  H  H41  1  0.051700  0.905000  0.666500  1.0  0.1301
  H  H42  1  0.106700  0.058500  0.586000  1.0  0.1171
  H  H43  1  0.168200  0.973200  0.627300  1.0  0.1011
  H  H44  1  0.800000  0.424900  0.731300  1.0  0.1189
  H  H45  1  0.861200  0.285900  0.852500  1.0  0.1097
  H  H46  1  0.817600  0.377200  0.857000  1.0  0.1024
  H  H47  1  0.598600  0.253300  0.226400  1.0  0.0794
  H  H48  1  0.881600  0.203000  0.001900  1.0  0.077
  H  H49  1  0.617800  0.574700  0.165600  1.0  0.0701
  H  H50  1  0.612000  0.145400  0.682000  1.0  0.0587
  H  H51  1  0.448300  0.595000  0.166500  1.0  0.1297
  H  H52  1  0.393300  0.441500  0.086000  1.0  0.1169
  H  H53  1  0.331800  0.526800  0.127300  1.0  0.1007
  H  H54  1  0.700000  0.075100  0.231300  1.0  0.1194
  H  H55  1  0.638800  0.214100  0.352500  1.0  0.1095
  H  H56  1  0.682400  0.122800  0.357000  1.0  0.1023
  H  H57  1  0.098600  0.246700  0.226400  1.0  0.0794
  H  H58  1  0.381600  0.297000  0.001900  1.0  0.077
  H  H59  1  0.117800  0.925300  0.165600  1.0  0.0711
  H  H60  1  0.112000  0.354600  0.682000  1.0  0.0587
  H  H61  1  0.948300  0.905000  0.166500  1.0  0.1298
  H  H62  1  0.893300  0.058500  0.086000  1.0  0.117
  H  H63  1  0.831800  0.973200  0.127300  1.0  0.1007
  H  H64  1  0.200000  0.424900  0.231300  1.0  0.1187
  H  H65  1  0.138800  0.285900  0.352500  1.0  0.1098
  H  H66  1  0.182400  0.377200  0.357000  1.0  0.1022
  H  H67  1  0.401400  0.253300  0.726400  1.0  0.0793
  H  H68  1  0.118400  0.203000  0.501900  1.0  0.077
  H  H69  1  0.382200  0.574700  0.665600  1.0  0.0703
  H  H70  1  0.388000  0.145400  0.182000  1.0  0.0589
  H  H71  1  0.551700  0.595000  0.666500  1.0  0.1296
  H  H72  1  0.606700  0.441500  0.586000  1.0  0.1172
  H  H73  1  0.668200  0.526800  0.627300  1.0  0.1008
  H  H74  1  0.300000  0.075100  0.731300  1.0  0.1196
  H  H75  1  0.361200  0.214100  0.852500  1.0  0.1095
  H  H76  1  0.317600  0.122800  0.857000  1.0  0.1026
  H  H77  1  0.098600  0.753300  0.273600  1.0  0.0795
  H  H78  1  0.381600  0.703000  0.498100  1.0  0.0775
  H  H79  1  0.117800  0.074700  0.334400  1.0  0.0699
  H  H80  1  0.112000  0.645400  0.818000  1.0  0.0581
  H  H81  1  0.948300  0.095000  0.333500  1.0  0.13
  H  H82  1  0.893300  0.941500  0.414000  1.0  0.1167
  H  H83  1  0.831800  0.026800  0.372700  1.0  0.1008
  H  H84  1  0.200000  0.575100  0.268700  1.0  0.1191
  H  H85  1  0.138800  0.714100  0.147500  1.0  0.1096
  H  H86  1  0.182400  0.622800  0.143000  1.0  0.103
  H  H87  1  0.401400  0.746700  0.773600  1.0  0.0792
  H  H88  1  0.118400  0.797000  0.998100  1.0  0.0775
  H  H89  1  0.382200  0.425300  0.834400  1.0  0.0709
  H  H90  1  0.388000  0.854600  0.318000  1.0  0.0592
  H  H91  1  0.551700  0.405000  0.833500  1.0  0.1301
  H  H92  1  0.606700  0.558500  0.914000  1.0  0.117
  H  H93  1  0.668200  0.473200  0.872700  1.0  0.1012
  H  H94  1  0.300000  0.924900  0.768700  1.0  0.1189
  H  H95  1  0.361200  0.785900  0.647500  1.0  0.1097
  H  H96  1  0.317600  0.877200  0.643000  1.0  0.103
  C  C97  1  0.879900  0.717000  0.772700  1.0  0.161
  C  C98  1  0.718900  0.812190  0.969400  1.0  0.2693
  C  C99  1  0.846000  0.599820  0.147000  1.0  0.2911
  C  C100  1  0.837800  0.596070  0.056000  1.0  0.2901
  C  C101  1  0.834900  0.609780  0.925500  1.0  0.2962
  C  C102  1  0.843300  0.637800  0.843200  1.0  0.1876
  C  C103  1  0.635800  0.739500  0.989200  1.0  0.251
  C  C104  1  0.957700  0.960200  0.896600  1.0  0.163
  C  C105  1  0.808500  0.846340  0.953200  1.0  0.2835
  C  C106  1  0.913500  0.906880  0.921700  1.0  0.293
  C  C107  1  0.927800  0.047700  0.850900  1.0  0.1737
  C  C108  1  0.870700  0.624600  0.271100  1.0  0.2892
  C  C109  1  0.029600  0.060400  0.849700  1.0  -0.185
  C  C110  1  0.062400  0.969100  0.897500  1.0  -0.1464
  C  C111  1  0.098800  0.019800  0.873200  1.0  0.0129
  C  C112  1  0.820900  0.611500  0.768700  1.0  -0.1505
  C  C113  1  0.857600  0.693600  0.696700  1.0  -0.15
  C  C114  1  0.830100  0.640000  0.694200  1.0  0.0047
  C  C115  1  0.620100  0.783000  0.272700  1.0  0.1606
  C  C116  1  0.781100  0.687810  0.469400  1.0  0.2691
  C  C117  1  0.654000  0.900180  0.647000  1.0  0.2909
  C  C118  1  0.662200  0.903930  0.556000  1.0  0.2896
  C  C119  1  0.665100  0.890220  0.425500  1.0  0.296
  C  C120  1  0.656700  0.862200  0.343200  1.0  0.1871
  C  C121  1  0.864200  0.760500  0.489200  1.0  0.2533
  C  C122  1  0.542300  0.539800  0.396600  1.0  0.1637
  C  C123  1  0.691500  0.653660  0.453200  1.0  0.2841
  C  C124  1  0.586500  0.593120  0.421700  1.0  0.2921
  C  C125  1  0.572200  0.452300  0.350900  1.0  0.1756
  C  C126  1  0.629300  0.875400  0.771100  1.0  0.2904
  C  C127  1  0.470400  0.439600  0.349700  1.0  -0.1858
  C  C128  1  0.437600  0.530900  0.397500  1.0  -0.146
  C  C129  1  0.401200  0.480200  0.373200  1.0  0.0067
  C  C130  1  0.679100  0.888500  0.268700  1.0  -0.1488
  C  C131  1  0.642400  0.806400  0.196700  1.0  -0.1497
  C  C132  1  0.669900  0.860000  0.194200  1.0  0.004
  C  C133  1  0.879900  0.283000  0.727300  1.0  0.1605
  C  C134  1  0.718900  0.187810  0.530600  1.0  0.2693
  C  C135  1  0.846000  0.400180  0.353000  1.0  0.2899
  C  C136  1  0.837800  0.403930  0.444000  1.0  0.2907
  C  C137  1  0.834900  0.390220  0.574500  1.0  0.2953
  C  C138  1  0.843300  0.362200  0.656800  1.0  0.1877
  C  C139  1  0.635800  0.260500  0.510800  1.0  0.2528
  C  C140  1  0.957700  0.039800  0.603400  1.0  0.1635
  C  C141  1  0.808500  0.153660  0.546800  1.0  0.2834
  C  C142  1  0.913500  0.093120  0.578300  1.0  0.2921
  C  C143  1  0.927800  0.952300  0.649100  1.0  0.1749
  C  C144  1  0.870700  0.375400  0.228900  1.0  0.2886
  C  C145  1  0.029600  0.939600  0.650300  1.0  -0.1837
  C  C146  1  0.062400  0.030900  0.602500  1.0  -0.1455
  C  C147  1  0.098800  0.980200  0.626800  1.0  0.0134
  C  C148  1  0.820900  0.388500  0.731300  1.0  -0.1497
  C  C149  1  0.857600  0.306400  0.803300  1.0  -0.1483
  C  C150  1  0.830100  0.360000  0.805800  1.0  0.0059
  C  C151  1  0.620100  0.217000  0.227300  1.0  0.1606
  C  C152  1  0.781100  0.312190  0.030600  1.0  0.2687
  C  C153  1  0.654000  0.099820  0.853000  1.0  0.29
  C  C154  1  0.662200  0.096070  0.944000  1.0  0.2901
  C  C155  1  0.665100  0.109780  0.074500  1.0  0.2949
  C  C156  1  0.656700  0.137800  0.156800  1.0  0.1875
  C  C157  1  0.864200  0.239500  0.010800  1.0  0.2514
  C  C158  1  0.542300  0.460200  0.103400  1.0  0.1637
  C  C159  1  0.691500  0.346340  0.046800  1.0  0.2841
  C  C160  1  0.586500  0.406880  0.078300  1.0  0.293
  C  C161  1  0.572200  0.547700  0.149100  1.0  0.1744
  C  C162  1  0.629300  0.124600  0.728900  1.0  0.29
  C  C163  1  0.470400  0.560400  0.150300  1.0  -0.1857
  C  C164  1  0.437600  0.469100  0.102500  1.0  -0.1469
  C  C165  1  0.401200  0.519800  0.126800  1.0  0.007
  C  C166  1  0.679100  0.111500  0.231300  1.0  -0.1501
  C  C167  1  0.642400  0.193600  0.303300  1.0  -0.1498
  C  C168  1  0.669900  0.140000  0.305800  1.0  0.0058
  C  C169  1  0.120100  0.283000  0.227300  1.0  0.1606
  C  C170  1  0.281100  0.187810  0.030600  1.0  0.2689
  C  C171  1  0.154000  0.400180  0.853000  1.0  0.2897
  C  C172  1  0.162200  0.403930  0.944000  1.0  0.29
  C  C173  1  0.165100  0.390220  0.074500  1.0  0.2951
  C  C174  1  0.156700  0.362200  0.156800  1.0  0.1876
  C  C175  1  0.364200  0.260500  0.010800  1.0  0.2537
  C  C176  1  0.042300  0.039800  0.103400  1.0  0.1636
  C  C177  1  0.191500  0.153660  0.046800  1.0  0.2842
  C  C178  1  0.086500  0.093120  0.078300  1.0  0.2921
  C  C179  1  0.072200  0.952300  0.149100  1.0  0.1757
  C  C180  1  0.129300  0.375400  0.728900  1.0  0.2895
  C  C181  1  0.970400  0.939600  0.150300  1.0  -0.1844
  C  C182  1  0.937600  0.030900  0.102500  1.0  -0.146
  C  C183  1  0.901200  0.980200  0.126800  1.0  0.0068
  C  C184  1  0.179100  0.388500  0.231300  1.0  -0.1491
  C  C185  1  0.142400  0.306400  0.303300  1.0  -0.1486
  C  C186  1  0.169900  0.360000  0.305800  1.0  0.0057
  C  C187  1  0.379900  0.217000  0.727300  1.0  0.1612
  C  C188  1  0.218900  0.312190  0.530600  1.0  0.2692
  C  C189  1  0.346000  0.099820  0.353000  1.0  0.2901
  C  C190  1  0.337800  0.096070  0.444000  1.0  0.2907
  C  C191  1  0.334900  0.109780  0.574500  1.0  0.2952
  C  C192  1  0.343300  0.137800  0.656800  1.0  0.1875
  C  C193  1  0.135800  0.239500  0.510800  1.0  0.2512
  C  C194  1  0.457700  0.460200  0.603400  1.0  0.1631
  C  C195  1  0.308500  0.346340  0.546800  1.0  0.2835
  C  C196  1  0.413500  0.406880  0.578300  1.0  0.293
  C  C197  1  0.427800  0.547700  0.649100  1.0  0.1736
  C  C198  1  0.370700  0.124600  0.228900  1.0  0.289
  C  C199  1  0.529600  0.560400  0.650300  1.0  -0.184
  C  C200  1  0.562400  0.469100  0.602500  1.0  -0.1466
  C  C201  1  0.598800  0.519800  0.626800  1.0  0.013
  C  C202  1  0.320900  0.111500  0.731300  1.0  -0.1506
  C  C203  1  0.357600  0.193600  0.803300  1.0  -0.1495
  C  C204  1  0.330100  0.140000  0.805800  1.0  0.006
  C  C205  1  0.120100  0.717000  0.272700  1.0  0.1604
  C  C206  1  0.281100  0.812190  0.469400  1.0  0.2689
  C  C207  1  0.154000  0.599820  0.647000  1.0  0.291
  C  C208  1  0.162200  0.596070  0.556000  1.0  0.2896
  C  C209  1  0.165100  0.609780  0.425500  1.0  0.296
  C  C210  1  0.156700  0.637800  0.343200  1.0  0.1876
  C  C211  1  0.364200  0.739500  0.489200  1.0  0.2514
  C  C212  1  0.042300  0.960200  0.396600  1.0  0.1636
  C  C213  1  0.191500  0.846340  0.453200  1.0  0.2841
  C  C214  1  0.086500  0.906880  0.421700  1.0  0.2931
  C  C215  1  0.072200  0.047700  0.350900  1.0  0.1745
  C  C216  1  0.129300  0.624600  0.771100  1.0  0.2899
  C  C217  1  0.970400  0.060400  0.349700  1.0  -0.1864
  C  C218  1  0.937600  0.969100  0.397500  1.0  -0.1467
  C  C219  1  0.901200  0.019800  0.373200  1.0  0.0068
  C  C220  1  0.179100  0.611500  0.268700  1.0  -0.1502
  C  C221  1  0.142400  0.693600  0.196700  1.0  -0.1503
  C  C222  1  0.169900  0.640000  0.194200  1.0  0.0041
  C  C223  1  0.379900  0.783000  0.772700  1.0  0.1605
  C  C224  1  0.218900  0.687810  0.969400  1.0  0.2695
  C  C225  1  0.346000  0.900180  0.147000  1.0  0.291
  C  C226  1  0.337800  0.903930  0.056000  1.0  0.2902
  C  C227  1  0.334900  0.890220  0.925500  1.0  0.2962
  C  C228  1  0.343300  0.862200  0.843200  1.0  0.1871
  C  C229  1  0.135800  0.760500  0.989200  1.0  0.2522
  C  C230  1  0.457700  0.539800  0.896600  1.0  0.1636
  C  C231  1  0.308500  0.653660  0.953200  1.0  0.2833
  C  C232  1  0.413500  0.593120  0.921700  1.0  0.2921
  C  C233  1  0.427800  0.452300  0.850900  1.0  0.1746
  C  C234  1  0.370700  0.875400  0.271100  1.0  0.2896
  C  C235  1  0.529600  0.439600  0.849700  1.0  -0.1851
  C  C236  1  0.562400  0.530900  0.897500  1.0  -0.1452
  C  C237  1  0.598800  0.480200  0.873200  1.0  0.0133
  C  C238  1  0.320900  0.888500  0.768700  1.0  -0.1494
  C  C239  1  0.357600  0.806400  0.696700  1.0  -0.1494
  C  C240  1  0.330100  0.860000  0.694200  1.0  0.0046
  N  N241  1  0.732000  0.757300  0.981900  1.0  -0.477
  N  N242  1  0.810000  0.557670  0.935200  1.0  -0.3237
  N  N243  1  0.811600  0.548660  0.020400  1.0  -0.2743
  N  N244  1  0.852900  0.636180  0.999400  1.0  -0.4537
  N  N245  1  0.872200  0.690070  0.846300  1.0  -0.3507
  N  N246  1  0.567600  0.779940  0.982300  1.0  -0.2508
  N  N247  1  0.622100  0.827260  0.969900  1.0  -0.3262
  N  N248  1  0.899700  0.821750  0.951400  1.0  -0.2743
  N  N249  1  0.839800  0.573080  0.275700  1.0  -0.2804
  N  N250  1  0.812600  0.899850  0.934400  1.0  -0.4748
  N  N251  1  0.826100  0.556620  0.194000  1.0  -0.3168
  N  N252  1  0.890000  0.999010  0.874400  1.0  -0.3596
  N  N253  1  0.968800  0.861780  0.931300  1.0  -0.3195
  N  N254  1  0.874700  0.644090  0.191500  1.0  -0.5366
  N  N255  1  0.768000  0.742700  0.481900  1.0  -0.4795
  N  N256  1  0.690000  0.942330  0.435200  1.0  -0.325
  N  N257  1  0.688400  0.951340  0.520400  1.0  -0.2751
  N  N258  1  0.647100  0.863820  0.499400  1.0  -0.4535
  N  N259  1  0.627800  0.809930  0.346300  1.0  -0.3505
  N  N260  1  0.932400  0.720060  0.482300  1.0  -0.2515
  N  N261  1  0.877900  0.672740  0.469900  1.0  -0.3265
  N  N262  1  0.600300  0.678250  0.451400  1.0  -0.2763
  N  N263  1  0.660200  0.926920  0.775700  1.0  -0.2808
  N  N264  1  0.687400  0.600150  0.434400  1.0  -0.4749
  N  N265  1  0.673900  0.943380  0.694000  1.0  -0.3164
  N  N266  1  0.610000  0.500990  0.374400  1.0  -0.3592
  N  N267  1  0.531200  0.638220  0.431300  1.0  -0.3193
  N  N268  1  0.625300  0.855910  0.691500  1.0  -0.5338
  N  N269  1  0.732000  0.242700  0.518100  1.0  -0.4791
  N  N270  1  0.810000  0.442330  0.564800  1.0  -0.3232
  N  N271  1  0.811600  0.451340  0.479600  1.0  -0.2731
  N  N272  1  0.852900  0.363820  0.500600  1.0  -0.4535
  N  N273  1  0.872200  0.309930  0.653700  1.0  -0.3503
  N  N274  1  0.567600  0.220060  0.517700  1.0  -0.251
  N  N275  1  0.622100  0.172740  0.530100  1.0  -0.3278
  N  N276  1  0.899700  0.178250  0.548600  1.0  -0.2759
  N  N277  1  0.839800  0.426920  0.224300  1.0  -0.28
  N  N278  1  0.812600  0.100150  0.565600  1.0  -0.4746
  N  N279  1  0.826100  0.443380  0.306000  1.0  -0.3164
  N  N280  1  0.890000  0.000990  0.625600  1.0  -0.3598
  N  N281  1  0.968800  0.138220  0.568700  1.0  -0.3201
  N  N282  1  0.874700  0.355910  0.308500  1.0  -0.5329
  N  N283  1  0.768000  0.257300  0.018100  1.0  -0.4791
  N  N284  1  0.690000  0.057670  0.064800  1.0  -0.3231
  N  N285  1  0.688400  0.048660  0.979600  1.0  -0.273
  N  N286  1  0.647100  0.136180  0.000600  1.0  -0.4528
  N  N287  1  0.627800  0.190070  0.153700  1.0  -0.3519
  N  N288  1  0.932400  0.279940  0.017700  1.0  -0.2518
  N  N289  1  0.877900  0.327260  0.030100  1.0  -0.327
  N  N290  1  0.600300  0.321750  0.048600  1.0  -0.2751
  N  N291  1  0.660200  0.073080  0.724300  1.0  -0.2803
  N  N292  1  0.687400  0.399850  0.065600  1.0  -0.4749
  N  N293  1  0.673900  0.056620  0.806000  1.0  -0.3171
  N  N294  1  0.610000  0.499010  0.125600  1.0  -0.3596
  N  N295  1  0.531200  0.361780  0.068700  1.0  -0.3191
  N  N296  1  0.625300  0.144090  0.808500  1.0  -0.537
  N  N297  1  0.268000  0.242700  0.018100  1.0  -0.4793
  N  N298  1  0.190000  0.442330  0.064800  1.0  -0.3244
  N  N299  1  0.188400  0.451340  0.979600  1.0  -0.2745
  N  N300  1  0.147100  0.363820  0.000600  1.0  -0.4538
  N  N301  1  0.127800  0.309930  0.153700  1.0  -0.3508
  N  N302  1  0.432400  0.220060  0.017700  1.0  -0.2513
  N  N303  1  0.377900  0.172740  0.030100  1.0  -0.3266
  N  N304  1  0.100300  0.178250  0.048600  1.0  -0.2761
  N  N305  1  0.160200  0.426920  0.724300  1.0  -0.2802
  N  N306  1  0.187400  0.100150  0.065600  1.0  -0.4746
  N  N307  1  0.173900  0.443380  0.806000  1.0  -0.3165
  N  N308  1  0.110000  0.000990  0.125600  1.0  -0.3596
  N  N309  1  0.031200  0.138220  0.068700  1.0  -0.3192
  N  N310  1  0.125300  0.355910  0.808500  1.0  -0.534
  N  N311  1  0.232000  0.257300  0.518100  1.0  -0.4771
  N  N312  1  0.310000  0.057670  0.564800  1.0  -0.3231
  N  N313  1  0.311600  0.048660  0.479600  1.0  -0.2735
  N  N314  1  0.352900  0.136180  0.500600  1.0  -0.4528
  N  N315  1  0.372200  0.190070  0.653700  1.0  -0.3515
  N  N316  1  0.067600  0.279940  0.517700  1.0  -0.2511
  N  N317  1  0.122100  0.327260  0.530100  1.0  -0.3265
  N  N318  1  0.399700  0.321750  0.548600  1.0  -0.2745
  N  N319  1  0.339800  0.073080  0.224300  1.0  -0.2801
  N  N320  1  0.312600  0.399850  0.565600  1.0  -0.4747
  N  N321  1  0.326100  0.056620  0.306000  1.0  -0.3166
  N  N322  1  0.390000  0.499010  0.625600  1.0  -0.3601
  N  N323  1  0.468800  0.361780  0.568700  1.0  -0.3192
  N  N324  1  0.374700  0.144090  0.308500  1.0  -0.5362
  N  N325  1  0.268000  0.757300  0.481900  1.0  -0.4791
  N  N326  1  0.190000  0.557670  0.435200  1.0  -0.324
  N  N327  1  0.188400  0.548660  0.520400  1.0  -0.2734
  N  N328  1  0.147100  0.636180  0.499400  1.0  -0.4536
  N  N329  1  0.127800  0.690070  0.346300  1.0  -0.351
  N  N330  1  0.432400  0.779940  0.482300  1.0  -0.2515
  N  N331  1  0.377900  0.827260  0.469900  1.0  -0.3268
  N  N332  1  0.100300  0.821750  0.451400  1.0  -0.2748
  N  N333  1  0.160200  0.573080  0.775700  1.0  -0.2807
  N  N334  1  0.187400  0.899850  0.434400  1.0  -0.4752
  N  N335  1  0.173900  0.556620  0.694000  1.0  -0.3174
  N  N336  1  0.110000  0.999010  0.374400  1.0  -0.3591
  N  N337  1  0.031200  0.861780  0.431300  1.0  -0.3194
  N  N338  1  0.125300  0.644090  0.691500  1.0  -0.5374
  N  N339  1  0.232000  0.742700  0.981900  1.0  -0.4791
  N  N340  1  0.310000  0.942330  0.935200  1.0  -0.3239
  N  N341  1  0.311600  0.951340  0.020400  1.0  -0.2739
  N  N342  1  0.352900  0.863820  0.999400  1.0  -0.4534
  N  N343  1  0.372200  0.809930  0.846300  1.0  -0.3501
  N  N344  1  0.067600  0.720060  0.982300  1.0  -0.2511
  N  N345  1  0.122100  0.672740  0.969900  1.0  -0.3277
  N  N346  1  0.399700  0.678250  0.951400  1.0  -0.2758
  N  N347  1  0.339800  0.926920  0.275700  1.0  -0.2803
  N  N348  1  0.312600  0.600150  0.934400  1.0  -0.4749
  N  N349  1  0.326100  0.943380  0.194000  1.0  -0.3162
  N  N350  1  0.390000  0.500990  0.874400  1.0  -0.3595
  N  N351  1  0.468800  0.638220  0.931300  1.0  -0.3203
  N  N352  1  0.374700  0.855910  0.191500  1.0  -0.5326
