# generated using pymatgen
data_DyH11(C7O2)3
_symmetry_space_group_name_H-M   'P 1'
_cell_length_a   8.71590000
_cell_length_b   10.97370000
_cell_length_c   12.32300000
_cell_angle_alpha   68.44800000
_cell_angle_beta   86.19600000
_cell_angle_gamma   79.60500000
_symmetry_Int_Tables_number   1
_chemical_formula_structural   DyH11(C7O2)3
_chemical_formula_sum   'Dy2 H22 C42 O12'
_cell_volume   1078.24407718
_cell_formula_units_Z   2
loop_
 _symmetry_equiv_pos_site_id
 _symmetry_equiv_pos_as_xyz
  1  'x, y, z'
loop_
 _atom_site_type_symbol
 _atom_site_label
 _atom_site_symmetry_multiplicity
 _atom_site_fract_x
 _atom_site_fract_y
 _atom_site_fract_z
 _atom_site_occupancy
 _atom_site_charge
  Dy  Dy1  1  0.712890  0.979400  0.444080  1.0  2.3254
  Dy  Dy2  1  0.287110  0.020600  0.555920  1.0  2.3249
  H  H3  1  0.218300  0.627200  0.762100  1.0  0.1022
  H  H4  1  0.002500  0.313600  0.841200  1.0  0.1031
  H  H5  1  0.866100  0.639400  0.561100  1.0  0.0972
  H  H6  1  0.952600  0.226500  0.686800  1.0  0.0978
  H  H7  1  0.782300  0.114900  0.641000  1.0  0.0969
  H  H8  1  0.433400  0.418000  0.616500  1.0  0.0978
  H  H9  1  0.606900  0.533900  0.653700  1.0  0.098
  H  H10  1  0.008900  0.331400  0.025000  1.0  0.0976
  H  H11  1  0.121600  0.215300  0.205200  1.0  0.0942
  H  H12  1  0.534100  0.311900  0.072500  1.0  0.1046
  H  H13  1  0.419700  0.431400  0.892600  1.0  0.0946
  H  H14  1  0.781700  0.372800  0.237900  1.0  0.1024
  H  H15  1  0.997500  0.686400  0.158800  1.0  0.1017
  H  H16  1  0.133900  0.360600  0.438900  1.0  0.0971
  H  H17  1  0.047400  0.773500  0.313200  1.0  0.0974
  H  H18  1  0.217700  0.885100  0.359000  1.0  0.0968
  H  H19  1  0.566600  0.582000  0.383500  1.0  0.0975
  H  H20  1  0.393100  0.466100  0.346300  1.0  0.0979
  H  H21  1  0.991100  0.668600  0.975000  1.0  0.098
  H  H22  1  0.878400  0.784700  0.794800  1.0  0.0953
  H  H23  1  0.465900  0.688100  0.927500  1.0  0.1063
  H  H24  1  0.580300  0.568600  0.107400  1.0  0.0943
  C  C25  1  0.056400  0.795400  0.577000  1.0  0.8073
  C  C26  1  0.044700  0.654200  0.650000  1.0  -0.1681
  C  C27  1  0.140700  0.587200  0.747400  1.0  -0.0511
  C  C28  1  0.120900  0.460400  0.822800  1.0  0.0279
  C  C29  1  0.011700  0.400300  0.793900  1.0  -0.1313
  C  C30  1  0.915000  0.464300  0.696700  1.0  0.0307
  C  C31  1  0.931200  0.593600  0.625300  1.0  -0.0545
  C  C32  1  0.800200  0.393900  0.672400  1.0  0.0614
  C  C33  1  0.849100  0.266700  0.670000  1.0  -0.1347
  C  C34  1  0.746900  0.199200  0.643100  1.0  -0.0367
  C  C35  1  0.591500  0.256900  0.619200  1.0  -0.1612
  C  C36  1  0.538600  0.381100  0.627300  1.0  -0.0374
  C  C37  1  0.642400  0.449700  0.651400  1.0  -0.1327
  C  C38  1  0.484300  0.187900  0.581900  1.0  0.7197
  C  C39  1  0.201700  0.391800  0.937500  1.0  0.0587
  C  C40  1  0.115000  0.327500  0.033900  1.0  -0.1405
  C  C41  1  0.182400  0.257800  0.142500  1.0  -0.0313
  C  C42  1  0.339600  0.251100  0.158300  1.0  -0.1576
  C  C43  1  0.428100  0.316000  0.063200  1.0  -0.0402
  C  C44  1  0.359600  0.386700  0.954700  1.0  -0.1443
  C  C45  1  0.407900  0.172600  0.279000  1.0  0.7661
  C  C46  1  0.943600  0.204600  0.423000  1.0  0.7966
  C  C47  1  0.955300  0.345800  0.350000  1.0  -0.1672
  C  C48  1  0.859300  0.412800  0.252600  1.0  -0.051
  C  C49  1  0.879100  0.539600  0.177200  1.0  0.028
  C  C50  1  0.988300  0.599700  0.206100  1.0  -0.1305
  C  C51  1  0.085000  0.535700  0.303300  1.0  0.0311
  C  C52  1  0.068800  0.406400  0.374700  1.0  -0.0536
  C  C53  1  0.199800  0.606100  0.327600  1.0  0.0623
  C  C54  1  0.150900  0.733300  0.330000  1.0  -0.1366
  C  C55  1  0.253100  0.800800  0.356900  1.0  -0.0411
  C  C56  1  0.408500  0.743100  0.380800  1.0  -0.1599
  C  C57  1  0.461400  0.618900  0.372700  1.0  -0.0377
  C  C58  1  0.357600  0.550300  0.348600  1.0  -0.1316
  C  C59  1  0.515700  0.812100  0.418100  1.0  0.7145
  C  C60  1  0.798300  0.608200  0.062500  1.0  0.0586
  C  C61  1  0.885000  0.672500  0.966100  1.0  -0.1393
  C  C62  1  0.817600  0.742200  0.857500  1.0  -0.0315
  C  C63  1  0.660400  0.748900  0.841700  1.0  -0.1581
  C  C64  1  0.571900  0.684000  0.936800  1.0  -0.0409
  C  C65  1  0.640400  0.613300  0.045300  1.0  -0.1453
  C  C66  1  0.592100  0.827400  0.721000  1.0  0.7628
  O  O67  1  0.954800  0.860600  0.500200  1.0  -0.7566
  O  O68  1  0.169500  0.839600  0.596200  1.0  -0.7283
  O  O69  1  0.340100  0.213900  0.592400  1.0  -0.6621
  O  O70  1  0.542300  0.099400  0.540600  1.0  -0.8502
  O  O71  1  0.311200  0.153200  0.360600  1.0  -0.7259
  O  O72  1  0.552100  0.134300  0.287100  1.0  -0.7229
  O  O73  1  0.045200  0.139400  0.499800  1.0  -0.7728
  O  O74  1  0.830500  0.160400  0.403800  1.0  -0.7196
  O  O75  1  0.659900  0.786100  0.407600  1.0  -0.6621
  O  O76  1  0.457700  0.900600  0.459400  1.0  -0.8494
  O  O77  1  0.688800  0.846800  0.639400  1.0  -0.7259
  O  O78  1  0.447900  0.865700  0.712900  1.0  -0.723
