# generated using pymatgen
data_TbH11(C7O2)3
_symmetry_space_group_name_H-M   'P 1'
_cell_length_a   8.74860000
_cell_length_b   10.98230000
_cell_length_c   12.30700000
_cell_angle_alpha   68.65800000
_cell_angle_beta   86.19100000
_cell_angle_gamma   79.53200000
_symmetry_Int_Tables_number   1
_chemical_formula_structural   TbH11(C7O2)3
_chemical_formula_sum   'Tb2 H22 C42 O12'
_cell_volume   1083.03576293
_cell_formula_units_Z   2
loop_
 _symmetry_equiv_pos_site_id
 _symmetry_equiv_pos_as_xyz
  1  'x, y, z'
loop_
 _atom_site_type_symbol
 _atom_site_label
 _atom_site_symmetry_multiplicity
 _atom_site_fract_x
 _atom_site_fract_y
 _atom_site_fract_z
 _atom_site_occupancy
 _atom_site_charge
  Tb  Tb1  1  0.713150  0.978960  0.444090  1.0  2.2973
  Tb  Tb2  1  0.286850  0.021040  0.555910  1.0  2.2974
  H  H3  1  0.217800  0.626700  0.762500  1.0  0.1035
  H  H4  1  0.002600  0.314800  0.840000  1.0  0.0987
  H  H5  1  0.866600  0.640000  0.560900  1.0  0.1086
  H  H6  1  0.952700  0.228000  0.684900  1.0  0.102
  H  H7  1  0.780300  0.115300  0.642200  1.0  0.095
  H  H8  1  0.435400  0.421100  0.615400  1.0  0.1097
  H  H9  1  0.608600  0.533700  0.655100  1.0  0.1001
  H  H10  1  0.010100  0.330600  0.025200  1.0  0.108
  H  H11  1  0.121900  0.218500  0.204800  1.0  0.0897
  H  H12  1  0.533400  0.314400  0.071600  1.0  0.1069
  H  H13  1  0.420100  0.428200  0.892400  1.0  0.0928
  H  H14  1  0.782200  0.373300  0.237500  1.0  0.1035
  H  H15  1  0.997400  0.685200  0.160000  1.0  0.0981
  H  H16  1  0.133400  0.360000  0.439100  1.0  0.1086
  H  H17  1  0.047300  0.772000  0.315100  1.0  0.1016
  H  H18  1  0.219700  0.884700  0.357800  1.0  0.095
  H  H19  1  0.564600  0.578900  0.384600  1.0  0.1087
  H  H20  1  0.391400  0.466300  0.344900  1.0  0.0999
  H  H21  1  0.989900  0.669400  0.974800  1.0  0.1083
  H  H22  1  0.878100  0.781500  0.795200  1.0  0.0902
  H  H23  1  0.466600  0.685600  0.928400  1.0  0.1087
  H  H24  1  0.579900  0.571800  0.107600  1.0  0.0926
  C  C25  1  0.056700  0.794400  0.577800  1.0  0.769
  C  C26  1  0.044500  0.653300  0.650600  1.0  -0.14
  C  C27  1  0.140600  0.586600  0.747900  1.0  -0.046
  C  C28  1  0.121400  0.460000  0.823300  1.0  0.0051
  C  C29  1  0.012000  0.401300  0.793200  1.0  -0.1358
  C  C30  1  0.916000  0.464700  0.697100  1.0  0.0132
  C  C31  1  0.931500  0.594200  0.625100  1.0  -0.0589
  C  C32  1  0.800200  0.393900  0.672500  1.0  0.0498
  C  C33  1  0.849200  0.267800  0.669500  1.0  -0.1279
  C  C34  1  0.745600  0.199900  0.643600  1.0  -0.0663
  C  C35  1  0.591500  0.257400  0.620000  1.0  -0.152
  C  C36  1  0.539800  0.383000  0.627300  1.0  -0.0738
  C  C37  1  0.643500  0.449800  0.652000  1.0  -0.1198
  C  C38  1  0.484600  0.190400  0.581700  1.0  0.6993
  C  C39  1  0.202800  0.392500  0.937000  1.0  0.0802
  C  C40  1  0.115600  0.327500  0.034100  1.0  -0.1502
  C  C41  1  0.183000  0.259500  0.141900  1.0  -0.021
  C  C42  1  0.339500  0.250900  0.158600  1.0  -0.1339
  C  C43  1  0.428100  0.317000  0.062400  1.0  -0.0798
  C  C44  1  0.359600  0.385500  0.954900  1.0  -0.1217
  C  C45  1  0.408700  0.174000  0.277300  1.0  0.7426
  C  C46  1  0.943300  0.205600  0.422200  1.0  0.7593
  C  C47  1  0.955500  0.346700  0.349400  1.0  -0.1395
  C  C48  1  0.859400  0.413400  0.252100  1.0  -0.0456
  C  C49  1  0.878600  0.540000  0.176700  1.0  0.0042
  C  C50  1  0.988000  0.598700  0.206800  1.0  -0.1342
  C  C51  1  0.084000  0.535300  0.302900  1.0  0.0139
  C  C52  1  0.068500  0.405800  0.374900  1.0  -0.0579
  C  C53  1  0.199800  0.606100  0.327500  1.0  0.0507
  C  C54  1  0.150800  0.732200  0.330500  1.0  -0.1292
  C  C55  1  0.254400  0.800100  0.356400  1.0  -0.0689
  C  C56  1  0.408500  0.742600  0.380000  1.0  -0.1513
  C  C57  1  0.460200  0.617000  0.372700  1.0  -0.0743
  C  C58  1  0.356500  0.550200  0.348000  1.0  -0.1199
  C  C59  1  0.515400  0.809600  0.418300  1.0  0.6978
  C  C60  1  0.797200  0.607500  0.063000  1.0  0.0801
  C  C61  1  0.884400  0.672500  0.965900  1.0  -0.1489
  C  C62  1  0.817000  0.740500  0.858100  1.0  -0.0222
  C  C63  1  0.660500  0.749100  0.841400  1.0  -0.1323
  C  C64  1  0.571900  0.683000  0.937600  1.0  -0.0799
  C  C65  1  0.640400  0.614500  0.045100  1.0  -0.1234
  C  C66  1  0.591300  0.826000  0.722700  1.0  0.7395
  O  O67  1  0.955000  0.859300  0.501500  1.0  -0.7325
  O  O68  1  0.168600  0.839600  0.597300  1.0  -0.7079
  O  O69  1  0.340400  0.216400  0.591900  1.0  -0.6306
  O  O70  1  0.543200  0.099200  0.541300  1.0  -0.8413
  O  O71  1  0.312500  0.153500  0.360500  1.0  -0.7169
  O  O72  1  0.552200  0.135300  0.286300  1.0  -0.7026
  O  O73  1  0.045000  0.140700  0.498500  1.0  -0.7451
  O  O74  1  0.831400  0.160400  0.402700  1.0  -0.7041
  O  O75  1  0.659600  0.783600  0.408100  1.0  -0.631
  O  O76  1  0.456800  0.900800  0.458700  1.0  -0.8416
  O  O77  1  0.687500  0.846500  0.639500  1.0  -0.7182
  O  O78  1  0.447800  0.864700  0.713700  1.0  -0.7033
