# generated using pymatgen
data_CuH8C14O5
_symmetry_space_group_name_H-M   'P 1'
_cell_length_a   15.86800000
_cell_length_b   15.86800000
_cell_length_c   21.28000000
_cell_angle_alpha   85.27140000
_cell_angle_beta   85.27140000
_cell_angle_gamma   60.60540000
_symmetry_Int_Tables_number   1
_chemical_formula_structural   CuH8C14O5
_chemical_formula_sum   'Cu8 H64 C112 O40'
_cell_volume   4647.02568580
_cell_formula_units_Z   8
loop_
 _symmetry_equiv_pos_site_id
 _symmetry_equiv_pos_as_xyz
  1  'x, y, z'
loop_
 _atom_site_type_symbol
 _atom_site_label
 _atom_site_symmetry_multiplicity
 _atom_site_fract_x
 _atom_site_fract_y
 _atom_site_fract_z
 _atom_site_occupancy
 _atom_site_charge
  Cu  Cu1  1  0.490060  0.496760  0.313070  1.0  0.9109
  Cu  Cu2  1  0.941680  0.461440  0.005870  1.0  0.8727
  Cu  Cu3  1  0.503240  0.509940  0.186930  1.0  0.9113
  Cu  Cu4  1  0.538560  0.058320  0.494130  1.0  0.8765
  Cu  Cu5  1  0.509940  0.503240  0.686930  1.0  0.9106
  Cu  Cu6  1  0.058320  0.538560  0.994130  1.0  0.8763
  Cu  Cu7  1  0.496760  0.490060  0.813070  1.0  0.9113
  Cu  Cu8  1  0.461440  0.941680  0.505870  1.0  0.8721
  H  H9  1  0.400900  0.813500  0.159500  1.0  0.1077
  H  H10  1  0.358900  0.974500  0.154500  1.0  0.1326
  H  H11  1  0.414200  0.954200  0.337700  1.0  0.1183
  H  H12  1  0.452600  0.793000  0.344200  1.0  0.1154
  H  H13  1  0.093300  0.233900  0.146300  1.0  0.1081
  H  H14  1  0.202100  0.101700  0.207600  1.0  0.1408
  H  H15  1  0.381500  0.216300  0.196900  1.0  0.1314
  H  H16  1  0.271600  0.346600  0.132700  1.0  0.1008
  H  H17  1  0.716500  0.664500  0.134900  1.0  0.1063
  H  H18  1  0.601700  0.795500  0.190300  1.0  0.1267
  H  H19  1  0.773700  0.918100  0.165800  1.0  0.1256
  H  H20  1  0.888100  0.785100  0.109300  1.0  0.1107
  H  H21  1  0.596200  0.212600  0.135200  1.0  0.1056
  H  H22  1  0.618200  0.060000  0.126900  1.0  0.1378
  H  H23  1  0.562900  0.041100  0.314000  1.0  0.1299
  H  H24  1  0.536000  0.199000  0.321900  1.0  0.1085
  H  H25  1  0.186500  0.599100  0.340500  1.0  0.1075
  H  H26  1  0.025500  0.641100  0.345500  1.0  0.1317
  H  H27  1  0.045800  0.585800  0.162300  1.0  0.1187
  H  H28  1  0.207000  0.547400  0.155800  1.0  0.1152
  H  H29  1  0.766100  0.906700  0.353700  1.0  0.1088
  H  H30  1  0.898300  0.797900  0.292400  1.0  0.1427
  H  H31  1  0.783700  0.618500  0.303100  1.0  0.1315
  H  H32  1  0.653400  0.728400  0.367300  1.0  0.1014
  H  H33  1  0.335500  0.283500  0.365100  1.0  0.1071
  H  H34  1  0.204500  0.398300  0.309700  1.0  0.1251
  H  H35  1  0.081900  0.226300  0.334200  1.0  0.1275
  H  H36  1  0.214900  0.111900  0.390700  1.0  0.1114
  H  H37  1  0.787400  0.403800  0.364800  1.0  0.1057
  H  H38  1  0.940000  0.381800  0.373100  1.0  0.1373
  H  H39  1  0.958900  0.437100  0.186000  1.0  0.1304
  H  H40  1  0.801000  0.464000  0.178100  1.0  0.109
  H  H41  1  0.599100  0.186500  0.840500  1.0  0.1077
  H  H42  1  0.641100  0.025500  0.845500  1.0  0.1319
  H  H43  1  0.585800  0.045800  0.662300  1.0  0.1194
  H  H44  1  0.547400  0.207000  0.655800  1.0  0.1144
  H  H45  1  0.906700  0.766100  0.853700  1.0  0.1078
  H  H46  1  0.797900  0.898300  0.792400  1.0  0.1416
  H  H47  1  0.618500  0.783700  0.803100  1.0  0.1312
  H  H48  1  0.728400  0.653400  0.867300  1.0  0.1012
  H  H49  1  0.283500  0.335500  0.865100  1.0  0.1064
  H  H50  1  0.398300  0.204500  0.809700  1.0  0.1261
  H  H51  1  0.226300  0.081900  0.834200  1.0  0.1253
  H  H52  1  0.111900  0.214900  0.890700  1.0  0.1108
  H  H53  1  0.403800  0.787400  0.864800  1.0  0.1061
  H  H54  1  0.381800  0.940000  0.873100  1.0  0.137
  H  H55  1  0.437100  0.958900  0.686000  1.0  0.1308
  H  H56  1  0.464000  0.801000  0.678100  1.0  0.1092
  H  H57  1  0.813500  0.400900  0.659500  1.0  0.1076
  H  H58  1  0.974500  0.358900  0.654500  1.0  0.1336
  H  H59  1  0.954200  0.414200  0.837700  1.0  0.1186
  H  H60  1  0.793000  0.452600  0.844200  1.0  0.1163
  H  H61  1  0.233900  0.093300  0.646300  1.0  0.1084
  H  H62  1  0.101700  0.202100  0.707600  1.0  0.1426
  H  H63  1  0.216300  0.381500  0.696900  1.0  0.1312
  H  H64  1  0.346600  0.271600  0.632700  1.0  0.1013
  H  H65  1  0.664500  0.716500  0.634900  1.0  0.1076
  H  H66  1  0.795500  0.601700  0.690300  1.0  0.1248
  H  H67  1  0.918100  0.773700  0.665800  1.0  0.1266
  H  H68  1  0.785100  0.888100  0.609300  1.0  0.1112
  H  H69  1  0.212600  0.596200  0.635200  1.0  0.1053
  H  H70  1  0.060000  0.618200  0.626900  1.0  0.1378
  H  H71  1  0.041100  0.562900  0.814000  1.0  0.1296
  H  H72  1  0.199000  0.536000  0.821900  1.0  0.1084
  C  C73  1  0.450300  0.681900  0.254900  1.0  0.6944
  C  C74  1  0.427100  0.784700  0.252000  1.0  -0.1939
  C  C75  1  0.401800  0.841600  0.195900  1.0  0.0211
  C  C76  1  0.378100  0.937700  0.192200  1.0  -0.2597
  C  C77  1  0.383400  0.979400  0.247000  1.0  0.3015
  C  C78  1  0.410700  0.925900  0.302200  1.0  -0.2282
  C  C79  1  0.433400  0.829000  0.306300  1.0  -0.003
  C  C80  1  0.106700  0.381100  0.085500  1.0  0.6785
  C  C81  1  0.173300  0.303500  0.129600  1.0  -0.1743
  C  C82  1  0.151900  0.229500  0.155100  1.0  -0.0009
  C  C83  1  0.216000  0.150600  0.192800  1.0  -0.2459
  C  C84  1  0.300500  0.147900  0.207400  1.0  0.2772
  C  C85  1  0.324300  0.219500  0.186100  1.0  -0.2102
  C  C86  1  0.257500  0.297700  0.147000  1.0  0.0138
  C  C87  1  0.886700  0.628900  0.076400  1.0  0.6748
  C  C88  1  0.814400  0.713000  0.116300  1.0  -0.1715
  C  C89  1  0.727500  0.715700  0.141000  1.0  -0.0041
  C  C90  1  0.658600  0.794000  0.174100  1.0  -0.2199
  C  C91  1  0.675600  0.870600  0.183000  1.0  0.2725
  C  C92  1  0.761900  0.867700  0.159300  1.0  -0.2472
  C  C93  1  0.830800  0.787200  0.125400  1.0  0.0169
  C  C94  1  0.541300  0.327100  0.233000  1.0  0.6948
  C  C95  1  0.560500  0.224100  0.228800  1.0  -0.1786
  C  C96  1  0.588000  0.179200  0.171000  1.0  0.0106
  C  C97  1  0.603300  0.087500  0.166000  1.0  -0.2406
  C  C98  1  0.596000  0.035400  0.220600  1.0  0.2915
  C  C99  1  0.569500  0.075900  0.278400  1.0  -0.2227
  C  C100  1  0.552600  0.171200  0.282800  1.0  0.0148
  C  C101  1  0.318100  0.549700  0.245100  1.0  0.6918
  C  C102  1  0.215300  0.572900  0.248000  1.0  -0.1947
  C  C103  1  0.158400  0.598200  0.304100  1.0  0.0155
  C  C104  1  0.062300  0.621900  0.307800  1.0  -0.2631
  C  C105  1  0.020600  0.616600  0.253000  1.0  0.3021
  C  C106  1  0.074100  0.589300  0.197800  1.0  -0.2288
  C  C107  1  0.171000  0.566600  0.193700  1.0  -0.0083
  C  C108  1  0.618900  0.893300  0.414500  1.0  0.679
  C  C109  1  0.696500  0.826700  0.370400  1.0  -0.1729
  C  C110  1  0.770500  0.848100  0.344900  1.0  -0.0007
  C  C111  1  0.849400  0.784000  0.307200  1.0  -0.2457
  C  C112  1  0.852100  0.699500  0.292600  1.0  0.2772
  C  C113  1  0.780500  0.675700  0.313900  1.0  -0.2102
  C  C114  1  0.702300  0.742500  0.353000  1.0  0.0118
  C  C115  1  0.371100  0.113300  0.423600  1.0  0.6737
  C  C116  1  0.287000  0.185600  0.383700  1.0  -0.1722
  C  C117  1  0.284300  0.272500  0.359000  1.0  -0.0024
  C  C118  1  0.206000  0.341400  0.325900  1.0  -0.2194
  C  C119  1  0.129400  0.324400  0.317000  1.0  0.2712
  C  C120  1  0.132300  0.238100  0.340700  1.0  -0.2516
  C  C121  1  0.212800  0.169200  0.374600  1.0  0.0144
  C  C122  1  0.672900  0.458700  0.267000  1.0  0.6937
  C  C123  1  0.775900  0.439500  0.271200  1.0  -0.1792
  C  C124  1  0.820800  0.412000  0.329000  1.0  0.0093
  C  C125  1  0.912500  0.396700  0.334000  1.0  -0.2431
  C  C126  1  0.964600  0.404000  0.279400  1.0  0.292
  C  C127  1  0.924100  0.430500  0.221600  1.0  -0.2238
  C  C128  1  0.828800  0.447400  0.217200  1.0  0.0125
  C  C129  1  0.549700  0.318100  0.745100  1.0  0.6945
  C  C130  1  0.572900  0.215300  0.748000  1.0  -0.1923
  C  C131  1  0.598200  0.158400  0.804100  1.0  0.0172
  C  C132  1  0.621900  0.062300  0.807800  1.0  -0.2598
  C  C133  1  0.616600  0.020600  0.753000  1.0  0.3024
  C  C134  1  0.589300  0.074100  0.697800  1.0  -0.2293
  C  C135  1  0.566600  0.171000  0.693700  1.0  -0.0069
  C  C136  1  0.893300  0.618900  0.914500  1.0  0.6779
  C  C137  1  0.826700  0.696500  0.870400  1.0  -0.169
  C  C138  1  0.848100  0.770500  0.844900  1.0  -0.0015
  C  C139  1  0.784000  0.849400  0.807200  1.0  -0.2454
  C  C140  1  0.699500  0.852100  0.792600  1.0  0.2774
  C  C141  1  0.675700  0.780500  0.813900  1.0  -0.213
  C  C142  1  0.742500  0.702300  0.853000  1.0  0.0139
  C  C143  1  0.113300  0.371100  0.923600  1.0  0.674
  C  C144  1  0.185600  0.287000  0.883700  1.0  -0.1715
  C  C145  1  0.272500  0.284300  0.859000  1.0  0.0003
  C  C146  1  0.341400  0.206000  0.825900  1.0  -0.2185
  C  C147  1  0.324400  0.129400  0.817000  1.0  0.27
  C  C148  1  0.238100  0.132300  0.840700  1.0  -0.2529
  C  C149  1  0.169200  0.212800  0.874600  1.0  0.0168
  C  C150  1  0.458700  0.672900  0.767000  1.0  0.695
  C  C151  1  0.439500  0.775900  0.771200  1.0  -0.1789
  C  C152  1  0.412000  0.820800  0.829000  1.0  0.0108
  C  C153  1  0.396700  0.912500  0.834000  1.0  -0.2431
  C  C154  1  0.404000  0.964600  0.779400  1.0  0.2918
  C  C155  1  0.430500  0.924100  0.721600  1.0  -0.2225
  C  C156  1  0.447400  0.828800  0.717200  1.0  0.0165
  C  C157  1  0.681900  0.450300  0.754900  1.0  0.6916
  C  C158  1  0.784700  0.427100  0.752000  1.0  -0.1959
  C  C159  1  0.841600  0.401800  0.695900  1.0  0.0155
  C  C160  1  0.937700  0.378100  0.692200  1.0  -0.262
  C  C161  1  0.979400  0.383400  0.747000  1.0  0.3011
  C  C162  1  0.925900  0.410700  0.802200  1.0  -0.2296
  C  C163  1  0.829000  0.433400  0.806300  1.0  -0.0033
  C  C164  1  0.381100  0.106700  0.585500  1.0  0.6788
  C  C165  1  0.303500  0.173300  0.629600  1.0  -0.1768
  C  C166  1  0.229500  0.151900  0.655100  1.0  -0.0056
  C  C167  1  0.150600  0.216000  0.692800  1.0  -0.2476
  C  C168  1  0.147900  0.300500  0.707400  1.0  0.2778
  C  C169  1  0.219500  0.324300  0.686100  1.0  -0.2099
  C  C170  1  0.297700  0.257500  0.647000  1.0  0.0128
  C  C171  1  0.628900  0.886700  0.576400  1.0  0.6755
  C  C172  1  0.713000  0.814400  0.616300  1.0  -0.172
  C  C173  1  0.715700  0.727500  0.641000  1.0  -0.0024
  C  C174  1  0.794000  0.658600  0.674100  1.0  -0.2182
  C  C175  1  0.870600  0.675600  0.683000  1.0  0.2723
  C  C176  1  0.867700  0.761900  0.659300  1.0  -0.2473
  C  C177  1  0.787200  0.830800  0.625400  1.0  0.0156
  C  C178  1  0.327100  0.541300  0.733000  1.0  0.6925
  C  C179  1  0.224100  0.560500  0.728800  1.0  -0.1792
  C  C180  1  0.179200  0.588000  0.671000  1.0  0.0091
  C  C181  1  0.087500  0.603300  0.666000  1.0  -0.2419
  C  C182  1  0.035400  0.596000  0.720600  1.0  0.2923
  C  C183  1  0.075900  0.569500  0.778400  1.0  -0.2241
  C  C184  1  0.171200  0.552600  0.782800  1.0  0.0122
  O  O185  1  0.465200  0.634000  0.306400  1.0  -0.5606
  O  O186  1  0.455600  0.647400  0.200300  1.0  -0.5787
  O  O187  1  0.030300  0.379100  0.071700  1.0  -0.5799
  O  O188  1  0.130500  0.444100  0.062600  1.0  -0.5644
  O  O189  1  0.368000  0.071200  0.247800  1.0  -0.2434
  O  O190  1  0.863900  0.563500  0.067100  1.0  -0.5623
  O  O191  1  0.963300  0.629100  0.056500  1.0  -0.5658
  O  O192  1  0.517400  0.362200  0.289600  1.0  -0.6079
  O  O193  1  0.549500  0.371900  0.186000  1.0  -0.5415
  O  O194  1  0.605100  0.944300  0.220100  1.0  -0.2388
  O  O195  1  0.366000  0.534800  0.193600  1.0  -0.5591
  O  O196  1  0.352600  0.544400  0.299700  1.0  -0.5787
  O  O197  1  0.620900  0.969700  0.428300  1.0  -0.576
  O  O198  1  0.555900  0.869500  0.437400  1.0  -0.5663
  O  O199  1  0.928800  0.632000  0.252200  1.0  -0.2417
  O  O200  1  0.436500  0.136100  0.432900  1.0  -0.562
  O  O201  1  0.370900  0.036700  0.443500  1.0  -0.5641
  O  O202  1  0.637800  0.482600  0.210400  1.0  -0.6052
  O  O203  1  0.628100  0.450500  0.314000  1.0  -0.5415
  O  O204  1  0.055700  0.394900  0.279900  1.0  -0.2398
  O  O205  1  0.534800  0.366000  0.693600  1.0  -0.5589
  O  O206  1  0.544400  0.352600  0.799700  1.0  -0.5794
  O  O207  1  0.969700  0.620900  0.928300  1.0  -0.5779
  O  O208  1  0.869500  0.555900  0.937400  1.0  -0.5644
  O  O209  1  0.632000  0.928800  0.752200  1.0  -0.2413
  O  O210  1  0.136100  0.436500  0.932900  1.0  -0.5604
  O  O211  1  0.036700  0.370900  0.943500  1.0  -0.5663
  O  O212  1  0.482600  0.637800  0.710400  1.0  -0.608
  O  O213  1  0.450500  0.628100  0.814000  1.0  -0.5414
  O  O214  1  0.394900  0.055700  0.779900  1.0  -0.2388
  O  O215  1  0.634000  0.465200  0.806400  1.0  -0.5599
  O  O216  1  0.647400  0.455600  0.700300  1.0  -0.5782
  O  O217  1  0.379100  0.030300  0.571700  1.0  -0.5769
  O  O218  1  0.444100  0.130500  0.562600  1.0  -0.5644
  O  O219  1  0.071200  0.368000  0.747800  1.0  -0.2425
  O  O220  1  0.563500  0.863900  0.567100  1.0  -0.5631
  O  O221  1  0.629100  0.963300  0.556500  1.0  -0.5655
  O  O222  1  0.362200  0.517400  0.789600  1.0  -0.6056
  O  O223  1  0.371900  0.549500  0.686000  1.0  -0.5415
  O  O224  1  0.944300  0.605100  0.720100  1.0  -0.2393
