# generated using pymatgen
data_ZnH20C29N3O5
_symmetry_space_group_name_H-M   'P 1'
_cell_length_a   17.20000000
_cell_length_b   21.14590000
_cell_length_c   21.14590000
_cell_angle_alpha   80.47930000
_cell_angle_beta   66.00240000
_cell_angle_gamma   66.00240000
_symmetry_Int_Tables_number   1
_chemical_formula_structural   ZnH20C29N3O5
_chemical_formula_sum   'Zn8 H160 C232 N24 O40'
_cell_volume   6418.85134833
_cell_formula_units_Z   8
loop_
 _symmetry_equiv_pos_site_id
 _symmetry_equiv_pos_as_xyz
  1  'x, y, z'
loop_
 _atom_site_type_symbol
 _atom_site_label
 _atom_site_symmetry_multiplicity
 _atom_site_fract_x
 _atom_site_fract_y
 _atom_site_fract_z
 _atom_site_occupancy
 _atom_site_charge
  Zn  Zn1  1  0.397490  0.964310  0.245990  1.0  1.0
  Zn  Zn2  1  0.107790  0.535690  0.254010  1.0  1.001
  Zn  Zn3  1  0.643480  0.754010  0.464310  1.0  0.9981
  Zn  Zn4  1  0.361800  0.745990  0.035690  1.0  0.9983
  Zn  Zn5  1  0.602510  0.035690  0.754010  1.0  0.9982
  Zn  Zn6  1  0.892210  0.464310  0.745990  1.0  1.0
  Zn  Zn7  1  0.356520  0.245990  0.535690  1.0  0.9976
  Zn  Zn8  1  0.638200  0.254010  0.964310  1.0  0.997
  H  H9  1  0.643600  0.000100  0.288500  1.0  0.1068
  H  H10  1  0.774300  0.028500  0.240500  1.0  0.0957
  H  H11  1  0.774100  0.031900  0.057300  1.0  0.0907
  H  H12  1  0.642600  0.004200  0.101400  1.0  0.1103
  H  H13  1  0.916100  0.920000  0.105600  1.0  0.1057
  H  H14  1  0.066800  0.846000  0.075800  1.0  0.071
  H  H15  1  0.139000  0.001200  0.070000  1.0  0.0818
  H  H16  1  0.991600  0.077000  0.096000  1.0  0.1183
  H  H17  1  0.473600  0.844300  0.332900  1.0  0.074
  H  H18  1  0.558500  0.730300  0.322700  1.0  0.105
  H  H19  1  0.560000  0.740300  0.131900  1.0  0.0936
  H  H20  1  0.478400  0.853900  0.146700  1.0  0.0636
  H  H21  1  0.691600  0.634100  0.276300  1.0  0.0834
  H  H22  1  0.776800  0.518200  0.257000  1.0  0.0667
  H  H23  1  0.662400  0.510500  0.140300  1.0  0.0632
  H  H24  1  0.570400  0.629700  0.155700  1.0  0.1054
  H  H25  1  0.313000  0.078500  0.342500  1.0  0.0428
  H  H26  1  0.248300  0.194600  0.349400  1.0  0.1008
  H  H27  1  0.302900  0.196600  0.148600  1.0  0.1037
  H  H28  1  0.360300  0.081400  0.151600  1.0  0.0582
  H  H29  1  0.432200  0.499900  0.211500  1.0  0.1069
  H  H30  1  0.543300  0.471500  0.259500  1.0  0.0967
  H  H31  1  0.363300  0.468100  0.442700  1.0  0.0908
  H  H32  1  0.248200  0.495800  0.398600  1.0  0.1106
  H  H33  1  0.441700  0.580000  0.394400  1.0  0.1056
  H  H34  1  0.488600  0.654000  0.424200  1.0  0.0723
  H  H35  1  0.710200  0.498800  0.430000  1.0  0.0819
  H  H36  1  0.664600  0.423000  0.404000  1.0  0.119
  H  H37  1  0.150800  0.655700  0.167100  1.0  0.0729
  H  H38  1  0.111500  0.769700  0.177300  1.0  0.1033
  H  H39  1  0.932200  0.759700  0.368100  1.0  0.0943
  H  H40  1  0.979000  0.646100  0.353300  1.0  0.0631
  H  H41  1  0.102000  0.865900  0.223700  1.0  0.0841
  H  H42  1  0.052000  0.981800  0.243000  1.0  0.0679
  H  H43  1  0.813200  0.989500  0.359700  1.0  0.0592
  H  H44  1  0.855800  0.870300  0.344300  1.0  0.1085
  H  H45  1  0.234000  0.421500  0.157500  1.0  0.0427
  H  H46  1  0.292300  0.305400  0.150600  1.0  0.1012
  H  H47  1  0.148100  0.303400  0.351400  1.0  0.103
  H  H48  1  0.093300  0.418600  0.348400  1.0  0.0598
  H  H49  1  0.932100  0.711500  0.500100  1.0  0.1056
  H  H50  1  0.014800  0.759500  0.528500  1.0  0.0947
  H  H51  1  0.831400  0.942700  0.531900  1.0  0.0901
  H  H52  1  0.744000  0.898600  0.504200  1.0  0.1085
  H  H53  1  0.021700  0.894400  0.420000  1.0  0.1054
  H  H54  1  0.142600  0.924200  0.346000  1.0  0.0713
  H  H55  1  0.209000  0.930000  0.501200  1.0  0.081
  H  H56  1  0.087600  0.904000  0.577000  1.0  0.1193
  H  H57  1  0.806500  0.667100  0.344300  1.0  0.0756
  H  H58  1  0.881200  0.677300  0.230300  1.0  0.1047
  H  H59  1  0.691900  0.868100  0.240300  1.0  0.0952
  H  H60  1  0.625100  0.853300  0.353900  1.0  0.0632
  H  H61  1  0.967900  0.723700  0.134100  1.0  0.083
  H  H62  1  0.033800  0.743000  0.018200  1.0  0.0707
  H  H63  1  0.802700  0.859700  0.010500  1.0  0.0633
  H  H64  1  0.726100  0.844300  0.129700  1.0  0.1075
  H  H65  1  0.655500  0.657500  0.578500  1.0  0.0424
  H  H66  1  0.597700  0.650600  0.694600  1.0  0.1007
  H  H67  1  0.451500  0.851400  0.696600  1.0  0.1051
  H  H68  1  0.511900  0.848400  0.581400  1.0  0.0568
  H  H69  1  0.643700  0.788500  0.999900  1.0  0.1042
  H  H70  1  0.802800  0.740500  0.971500  1.0  0.0948
  H  H71  1  0.806000  0.557300  0.968100  1.0  0.0885
  H  H72  1  0.646800  0.601400  0.995800  1.0  0.1079
  H  H73  1  0.836100  0.605600  0.080000  1.0  0.1078
  H  H74  1  0.912800  0.575800  0.154000  1.0  0.0709
  H  H75  1  0.140200  0.570000  0.998800  1.0  0.0836
  H  H76  1  0.068600  0.596000  0.923000  1.0  0.119
  H  H77  1  0.317900  0.832900  0.155700  1.0  0.0748
  H  H78  1  0.288800  0.822700  0.269700  1.0  0.104
  H  H79  1  0.300300  0.631900  0.259700  1.0  0.094
  H  H80  1  0.332300  0.646700  0.146100  1.0  0.0631
  H  H81  1  0.325700  0.776300  0.365900  1.0  0.0841
  H  H82  1  0.295000  0.757000  0.481800  1.0  0.0678
  H  H83  1  0.172900  0.640300  0.489500  1.0  0.0577
  H  H84  1  0.200100  0.655700  0.370300  1.0  0.1058
  H  H85  1  0.391500  0.842500  0.921500  1.0  0.0433
  H  H86  1  0.442900  0.849400  0.805400  1.0  0.1027
  H  H87  1  0.499500  0.648600  0.803400  1.0  0.104
  H  H88  1  0.441700  0.651600  0.918600  1.0  0.0576
  H  H89  1  0.356400  0.999900  0.711500  1.0  0.1064
  H  H90  1  0.225700  0.971500  0.759500  1.0  0.0957
  H  H91  1  0.225900  0.968100  0.942700  1.0  0.0901
  H  H92  1  0.357400  0.995800  0.898600  1.0  0.1096
  H  H93  1  0.083900  0.080000  0.894400  1.0  0.1063
  H  H94  1  0.933200  0.154000  0.924200  1.0  0.0711
  H  H95  1  0.861000  0.998800  0.930000  1.0  0.0817
  H  H96  1  0.008400  0.923000  0.904000  1.0  0.1188
  H  H97  1  0.526400  0.155700  0.667100  1.0  0.0738
  H  H98  1  0.441500  0.269700  0.677300  1.0  0.1058
  H  H99  1  0.440000  0.259700  0.868100  1.0  0.0943
  H  H100  1  0.521600  0.146100  0.853300  1.0  0.0634
  H  H101  1  0.308400  0.365900  0.723700  1.0  0.0835
  H  H102  1  0.223200  0.481800  0.743000  1.0  0.0667
  H  H103  1  0.337600  0.489500  0.859700  1.0  0.0622
  H  H104  1  0.429600  0.370300  0.844300  1.0  0.1053
  H  H105  1  0.687000  0.921500  0.657500  1.0  0.0439
  H  H106  1  0.751700  0.805400  0.650600  1.0  0.101
  H  H107  1  0.697100  0.803400  0.851400  1.0  0.1042
  H  H108  1  0.639700  0.918600  0.848400  1.0  0.0581
  H  H109  1  0.567800  0.500100  0.788500  1.0  0.107
  H  H110  1  0.456700  0.528500  0.740500  1.0  0.0978
  H  H111  1  0.636700  0.531900  0.557300  1.0  0.091
  H  H112  1  0.751800  0.504200  0.601400  1.0  0.1102
  H  H113  1  0.558300  0.420000  0.605600  1.0  0.1051
  H  H114  1  0.511400  0.346000  0.575800  1.0  0.0719
  H  H115  1  0.289800  0.501200  0.570000  1.0  0.0819
  H  H116  1  0.335400  0.577000  0.596000  1.0  0.1182
  H  H117  1  0.849200  0.344300  0.832900  1.0  0.0739
  H  H118  1  0.888500  0.230300  0.822700  1.0  0.1038
  H  H119  1  0.067800  0.240300  0.631900  1.0  0.0943
  H  H120  1  0.021000  0.353900  0.646700  1.0  0.0628
  H  H121  1  0.898000  0.134100  0.776300  1.0  0.0839
  H  H122  1  0.948000  0.018200  0.757000  1.0  0.0672
  H  H123  1  0.186800  0.010500  0.640300  1.0  0.06
  H  H124  1  0.144200  0.129700  0.655700  1.0  0.1089
  H  H125  1  0.766000  0.578500  0.842500  1.0  0.0426
  H  H126  1  0.707700  0.694600  0.849400  1.0  0.1015
  H  H127  1  0.851900  0.696600  0.648600  1.0  0.1039
  H  H128  1  0.906700  0.581400  0.651600  1.0  0.0595
  H  H129  1  0.067900  0.288500  0.499900  1.0  0.1045
  H  H130  1  0.985200  0.240500  0.471500  1.0  0.0939
  H  H131  1  0.168600  0.057300  0.468100  1.0  0.09
  H  H132  1  0.256000  0.101400  0.495800  1.0  0.1087
  H  H133  1  0.978300  0.105600  0.580000  1.0  0.1058
  H  H134  1  0.857400  0.075800  0.654000  1.0  0.071
  H  H135  1  0.791000  0.070000  0.498800  1.0  0.0818
  H  H136  1  0.912400  0.096000  0.423000  1.0  0.1201
  H  H137  1  0.193500  0.332900  0.655700  1.0  0.0755
  H  H138  1  0.118800  0.322700  0.769700  1.0  0.1045
  H  H139  1  0.308100  0.131900  0.759700  1.0  0.0949
  H  H140  1  0.374900  0.146700  0.646100  1.0  0.0625
  H  H141  1  0.032100  0.276300  0.865900  1.0  0.083
  H  H142  1  0.966200  0.257000  0.981800  1.0  0.0685
  H  H143  1  0.197300  0.140300  0.989500  1.0  0.0594
  H  H144  1  0.273900  0.155700  0.870300  1.0  0.1083
  H  H145  1  0.344500  0.342500  0.421500  1.0  0.0428
  H  H146  1  0.402300  0.349400  0.305400  1.0  0.1014
  H  H147  1  0.548500  0.148600  0.303400  1.0  0.1051
  H  H148  1  0.488100  0.151600  0.418600  1.0  0.0576
  H  H149  1  0.356300  0.211500  0.000100  1.0  0.1053
  H  H150  1  0.197200  0.259500  0.028500  1.0  0.0949
  H  H151  1  0.194000  0.442700  0.031900  1.0  0.089
  H  H152  1  0.353200  0.398600  0.004200  1.0  0.1083
  H  H153  1  0.163900  0.394400  0.920000  1.0  0.1072
  H  H154  1  0.087200  0.424200  0.846000  1.0  0.0712
  H  H155  1  0.859800  0.430000  0.001200  1.0  0.0837
  H  H156  1  0.931400  0.404000  0.077000  1.0  0.1192
  H  H157  1  0.682100  0.167100  0.844300  1.0  0.0748
  H  H158  1  0.711200  0.177300  0.730300  1.0  0.1031
  H  H159  1  0.699700  0.368100  0.740300  1.0  0.0944
  H  H160  1  0.667700  0.353300  0.853900  1.0  0.0635
  H  H161  1  0.674300  0.223700  0.634100  1.0  0.0842
  H  H162  1  0.705000  0.243000  0.518200  1.0  0.0687
  H  H163  1  0.827100  0.359700  0.510500  1.0  0.0588
  H  H164  1  0.799900  0.344300  0.629700  1.0  0.106
  H  H165  1  0.608500  0.157500  0.078500  1.0  0.0432
  H  H166  1  0.557100  0.150600  0.194600  1.0  0.1022
  H  H167  1  0.500500  0.351400  0.196600  1.0  0.1048
  H  H168  1  0.558300  0.348400  0.081400  1.0  0.0565
  C  C169  1  0.543600  0.983700  0.228500  1.0  0.6707
  C  C170  1  0.628300  0.003000  0.199000  1.0  -0.0948
  C  C171  1  0.668300  0.007600  0.241200  1.0  -0.1063
  C  C172  1  0.747400  0.024000  0.212000  1.0  -0.195
  C  C173  1  0.781900  0.032600  0.147400  1.0  0.3657
  C  C174  1  0.746500  0.025900  0.104700  1.0  -0.1473
  C  C175  1  0.667200  0.009800  0.131000  1.0  -0.1121
  C  C176  1  0.944200  0.004200  0.102200  1.0  0.2882
  C  C177  1  0.962200  0.936200  0.097400  1.0  -0.1796
  C  C178  1  0.051600  0.893000  0.080200  1.0  -0.0491
  C  C179  1  0.119000  0.915000  0.069200  1.0  -0.0369
  C  C180  1  0.093800  0.984600  0.076400  1.0  -0.1064
  C  C181  1  0.007100  0.029800  0.092200  1.0  -0.2096
  C  C182  1  0.214300  0.867900  0.052900  1.0  0.6653
  C  C183  1  0.492700  0.822900  0.291300  1.0  0.1434
  C  C184  1  0.542900  0.754100  0.285900  1.0  -0.2124
  C  C185  1  0.570800  0.719400  0.226400  1.0  0.1076
  C  C186  1  0.543800  0.760600  0.173400  1.0  -0.2029
  C  C187  1  0.494800  0.828800  0.182800  1.0  0.1719
  C  C188  1  0.622800  0.645800  0.217000  1.0  0.1176
  C  C189  1  0.683600  0.610800  0.247200  1.0  -0.1837
  C  C190  1  0.734800  0.540300  0.235700  1.0  0.168
  C  C191  1  0.669100  0.535700  0.168500  1.0  0.1604
  C  C192  1  0.612600  0.608900  0.177100  1.0  -0.2016
  C  C193  1  0.308600  0.103000  0.302600  1.0  0.1702
  C  C194  1  0.271900  0.173100  0.307100  1.0  -0.2289
  C  C195  1  0.269900  0.211800  0.248600  1.0  0.0797
  C  C196  1  0.303200  0.174100  0.190300  1.0  -0.2411
  C  C197  1  0.336200  0.105200  0.192800  1.0  0.1676
  C  C198  1  0.255800  0.516300  0.271500  1.0  0.671
  C  C199  1  0.330300  0.497000  0.301000  1.0  -0.0964
  C  C200  1  0.417100  0.492400  0.258800  1.0  -0.1076
  C  C201  1  0.483400  0.476000  0.288000  1.0  -0.1978
  C  C202  1  0.461900  0.467400  0.352600  1.0  0.3642
  C  C203  1  0.377100  0.474100  0.395300  1.0  -0.1489
  C  C204  1  0.308000  0.490200  0.369000  1.0  -0.1124
  C  C205  1  0.550600  0.495800  0.397800  1.0  0.2887
  C  C206  1  0.495800  0.563800  0.402600  1.0  -0.1785
  C  C207  1  0.524800  0.607000  0.419800  1.0  -0.0492
  C  C208  1  0.603200  0.585000  0.430800  1.0  -0.0386
  C  C209  1  0.654800  0.515400  0.423600  1.0  -0.1021
  C  C210  1  0.629100  0.470200  0.407800  1.0  -0.2134
  C  C211  1  0.635100  0.632100  0.447100  1.0  0.6656
  C  C212  1  0.106900  0.677100  0.208700  1.0  0.1444
  C  C213  1  0.082900  0.745900  0.214100  1.0  -0.2132
  C  C214  1  0.016600  0.780600  0.273600  1.0  0.1072
  C  C215  1  0.977800  0.739400  0.326600  1.0  -0.2027
  C  C216  1  0.006400  0.671200  0.317200  1.0  0.1727
  C  C217  1  0.985600  0.854200  0.283000  1.0  0.117
  C  C218  1  0.041600  0.889200  0.252800  1.0  -0.1853
  C  C219  1  0.010800  0.959700  0.264300  1.0  0.1683
  C  C220  1  0.873300  0.964300  0.331500  1.0  0.1603
  C  C221  1  0.898600  0.891100  0.322900  1.0  -0.2032
  C  C222  1  0.214200  0.397000  0.197400  1.0  0.1679
  C  C223  1  0.252100  0.326900  0.192900  1.0  -0.2291
  C  C224  1  0.230300  0.288200  0.251400  1.0  0.079
  C  C225  1  0.167600  0.325900  0.309700  1.0  -0.2381
  C  C226  1  0.134200  0.394800  0.307200  1.0  0.1701
  C  C227  1  0.772100  0.771500  0.483700  1.0  0.6704
  C  C228  1  0.827300  0.801000  0.503000  1.0  -0.0943
  C  C229  1  0.909500  0.758800  0.507600  1.0  -0.1061
  C  C230  1  0.959400  0.788000  0.524000  1.0  -0.201
  C  C231  1  0.929300  0.852600  0.532600  1.0  0.3675
  C  C232  1  0.851200  0.895300  0.525900  1.0  -0.1493
  C  C233  1  0.798200  0.869000  0.509800  1.0  -0.1155
  C  C234  1  0.046400  0.897800  0.504200  1.0  0.2885
  C  C235  1  0.059600  0.902600  0.436200  1.0  -0.181
  C  C236  1  0.131800  0.919800  0.393000  1.0  -0.0476
  C  C237  1  0.188200  0.930800  0.415000  1.0  -0.0366
  C  C238  1  0.170200  0.923600  0.484600  1.0  -0.1036
  C  C239  1  0.099300  0.907800  0.529800  1.0  -0.2048
  C  C240  1  0.267200  0.947100  0.367900  1.0  0.6645
  C  C241  1  0.784000  0.708700  0.322900  1.0  0.1474
  C  C242  1  0.828800  0.714100  0.254100  1.0  -0.2132
  C  C243  1  0.797200  0.773600  0.219400  1.0  0.1066
  C  C244  1  0.717200  0.826600  0.260600  1.0  -0.2025
  C  C245  1  0.677600  0.817200  0.328800  1.0  0.1728
  C  C246  1  0.839800  0.783000  0.145800  1.0  0.1171
  C  C247  1  0.930800  0.752800  0.110800  1.0  -0.1839
  C  C248  1  0.970500  0.764300  0.040300  1.0  0.174
  C  C249  1  0.837600  0.831500  0.035700  1.0  0.1649
  C  C250  1  0.789700  0.822900  0.108900  1.0  -0.2037
  C  C251  1  0.611200  0.697400  0.603000  1.0  0.168
  C  C252  1  0.579000  0.692900  0.673100  1.0  -0.2267
  C  C253  1  0.518500  0.751400  0.711800  1.0  0.0779
  C  C254  1  0.493500  0.809700  0.674100  1.0  -0.2409
  C  C255  1  0.529000  0.807200  0.605200  1.0  0.1694
  C  C256  1  0.527300  0.728500  0.016300  1.0  0.6705
  C  C257  1  0.631300  0.699000  0.997000  1.0  -0.0937
  C  C258  1  0.675900  0.741200  0.992400  1.0  -0.1092
  C  C259  1  0.771400  0.712000  0.976000  1.0  -0.1989
  C  C260  1  0.814500  0.647400  0.967400  1.0  0.3622
  C  C261  1  0.772400  0.604700  0.974100  1.0  -0.1476
  C  C262  1  0.677000  0.631000  0.990200  1.0  -0.1169
  C  C263  1  0.948400  0.602200  0.995800  1.0  0.2888
  C  C264  1  0.898400  0.597400  0.063800  1.0  -0.1795
  C  C265  1  0.944600  0.580200  0.107000  1.0  -0.0426
  C  C266  1  0.034000  0.569200  0.085000  1.0  -0.0379
  C  C267  1  0.078400  0.576400  0.015400  1.0  -0.1013
  C  C268  1  0.036900  0.592200  0.970200  1.0  -0.2144
  C  C269  1  0.082200  0.552900  0.132100  1.0  0.6678
  C  C270  1  0.315600  0.791300  0.177100  1.0  0.1452
  C  C271  1  0.297000  0.785900  0.245900  1.0  -0.2137
  C  C272  1  0.290200  0.726400  0.280600  1.0  0.1072
  C  C273  1  0.304400  0.673400  0.239400  1.0  -0.2036
  C  C274  1  0.323600  0.682800  0.171200  1.0  0.1738
  C  C275  1  0.268600  0.717000  0.354200  1.0  0.1164
  C  C276  1  0.294400  0.747200  0.389200  1.0  -0.1823
  C  C277  1  0.275100  0.735700  0.459700  1.0  0.1705
  C  C278  1  0.204800  0.668500  0.464300  1.0  0.164
  C  C279  1  0.221500  0.677100  0.391100  1.0  -0.1999
  C  C280  1  0.411600  0.802600  0.897000  1.0  0.1706
  C  C281  1  0.445000  0.807100  0.826900  1.0  -0.2291
  C  C282  1  0.481700  0.748600  0.788200  1.0  0.0782
  C  C283  1  0.477300  0.690300  0.825900  1.0  -0.2355
  C  C284  1  0.441400  0.692800  0.894800  1.0  0.1703
  C  C285  1  0.456400  0.016300  0.771500  1.0  0.672
  C  C286  1  0.371700  0.997000  0.801000  1.0  -0.0938
  C  C287  1  0.331700  0.992400  0.758800  1.0  -0.1057
  C  C288  1  0.252600  0.976000  0.788000  1.0  -0.1964
  C  C289  1  0.218100  0.967400  0.852600  1.0  0.3653
  C  C290  1  0.253500  0.974100  0.895300  1.0  -0.1475
  C  C291  1  0.332800  0.990200  0.869000  1.0  -0.113
  C  C292  1  0.055800  0.995800  0.897800  1.0  0.2892
  C  C293  1  0.037800  0.063800  0.902600  1.0  -0.1793
  C  C294  1  0.948400  0.107000  0.919800  1.0  -0.049
  C  C295  1  0.881000  0.085000  0.930800  1.0  -0.0389
  C  C296  1  0.906200  0.015400  0.923600  1.0  -0.1039
  C  C297  1  0.992900  0.970200  0.907800  1.0  -0.2118
  C  C298  1  0.785700  0.132100  0.947100  1.0  0.6643
  C  C299  1  0.507300  0.177100  0.708700  1.0  0.1449
  C  C300  1  0.457100  0.245900  0.714100  1.0  -0.212
  C  C301  1  0.429200  0.280600  0.773600  1.0  0.1072
  C  C302  1  0.456200  0.239400  0.826600  1.0  -0.2019
  C  C303  1  0.505200  0.171200  0.817200  1.0  0.171
  C  C304  1  0.377200  0.354200  0.783000  1.0  0.117
  C  C305  1  0.316400  0.389200  0.752800  1.0  -0.184
  C  C306  1  0.265200  0.459700  0.764300  1.0  0.1668
  C  C307  1  0.330900  0.464300  0.831500  1.0  0.1592
  C  C308  1  0.387400  0.391100  0.822900  1.0  -0.1995
  C  C309  1  0.691400  0.897000  0.697400  1.0  0.17
  C  C310  1  0.728100  0.826900  0.692900  1.0  -0.2283
  C  C311  1  0.730100  0.788200  0.751400  1.0  0.0794
  C  C312  1  0.696800  0.825900  0.809700  1.0  -0.2398
  C  C313  1  0.663800  0.894800  0.807200  1.0  0.168
  C  C314  1  0.744200  0.483700  0.728500  1.0  0.6734
  C  C315  1  0.669700  0.503000  0.699000  1.0  -0.0983
  C  C316  1  0.582900  0.507600  0.741200  1.0  -0.1073
  C  C317  1  0.516600  0.524000  0.712000  1.0  -0.198
  C  C318  1  0.538100  0.532600  0.647400  1.0  0.3635
  C  C319  1  0.622900  0.525900  0.604700  1.0  -0.1472
  C  C320  1  0.692000  0.509800  0.631000  1.0  -0.115
  C  C321  1  0.449400  0.504200  0.602200  1.0  0.2884
  C  C322  1  0.504200  0.436200  0.597400  1.0  -0.1793
  C  C323  1  0.475200  0.393000  0.580200  1.0  -0.0497
  C  C324  1  0.396800  0.415000  0.569200  1.0  -0.0417
  C  C325  1  0.345200  0.484600  0.576400  1.0  -0.1042
  C  C326  1  0.370900  0.529800  0.592200  1.0  -0.2094
  C  C327  1  0.364900  0.367900  0.552900  1.0  0.6653
  C  C328  1  0.893100  0.322900  0.791300  1.0  0.1442
  C  C329  1  0.917100  0.254100  0.785900  1.0  -0.2141
  C  C330  1  0.983400  0.219400  0.726400  1.0  0.1077
  C  C331  1  0.022200  0.260600  0.673400  1.0  -0.203
  C  C332  1  0.993600  0.328800  0.682800  1.0  0.1718
  C  C333  1  0.014400  0.145800  0.717000  1.0  0.1178
  C  C334  1  0.958400  0.110800  0.747200  1.0  -0.1845
  C  C335  1  0.989200  0.040300  0.735700  1.0  0.1686
  C  C336  1  0.126700  0.035700  0.668500  1.0  0.1611
  C  C337  1  0.101400  0.108900  0.677100  1.0  -0.2021
  C  C338  1  0.785800  0.603000  0.802600  1.0  0.1703
  C  C339  1  0.747900  0.673100  0.807100  1.0  -0.2277
  C  C340  1  0.769700  0.711800  0.748600  1.0  0.0808
  C  C341  1  0.832400  0.674100  0.690300  1.0  -0.24
  C  C342  1  0.865800  0.605200  0.692800  1.0  0.1705
  C  C343  1  0.227900  0.228500  0.516300  1.0  0.6725
  C  C344  1  0.172700  0.199000  0.497000  1.0  -0.0944
  C  C345  1  0.090500  0.241200  0.492400  1.0  -0.1061
  C  C346  1  0.040600  0.212000  0.476000  1.0  -0.2002
  C  C347  1  0.070700  0.147400  0.467400  1.0  0.3659
  C  C348  1  0.148800  0.104700  0.474100  1.0  -0.1484
  C  C349  1  0.201800  0.131000  0.490200  1.0  -0.1167
  C  C350  1  0.953600  0.102200  0.495800  1.0  0.2894
  C  C351  1  0.940400  0.097400  0.563800  1.0  -0.1805
  C  C352  1  0.868200  0.080200  0.607000  1.0  -0.0451
  C  C353  1  0.811800  0.069200  0.585000  1.0  -0.0393
  C  C354  1  0.829800  0.076400  0.515400  1.0  -0.1038
  C  C355  1  0.900700  0.092200  0.470200  1.0  -0.2066
  C  C356  1  0.732800  0.052900  0.632100  1.0  0.6622
  C  C357  1  0.216000  0.291300  0.677100  1.0  0.1463
  C  C358  1  0.171200  0.285900  0.745900  1.0  -0.2138
  C  C359  1  0.202800  0.226400  0.780600  1.0  0.107
  C  C360  1  0.282800  0.173400  0.739400  1.0  -0.203
  C  C361  1  0.322400  0.182800  0.671200  1.0  0.1723
  C  C362  1  0.160200  0.217000  0.854200  1.0  0.1159
  C  C363  1  0.069200  0.247200  0.889200  1.0  -0.1821
  C  C364  1  0.029500  0.235700  0.959700  1.0  0.1725
  C  C365  1  0.162400  0.168500  0.964300  1.0  0.1648
  C  C366  1  0.210300  0.177100  0.891100  1.0  -0.2025
  C  C367  1  0.388800  0.302600  0.397000  1.0  0.1695
  C  C368  1  0.421000  0.307100  0.326900  1.0  -0.2264
  C  C369  1  0.481500  0.248600  0.288200  1.0  0.0775
  C  C370  1  0.506500  0.190300  0.325900  1.0  -0.2412
  C  C371  1  0.471000  0.192800  0.394800  1.0  0.1678
  C  C372  1  0.472700  0.271500  0.983700  1.0  0.6726
  C  C373  1  0.368700  0.301000  0.003000  1.0  -0.0946
  C  C374  1  0.324100  0.258800  0.007600  1.0  -0.1063
  C  C375  1  0.228600  0.288000  0.024000  1.0  -0.2017
  C  C376  1  0.185500  0.352600  0.032600  1.0  0.3636
  C  C377  1  0.227600  0.395300  0.025900  1.0  -0.1501
  C  C378  1  0.323000  0.369000  0.009800  1.0  -0.1173
  C  C379  1  0.051600  0.397800  0.004200  1.0  0.2891
  C  C380  1  0.101600  0.402600  0.936200  1.0  -0.1799
  C  C381  1  0.055400  0.419800  0.893000  1.0  -0.0434
  C  C382  1  0.966000  0.430800  0.915000  1.0  -0.0387
  C  C383  1  0.921600  0.423600  0.984600  1.0  -0.1022
  C  C384  1  0.963100  0.407800  0.029800  1.0  -0.2131
  C  C385  1  0.917800  0.447100  0.867900  1.0  0.6675
  C  C386  1  0.684400  0.208700  0.822900  1.0  0.1454
  C  C387  1  0.703000  0.214100  0.754100  1.0  -0.2138
  C  C388  1  0.709800  0.273600  0.719400  1.0  0.107
  C  C389  1  0.695600  0.326600  0.760600  1.0  -0.2006
  C  C390  1  0.676400  0.317200  0.828800  1.0  0.1726
  C  C391  1  0.731400  0.283000  0.645800  1.0  0.1172
  C  C392  1  0.705600  0.252800  0.610800  1.0  -0.1835
  C  C393  1  0.724900  0.264300  0.540300  1.0  0.1715
  C  C394  1  0.795200  0.331500  0.535700  1.0  0.164
  C  C395  1  0.778500  0.322900  0.608900  1.0  -0.2019
  C  C396  1  0.588400  0.197400  0.103000  1.0  0.1701
  C  C397  1  0.555000  0.192900  0.173100  1.0  -0.2291
  C  C398  1  0.518300  0.251400  0.211800  1.0  0.0794
  C  C399  1  0.522700  0.309700  0.174100  1.0  -0.2371
  C  C400  1  0.558600  0.307200  0.105200  1.0  0.1731
  N  N401  1  0.468100  0.863100  0.239900  1.0  -0.3329
  N  N402  1  0.726500  0.504000  0.196600  1.0  -0.3593
  N  N403  1  0.337300  0.068400  0.249200  1.0  -0.2776
  N  N404  1  0.071100  0.636900  0.260100  1.0  -0.3336
  N  N405  1  0.927100  0.996000  0.303400  1.0  -0.3635
  N  N406  1  0.154900  0.431600  0.250800  1.0  -0.2744
  N  N407  1  0.708000  0.760100  0.363100  1.0  -0.3322
  N  N408  1  0.923100  0.803400  0.004000  1.0  -0.3685
  N  N409  1  0.586500  0.750800  0.568400  1.0  -0.2787
  N  N410  1  0.331200  0.739900  0.136900  1.0  -0.3352
  N  N411  1  0.230500  0.696600  0.496000  1.0  -0.3696
  N  N412  1  0.405700  0.749200  0.931600  1.0  -0.2771
  N  N413  1  0.531900  0.136900  0.760100  1.0  -0.3325
  N  N414  1  0.273500  0.496000  0.803400  1.0  -0.3629
  N  N415  1  0.662700  0.931600  0.750800  1.0  -0.28
  N  N416  1  0.928900  0.363100  0.739900  1.0  -0.3339
  N  N417  1  0.072900  0.004000  0.696600  1.0  -0.3636
  N  N418  1  0.845100  0.568400  0.749200  1.0  -0.2753
  N  N419  1  0.292000  0.239900  0.636900  1.0  -0.3341
  N  N420  1  0.076900  0.196600  0.996000  1.0  -0.3662
  N  N421  1  0.413500  0.249200  0.431600  1.0  -0.281
  N  N422  1  0.668800  0.260100  0.863100  1.0  -0.3331
  N  N423  1  0.769500  0.303400  0.504000  1.0  -0.3664
  N  N424  1  0.594300  0.250800  0.068400  1.0  -0.2799
  O  O425  1  0.513300  0.975900  0.189900  1.0  -0.5611
  O  O426  1  0.510200  0.978600  0.291200  1.0  -0.5531
  O  O427  1  0.854600  0.053700  0.120500  1.0  -0.2764
  O  O428  1  0.234300  0.804700  0.048100  1.0  -0.586
  O  O429  1  0.276500  0.889500  0.045100  1.0  -0.5605
  O  O430  1  0.179100  0.524100  0.310100  1.0  -0.5597
  O  O431  1  0.280000  0.521400  0.208800  1.0  -0.552
  O  O432  1  0.528800  0.446300  0.379500  1.0  -0.2773
  O  O433  1  0.587100  0.695300  0.451900  1.0  -0.5869
  O  O434  1  0.711100  0.610500  0.454900  1.0  -0.5608
  O  O435  1  0.703200  0.810100  0.475900  1.0  -0.5599
  O  O436  1  0.801400  0.708800  0.478600  1.0  -0.5503
  O  O437  1  0.975100  0.879500  0.553700  1.0  -0.2765
  O  O438  1  0.282400  0.951900  0.304700  1.0  -0.5841
  O  O439  1  0.321600  0.954900  0.389500  1.0  -0.5646
  O  O440  1  0.489200  0.689900  0.024100  1.0  -0.5607
  O  O441  1  0.488800  0.791200  0.021400  1.0  -0.5486
  O  O442  1  0.908300  0.620500  0.946300  1.0  -0.2767
  O  O443  1  0.039000  0.548100  0.195300  1.0  -0.5861
  O  O444  1  0.166000  0.545100  0.110500  1.0  -0.5619
  O  O445  1  0.486700  0.024100  0.810100  1.0  -0.5604
  O  O446  1  0.489800  0.021400  0.708800  1.0  -0.5524
  O  O447  1  0.145400  0.946300  0.879500  1.0  -0.276
  O  O448  1  0.765700  0.195300  0.951900  1.0  -0.5872
  O  O449  1  0.723500  0.110500  0.954900  1.0  -0.5586
  O  O450  1  0.820900  0.475900  0.689900  1.0  -0.5602
  O  O451  1  0.720000  0.478600  0.791200  1.0  -0.5521
  O  O452  1  0.471200  0.553700  0.620500  1.0  -0.2775
  O  O453  1  0.412900  0.304700  0.548100  1.0  -0.5874
  O  O454  1  0.288900  0.389500  0.545100  1.0  -0.5571
  O  O455  1  0.296800  0.189900  0.524100  1.0  -0.5597
  O  O456  1  0.198600  0.291200  0.521400  1.0  -0.5473
  O  O457  1  0.024900  0.120500  0.446300  1.0  -0.2775
  O  O458  1  0.717600  0.048100  0.695300  1.0  -0.5854
  O  O459  1  0.678400  0.045100  0.610500  1.0  -0.5623
  O  O460  1  0.510800  0.310100  0.975900  1.0  -0.5596
  O  O461  1  0.511200  0.208800  0.978600  1.0  -0.5521
  O  O462  1  0.091700  0.379500  0.053700  1.0  -0.2783
  O  O463  1  0.961000  0.451900  0.804700  1.0  -0.5863
  O  O464  1  0.834000  0.454900  0.889500  1.0  -0.5591
