# generated using pymatgen
data_Yb3H10C20(NO12)2
_symmetry_space_group_name_H-M   'P 1'
_cell_length_a   9.76410000
_cell_length_b   14.04880000
_cell_length_c   14.04880000
_cell_angle_alpha   94.95310000
_cell_angle_beta   104.19600000
_cell_angle_gamma   104.19600000
_symmetry_Int_Tables_number   1
_chemical_formula_structural   Yb3H10C20(NO12)2
_chemical_formula_sum   'Yb6 H20 C40 N4 O48'
_cell_volume   1789.09248943
_cell_formula_units_Z   2
loop_
 _symmetry_equiv_pos_site_id
 _symmetry_equiv_pos_as_xyz
  1  'x, y, z'
loop_
 _atom_site_type_symbol
 _atom_site_label
 _atom_site_symmetry_multiplicity
 _atom_site_fract_x
 _atom_site_fract_y
 _atom_site_fract_z
 _atom_site_occupancy
 _atom_site_charge
  Yb  Yb1  1  0.843630  0.369070  0.197120  1.0  1.2164
  Yb  Yb2  1  0.656370  0.802880  0.630930  1.0  1.2174
  Yb  Yb3  1  0.156370  0.630930  0.802880  1.0  1.2188
  Yb  Yb4  1  0.343630  0.197120  0.369070  1.0  1.2142
  Yb  Yb5  1  0.750000  0.218730  0.781270  1.0  1.2732
  Yb  Yb6  1  0.250000  0.781270  0.218730  1.0  1.276
  H  H7  1  0.366400  0.261000  0.854800  1.0  0.1458
  H  H8  1  0.190000  0.405700  0.025300  1.0  0.1482
  H  H9  1  0.163900  0.310100  0.880500  1.0  0.1671
  H  H10  1  0.873000  0.168000  0.936000  1.0  0.4526
  H  H11  1  0.897000  0.261000  0.983000  1.0  0.4893
  H  H12  1  0.133600  0.145200  0.739000  1.0  0.1442
  H  H13  1  0.310000  0.974700  0.594300  1.0  0.1481
  H  H14  1  0.336100  0.119500  0.689900  1.0  0.1672
  H  H15  1  0.627000  0.064000  0.832000  1.0  0.4519
  H  H16  1  0.603000  0.017000  0.739000  1.0  0.4858
  H  H17  1  0.633600  0.739000  0.145200  1.0  0.1453
  H  H18  1  0.810000  0.594300  0.974700  1.0  0.1482
  H  H19  1  0.836100  0.689900  0.119500  1.0  0.1671
  H  H20  1  0.127000  0.832000  0.064000  1.0  0.4552
  H  H21  1  0.103000  0.739000  0.017000  1.0  0.4874
  H  H22  1  0.866400  0.854800  0.261000  1.0  0.1446
  H  H23  1  0.690000  0.025300  0.405700  1.0  0.1474
  H  H24  1  0.663900  0.880500  0.310100  1.0  0.1673
  H  H25  1  0.373000  0.936000  0.168000  1.0  0.4516
  H  H26  1  0.397000  0.983000  0.261000  1.0  0.4881
  C  C27  1  0.521600  0.385600  0.077000  1.0  0.6369
  C  C28  1  0.137800  0.334600  0.320400  1.0  0.6248
  C  C29  1  0.629900  0.287800  0.968000  1.0  0.7154
  C  C30  1  0.085800  0.254300  0.228700  1.0  0.6151
  C  C31  1  0.916300  0.449700  0.831300  1.0  0.6052
  C  C32  1  0.505200  0.323800  0.986600  1.0  -0.1011
  C  C33  1  0.375200  0.298900  0.914900  1.0  -0.0006
  C  C34  1  0.269400  0.385300  0.014500  1.0  0.236
  C  C35  1  0.253300  0.329000  0.929400  1.0  -0.1238
  C  C36  1  0.986000  0.405500  0.756700  1.0  0.6354
  C  C37  1  0.978400  0.923000  0.614400  1.0  0.6355
  C  C38  1  0.362200  0.679600  0.665400  1.0  0.6233
  C  C39  1  0.870100  0.032000  0.712200  1.0  0.7145
  C  C40  1  0.414200  0.771300  0.745700  1.0  0.6144
  C  C41  1  0.583700  0.168700  0.550300  1.0  0.6052
  C  C42  1  0.994800  0.013400  0.676200  1.0  -0.1002
  C  C43  1  0.124800  0.085100  0.701100  1.0  -0.0035
  C  C44  1  0.230600  0.985500  0.614700  1.0  0.2372
  C  C45  1  0.246700  0.070600  0.671000  1.0  -0.1241
  C  C46  1  0.514000  0.243300  0.594500  1.0  0.6354
  C  C47  1  0.478400  0.614400  0.923000  1.0  0.6384
  C  C48  1  0.862200  0.665400  0.679600  1.0  0.6237
  C  C49  1  0.370100  0.712200  0.032000  1.0  0.7151
  C  C50  1  0.914200  0.745700  0.771300  1.0  0.6157
  C  C51  1  0.083700  0.550300  0.168700  1.0  0.6048
  C  C52  1  0.494800  0.676200  0.013400  1.0  -0.0999
  C  C53  1  0.624800  0.701100  0.085100  1.0  -0.0015
  C  C54  1  0.730600  0.614700  0.985500  1.0  0.2347
  C  C55  1  0.746700  0.671000  0.070600  1.0  -0.1239
  C  C56  1  0.014000  0.594500  0.243300  1.0  0.636
  C  C57  1  0.021600  0.077000  0.385600  1.0  0.635
  C  C58  1  0.637800  0.320400  0.334600  1.0  0.6244
  C  C59  1  0.129900  0.968000  0.287800  1.0  0.716
  C  C60  1  0.585800  0.228700  0.254300  1.0  0.614
  C  C61  1  0.416300  0.831300  0.449700  1.0  0.6064
  C  C62  1  0.005200  0.986600  0.323800  1.0  -0.0994
  C  C63  1  0.875200  0.914900  0.298900  1.0  -0.0016
  C  C64  1  0.769400  0.014500  0.385300  1.0  0.2365
  C  C65  1  0.753300  0.929400  0.329000  1.0  -0.1255
  C  C66  1  0.486000  0.756700  0.405500  1.0  0.6309
  N  N67  1  0.399600  0.413300  0.085900  1.0  -0.3535
  N  N68  1  0.100400  0.914100  0.586700  1.0  -0.3508
  N  N69  1  0.600400  0.586700  0.914100  1.0  -0.3534
  N  N70  1  0.899600  0.085900  0.413300  1.0  -0.3507
  O  O71  1  0.635500  0.417800  0.149200  1.0  -0.6139
  O  O72  1  0.053900  0.386400  0.329200  1.0  -0.5222
  O  O73  1  0.751700  0.310000  0.034800  1.0  -0.5318
  O  O74  1  0.812900  0.390500  0.849100  1.0  -0.5317
  O  O75  1  0.607800  0.237000  0.885000  1.0  -0.5649
  O  O76  1  0.912100  0.229000  0.933800  1.0  -0.7138
  O  O77  1  0.964000  0.249500  0.169100  1.0  -0.5539
  O  O78  1  0.973900  0.539600  0.866400  1.0  -0.5491
  O  O79  1  0.259800  0.340300  0.379300  1.0  -0.5416
  O  O80  1  0.167200  0.199500  0.220500  1.0  -0.5485
  O  O81  1  0.931900  0.314800  0.722000  1.0  -0.5425
  O  O82  1  0.089100  0.463600  0.734400  1.0  -0.5331
  O  O83  1  0.864500  0.850800  0.582200  1.0  -0.6132
  O  O84  1  0.446100  0.670800  0.613600  1.0  -0.5204
  O  O85  1  0.748300  0.965200  0.690000  1.0  -0.5323
  O  O86  1  0.687100  0.150900  0.609500  1.0  -0.5296
  O  O87  1  0.892200  0.115000  0.763000  1.0  -0.5649
  O  O88  1  0.587900  0.066200  0.771000  1.0  -0.7116
  O  O89  1  0.536000  0.830900  0.750500  1.0  -0.5571
  O  O90  1  0.526100  0.133600  0.460400  1.0  -0.5458
  O  O91  1  0.240200  0.620700  0.659700  1.0  -0.5436
  O  O92  1  0.332800  0.779500  0.800500  1.0  -0.549
  O  O93  1  0.568100  0.278000  0.685200  1.0  -0.5417
  O  O94  1  0.410900  0.265600  0.536400  1.0  -0.5308
  O  O95  1  0.364500  0.582200  0.850800  1.0  -0.6144
  O  O96  1  0.946100  0.613600  0.670800  1.0  -0.5214
  O  O97  1  0.248300  0.690000  0.965200  1.0  -0.5323
  O  O98  1  0.187100  0.609500  0.150900  1.0  -0.5321
  O  O99  1  0.392200  0.763000  0.115000  1.0  -0.5649
  O  O100  1  0.087900  0.771000  0.066200  1.0  -0.7116
  O  O101  1  0.036000  0.750500  0.830900  1.0  -0.5539
  O  O102  1  0.026100  0.460400  0.133600  1.0  -0.5497
  O  O103  1  0.740200  0.659700  0.620700  1.0  -0.5428
  O  O104  1  0.832800  0.800500  0.779500  1.0  -0.5488
  O  O105  1  0.068100  0.685200  0.278000  1.0  -0.5441
  O  O106  1  0.910900  0.536400  0.265600  1.0  -0.5329
  O  O107  1  0.135500  0.149200  0.417800  1.0  -0.614
  O  O108  1  0.553900  0.329200  0.386400  1.0  -0.5199
  O  O109  1  0.251700  0.034800  0.310000  1.0  -0.5313
  O  O110  1  0.312900  0.849100  0.390500  1.0  -0.5305
  O  O111  1  0.107800  0.885000  0.237000  1.0  -0.5655
  O  O112  1  0.412100  0.933800  0.229000  1.0  -0.7077
  O  O113  1  0.464000  0.169100  0.249500  1.0  -0.5547
  O  O114  1  0.473900  0.866400  0.539600  1.0  -0.5461
  O  O115  1  0.759800  0.379300  0.340300  1.0  -0.5412
  O  O116  1  0.667200  0.220500  0.199500  1.0  -0.5508
  O  O117  1  0.431900  0.722000  0.314800  1.0  -0.5418
  O  O118  1  0.589100  0.734400  0.463600  1.0  -0.5313
