# generated using pymatgen
data_Tm3H6C20(NO12)2
_symmetry_space_group_name_H-M   'P 1'
_cell_length_a   9.71040000
_cell_length_b   14.00350000
_cell_length_c   14.00350000
_cell_angle_alpha   95.63810000
_cell_angle_beta   103.48400000
_cell_angle_gamma   103.48400000
_symmetry_Int_Tables_number   1
_chemical_formula_structural   Tm3H6C20(NO12)2
_chemical_formula_sum   'Tm6 H12 C40 N4 O48'
_cell_volume   1777.05405580
_cell_formula_units_Z   2
loop_
 _symmetry_equiv_pos_site_id
 _symmetry_equiv_pos_as_xyz
  1  'x, y, z'
loop_
 _atom_site_type_symbol
 _atom_site_label
 _atom_site_symmetry_multiplicity
 _atom_site_fract_x
 _atom_site_fract_y
 _atom_site_fract_z
 _atom_site_occupancy
 _atom_site_charge
  Tm  Tm1  1  0.658370  0.798010  0.624770  1.0  2.1408
  Tm  Tm2  1  0.841630  0.375230  0.201990  1.0  2.1412
  Tm  Tm3  1  0.341630  0.201990  0.375230  1.0  2.1387
  Tm  Tm4  1  0.158370  0.624770  0.798010  1.0  2.1399
  Tm  Tm5  1  0.750000  0.215620  0.784380  1.0  2.1477
  Tm  Tm6  1  0.250000  0.784380  0.215620  1.0  2.1465
  H  H7  1  0.316400  0.970500  0.594500  1.0  0.0935
  H  H8  1  0.337400  0.117600  0.686000  1.0  0.1308
  H  H9  1  0.137000  0.139300  0.743700  1.0  0.1111
  H  H10  1  0.183600  0.405500  0.029500  1.0  0.0936
  H  H11  1  0.162600  0.314000  0.882400  1.0  0.1286
  H  H12  1  0.363000  0.256300  0.860700  1.0  0.11
  H  H13  1  0.683600  0.029500  0.405500  1.0  0.0929
  H  H14  1  0.662600  0.882400  0.314000  1.0  0.1289
  H  H15  1  0.863000  0.860700  0.256300  1.0  0.1104
  H  H16  1  0.816400  0.594500  0.970500  1.0  0.0939
  H  H17  1  0.837400  0.686000  0.117600  1.0  0.1287
  H  H18  1  0.637000  0.743700  0.139300  1.0  0.1105
  C  C19  1  0.983300  0.920600  0.611200  1.0  0.5933
  C  C20  1  0.235100  0.982100  0.613100  1.0  0.1995
  C  C21  1  0.249600  0.067700  0.669100  1.0  -0.1623
  C  C22  1  0.128100  0.081000  0.702000  1.0  -0.0294
  C  C23  1  0.997400  0.009600  0.673800  1.0  -0.1186
  C  C24  1  0.871000  0.026600  0.710800  1.0  0.7438
  C  C25  1  0.511300  0.246100  0.601700  1.0  0.5517
  C  C26  1  0.578700  0.169700  0.555500  1.0  0.5951
  C  C27  1  0.411400  0.765800  0.740400  1.0  0.6014
  C  C28  1  0.361100  0.672600  0.657000  1.0  0.5781
  C  C29  1  0.516700  0.388800  0.079400  1.0  0.5929
  C  C30  1  0.264900  0.386900  0.017900  1.0  0.1983
  C  C31  1  0.250400  0.330900  0.932300  1.0  -0.1617
  C  C32  1  0.371900  0.298000  0.919000  1.0  -0.0215
  C  C33  1  0.502600  0.326200  0.990400  1.0  -0.1209
  C  C34  1  0.629000  0.289200  0.973400  1.0  0.7404
  C  C35  1  0.988700  0.398300  0.753900  1.0  0.5659
  C  C36  1  0.921300  0.444500  0.830300  1.0  0.5927
  C  C37  1  0.088600  0.259600  0.234200  1.0  0.6015
  C  C38  1  0.138900  0.343000  0.327400  1.0  0.5777
  C  C39  1  0.016700  0.079400  0.388800  1.0  0.5919
  C  C40  1  0.764900  0.017900  0.386900  1.0  0.1986
  C  C41  1  0.750400  0.932300  0.330900  1.0  -0.1635
  C  C42  1  0.871900  0.919000  0.298000  1.0  -0.0223
  C  C43  1  0.002600  0.990400  0.326200  1.0  -0.1189
  C  C44  1  0.129000  0.973400  0.289200  1.0  0.7438
  C  C45  1  0.488700  0.753900  0.398300  1.0  0.5588
  C  C46  1  0.421300  0.830300  0.444500  1.0  0.5928
  C  C47  1  0.588600  0.234200  0.259600  1.0  0.6016
  C  C48  1  0.638900  0.327400  0.343000  1.0  0.578
  C  C49  1  0.483300  0.611200  0.920600  1.0  0.5948
  C  C50  1  0.735100  0.613100  0.982100  1.0  0.1983
  C  C51  1  0.749600  0.669100  0.067700  1.0  -0.1609
  C  C52  1  0.628100  0.702000  0.081000  1.0  -0.0272
  C  C53  1  0.497400  0.673800  0.009600  1.0  -0.1196
  C  C54  1  0.371000  0.710800  0.026600  1.0  0.7415
  C  C55  1  0.011300  0.601700  0.246100  1.0  0.5555
  C  C56  1  0.078700  0.555500  0.169700  1.0  0.5965
  C  C57  1  0.911400  0.740400  0.765800  1.0  0.6009
  C  C58  1  0.861100  0.657000  0.672600  1.0  0.5765
  N  N59  1  0.107200  0.911400  0.582600  1.0  -0.3726
  N  N60  1  0.392800  0.417400  0.088600  1.0  -0.3736
  N  N61  1  0.892800  0.088600  0.417400  1.0  -0.3696
  N  N62  1  0.607200  0.582600  0.911400  1.0  -0.3709
  O  O63  1  0.749200  0.961300  0.687900  1.0  -0.6639
  O  O64  1  0.588300  0.061100  0.775500  1.0  -0.2497
  O  O65  1  0.892600  0.109900  0.764300  1.0  -0.6193
  O  O66  1  0.871100  0.847400  0.578400  1.0  -0.6586
  O  O67  1  0.521900  0.135800  0.464200  1.0  -0.6036
  O  O68  1  0.407900  0.269400  0.544800  1.0  -0.5692
  O  O69  1  0.564500  0.277400  0.693000  1.0  -0.5757
  O  O70  1  0.684000  0.150000  0.611400  1.0  -0.5561
  O  O71  1  0.442900  0.665600  0.602400  1.0  -0.5358
  O  O72  1  0.533900  0.824700  0.744700  1.0  -0.6102
  O  O73  1  0.241000  0.614100  0.652300  1.0  -0.5628
  O  O74  1  0.330600  0.773800  0.795000  1.0  -0.5335
  O  O75  1  0.750800  0.312100  0.038700  1.0  -0.6609
  O  O76  1  0.911700  0.224500  0.938900  1.0  -0.246
  O  O77  1  0.607400  0.235700  0.890100  1.0  -0.6174
  O  O78  1  0.628900  0.421600  0.152600  1.0  -0.6602
  O  O79  1  0.978100  0.535800  0.864200  1.0  -0.6034
  O  O80  1  0.092100  0.455200  0.730600  1.0  -0.5683
  O  O81  1  0.935500  0.307000  0.722600  1.0  -0.5743
  O  O82  1  0.816000  0.388600  0.850000  1.0  -0.5588
  O  O83  1  0.057100  0.397600  0.334400  1.0  -0.5397
  O  O84  1  0.966100  0.255300  0.175300  1.0  -0.6069
  O  O85  1  0.259000  0.347700  0.385900  1.0  -0.5634
  O  O86  1  0.169400  0.205000  0.226200  1.0  -0.5337
  O  O87  1  0.250800  0.038700  0.312100  1.0  -0.6627
  O  O88  1  0.411700  0.938900  0.224500  1.0  -0.247
  O  O89  1  0.107400  0.890100  0.235700  1.0  -0.6185
  O  O90  1  0.128900  0.152600  0.421600  1.0  -0.659
  O  O91  1  0.478100  0.864200  0.535800  1.0  -0.6035
  O  O92  1  0.592100  0.730600  0.455200  1.0  -0.5687
  O  O93  1  0.435500  0.722600  0.307000  1.0  -0.5753
  O  O94  1  0.316000  0.850000  0.388600  1.0  -0.5571
  O  O95  1  0.557100  0.334400  0.397600  1.0  -0.5351
  O  O96  1  0.466100  0.175300  0.255300  1.0  -0.6065
  O  O97  1  0.759000  0.385900  0.347700  1.0  -0.5612
  O  O98  1  0.669400  0.226200  0.205000  1.0  -0.5338
  O  O99  1  0.249200  0.687900  0.961300  1.0  -0.6617
  O  O100  1  0.088300  0.775500  0.061100  1.0  -0.2474
  O  O101  1  0.392600  0.764300  0.109900  1.0  -0.6167
  O  O102  1  0.371100  0.578400  0.847400  1.0  -0.6602
  O  O103  1  0.021900  0.464200  0.135800  1.0  -0.6046
  O  O104  1  0.907900  0.544800  0.269400  1.0  -0.5707
  O  O105  1  0.064500  0.693000  0.277400  1.0  -0.5747
  O  O106  1  0.184000  0.611400  0.150000  1.0  -0.5584
  O  O107  1  0.942900  0.602400  0.665600  1.0  -0.5384
  O  O108  1  0.033900  0.744700  0.824700  1.0  -0.607
  O  O109  1  0.741000  0.652300  0.614100  1.0  -0.563
  O  O110  1  0.830600  0.795000  0.773800  1.0  -0.5332
