# generated using pymatgen
data_CuH16C16(NO)4
_symmetry_space_group_name_H-M   'P 1'
_cell_length_a   10.18500000
_cell_length_b   13.89670000
_cell_length_c   22.79000000
_cell_angle_alpha   97.13450000
_cell_angle_beta   90.00000000
_cell_angle_gamma   111.49700000
_symmetry_Int_Tables_number   1
_chemical_formula_structural   CuH16C16(NO)4
_chemical_formula_sum   'Cu6 H96 C96 N24 O24'
_cell_volume   2974.40330048
_cell_formula_units_Z   6
loop_
 _symmetry_equiv_pos_site_id
 _symmetry_equiv_pos_as_xyz
  1  'x, y, z'
loop_
 _atom_site_type_symbol
 _atom_site_label
 _atom_site_symmetry_multiplicity
 _atom_site_fract_x
 _atom_site_fract_y
 _atom_site_fract_z
 _atom_site_occupancy
 _atom_site_charge
  Cu  Cu1  1  0.888460  0.591800  0.458790  1.0  0.8911
  Cu  Cu2  1  0.296660  0.408200  0.041210  1.0  0.8922
  Cu  Cu3  1  0.111540  0.408200  0.541210  1.0  0.8926
  Cu  Cu4  1  0.703340  0.591800  0.958790  1.0  0.8919
  Cu  Cu5  1  0.630420  0.000000  0.250000  1.0  0.8983
  Cu  Cu6  1  0.369580  0.000000  0.750000  1.0  0.8971
  H  H7  1  0.243500  0.727000  0.372200  1.0  0.1023
  H  H8  1  0.445000  0.603600  0.473100  1.0  0.1034
  H  H9  1  0.654500  0.782400  0.351900  1.0  0.1052
  H  H10  1  0.584700  0.195600  0.324400  1.0  0.1038
  H  H11  1  0.718600  0.991400  0.379800  1.0  0.1072
  H  H12  1  0.612800  0.234400  0.432000  1.0  0.1292
  H  H13  1  0.739100  0.040400  0.489000  1.0  0.0725
  H  H14  1  0.754900  0.155800  0.511400  1.0  0.0862
  H  H15  1  0.568700  0.045200  0.556100  1.0  0.0871
  H  H16  1  0.512300  0.104800  0.514900  1.0  0.0854
  H  H17  1  0.983400  0.604800  0.329700  1.0  0.1064
  H  H18  1  0.640800  0.397800  0.379500  1.0  0.1134
  H  H19  1  0.629900  0.375000  0.271300  1.0  0.1318
  H  H20  1  0.955000  0.562800  0.218400  1.0  0.0881
  H  H21  1  0.850400  0.449400  0.195200  1.0  0.0805
  H  H22  1  0.665300  0.508400  0.189100  1.0  0.0758
  H  H23  1  0.787700  0.568800  0.150500  1.0  0.0699
  H  H24  1  0.728900  0.650200  0.262000  1.0  0.0799
  H  H25  1  0.860100  0.710400  0.227400  1.0  0.0772
  H  H26  1  0.686700  0.776200  0.214200  1.0  0.0851
  H  H27  1  0.576700  0.664400  0.191400  1.0  0.0722
  H  H28  1  0.576400  0.595600  0.083100  1.0  0.0958
  H  H29  1  0.897800  0.855200  0.138600  1.0  0.1422
  H  H30  1  0.915000  0.805200  0.032000  1.0  0.1102
  H  H31  1  0.516500  0.273000  0.127800  1.0  0.1022
  H  H32  1  0.841400  0.396400  0.026900  1.0  0.1035
  H  H33  1  0.872100  0.217600  0.148100  1.0  0.1049
  H  H34  1  0.389100  0.804400  0.175600  1.0  0.1044
  H  H35  1  0.727200  0.008600  0.120200  1.0  0.107
  H  H36  1  0.378400  0.765600  0.068000  1.0  0.1287
  H  H37  1  0.698700  0.959600  0.011000  1.0  0.0733
  H  H38  1  0.599100  0.844200  0.988600  1.0  0.0861
  H  H39  1  0.523500  0.954800  0.943900  1.0  0.0878
  H  H40  1  0.407500  0.895200  0.985100  1.0  0.0857
  H  H41  1  0.378600  0.395200  0.170300  1.0  0.1058
  H  H42  1  0.243000  0.602200  0.120500  1.0  0.1127
  H  H43  1  0.254900  0.625000  0.228700  1.0  0.1323
  H  H44  1  0.392200  0.437200  0.281600  1.0  0.0891
  H  H45  1  0.401000  0.550600  0.304800  1.0  0.0804
  H  H46  1  0.156900  0.491600  0.310900  1.0  0.0754
  H  H47  1  0.218900  0.431200  0.349500  1.0  0.0704
  H  H48  1  0.078700  0.349800  0.238000  1.0  0.0811
  H  H49  1  0.149700  0.289600  0.272600  1.0  0.0767
  H  H50  1  0.910500  0.223800  0.285800  1.0  0.0852
  H  H51  1  0.912300  0.335600  0.308600  1.0  0.0728
  H  H52  1  0.980800  0.404400  0.416900  1.0  0.0964
  H  H53  1  0.042600  0.144800  0.361400  1.0  0.1432
  H  H54  1  0.109800  0.194800  0.468000  1.0  0.1105
  H  H55  1  0.756500  0.273000  0.627800  1.0  0.1017
  H  H56  1  0.555000  0.396400  0.526900  1.0  0.1033
  H  H57  1  0.345500  0.217600  0.648100  1.0  0.1049
  H  H58  1  0.415300  0.804400  0.675600  1.0  0.104
  H  H59  1  0.281400  0.008600  0.620200  1.0  0.1075
  H  H60  1  0.387200  0.765600  0.568000  1.0  0.1297
  H  H61  1  0.260900  0.959600  0.511000  1.0  0.0709
  H  H62  1  0.245100  0.844200  0.488600  1.0  0.0865
  H  H63  1  0.431300  0.954800  0.443900  1.0  0.0891
  H  H64  1  0.487700  0.895200  0.485100  1.0  0.0857
  H  H65  1  0.016600  0.395200  0.670300  1.0  0.1052
  H  H66  1  0.359200  0.602200  0.620500  1.0  0.1134
  H  H67  1  0.370100  0.625000  0.728700  1.0  0.1322
  H  H68  1  0.045000  0.437200  0.781600  1.0  0.0896
  H  H69  1  0.149600  0.550600  0.804800  1.0  0.0805
  H  H70  1  0.334700  0.491600  0.810900  1.0  0.0743
  H  H71  1  0.212300  0.431200  0.849500  1.0  0.0704
  H  H72  1  0.271100  0.349800  0.738000  1.0  0.0819
  H  H73  1  0.139900  0.289600  0.772600  1.0  0.0761
  H  H74  1  0.313300  0.223800  0.785800  1.0  0.0855
  H  H75  1  0.423300  0.335600  0.808600  1.0  0.0736
  H  H76  1  0.423600  0.404400  0.916900  1.0  0.0966
  H  H77  1  0.102200  0.144800  0.861400  1.0  0.1429
  H  H78  1  0.085000  0.194800  0.968000  1.0  0.111
  H  H79  1  0.483500  0.727000  0.872200  1.0  0.1017
  H  H80  1  0.158600  0.603600  0.973100  1.0  0.1033
  H  H81  1  0.127900  0.782400  0.851900  1.0  0.1053
  H  H82  1  0.610900  0.195600  0.824400  1.0  0.1039
  H  H83  1  0.272800  0.991400  0.879800  1.0  0.107
  H  H84  1  0.621600  0.234400  0.932000  1.0  0.1301
  H  H85  1  0.301300  0.040400  0.989000  1.0  0.0705
  H  H86  1  0.400900  0.155800  0.011400  1.0  0.0873
  H  H87  1  0.476500  0.045200  0.056100  1.0  0.0874
  H  H88  1  0.592500  0.104800  0.014900  1.0  0.0857
  H  H89  1  0.621400  0.604800  0.829700  1.0  0.1066
  H  H90  1  0.757000  0.397800  0.879500  1.0  0.1139
  H  H91  1  0.745100  0.375000  0.771300  1.0  0.1315
  H  H92  1  0.607800  0.562800  0.718400  1.0  0.0891
  H  H93  1  0.599000  0.449400  0.695200  1.0  0.0802
  H  H94  1  0.843100  0.508400  0.689100  1.0  0.0749
  H  H95  1  0.781100  0.568800  0.650500  1.0  0.0708
  H  H96  1  0.921300  0.650200  0.762000  1.0  0.0801
  H  H97  1  0.850300  0.710400  0.727400  1.0  0.077
  H  H98  1  0.089500  0.776200  0.714200  1.0  0.0857
  H  H99  1  0.087700  0.664400  0.691400  1.0  0.0735
  H  H100  1  0.019200  0.595600  0.583100  1.0  0.096
  H  H101  1  0.957400  0.855200  0.638600  1.0  0.1428
  H  H102  1  0.890200  0.805200  0.532000  1.0  0.1104
  C  C103  1  0.326270  0.718740  0.383210  1.0  -0.0217
  C  C104  1  0.326270  0.658340  0.428230  1.0  -0.118
  C  C105  1  0.446660  0.644920  0.443730  1.0  -0.0135
  C  C106  1  0.572900  0.692000  0.416500  1.0  -0.1661
  C  C107  1  0.572160  0.751920  0.371300  1.0  -0.0154
  C  C108  1  0.449770  0.765940  0.355300  1.0  -0.1399
  C  C109  1  0.191000  0.609000  0.459100  1.0  0.6442
  C  C110  1  0.707100  0.676800  0.430800  1.0  0.6539
  C  C111  1  0.454700  0.834600  0.308500  1.0  0.6929
  C  C112  1  0.614700  0.158600  0.349300  1.0  0.012
  C  C113  1  0.688000  0.046800  0.379400  1.0  0.1227
  C  C114  1  0.630100  0.180800  0.408600  1.0  -0.1627
  C  C115  1  0.694400  0.091000  0.488400  1.0  0.0028
  C  C116  1  0.553800  0.052200  0.515000  1.0  -0.147
  C  C117  1  0.896400  0.550200  0.329000  1.0  0.1353
  C  C118  1  0.709200  0.437200  0.356000  1.0  0.0122
  C  C119  1  0.702300  0.423800  0.296200  1.0  -0.159
  C  C120  1  0.858000  0.514600  0.218600  1.0  -0.0247
  C  C121  1  0.761200  0.559000  0.190900  1.0  -0.1545
  C  C122  1  0.763100  0.661200  0.222700  1.0  -0.1583
  C  C123  1  0.675600  0.709000  0.192200  1.0  -0.0117
  C  C124  1  0.659400  0.653800  0.083200  1.0  0.1213
  C  C125  1  0.835800  0.797000  0.114800  1.0  -0.1816
  C  C126  1  0.844100  0.768400  0.055500  1.0  0.0141
  C  C127  1  0.607530  0.281260  0.116790  1.0  -0.0217
  C  C128  1  0.667930  0.341660  0.071770  1.0  -0.1178
  C  C129  1  0.801740  0.355080  0.056270  1.0  -0.0144
  C  C130  1  0.880900  0.308000  0.083500  1.0  -0.1655
  C  C131  1  0.820240  0.248080  0.128700  1.0  -0.015
  C  C132  1  0.683830  0.234060  0.144700  1.0  -0.1399
  C  C133  1  0.582000  0.391000  0.040900  1.0  0.6446
  C  C134  1  0.030300  0.323200  0.069200  1.0  0.6534
  C  C135  1  0.620100  0.165400  0.191500  1.0  0.6918
  C  C136  1  0.456100  0.841400  0.150700  1.0  0.0127
  C  C137  1  0.641200  0.953200  0.120600  1.0  0.1218
  C  C138  1  0.449300  0.819200  0.091400  1.0  -0.1622
  C  C139  1  0.603400  0.909000  0.011600  1.0  0.0007
  C  C140  1  0.501600  0.947800  0.985000  1.0  -0.1458
  C  C141  1  0.346200  0.449800  0.171000  1.0  0.1347
  C  C142  1  0.272000  0.562800  0.144000  1.0  0.0114
  C  C143  1  0.278500  0.576200  0.203800  1.0  -0.1584
  C  C144  1  0.343400  0.485400  0.281400  1.0  -0.0241
  C  C145  1  0.202200  0.441000  0.309100  1.0  -0.1548
  C  C146  1  0.101900  0.338800  0.277300  1.0  -0.1572
  C  C147  1  0.966600  0.291000  0.307800  1.0  -0.0123
  C  C148  1  0.005600  0.346200  0.416800  1.0  0.1205
  C  C149  1  0.038800  0.203000  0.385200  1.0  -0.1818
  C  C150  1  0.075700  0.231600  0.444500  1.0  0.0119
  C  C151  1  0.673730  0.281260  0.616790  1.0  -0.0233
  C  C152  1  0.673730  0.341660  0.571770  1.0  -0.1174
  C  C153  1  0.553340  0.355080  0.556270  1.0  -0.0134
  C  C154  1  0.427100  0.308000  0.583500  1.0  -0.1662
  C  C155  1  0.427840  0.248080  0.628700  1.0  -0.0144
  C  C156  1  0.550230  0.234060  0.644700  1.0  -0.141
  C  C157  1  0.809000  0.391000  0.540900  1.0  0.6445
  C  C158  1  0.292900  0.323200  0.569200  1.0  0.6528
  C  C159  1  0.545300  0.165400  0.691500  1.0  0.6909
  C  C160  1  0.385300  0.841400  0.650700  1.0  0.0147
  C  C161  1  0.312000  0.953200  0.620600  1.0  0.1211
  C  C162  1  0.369900  0.819200  0.591400  1.0  -0.1619
  C  C163  1  0.305600  0.909000  0.511600  1.0  0.002
  C  C164  1  0.446200  0.947800  0.485000  1.0  -0.1455
  C  C165  1  0.103600  0.449800  0.671000  1.0  0.1359
  C  C166  1  0.290800  0.562800  0.644000  1.0  0.0114
  C  C167  1  0.297700  0.576200  0.703800  1.0  -0.1572
  C  C168  1  0.142000  0.485400  0.781400  1.0  -0.0255
  C  C169  1  0.238800  0.441000  0.809100  1.0  -0.1549
  C  C170  1  0.236900  0.338800  0.777300  1.0  -0.1579
  C  C171  1  0.324400  0.291000  0.807800  1.0  -0.0149
  C  C172  1  0.340600  0.346200  0.916800  1.0  0.1211
  C  C173  1  0.164200  0.203000  0.885200  1.0  -0.1843
  C  C174  1  0.155900  0.231600  0.944500  1.0  0.0117
  C  C175  1  0.392470  0.718740  0.883210  1.0  -0.0235
  C  C176  1  0.332070  0.658340  0.928230  1.0  -0.1178
  C  C177  1  0.198260  0.644920  0.943730  1.0  -0.0148
  C  C178  1  0.119100  0.692000  0.916500  1.0  -0.1649
  C  C179  1  0.179760  0.751920  0.871300  1.0  -0.0145
  C  C180  1  0.316170  0.765940  0.855300  1.0  -0.1409
  C  C181  1  0.418000  0.609000  0.959100  1.0  0.6443
  C  C182  1  0.969700  0.676800  0.930800  1.0  0.6528
  C  C183  1  0.379900  0.834600  0.808500  1.0  0.6909
  C  C184  1  0.543900  0.158600  0.849300  1.0  0.0138
  C  C185  1  0.358800  0.046800  0.879400  1.0  0.1217
  C  C186  1  0.550700  0.180800  0.908600  1.0  -0.1629
  C  C187  1  0.396600  0.091000  0.988400  1.0  0.0028
  C  C188  1  0.498400  0.052200  0.015000  1.0  -0.1471
  C  C189  1  0.653800  0.550200  0.829000  1.0  0.1357
  C  C190  1  0.728000  0.437200  0.856000  1.0  0.0128
  C  C191  1  0.721500  0.423800  0.796200  1.0  -0.1576
  C  C192  1  0.656600  0.514600  0.718600  1.0  -0.0255
  C  C193  1  0.797800  0.559000  0.690900  1.0  -0.1552
  C  C194  1  0.898100  0.661200  0.722700  1.0  -0.1592
  C  C195  1  0.033400  0.709000  0.692200  1.0  -0.0131
  C  C196  1  0.994400  0.653800  0.583200  1.0  0.1215
  C  C197  1  0.961200  0.797000  0.614800  1.0  -0.1833
  C  C198  1  0.924300  0.768400  0.555500  1.0  0.0134
  N  N199  1  0.648880  0.075360  0.330950  1.0  -0.3515
  N  N200  1  0.676920  0.108440  0.427480  1.0  0.0398
  N  N201  1  0.831270  0.517140  0.376910  1.0  -0.3705
  N  N202  1  0.822730  0.496260  0.279750  1.0  0.0455
  N  N203  1  0.718920  0.723040  0.131170  1.0  0.0494
  N  N204  1  0.733710  0.678820  0.036170  1.0  -0.3895
  N  N205  1  0.573520  0.924640  0.169050  1.0  -0.3503
  N  N206  1  0.568480  0.891560  0.072520  1.0  0.0396
  N  N207  1  0.314130  0.482860  0.123090  1.0  -0.3712
  N  N208  1  0.326470  0.503740  0.220250  1.0  0.0458
  N  N209  1  0.995880  0.276960  0.368830  1.0  0.0493
  N  N210  1  0.054890  0.321180  0.463830  1.0  -0.3882
  N  N211  1  0.351120  0.924640  0.669050  1.0  -0.35
  N  N212  1  0.323080  0.891560  0.572520  1.0  0.0399
  N  N213  1  0.168730  0.482860  0.623090  1.0  -0.3713
  N  N214  1  0.177270  0.503740  0.720250  1.0  0.0452
  N  N215  1  0.281080  0.276960  0.868830  1.0  0.0485
  N  N216  1  0.266290  0.321180  0.963830  1.0  -0.3891
  N  N217  1  0.426480  0.075360  0.830950  1.0  -0.3519
  N  N218  1  0.431520  0.108440  0.927480  1.0  0.04
  N  N219  1  0.685870  0.517140  0.876910  1.0  -0.3703
  N  N220  1  0.673530  0.496260  0.779750  1.0  0.0451
  N  N221  1  0.004120  0.723040  0.631170  1.0  0.0491
  N  N222  1  0.945110  0.678820  0.536170  1.0  -0.3902
  O  O223  1  0.082370  0.617140  0.436820  1.0  -0.5991
  O  O224  1  0.195520  0.565240  0.502610  1.0  -0.6639
  O  O225  1  0.696630  0.602660  0.460870  1.0  -0.5875
  O  O226  1  0.818960  0.735120  0.413830  1.0  -0.5882
  O  O227  1  0.569020  0.870640  0.284190  1.0  -0.5862
  O  O228  1  0.350800  0.856400  0.299600  1.0  -0.5903
  O  O229  1  0.465230  0.382860  0.063180  1.0  -0.5999
  O  O230  1  0.630280  0.434760  0.997390  1.0  -0.6638
  O  O231  1  0.093970  0.397340  0.039130  1.0  -0.5855
  O  O232  1  0.083840  0.264880  0.086170  1.0  -0.5873
  O  O233  1  0.698380  0.129360  0.215810  1.0  -0.5863
  O  O234  1  0.494400  0.143600  0.200400  1.0  -0.5879
  O  O235  1  0.917630  0.382860  0.563180  1.0  -0.5989
  O  O236  1  0.804480  0.434760  0.497390  1.0  -0.6655
  O  O237  1  0.303370  0.397340  0.539130  1.0  -0.5856
  O  O238  1  0.181040  0.264880  0.586170  1.0  -0.5875
  O  O239  1  0.430980  0.129360  0.715810  1.0  -0.5865
  O  O240  1  0.649200  0.143600  0.700400  1.0  -0.5832
  O  O241  1  0.534770  0.617140  0.936820  1.0  -0.5983
  O  O242  1  0.369720  0.565240  0.002610  1.0  -0.6651
  O  O243  1  0.906030  0.602660  0.960870  1.0  -0.5873
  O  O244  1  0.916160  0.735120  0.913830  1.0  -0.588
  O  O245  1  0.301620  0.870640  0.784190  1.0  -0.5864
  O  O246  1  0.505600  0.856400  0.799600  1.0  -0.5835
