# generated using pymatgen
data_AgH16(C3N)4
_symmetry_space_group_name_H-M   'P 1'
_cell_length_a   7.58170000
_cell_length_b   10.47870000
_cell_length_c   21.66300000
_cell_angle_alpha   90.00000000
_cell_angle_beta   90.00000000
_cell_angle_gamma   90.00000000
_symmetry_Int_Tables_number   1
_chemical_formula_structural   AgH16(C3N)4
_chemical_formula_sum   'Ag4 H64 C48 N16'
_cell_volume   1721.04649213
_cell_formula_units_Z   4
loop_
 _symmetry_equiv_pos_site_id
 _symmetry_equiv_pos_as_xyz
  1  'x, y, z'
loop_
 _atom_site_type_symbol
 _atom_site_label
 _atom_site_symmetry_multiplicity
 _atom_site_fract_x
 _atom_site_fract_y
 _atom_site_fract_z
 _atom_site_occupancy
 _atom_site_charge
  Ag  Ag1  1  0.726800  0.770450  0.131000  1.0  0.3537
  Ag  Ag2  1  0.773200  0.229550  0.631000  1.0  0.3539
  Ag  Ag3  1  0.273200  0.270450  0.369000  1.0  0.3545
  Ag  Ag4  1  0.226800  0.729550  0.869000  1.0  0.355
  H  H5  1  0.243800  0.196900  0.247400  1.0  0.2835
  H  H6  1  0.167600  0.091400  0.283700  1.0  0.2887
  H  H7  1  0.895700  0.835000  0.858700  1.0  0.252
  H  H8  1  0.917400  0.753000  0.803600  1.0  0.2653
  H  H9  1  0.927000  0.975100  0.041600  1.0  0.0496
  H  H10  1  0.089400  0.161800  0.045700  1.0  0.0921
  H  H11  1  0.803600  0.004600  0.217400  1.0  0.0688
  H  H12  1  0.117200  0.270200  0.140900  1.0  0.0935
  H  H13  1  0.797800  0.585300  0.845400  1.0  0.0719
  H  H14  1  0.683500  0.700300  0.873200  1.0  0.0589
  H  H15  1  0.004600  0.468200  0.913000  1.0  0.0884
  H  H16  1  0.083800  0.414700  0.015200  1.0  0.0883
  H  H17  1  0.973100  0.300400  0.248800  1.0  0.0798
  H  H18  1  0.895900  0.174200  0.280500  1.0  0.0646
  H  H19  1  0.983200  0.541000  0.096000  1.0  0.0439
  H  H20  1  0.730800  0.765600  0.980800  1.0  0.0551
  H  H21  1  0.256200  0.803100  0.747400  1.0  0.2831
  H  H22  1  0.332400  0.908600  0.783700  1.0  0.29
  H  H23  1  0.604300  0.165000  0.358700  1.0  0.2504
  H  H24  1  0.582600  0.247000  0.303600  1.0  0.2665
  H  H25  1  0.573000  0.024900  0.541600  1.0  0.0496
  H  H26  1  0.410600  0.838200  0.545700  1.0  0.092
  H  H27  1  0.696400  0.995400  0.717400  1.0  0.0693
  H  H28  1  0.382800  0.729800  0.640900  1.0  0.093
  H  H29  1  0.702200  0.414700  0.345400  1.0  0.0725
  H  H30  1  0.816500  0.299700  0.373200  1.0  0.0591
  H  H31  1  0.495400  0.531800  0.413000  1.0  0.0882
  H  H32  1  0.416200  0.585300  0.515200  1.0  0.0883
  H  H33  1  0.526900  0.699600  0.748800  1.0  0.081
  H  H34  1  0.604100  0.825800  0.780500  1.0  0.0639
  H  H35  1  0.516800  0.459000  0.596000  1.0  0.0438
  H  H36  1  0.769200  0.234400  0.480800  1.0  0.0553
  H  H37  1  0.756200  0.696900  0.252600  1.0  0.284
  H  H38  1  0.832400  0.591400  0.216300  1.0  0.2869
  H  H39  1  0.104300  0.335000  0.641300  1.0  0.2536
  H  H40  1  0.082600  0.253000  0.696400  1.0  0.2691
  H  H41  1  0.073000  0.475100  0.458400  1.0  0.0482
  H  H42  1  0.910600  0.661800  0.454300  1.0  0.0919
  H  H43  1  0.196400  0.504600  0.282600  1.0  0.0701
  H  H44  1  0.882800  0.770200  0.359100  1.0  0.0943
  H  H45  1  0.202200  0.085300  0.654600  1.0  0.0725
  H  H46  1  0.316500  0.200300  0.626800  1.0  0.058
  H  H47  1  0.995400  0.968200  0.587000  1.0  0.0882
  H  H48  1  0.916200  0.914700  0.484800  1.0  0.0877
  H  H49  1  0.026900  0.800400  0.251200  1.0  0.0801
  H  H50  1  0.104100  0.674200  0.219500  1.0  0.064
  H  H51  1  0.016800  0.041000  0.404000  1.0  0.0448
  H  H52  1  0.269200  0.265600  0.519200  1.0  0.055
  H  H53  1  0.743800  0.303100  0.752600  1.0  0.2834
  H  H54  1  0.667600  0.408600  0.716300  1.0  0.2897
  H  H55  1  0.395700  0.665000  0.141300  1.0  0.251
  H  H56  1  0.417400  0.747000  0.196400  1.0  0.2678
  H  H57  1  0.427000  0.524900  0.958400  1.0  0.0485
  H  H58  1  0.589400  0.338200  0.954300  1.0  0.0919
  H  H59  1  0.303600  0.495400  0.782600  1.0  0.0695
  H  H60  1  0.617200  0.229800  0.859100  1.0  0.0937
  H  H61  1  0.297800  0.914700  0.154600  1.0  0.0716
  H  H62  1  0.183500  0.799700  0.126800  1.0  0.0597
  H  H63  1  0.504600  0.031800  0.087000  1.0  0.0884
  H  H64  1  0.583800  0.085300  0.984800  1.0  0.0882
  H  H65  1  0.473100  0.199600  0.751200  1.0  0.0796
  H  H66  1  0.395900  0.325800  0.719500  1.0  0.0637
  H  H67  1  0.483200  0.959000  0.904000  1.0  0.0445
  H  H68  1  0.230800  0.734400  0.019200  1.0  0.0552
  C  C69  1  0.934500  0.019700  0.079640  1.0  0.1356
  C  C70  1  0.033000  0.130100  0.081770  1.0  -0.2039
  C  C71  1  0.863900  0.036700  0.182270  1.0  0.0804
  C  C72  1  0.048500  0.194600  0.137980  1.0  -0.1213
  C  C73  1  0.962500  0.146900  0.189010  1.0  0.0146
  C  C74  1  0.802700  0.661900  0.872100  1.0  -0.1352
  C  C75  1  0.856800  0.623100  0.936770  1.0  0.0791
  C  C76  1  0.963900  0.518000  0.946760  1.0  -0.0861
  C  C77  1  0.011200  0.486600  0.007090  1.0  -0.2038
  C  C78  1  0.987800  0.206800  0.252110  1.0  -0.0179
  C  C79  1  0.950000  0.562400  0.054960  1.0  0.1373
  C  C80  1  0.803000  0.692900  0.987550  1.0  0.1236
  C  C81  1  0.565500  0.980300  0.579640  1.0  0.136
  C  C82  1  0.467000  0.869900  0.581770  1.0  -0.2039
  C  C83  1  0.636100  0.963300  0.682270  1.0  0.0805
  C  C84  1  0.451500  0.805400  0.637980  1.0  -0.1226
  C  C85  1  0.537500  0.853100  0.689010  1.0  0.0149
  C  C86  1  0.697300  0.338100  0.372100  1.0  -0.1366
  C  C87  1  0.643200  0.376900  0.436770  1.0  0.0791
  C  C88  1  0.536100  0.482000  0.446760  1.0  -0.0866
  C  C89  1  0.488800  0.513400  0.507090  1.0  -0.2023
  C  C90  1  0.512200  0.793200  0.752110  1.0  -0.0169
  C  C91  1  0.550000  0.437600  0.554960  1.0  0.1355
  C  C92  1  0.697000  0.307100  0.487550  1.0  0.1229
  C  C93  1  0.065500  0.519700  0.420360  1.0  0.1361
  C  C94  1  0.967000  0.630100  0.418230  1.0  -0.2055
  C  C95  1  0.136100  0.536700  0.317730  1.0  0.0798
  C  C96  1  0.951500  0.694600  0.362020  1.0  -0.122
  C  C97  1  0.037500  0.646900  0.310990  1.0  0.0153
  C  C98  1  0.197300  0.161900  0.627900  1.0  -0.1365
  C  C99  1  0.143200  0.123100  0.563230  1.0  0.0788
  C  C100  1  0.036100  0.018000  0.553240  1.0  -0.086
  C  C101  1  0.988800  0.986600  0.492910  1.0  -0.2042
  C  C102  1  0.012200  0.706800  0.247890  1.0  -0.0174
  C  C103  1  0.050000  0.062400  0.445040  1.0  0.1356
  C  C104  1  0.197000  0.192900  0.512450  1.0  0.1228
  C  C105  1  0.434500  0.480300  0.920360  1.0  0.1358
  C  C106  1  0.533000  0.369900  0.918230  1.0  -0.2032
  C  C107  1  0.363900  0.463300  0.817730  1.0  0.0793
  C  C108  1  0.548500  0.305400  0.862020  1.0  -0.1232
  C  C109  1  0.462500  0.353100  0.810990  1.0  0.0149
  C  C110  1  0.302700  0.838100  0.127900  1.0  -0.1351
  C  C111  1  0.356800  0.876900  0.063230  1.0  0.079
  C  C112  1  0.463900  0.982000  0.053240  1.0  -0.0858
  C  C113  1  0.511200  0.013400  0.992910  1.0  -0.2013
  C  C114  1  0.487800  0.293200  0.747890  1.0  -0.0175
  C  C115  1  0.450000  0.937600  0.945040  1.0  0.1363
  C  C116  1  0.303000  0.807100  0.012450  1.0  0.1236
  N  N117  1  0.848600  0.972090  0.128490  1.0  -0.3804
  N  N118  1  0.163400  0.178300  0.277960  1.0  -0.6591
  N  N119  1  0.847100  0.663540  0.046310  1.0  -0.4036
  N  N120  1  0.929100  0.754910  0.845820  1.0  -0.6582
  N  N121  1  0.651400  0.027910  0.628490  1.0  -0.3804
  N  N122  1  0.336600  0.821700  0.777960  1.0  -0.6592
  N  N123  1  0.652900  0.336460  0.546310  1.0  -0.4025
  N  N124  1  0.570900  0.245090  0.345820  1.0  -0.6583
  N  N125  1  0.151400  0.472090  0.371510  1.0  -0.3794
  N  N126  1  0.836600  0.678300  0.222040  1.0  -0.6598
  N  N127  1  0.152900  0.163540  0.453690  1.0  -0.4023
  N  N128  1  0.070900  0.254910  0.654180  1.0  -0.656
  N  N129  1  0.348600  0.527910  0.871510  1.0  -0.3808
  N  N130  1  0.663400  0.321700  0.722040  1.0  -0.6632
  N  N131  1  0.347100  0.836460  0.953690  1.0  -0.404
  N  N132  1  0.429100  0.745090  0.154180  1.0  -0.6576
