# generated using pymatgen
data_ZnH4C6N3O2
_symmetry_space_group_name_H-M   'P 1'
_cell_length_a   7.79700000
_cell_length_b   10.04700000
_cell_length_c   13.57700000
_cell_angle_alpha   110.18000000
_cell_angle_beta   105.46000000
_cell_angle_gamma   93.90000000
_symmetry_Int_Tables_number   1
_chemical_formula_structural   ZnH4C6N3O2
_chemical_formula_sum   'Zn4 H16 C24 N12 O8'
_cell_volume   947.00091866
_cell_formula_units_Z   4
loop_
 _symmetry_equiv_pos_site_id
 _symmetry_equiv_pos_as_xyz
  1  'x, y, z'
loop_
 _atom_site_type_symbol
 _atom_site_label
 _atom_site_symmetry_multiplicity
 _atom_site_fract_x
 _atom_site_fract_y
 _atom_site_fract_z
 _atom_site_occupancy
 _atom_site_charge
  Zn  Zn1  1  0.369180  0.122260  0.744780  1.0  0.8544
  Zn  Zn2  1  0.630820  0.877740  0.255220  1.0  0.8545
  Zn  Zn3  1  0.000000  0.500000  0.500000  1.0  0.8804
  Zn  Zn4  1  0.500000  0.500000  0.500000  1.0  0.9048
  H  H5  1  0.085000  0.842500  0.632200  1.0  0.0836
  H  H6  1  0.590200  0.857800  0.636700  1.0  0.0882
  H  H7  1  0.040100  0.266700  0.625600  1.0  0.0871
  H  H8  1  0.539000  0.270600  0.619700  1.0  0.0828
  H  H9  1  0.862300  0.055800  0.847200  1.0  0.1003
  H  H10  1  0.313000  0.002900  0.053200  1.0  0.1131
  H  H11  1  0.967800  0.290800  0.845300  1.0  0.1015
  H  H12  1  0.745000  0.571100  0.050900  1.0  0.1128
  H  H13  1  0.915000  0.157500  0.367800  1.0  0.0849
  H  H14  1  0.409800  0.142200  0.363300  1.0  0.0881
  H  H15  1  0.959900  0.733300  0.374400  1.0  0.0877
  H  H16  1  0.461000  0.729400  0.380300  1.0  0.0832
  H  H17  1  0.137700  0.944200  0.152800  1.0  0.1006
  H  H18  1  0.687000  0.997100  0.946800  1.0  0.1135
  H  H19  1  0.032200  0.709200  0.154700  1.0  0.1013
  H  H20  1  0.255000  0.428900  0.949100  1.0  0.1139
  C  C21  1  0.194900  0.815200  0.621300  1.0  0.2417
  C  C22  1  0.466500  0.823500  0.623900  1.0  0.2643
  C  C23  1  0.151500  0.288200  0.613500  1.0  0.2657
  C  C24  1  0.419500  0.290200  0.610300  1.0  0.2575
  C  C25  1  0.217700  0.075500  0.877900  1.0  0.6594
  C  C26  1  0.103900  0.036100  0.940600  1.0  -0.125
  C  C27  1  0.918200  0.033400  0.909400  1.0  -0.0663
  C  C28  1  0.186400  0.002000  0.031700  1.0  -0.048
  C  C29  1  0.981200  0.375600  0.908000  1.0  -0.0843
  C  C30  1  0.848100  0.542400  0.030300  1.0  -0.0463
  C  C31  1  0.828500  0.417300  0.938000  1.0  -0.1194
  C  C32  1  0.643300  0.328500  0.872400  1.0  0.6474
  C  C33  1  0.805100  0.184800  0.378700  1.0  0.2395
  C  C34  1  0.533500  0.176500  0.376100  1.0  0.2656
  C  C35  1  0.848500  0.711800  0.386500  1.0  0.2651
  C  C36  1  0.580500  0.709800  0.389700  1.0  0.2578
  C  C37  1  0.782300  0.924500  0.122100  1.0  0.661
  C  C38  1  0.896100  0.963900  0.059400  1.0  -0.1245
  C  C39  1  0.081800  0.966600  0.090600  1.0  -0.0658
  C  C40  1  0.813600  0.998000  0.968300  1.0  -0.0489
  C  C41  1  0.018800  0.624400  0.092000  1.0  -0.0857
  C  C42  1  0.151900  0.457600  0.969700  1.0  -0.0467
  C  C43  1  0.171500  0.582700  0.062000  1.0  -0.12
  C  C44  1  0.356700  0.671500  0.127600  1.0  0.648
  N  N45  1  0.211400  0.681500  0.569700  1.0  -0.2858
  N  N46  1  0.389300  0.685900  0.571400  1.0  -0.2956
  N  N47  1  0.351100  0.909600  0.657100  1.0  -0.4105
  N  N48  1  0.179300  0.378100  0.565000  1.0  -0.2897
  N  N49  1  0.355400  0.378900  0.563000  1.0  -0.2734
  N  N50  1  0.297800  0.230500  0.643800  1.0  -0.4131
  N  N51  1  0.788600  0.318500  0.430300  1.0  -0.2855
  N  N52  1  0.610700  0.314100  0.428600  1.0  -0.2952
  N  N53  1  0.648900  0.090400  0.342900  1.0  -0.41
  N  N54  1  0.820700  0.621900  0.435000  1.0  -0.2893
  N  N55  1  0.644600  0.621100  0.437000  1.0  -0.2755
  N  N56  1  0.702200  0.769500  0.356200  1.0  -0.4117
  O  O57  1  0.140700  0.093600  0.790200  1.0  -0.6182
  O  O58  1  0.385200  0.092900  0.913000  1.0  -0.581
  O  O59  1  0.635800  0.203300  0.800900  1.0  -0.607
  O  O60  1  0.506800  0.380200  0.887400  1.0  -0.5927
  O  O61  1  0.859300  0.906400  0.209800  1.0  -0.6164
  O  O62  1  0.614800  0.907100  0.087000  1.0  -0.5822
  O  O63  1  0.364200  0.796700  0.199100  1.0  -0.6056
  O  O64  1  0.493200  0.619800  0.112600  1.0  -0.5907
