# generated using pymatgen
data_ZnH4C6N3O2
_symmetry_space_group_name_H-M   'P 1'
_cell_length_a   13.47500000
_cell_length_b   13.50900000
_cell_length_c   26.94900000
_cell_angle_alpha   90.00000000
_cell_angle_beta   90.00000000
_cell_angle_gamma   95.18000000
_symmetry_Int_Tables_number   1
_chemical_formula_structural   ZnH4C6N3O2
_chemical_formula_sum   'Zn16 H64 C96 N48 O32'
_cell_volume   4885.59349269
_cell_formula_units_Z   16
loop_
 _symmetry_equiv_pos_site_id
 _symmetry_equiv_pos_as_xyz
  1  'x, y, z'
loop_
 _atom_site_type_symbol
 _atom_site_label
 _atom_site_symmetry_multiplicity
 _atom_site_fract_x
 _atom_site_fract_y
 _atom_site_fract_z
 _atom_site_occupancy
 _atom_site_charge
  Zn  Zn1  1  0.221880  0.862370  0.975980  1.0  0.7866
  Zn  Zn2  1  0.632890  0.742620  0.945720  1.0  0.7809
  Zn  Zn3  1  0.257650  0.684310  0.075750  1.0  0.8065
  Zn  Zn4  1  0.188910  0.293130  0.956080  1.0  0.8033
  Zn  Zn5  1  0.278120  0.637630  0.475980  1.0  0.7864
  Zn  Zn6  1  0.867110  0.757380  0.445720  1.0  0.7808
  Zn  Zn7  1  0.242350  0.815690  0.575750  1.0  0.8069
  Zn  Zn8  1  0.311090  0.206870  0.456080  1.0  0.8025
  Zn  Zn9  1  0.778120  0.137630  0.024020  1.0  0.7865
  Zn  Zn10  1  0.367110  0.257380  0.054280  1.0  0.7811
  Zn  Zn11  1  0.742350  0.315690  0.924250  1.0  0.8066
  Zn  Zn12  1  0.811090  0.706870  0.043920  1.0  0.8026
  Zn  Zn13  1  0.721880  0.362370  0.524020  1.0  0.7865
  Zn  Zn14  1  0.132890  0.242620  0.554280  1.0  0.7812
  Zn  Zn15  1  0.757650  0.184310  0.424250  1.0  0.8077
  Zn  Zn16  1  0.688910  0.793130  0.543920  1.0  0.803
  H  H17  1  0.021200  0.619700  0.078400  1.0  0.0946
  H  H18  1  0.638700  0.523600  0.903400  1.0  0.0942
  H  H19  1  0.826400  0.475900  0.010100  1.0  0.0902
  H  H20  1  0.482700  0.651700  0.031400  1.0  0.0899
  H  H21  1  0.319800  0.020100  0.055000  1.0  0.0883
  H  H22  1  0.120300  0.059200  0.952500  1.0  0.1018
  H  H23  1  0.444700  0.863100  0.936200  1.0  0.1016
  H  H24  1  0.985700  0.802600  0.968400  1.0  0.0867
  H  H25  1  0.599600  0.646700  0.791600  1.0  0.11
  H  H26  1  0.372600  0.885200  0.736600  1.0  0.1097
  H  H27  1  0.609600  0.635800  0.704600  1.0  0.0993
  H  H28  1  0.355000  0.896700  0.823200  1.0  0.0995
  H  H29  1  0.074000  0.892600  0.722100  1.0  0.1051
  H  H30  1  0.607200  0.945700  0.779500  1.0  0.1065
  H  H31  1  0.058600  0.906800  0.808500  1.0  0.1155
  H  H32  1  0.632200  0.933900  0.694200  1.0  0.1129
  H  H33  1  0.478800  0.880300  0.578400  1.0  0.0947
  H  H34  1  0.861300  0.976400  0.403400  1.0  0.0937
  H  H35  1  0.673600  0.024100  0.510100  1.0  0.0894
  H  H36  1  0.017300  0.848300  0.531400  1.0  0.0901
  H  H37  1  0.180200  0.479900  0.555000  1.0  0.0887
  H  H38  1  0.379700  0.440800  0.452500  1.0  0.1023
  H  H39  1  0.055300  0.636900  0.436200  1.0  0.1016
  H  H40  1  0.514300  0.697400  0.468400  1.0  0.0873
  H  H41  1  0.900400  0.853300  0.291600  1.0  0.1097
  H  H42  1  0.127400  0.614800  0.236600  1.0  0.1095
  H  H43  1  0.890400  0.864200  0.204600  1.0  0.0995
  H  H44  1  0.145000  0.603300  0.323200  1.0  0.0996
  H  H45  1  0.426000  0.607400  0.222100  1.0  0.1055
  H  H46  1  0.892800  0.554300  0.279500  1.0  0.1063
  H  H47  1  0.441400  0.593200  0.308500  1.0  0.1157
  H  H48  1  0.867800  0.566100  0.194200  1.0  0.1119
  H  H49  1  0.978800  0.380300  0.921600  1.0  0.0941
  H  H50  1  0.361300  0.476400  0.096600  1.0  0.0939
  H  H51  1  0.173600  0.524100  0.989900  1.0  0.0884
  H  H52  1  0.517300  0.348300  0.968600  1.0  0.0901
  H  H53  1  0.680200  0.979900  0.945000  1.0  0.0886
  H  H54  1  0.879700  0.940800  0.047500  1.0  0.1024
  H  H55  1  0.555300  0.136900  0.063800  1.0  0.1025
  H  H56  1  0.014300  0.197400  0.031600  1.0  0.0875
  H  H57  1  0.400400  0.353300  0.208400  1.0  0.1101
  H  H58  1  0.627400  0.114800  0.263400  1.0  0.1091
  H  H59  1  0.390400  0.364200  0.295400  1.0  0.0992
  H  H60  1  0.645000  0.103300  0.176800  1.0  0.0999
  H  H61  1  0.926000  0.107400  0.277900  1.0  0.1049
  H  H62  1  0.392800  0.054300  0.220500  1.0  0.1065
  H  H63  1  0.941400  0.093200  0.191500  1.0  0.1162
  H  H64  1  0.367800  0.066100  0.305800  1.0  0.1117
  H  H65  1  0.521200  0.119700  0.421600  1.0  0.0938
  H  H66  1  0.138700  0.023600  0.596600  1.0  0.0943
  H  H67  1  0.326400  0.975900  0.489900  1.0  0.089
  H  H68  1  0.982700  0.151700  0.468600  1.0  0.0895
  H  H69  1  0.819800  0.520100  0.445000  1.0  0.0883
  H  H70  1  0.620300  0.559200  0.547500  1.0  0.1022
  H  H71  1  0.944700  0.363100  0.563800  1.0  0.1019
  H  H72  1  0.485700  0.302600  0.531600  1.0  0.0863
  H  H73  1  0.099600  0.146700  0.708400  1.0  0.1099
  H  H74  1  0.872600  0.385200  0.763400  1.0  0.1091
  H  H75  1  0.109600  0.135800  0.795400  1.0  0.0994
  H  H76  1  0.855000  0.396700  0.676800  1.0  0.0997
  H  H77  1  0.574000  0.392600  0.777900  1.0  0.105
  H  H78  1  0.107200  0.445700  0.720500  1.0  0.1067
  H  H79  1  0.558600  0.406800  0.691500  1.0  0.1157
  H  H80  1  0.132200  0.433900  0.805800  1.0  0.1124
  C  C81  1  0.205100  0.898900  0.823500  1.0  -0.1006
  C  C82  1  0.034500  0.666000  0.052200  1.0  0.252
  C  C83  1  0.680200  0.532200  0.931900  1.0  0.2549
  C  C84  1  0.781500  0.506900  0.989270  1.0  0.2521
  C  C85  1  0.454300  0.703300  0.013960  1.0  0.2567
  C  C86  1  0.223500  0.883700  0.721000  1.0  -0.1208
  C  C87  1  0.277000  0.050300  0.032730  1.0  0.2665
  C  C88  1  0.169500  0.071500  0.977500  1.0  0.2796
  C  C89  1  0.433900  0.816600  0.962600  1.0  0.2607
  C  C90  1  0.234100  0.866200  0.666400  1.0  0.656
  C  C91  1  0.015300  0.764300  0.993100  1.0  0.2624
  C  C92  1  0.604200  0.798200  0.794450  1.0  -0.1194
  C  C93  1  0.620000  0.783500  0.691600  1.0  -0.1068
  C  C94  1  0.601200  0.805400  0.849600  1.0  0.6898
  C  C95  1  0.633300  0.772800  0.636300  1.0  0.6681
  C  C96  1  0.604200  0.705400  0.771900  1.0  -0.0738
  C  C97  1  0.308400  0.887500  0.751000  1.0  -0.0552
  C  C98  1  0.611100  0.699100  0.720100  1.0  -0.0572
  C  C99  1  0.297700  0.894700  0.802500  1.0  -0.0643
  C  C100  1  0.131400  0.892300  0.742500  1.0  -0.0556
  C  C101  1  0.610800  0.882300  0.764700  1.0  -0.0614
  C  C102  1  0.121900  0.900400  0.794000  1.0  -0.0619
  C  C103  1  0.193100  0.895000  0.879800  1.0  0.6485
  C  C104  1  0.622500  0.875300  0.713800  1.0  -0.066
  C  C105  1  0.294900  0.601100  0.323500  1.0  -0.1014
  C  C106  1  0.465500  0.834000  0.552200  1.0  0.2515
  C  C107  1  0.819800  0.967800  0.431900  1.0  0.2533
  C  C108  1  0.718500  0.993100  0.489270  1.0  0.2521
  C  C109  1  0.045700  0.796700  0.513960  1.0  0.2564
  C  C110  1  0.276500  0.616300  0.221000  1.0  -0.121
  C  C111  1  0.223000  0.449700  0.532730  1.0  0.2661
  C  C112  1  0.330500  0.428500  0.477500  1.0  0.2796
  C  C113  1  0.066100  0.683400  0.462600  1.0  0.263
  C  C114  1  0.265900  0.633800  0.166400  1.0  0.6568
  C  C115  1  0.484700  0.735700  0.493100  1.0  0.2615
  C  C116  1  0.895800  0.701800  0.294450  1.0  -0.1189
  C  C117  1  0.880000  0.716500  0.191600  1.0  -0.1055
  C  C118  1  0.898800  0.694600  0.349600  1.0  0.6896
  C  C119  1  0.866700  0.727200  0.136300  1.0  0.6679
  C  C120  1  0.895800  0.794600  0.271900  1.0  -0.0741
  C  C121  1  0.191600  0.612500  0.251000  1.0  -0.0557
  C  C122  1  0.888900  0.800900  0.220100  1.0  -0.0568
  C  C123  1  0.202300  0.605300  0.302500  1.0  -0.0645
  C  C124  1  0.368600  0.607700  0.242500  1.0  -0.0562
  C  C125  1  0.889200  0.617700  0.264700  1.0  -0.0619
  C  C126  1  0.378100  0.599600  0.294000  1.0  -0.0596
  C  C127  1  0.306900  0.605000  0.379800  1.0  0.6474
  C  C128  1  0.877500  0.624700  0.213800  1.0  -0.0668
  C  C129  1  0.794900  0.101100  0.176500  1.0  -0.1011
  C  C130  1  0.965500  0.334000  0.947800  1.0  0.2514
  C  C131  1  0.319800  0.467800  0.068100  1.0  0.2546
  C  C132  1  0.218500  0.493100  0.010730  1.0  0.2523
  C  C133  1  0.545700  0.296700  0.986040  1.0  0.2569
  C  C134  1  0.776500  0.116300  0.279000  1.0  -0.1212
  C  C135  1  0.723000  0.949700  0.967270  1.0  0.2679
  C  C136  1  0.830500  0.928500  0.022500  1.0  0.2798
  C  C137  1  0.566100  0.183400  0.037400  1.0  0.262
  C  C138  1  0.765900  0.133800  0.333600  1.0  0.6567
  C  C139  1  0.984700  0.235700  0.006900  1.0  0.261
  C  C140  1  0.395800  0.201800  0.205550  1.0  -0.1195
  C  C141  1  0.380000  0.216500  0.308400  1.0  -0.1058
  C  C142  1  0.398800  0.194600  0.150400  1.0  0.6903
  C  C143  1  0.366700  0.227200  0.363700  1.0  0.6683
  C  C144  1  0.395800  0.294600  0.228100  1.0  -0.074
  C  C145  1  0.691600  0.112500  0.249000  1.0  -0.0556
  C  C146  1  0.388900  0.300900  0.279900  1.0  -0.0569
  C  C147  1  0.702300  0.105300  0.197500  1.0  -0.0644
  C  C148  1  0.868600  0.107700  0.257500  1.0  -0.0556
  C  C149  1  0.389200  0.117700  0.235300  1.0  -0.0619
  C  C150  1  0.878100  0.099600  0.206000  1.0  -0.0595
  C  C151  1  0.806900  0.105000  0.120200  1.0  0.6476
  C  C152  1  0.377500  0.124700  0.286200  1.0  -0.0664
  C  C153  1  0.705100  0.398900  0.676500  1.0  -0.1007
  C  C154  1  0.534500  0.166000  0.447800  1.0  0.2517
  C  C155  1  0.180200  0.032200  0.568100  1.0  0.2555
  C  C156  1  0.281500  0.006900  0.510730  1.0  0.2515
  C  C157  1  0.954300  0.203300  0.486040  1.0  0.2563
  C  C158  1  0.723500  0.383700  0.779000  1.0  -0.121
  C  C159  1  0.777000  0.550300  0.467270  1.0  0.2672
  C  C160  1  0.669500  0.571500  0.522500  1.0  0.2795
  C  C161  1  0.933900  0.316600  0.537400  1.0  0.2592
  C  C162  1  0.734100  0.366200  0.833600  1.0  0.6562
  C  C163  1  0.515300  0.264300  0.506900  1.0  0.2614
  C  C164  1  0.104200  0.298200  0.705550  1.0  -0.1196
  C  C165  1  0.120000  0.283500  0.808400  1.0  -0.1074
  C  C166  1  0.101200  0.305400  0.650400  1.0  0.6901
  C  C167  1  0.133300  0.272800  0.863700  1.0  0.6687
  C  C168  1  0.104200  0.205400  0.728100  1.0  -0.0744
  C  C169  1  0.808400  0.387500  0.749000  1.0  -0.055
  C  C170  1  0.111100  0.199100  0.779900  1.0  -0.0568
  C  C171  1  0.797700  0.394700  0.697500  1.0  -0.0647
  C  C172  1  0.631400  0.392300  0.757500  1.0  -0.0554
  C  C173  1  0.110800  0.382300  0.735300  1.0  -0.0611
  C  C174  1  0.621900  0.400400  0.706000  1.0  -0.0615
  C  C175  1  0.693100  0.395000  0.620200  1.0  0.6489
  C  C176  1  0.122500  0.375300  0.786200  1.0  -0.0666
  N  N177  1  0.499400  0.752900  0.975800  1.0  -0.4371
  N  N178  1  0.214000  0.999100  0.001620  1.0  -0.4319
  N  N179  1  0.736900  0.463100  0.949060  1.0  -0.4251
  N  N180  1  0.366000  0.733900  0.024760  1.0  -0.2726
  N  N181  1  0.125700  0.702100  0.038940  1.0  -0.249
  N  N182  1  0.688900  0.614200  0.959450  1.0  -0.267
  N  N183  1  0.352700  0.807800  0.990090  1.0  -0.2579
  N  N184  1  0.273000  0.146600  0.029100  1.0  -0.2613
  N  N185  1  0.202800  0.160200  0.992880  1.0  -0.2528
  N  N186  1  0.962700  0.702200  0.024420  1.0  -0.436
  N  N187  1  0.755700  0.597400  0.996420  1.0  -0.2544
  N  N188  1  0.113000  0.766300  0.000350  1.0  -0.2661
  N  N189  1  0.000600  0.747100  0.475800  1.0  -0.4375
  N  N190  1  0.286000  0.500900  0.501620  1.0  -0.432
  N  N191  1  0.763100  0.036900  0.449060  1.0  -0.4246
  N  N192  1  0.134000  0.766100  0.524760  1.0  -0.2688
  N  N193  1  0.374300  0.797900  0.538940  1.0  -0.2486
  N  N194  1  0.811100  0.885800  0.459450  1.0  -0.2666
  N  N195  1  0.147300  0.692200  0.490090  1.0  -0.2576
  N  N196  1  0.227000  0.353400  0.529100  1.0  -0.2601
  N  N197  1  0.297200  0.339800  0.492880  1.0  -0.2522
  N  N198  1  0.537300  0.797800  0.524420  1.0  -0.4354
  N  N199  1  0.744300  0.902600  0.496420  1.0  -0.2527
  N  N200  1  0.387000  0.733700  0.500350  1.0  -0.2675
  N  N201  1  0.500600  0.247100  0.024200  1.0  -0.4371
  N  N202  1  0.786000  0.000900  0.998380  1.0  -0.4313
  N  N203  1  0.263100  0.536900  0.050940  1.0  -0.4251
  N  N204  1  0.634000  0.266100  0.975240  1.0  -0.2675
  N  N205  1  0.874300  0.297900  0.961060  1.0  -0.2488
  N  N206  1  0.311100  0.385800  0.040550  1.0  -0.2669
  N  N207  1  0.647300  0.192200  0.009910  1.0  -0.2575
  N  N208  1  0.727000  0.853400  0.970900  1.0  -0.2596
  N  N209  1  0.797200  0.839800  0.007120  1.0  -0.2526
  N  N210  1  0.037300  0.297800  0.975580  1.0  -0.4359
  N  N211  1  0.244300  0.402600  0.003580  1.0  -0.2524
  N  N212  1  0.887000  0.233700  0.999650  1.0  -0.2674
  N  N213  1  0.999400  0.252900  0.524200  1.0  -0.4368
  N  N214  1  0.714000  0.499100  0.498380  1.0  -0.4313
  N  N215  1  0.236900  0.963100  0.550940  1.0  -0.4251
  N  N216  1  0.866000  0.233900  0.475240  1.0  -0.2709
  N  N217  1  0.625700  0.202100  0.461060  1.0  -0.2495
  N  N218  1  0.188900  0.114200  0.540550  1.0  -0.2671
  N  N219  1  0.852700  0.307800  0.509910  1.0  -0.2576
  N  N220  1  0.773000  0.646600  0.470900  1.0  -0.2602
  N  N221  1  0.702800  0.660200  0.507120  1.0  -0.2531
  N  N222  1  0.462700  0.202200  0.475580  1.0  -0.4361
  N  N223  1  0.255700  0.097400  0.503580  1.0  -0.253
  N  N224  1  0.613000  0.266300  0.499650  1.0  -0.2659
  O  O225  1  0.268700  0.890400  0.904800  1.0  -0.5689
  O  O226  1  0.625900  0.728900  0.873450  1.0  -0.6184
  O  O227  1  0.155200  0.844300  0.640660  1.0  -0.6046
  O  O228  1  0.318600  0.871100  0.646490  1.0  -0.5764
  O  O229  1  0.667500  0.851200  0.612580  1.0  -0.607
  O  O230  1  0.579900  0.881800  0.871010  1.0  -0.593
  O  O231  1  0.612700  0.692300  0.615890  1.0  -0.581
  O  O232  1  0.105300  0.900200  0.899000  1.0  -0.6332
  O  O233  1  0.231300  0.609600  0.404800  1.0  -0.569
  O  O234  1  0.874100  0.771100  0.373450  1.0  -0.6187
  O  O235  1  0.344800  0.655700  0.140660  1.0  -0.6051
  O  O236  1  0.181400  0.628900  0.146490  1.0  -0.5759
  O  O237  1  0.832500  0.648800  0.112580  1.0  -0.608
  O  O238  1  0.920100  0.618200  0.371010  1.0  -0.5896
  O  O239  1  0.887300  0.807700  0.115890  1.0  -0.5811
  O  O240  1  0.394700  0.599800  0.399000  1.0  -0.6328
  O  O241  1  0.731300  0.109600  0.095200  1.0  -0.5687
  O  O242  1  0.374100  0.271100  0.126550  1.0  -0.6186
  O  O243  1  0.844800  0.155700  0.359340  1.0  -0.6053
  O  O244  1  0.681400  0.128900  0.353510  1.0  -0.5759
  O  O245  1  0.332500  0.148800  0.387420  1.0  -0.6062
  O  O246  1  0.420100  0.118200  0.128990  1.0  -0.5897
  O  O247  1  0.387300  0.307700  0.384110  1.0  -0.5822
  O  O248  1  0.894700  0.099800  0.101000  1.0  -0.6314
  O  O249  1  0.768700  0.390400  0.595200  1.0  -0.569
  O  O250  1  0.125900  0.228900  0.626550  1.0  -0.6186
  O  O251  1  0.655200  0.344300  0.859340  1.0  -0.6038
  O  O252  1  0.818600  0.371100  0.853510  1.0  -0.5764
  O  O253  1  0.167500  0.351200  0.887420  1.0  -0.6055
  O  O254  1  0.079900  0.381800  0.628990  1.0  -0.5936
  O  O255  1  0.112700  0.192300  0.884110  1.0  -0.5819
  O  O256  1  0.605300  0.400200  0.601000  1.0  -0.6329
