# generated using pymatgen
data_Zn5H20C32(NO)12
_symmetry_space_group_name_H-M   'P 1'
_cell_length_a   10.19200000
_cell_length_b   17.76400000
_cell_length_c   24.43700000
_cell_angle_alpha   90.00000000
_cell_angle_beta   91.19000000
_cell_angle_gamma   90.00000000
_symmetry_Int_Tables_number   1
_chemical_formula_structural   Zn5H20C32(NO)12
_chemical_formula_sum   'Zn20 H80 C128 N48 O48'
_cell_volume   4423.38143693
_cell_formula_units_Z   4
loop_
 _symmetry_equiv_pos_site_id
 _symmetry_equiv_pos_as_xyz
  1  'x, y, z'
loop_
 _atom_site_type_symbol
 _atom_site_label
 _atom_site_symmetry_multiplicity
 _atom_site_fract_x
 _atom_site_fract_y
 _atom_site_fract_z
 _atom_site_occupancy
 _atom_site_charge
  Zn  Zn1  1  0.388110  0.602630  0.961900  1.0  0.9635
  Zn  Zn2  1  0.887470  0.562540  0.833310  1.0  0.8683
  Zn  Zn3  1  0.869340  0.755420  0.871820  1.0  0.7923
  Zn  Zn4  1  0.351370  0.898050  0.774750  1.0  0.9898
  Zn  Zn5  1  0.854680  0.950710  0.904700  1.0  0.8665
  Zn  Zn6  1  0.888110  0.897370  0.461900  1.0  0.9612
  Zn  Zn7  1  0.387470  0.937460  0.333333  1.0  0.87
  Zn  Zn8  1  0.369340  0.744580  0.371820  1.0  0.7923
  Zn  Zn9  1  0.851370  0.601950  0.274750  1.0  0.9902
  Zn  Zn10  1  0.354680  0.549290  0.404700  1.0  0.8691
  Zn  Zn11  1  0.111890  0.102630  0.538100  1.0  0.964
  Zn  Zn12  1  0.612530  0.062540  0.666667  1.0  0.8686
  Zn  Zn13  1  0.630660  0.255420  0.628180  1.0  0.7956
  Zn  Zn14  1  0.148630  0.398050  0.725250  1.0  0.9898
  Zn  Zn15  1  0.645320  0.450710  0.595300  1.0  0.8641
  Zn  Zn16  1  0.611890  0.397370  0.038100  1.0  0.9616
  Zn  Zn17  1  0.112530  0.437460  0.166690  1.0  0.868
  Zn  Zn18  1  0.130660  0.244580  0.128180  1.0  0.7956
  Zn  Zn19  1  0.648630  0.101950  0.225250  1.0  0.9904
  Zn  Zn20  1  0.145320  0.049290  0.095300  1.0  0.8661
  H  H21  1  0.172500  0.528900  0.888900  1.0  0.0878
  H  H22  1  0.160900  0.733500  0.944200  1.0  0.0955
  H  H23  1  0.146200  0.777200  0.809400  1.0  0.0874
  H  H24  1  0.141800  0.988300  0.850600  1.0  0.0868
  H  H25  1  0.592400  0.725900  0.932200  1.0  0.0846
  H  H26  1  0.602100  0.518300  0.884500  1.0  0.0871
  H  H27  1  0.573800  0.771700  0.802800  1.0  0.0916
  H  H28  1  0.573300  0.982800  0.841000  1.0  0.085
  H  H29  1  0.468000  0.892800  0.154000  1.0  0.0993
  H  H30  1  0.445800  0.692200  0.228000  1.0  0.0994
  H  H31  1  0.451800  0.633200  0.143800  1.0  0.1013
  H  H32  1  0.467300  0.833200  0.069300  1.0  0.1098
  H  H33  1  0.785000  0.704100  0.015500  1.0  0.0966
  H  H34  1  0.799000  0.909100  0.084800  1.0  0.1029
  H  H35  1  0.793500  0.853400  0.169900  1.0  0.0964
  H  H36  1  0.779900  0.649400  0.101300  1.0  0.1053
  H  H37  1  0.867000  0.325400  0.793800  1.0  0.0851
  H  H38  1  0.900700  0.318900  0.957600  1.0  0.0906
  H  H39  1  0.860800  0.196000  0.791200  1.0  0.1018
  H  H40  1  0.887600  0.189500  0.955000  1.0  0.1026
  H  H41  1  0.672500  0.971100  0.388900  1.0  0.0882
  H  H42  1  0.660900  0.766500  0.444200  1.0  0.0958
  H  H43  1  0.646200  0.722800  0.309400  1.0  0.0876
  H  H44  1  0.641800  0.511700  0.350600  1.0  0.0866
  H  H45  1  0.092400  0.774100  0.432200  1.0  0.0845
  H  H46  1  0.102100  0.981700  0.384500  1.0  0.087
  H  H47  1  0.073800  0.728300  0.302800  1.0  0.0918
  H  H48  1  0.073300  0.517200  0.341000  1.0  0.0849
  H  H49  1  0.968000  0.607200  0.654000  1.0  0.0982
  H  H50  1  0.945800  0.807800  0.728000  1.0  0.0995
  H  H51  1  0.951800  0.866800  0.643800  1.0  0.1003
  H  H52  1  0.967300  0.666800  0.569300  1.0  0.11
  H  H53  1  0.285000  0.795900  0.515500  1.0  0.0972
  H  H54  1  0.299000  0.590900  0.584800  1.0  0.1021
  H  H55  1  0.293500  0.646600  0.669900  1.0  0.0968
  H  H56  1  0.279900  0.850600  0.601300  1.0  0.1045
  H  H57  1  0.367000  0.174600  0.293800  1.0  0.0849
  H  H58  1  0.400700  0.181100  0.457600  1.0  0.0902
  H  H59  1  0.360800  0.304000  0.291200  1.0  0.1017
  H  H60  1  0.387600  0.310500  0.455000  1.0  0.1028
  H  H61  1  0.327500  0.028900  0.611100  1.0  0.0878
  H  H62  1  0.339100  0.233500  0.555800  1.0  0.0955
  H  H63  1  0.353800  0.277200  0.690600  1.0  0.088
  H  H64  1  0.358200  0.488300  0.649400  1.0  0.0865
  H  H65  1  0.907600  0.225900  0.567800  1.0  0.0844
  H  H66  1  0.897900  0.018300  0.615500  1.0  0.0873
  H  H67  1  0.926200  0.271700  0.697200  1.0  0.0912
  H  H68  1  0.926700  0.482800  0.659000  1.0  0.0842
  H  H69  1  0.032000  0.392800  0.346000  1.0  0.0993
  H  H70  1  0.054200  0.192200  0.272000  1.0  0.0991
  H  H71  1  0.048200  0.133200  0.356200  1.0  0.1013
  H  H72  1  0.032700  0.333200  0.430700  1.0  0.1098
  H  H73  1  0.715000  0.204100  0.484500  1.0  0.0967
  H  H74  1  0.701000  0.409100  0.415200  1.0  0.1022
  H  H75  1  0.706500  0.353400  0.330100  1.0  0.0965
  H  H76  1  0.720100  0.149400  0.398700  1.0  0.105
  H  H77  1  0.633000  0.825400  0.706200  1.0  0.0854
  H  H78  1  0.599300  0.818900  0.542400  1.0  0.0916
  H  H79  1  0.639200  0.696000  0.708800  1.0  0.1016
  H  H80  1  0.612400  0.689500  0.545000  1.0  0.1034
  H  H81  1  0.827500  0.471100  0.111100  1.0  0.0882
  H  H82  1  0.839100  0.266500  0.055800  1.0  0.0957
  H  H83  1  0.853800  0.222800  0.190600  1.0  0.088
  H  H84  1  0.858200  0.011700  0.149400  1.0  0.0867
  H  H85  1  0.407600  0.274100  0.067800  1.0  0.0842
  H  H86  1  0.397900  0.481700  0.115500  1.0  0.0869
  H  H87  1  0.426200  0.228300  0.197200  1.0  0.0916
  H  H88  1  0.426700  0.017200  0.159000  1.0  0.0842
  H  H89  1  0.532000  0.107200  0.846000  1.0  0.0986
  H  H90  1  0.554200  0.307800  0.772000  1.0  0.0997
  H  H91  1  0.548200  0.366800  0.856200  1.0  0.1004
  H  H92  1  0.532700  0.166800  0.930700  1.0  0.1101
  H  H93  1  0.215000  0.295900  0.984500  1.0  0.0969
  H  H94  1  0.201000  0.090900  0.915200  1.0  0.1022
  H  H95  1  0.206500  0.146600  0.830100  1.0  0.0968
  H  H96  1  0.220100  0.350600  0.898700  1.0  0.1041
  H  H97  1  0.133000  0.674600  0.206200  1.0  0.0854
  H  H98  1  0.099300  0.681100  0.042400  1.0  0.0913
  H  H99  1  0.139200  0.804000  0.208800  1.0  0.1012
  H  H100  1  0.112400  0.810500  0.045000  1.0  0.1037
  C  C101  1  0.145500  0.577800  0.896300  1.0  0.272
  C  C102  1  0.139000  0.689000  0.926200  1.0  0.2725
  C  C103  1  0.121200  0.823300  0.824000  1.0  0.2509
  C  C104  1  0.118500  0.938000  0.846700  1.0  0.278
  C  C105  1  0.618400  0.681200  0.915950  1.0  0.2693
  C  C106  1  0.623600  0.568600  0.890100  1.0  0.276
  C  C107  1  0.599000  0.818400  0.816560  1.0  0.27
  C  C108  1  0.598100  0.932700  0.837300  1.0  0.2848
  C  C109  1  0.422600  0.835600  0.252920  1.0  0.6755
  C  C110  1  0.449300  0.798700  0.199090  1.0  -0.1353
  C  C111  1  0.460500  0.840700  0.151940  1.0  -0.0505
  C  C112  1  0.448100  0.720700  0.196100  1.0  -0.0643
  C  C113  1  0.450400  0.685500  0.145700  1.0  -0.0453
  C  C114  1  0.460600  0.805000  0.101200  1.0  -0.0402
  C  C115  1  0.450600  0.727000  0.098400  1.0  -0.1297
  C  C116  1  0.431800  0.689500  0.043600  1.0  0.6494
  C  C117  1  0.822500  0.844300  0.985580  1.0  0.6797
  C  C118  1  0.798400  0.811800  0.041470  1.0  -0.136
  C  C119  1  0.789300  0.734200  0.046700  1.0  -0.0602
  C  C120  1  0.797600  0.856900  0.087900  1.0  -0.0742
  C  C121  1  0.794800  0.823200  0.138900  1.0  -0.0462
  C  C122  1  0.786600  0.701400  0.098100  1.0  -0.0417
  C  C123  1  0.793900  0.746000  0.144900  1.0  -0.1145
  C  C124  1  0.810700  0.708800  0.200300  1.0  0.657
  C  C125  1  0.899100  0.419600  0.877400  1.0  0.6588
  C  C126  1  0.888000  0.336000  0.875960  1.0  -0.1268
  C  C127  1  0.873100  0.298100  0.826200  1.0  -0.0635
  C  C128  1  0.892400  0.294400  0.924100  1.0  -0.0521
  C  C129  1  0.867400  0.220700  0.824700  1.0  -0.0501
  C  C130  1  0.871600  0.179500  0.872900  1.0  -0.1277
  C  C131  1  0.884400  0.216900  0.922500  1.0  -0.0526
  C  C132  1  0.864000  0.094900  0.869800  1.0  0.6541
  C  C133  1  0.645500  0.922200  0.396300  1.0  0.2725
  C  C134  1  0.639000  0.811000  0.426200  1.0  0.273
  C  C135  1  0.621200  0.676700  0.324000  1.0  0.2487
  C  C136  1  0.618500  0.562000  0.346700  1.0  0.2773
  C  C137  1  0.118400  0.818800  0.415950  1.0  0.2696
  C  C138  1  0.123600  0.931400  0.390100  1.0  0.2763
  C  C139  1  0.099000  0.681600  0.316560  1.0  0.2704
  C  C140  1  0.098100  0.567300  0.337300  1.0  0.2854
  C  C141  1  0.922600  0.664400  0.752920  1.0  0.6758
  C  C142  1  0.949300  0.701300  0.699090  1.0  -0.1353
  C  C143  1  0.960500  0.659300  0.651940  1.0  -0.0496
  C  C144  1  0.948100  0.779300  0.696100  1.0  -0.0638
  C  C145  1  0.950400  0.814500  0.645700  1.0  -0.0453
  C  C146  1  0.960600  0.695000  0.601200  1.0  -0.0408
  C  C147  1  0.950600  0.773000  0.598400  1.0  -0.1292
  C  C148  1  0.931800  0.810500  0.543600  1.0  0.6498
  C  C149  1  0.322500  0.655700  0.485580  1.0  0.6792
  C  C150  1  0.298400  0.688200  0.541470  1.0  -0.1373
  C  C151  1  0.289300  0.765800  0.546700  1.0  -0.0599
  C  C152  1  0.297600  0.643100  0.587900  1.0  -0.0775
  C  C153  1  0.294800  0.676800  0.638900  1.0  -0.0455
  C  C154  1  0.286600  0.798600  0.598100  1.0  -0.0436
  C  C155  1  0.293900  0.754000  0.644900  1.0  -0.1148
  C  C156  1  0.310700  0.791200  0.700300  1.0  0.6565
  C  C157  1  0.399100  0.080400  0.377400  1.0  0.6581
  C  C158  1  0.388000  0.164000  0.375960  1.0  -0.1273
  C  C159  1  0.373100  0.201900  0.326200  1.0  -0.0634
  C  C160  1  0.392400  0.205600  0.424100  1.0  -0.0525
  C  C161  1  0.367400  0.279300  0.324700  1.0  -0.0505
  C  C162  1  0.371600  0.320500  0.372900  1.0  -0.1279
  C  C163  1  0.384400  0.283100  0.422500  1.0  -0.0526
  C  C164  1  0.364000  0.405100  0.369800  1.0  0.6537
  C  C165  1  0.354500  0.077800  0.603700  1.0  0.2722
  C  C166  1  0.361000  0.189000  0.573800  1.0  0.273
  C  C167  1  0.378800  0.323300  0.676000  1.0  0.2532
  C  C168  1  0.381500  0.438000  0.653300  1.0  0.2793
  C  C169  1  0.881600  0.181200  0.584050  1.0  0.2688
  C  C170  1  0.876400  0.068600  0.609900  1.0  0.2763
  C  C171  1  0.901000  0.318400  0.683440  1.0  0.269
  C  C172  1  0.901900  0.432700  0.662700  1.0  0.2836
  C  C173  1  0.077400  0.335600  0.247080  1.0  0.6757
  C  C174  1  0.050700  0.298700  0.300910  1.0  -0.1349
  C  C175  1  0.039500  0.340700  0.348060  1.0  -0.0507
  C  C176  1  0.051900  0.220700  0.303900  1.0  -0.0622
  C  C177  1  0.049600  0.185500  0.354300  1.0  -0.0449
  C  C178  1  0.039400  0.305000  0.398800  1.0  -0.0402
  C  C179  1  0.049400  0.227000  0.401600  1.0  -0.1285
  C  C180  1  0.068200  0.189500  0.456400  1.0  0.6499
  C  C181  1  0.677500  0.344300  0.514420  1.0  0.6801
  C  C182  1  0.701600  0.311800  0.458530  1.0  -0.1373
  C  C183  1  0.710700  0.234200  0.453300  1.0  -0.0588
  C  C184  1  0.702400  0.356900  0.412100  1.0  -0.0735
  C  C185  1  0.705200  0.323200  0.361100  1.0  -0.0472
  C  C186  1  0.713400  0.201400  0.401900  1.0  -0.0414
  C  C187  1  0.706100  0.246000  0.355100  1.0  -0.1149
  C  C188  1  0.689300  0.208800  0.299700  1.0  0.6567
  C  C189  1  0.600900  0.919600  0.622600  1.0  0.6581
  C  C190  1  0.612000  0.836000  0.624040  1.0  -0.1264
  C  C191  1  0.626900  0.798100  0.673800  1.0  -0.0634
  C  C192  1  0.607600  0.794400  0.575900  1.0  -0.0536
  C  C193  1  0.632600  0.720700  0.675300  1.0  -0.0508
  C  C194  1  0.628400  0.679500  0.627100  1.0  -0.1275
  C  C195  1  0.615600  0.716900  0.577500  1.0  -0.053
  C  C196  1  0.636000  0.594900  0.630200  1.0  0.6545
  C  C197  1  0.854500  0.422200  0.103700  1.0  0.2717
  C  C198  1  0.861000  0.311000  0.073800  1.0  0.2735
  C  C199  1  0.878800  0.176700  0.176000  1.0  0.2514
  C  C200  1  0.881500  0.062000  0.153300  1.0  0.2788
  C  C201  1  0.381600  0.318800  0.084050  1.0  0.269
  C  C202  1  0.376400  0.431400  0.109900  1.0  0.276
  C  C203  1  0.401000  0.181600  0.183440  1.0  0.2691
  C  C204  1  0.401900  0.067300  0.162700  1.0  0.2843
  C  C205  1  0.577400  0.164400  0.747080  1.0  0.6747
  C  C206  1  0.550700  0.201300  0.800910  1.0  -0.1361
  C  C207  1  0.539500  0.159300  0.848060  1.0  -0.0489
  C  C208  1  0.551900  0.279300  0.803900  1.0  -0.0615
  C  C209  1  0.549600  0.314500  0.854300  1.0  -0.0447
  C  C210  1  0.539400  0.195000  0.898800  1.0  -0.0409
  C  C211  1  0.549400  0.273000  0.901600  1.0  -0.129
  C  C212  1  0.568200  0.310500  0.956400  1.0  0.6499
  C  C213  1  0.177500  0.155700  0.014420  1.0  0.6803
  C  C214  1  0.201600  0.188200  0.958530  1.0  -0.1384
  C  C215  1  0.210700  0.265800  0.953300  1.0  -0.0591
  C  C216  1  0.202400  0.143100  0.912100  1.0  -0.076
  C  C217  1  0.205200  0.176800  0.861100  1.0  -0.0466
  C  C218  1  0.213400  0.298600  0.901900  1.0  -0.0438
  C  C219  1  0.206100  0.254000  0.855100  1.0  -0.1141
  C  C220  1  0.189300  0.291200  0.799700  1.0  0.6566
  C  C221  1  0.100900  0.580400  0.122600  1.0  0.6566
  C  C222  1  0.112000  0.664000  0.124040  1.0  -0.127
  C  C223  1  0.126900  0.701900  0.173800  1.0  -0.0642
  C  C224  1  0.107600  0.705600  0.075900  1.0  -0.0525
  C  C225  1  0.132600  0.779300  0.175300  1.0  -0.0506
  C  C226  1  0.128400  0.820500  0.127100  1.0  -0.1279
  C  C227  1  0.115600  0.783100  0.077500  1.0  -0.0532
  C  C228  1  0.136000  0.905100  0.130200  1.0  0.6539
  N  N229  1  0.035300  0.607000  0.877750  1.0  -0.2398
  N  N230  1  0.030300  0.679500  0.896920  1.0  -0.2216
  N  N231  1  0.215100  0.626800  0.927220  1.0  -0.4934
  N  N232  1  0.013100  0.833800  0.851990  1.0  -0.2085
  N  N233  1  0.012200  0.908500  0.867180  1.0  -0.2578
  N  N234  1  0.190400  0.887100  0.819120  1.0  -0.5027
  N  N235  1  0.728400  0.601000  0.870400  1.0  -0.2459
  N  N236  1  0.725000  0.674500  0.887360  1.0  -0.1974
  N  N237  1  0.550800  0.616700  0.919390  1.0  -0.4979
  N  N238  1  0.709100  0.830000  0.843990  1.0  -0.2184
  N  N239  1  0.708100  0.904500  0.858060  1.0  -0.2474
  N  N240  1  0.526200  0.881000  0.810390  1.0  -0.4922
  N  N241  1  0.535300  0.893000  0.377750  1.0  -0.239
  N  N242  1  0.530300  0.820500  0.396920  1.0  -0.2222
  N  N243  1  0.715100  0.873200  0.427220  1.0  -0.494
  N  N244  1  0.513100  0.666200  0.351990  1.0  -0.2083
  N  N245  1  0.512200  0.591500  0.367180  1.0  -0.2576
  N  N246  1  0.690400  0.612900  0.319120  1.0  -0.5026
  N  N247  1  0.228400  0.899000  0.370400  1.0  -0.2454
  N  N248  1  0.225000  0.825500  0.387360  1.0  -0.1977
  N  N249  1  0.050800  0.883300  0.419390  1.0  -0.4964
  N  N250  1  0.209100  0.670000  0.343990  1.0  -0.2179
  N  N251  1  0.208100  0.595500  0.358060  1.0  -0.247
  N  N252  1  0.026200  0.619000  0.310390  1.0  -0.4922
  N  N253  1  0.464700  0.107000  0.622250  1.0  -0.2393
  N  N254  1  0.469700  0.179500  0.603080  1.0  -0.221
  N  N255  1  0.284900  0.126800  0.572780  1.0  -0.4895
  N  N256  1  0.486900  0.333800  0.648010  1.0  -0.209
  N  N257  1  0.487800  0.408500  0.632820  1.0  -0.2578
  N  N258  1  0.309600  0.387100  0.680880  1.0  -0.5003
  N  N259  1  0.771600  0.101000  0.629600  1.0  -0.2463
  N  N260  1  0.775000  0.174500  0.612640  1.0  -0.1975
  N  N261  1  0.949200  0.116700  0.580610  1.0  -0.5012
  N  N262  1  0.790900  0.330000  0.656010  1.0  -0.2179
  N  N263  1  0.791900  0.404500  0.641940  1.0  -0.2468
  N  N264  1  0.973800  0.381000  0.689610  1.0  -0.4935
  N  N265  1  0.964700  0.393000  0.122250  1.0  -0.2394
  N  N266  1  0.969700  0.320500  0.103080  1.0  -0.2214
  N  N267  1  0.784900  0.373200  0.072780  1.0  -0.4887
  N  N268  1  0.986900  0.166200  0.148010  1.0  -0.2087
  N  N269  1  0.987800  0.091500  0.132820  1.0  -0.2577
  N  N270  1  0.809600  0.112900  0.180880  1.0  -0.5005
  N  N271  1  0.271600  0.399000  0.129600  1.0  -0.2465
  N  N272  1  0.275000  0.325500  0.112640  1.0  -0.1978
  N  N273  1  0.449200  0.383300  0.080610  1.0  -0.5018
  N  N274  1  0.290900  0.170000  0.156010  1.0  -0.2174
  N  N275  1  0.291900  0.095500  0.141940  1.0  -0.2482
  N  N276  1  0.473800  0.119000  0.189610  1.0  -0.4932
  O  O277  1  0.431200  0.907210  0.257010  1.0  -0.6069
  O  O278  1  0.386800  0.795960  0.291570  1.0  -0.6232
  O  O279  1  0.411300  0.727200  0.001740  1.0  -0.5882
  O  O280  1  0.431300  0.616500  0.041970  1.0  -0.6354
  O  O281  1  0.851000  0.800200  0.948970  1.0  -0.6021
  O  O282  1  0.817400  0.915100  0.979500  1.0  -0.5835
  O  O283  1  0.811400  0.636900  0.200330  1.0  -0.6299
  O  O284  1  0.828100  0.746800  0.242100  1.0  -0.5952
  O  O285  1  0.875600  0.453500  0.831440  1.0  -0.6254
  O  O286  1  0.929000  0.452260  0.920380  1.0  -0.5975
  O  O287  1  0.853500  0.059620  0.914570  1.0  -0.6063
  O  O288  1  0.872200  0.063200  0.825500  1.0  -0.5976
  O  O289  1  0.931200  0.592790  0.757010  1.0  -0.6074
  O  O290  1  0.886800  0.704040  0.791570  1.0  -0.6231
  O  O291  1  0.911300  0.772800  0.501740  1.0  -0.5883
  O  O292  1  0.931300  0.883500  0.541970  1.0  -0.6344
  O  O293  1  0.351000  0.699800  0.448970  1.0  -0.6024
  O  O294  1  0.317400  0.584900  0.479500  1.0  -0.5831
  O  O295  1  0.311400  0.863100  0.700330  1.0  -0.6295
  O  O296  1  0.328100  0.753200  0.742100  1.0  -0.5951
  O  O297  1  0.375600  0.046500  0.331440  1.0  -0.626
  O  O298  1  0.429000  0.047740  0.420380  1.0  -0.5974
  O  O299  1  0.353500  0.440380  0.414570  1.0  -0.6067
  O  O300  1  0.372200  0.436800  0.325500  1.0  -0.5972
  O  O301  1  0.068800  0.407210  0.242990  1.0  -0.6073
  O  O302  1  0.113200  0.295960  0.208430  1.0  -0.6233
  O  O303  1  0.088700  0.227200  0.498260  1.0  -0.5874
  O  O304  1  0.068700  0.116500  0.458030  1.0  -0.636
  O  O305  1  0.649000  0.300200  0.551030  1.0  -0.6013
  O  O306  1  0.682600  0.415100  0.520500  1.0  -0.5825
  O  O307  1  0.688600  0.136900  0.299670  1.0  -0.6296
  O  O308  1  0.671900  0.246800  0.257900  1.0  -0.5974
  O  O309  1  0.624400  0.953500  0.668560  1.0  -0.6258
  O  O310  1  0.571000  0.952260  0.579620  1.0  -0.5986
  O  O311  1  0.646500  0.559620  0.585430  1.0  -0.6058
  O  O312  1  0.627800  0.563200  0.674500  1.0  -0.5967
  O  O313  1  0.568800  0.092790  0.742990  1.0  -0.6076
  O  O314  1  0.613200  0.204040  0.708430  1.0  -0.6233
  O  O315  1  0.588700  0.272800  0.998260  1.0  -0.5872
  O  O316  1  0.568700  0.383500  0.958030  1.0  -0.635
  O  O317  1  0.149000  0.199800  0.051030  1.0  -0.6016
  O  O318  1  0.182600  0.084900  0.020500  1.0  -0.5822
  O  O319  1  0.188600  0.363100  0.799670  1.0  -0.6292
  O  O320  1  0.171900  0.253200  0.757900  1.0  -0.5983
  O  O321  1  0.124400  0.546500  0.168560  1.0  -0.6257
  O  O322  1  0.071000  0.547740  0.079620  1.0  -0.5997
  O  O323  1  0.146500  0.940380  0.085430  1.0  -0.6056
  O  O324  1  0.127800  0.936800  0.174500  1.0  -0.5976
