# generated using pymatgen
data_TbH2C8NO6
_symmetry_space_group_name_H-M   'P 1'
_cell_length_a   6.90820000
_cell_length_b   18.42600000
_cell_length_c   18.58300000
_cell_angle_alpha   111.98000000
_cell_angle_beta   90.00000000
_cell_angle_gamma   90.00000000
_symmetry_Int_Tables_number   1
_chemical_formula_structural   TbH2C8NO6
_chemical_formula_sum   'Tb8 H16 C64 N8 O48'
_cell_volume   2193.50624459
_cell_formula_units_Z   8
loop_
 _symmetry_equiv_pos_site_id
 _symmetry_equiv_pos_as_xyz
  1  'x, y, z'
loop_
 _atom_site_type_symbol
 _atom_site_label
 _atom_site_symmetry_multiplicity
 _atom_site_fract_x
 _atom_site_fract_y
 _atom_site_fract_z
 _atom_site_occupancy
 _atom_site_charge
  Tb  Tb1  1  0.776940  0.626520  0.622770  1.0  2.1814
  Tb  Tb2  1  0.748070  0.624700  0.103910  1.0  2.2427
  Tb  Tb3  1  0.276940  0.873480  0.877230  1.0  2.1817
  Tb  Tb4  1  0.248070  0.875300  0.396090  1.0  2.246
  Tb  Tb5  1  0.223060  0.373480  0.377230  1.0  2.1818
  Tb  Tb6  1  0.251930  0.375300  0.896090  1.0  2.246
  Tb  Tb7  1  0.723060  0.126520  0.122770  1.0  2.1817
  Tb  Tb8  1  0.751930  0.124700  0.603910  1.0  2.2435
  H  H9  1  0.512000  0.626600  0.898000  1.0  0.1337
  H  H10  1  0.731700  0.416200  0.761900  1.0  0.1175
  H  H11  1  0.593100  0.727300  0.411500  1.0  0.1209
  H  H12  1  0.799400  0.506200  0.330100  1.0  0.1201
  H  H13  1  0.012000  0.873400  0.602000  1.0  0.1336
  H  H14  1  0.231700  0.083800  0.738100  1.0  0.1178
  H  H15  1  0.093100  0.772700  0.088500  1.0  0.1201
  H  H16  1  0.299400  0.993800  0.169900  1.0  0.1199
  H  H17  1  0.488000  0.373400  0.102000  1.0  0.1337
  H  H18  1  0.268300  0.583800  0.238100  1.0  0.1185
  H  H19  1  0.406900  0.272700  0.588500  1.0  0.1201
  H  H20  1  0.200600  0.493800  0.669900  1.0  0.1199
  H  H21  1  0.988000  0.126600  0.398000  1.0  0.1335
  H  H22  1  0.768300  0.916200  0.261900  1.0  0.1184
  H  H23  1  0.906900  0.227300  0.911500  1.0  0.1209
  H  H24  1  0.700600  0.006200  0.830100  1.0  0.1202
  C  C25  1  0.587900  0.616510  0.788680  1.0  0.1349
  C  C26  1  0.566000  0.593240  0.851570  1.0  -0.047
  C  C27  1  0.628300  0.517890  0.842400  1.0  -0.0795
  C  C28  1  0.698200  0.467530  0.770100  1.0  -0.0065
  C  C29  1  0.716500  0.495980  0.710890  1.0  0.1179
  C  C30  1  0.534600  0.697380  0.790240  1.0  0.6871
  C  C31  1  0.627200  0.491690  0.910950  1.0  0.765
  C  C32  1  0.794300  0.449730  0.630310  1.0  0.6217
  C  C33  1  0.646800  0.680500  0.294830  1.0  0.091
  C  C34  1  0.637100  0.682920  0.371140  1.0  -0.0192
  C  C35  1  0.695600  0.616630  0.384480  1.0  -0.0857
  C  C36  1  0.763000  0.551420  0.322490  1.0  -0.0179
  C  C37  1  0.775000  0.555020  0.248680  1.0  0.0676
  C  C38  1  0.580700  0.747260  0.271220  1.0  0.7107
  C  C39  1  0.695100  0.616560  0.466270  1.0  0.6634
  C  C40  1  0.854300  0.490570  0.176600  1.0  0.6358
  C  C41  1  0.087900  0.883490  0.711320  1.0  0.1338
  C  C42  1  0.066000  0.906760  0.648430  1.0  -0.0473
  C  C43  1  0.128300  0.982110  0.657600  1.0  -0.0796
  C  C44  1  0.198200  0.032470  0.729900  1.0  -0.0073
  C  C45  1  0.216500  0.004020  0.789110  1.0  0.1171
  C  C46  1  0.034600  0.802620  0.709760  1.0  0.6864
  C  C47  1  0.127200  0.008310  0.589050  1.0  0.7664
  C  C48  1  0.294300  0.050270  0.869690  1.0  0.6232
  C  C49  1  0.146800  0.819500  0.205170  1.0  0.0909
  C  C50  1  0.137100  0.817080  0.128860  1.0  -0.02
  C  C51  1  0.195600  0.883370  0.115520  1.0  -0.0886
  C  C52  1  0.263000  0.948580  0.177510  1.0  -0.0182
  C  C53  1  0.275000  0.944980  0.251320  1.0  0.0678
  C  C54  1  0.080700  0.752740  0.228780  1.0  0.7125
  C  C55  1  0.195100  0.883440  0.033730  1.0  0.6642
  C  C56  1  0.354300  0.009430  0.323400  1.0  0.6376
  C  C57  1  0.412100  0.383490  0.211320  1.0  0.134
  C  C58  1  0.434000  0.406760  0.148430  1.0  -0.0467
  C  C59  1  0.371700  0.482110  0.157600  1.0  -0.0803
  C  C60  1  0.301800  0.532470  0.229900  1.0  -0.0068
  C  C61  1  0.283500  0.504020  0.289110  1.0  0.1169
  C  C62  1  0.465400  0.302620  0.209760  1.0  0.6856
  C  C63  1  0.372800  0.508310  0.089050  1.0  0.7669
  C  C64  1  0.205700  0.550270  0.369690  1.0  0.6223
  C  C65  1  0.353200  0.319500  0.705170  1.0  0.0911
  C  C66  1  0.362900  0.317080  0.628860  1.0  -0.0199
  C  C67  1  0.304400  0.383370  0.615520  1.0  -0.0896
  C  C68  1  0.237000  0.448580  0.677510  1.0  -0.0185
  C  C69  1  0.225000  0.444980  0.751320  1.0  0.0675
  C  C70  1  0.419300  0.252740  0.728780  1.0  0.7112
  C  C71  1  0.304900  0.383440  0.533730  1.0  0.664
  C  C72  1  0.145700  0.509430  0.823400  1.0  0.6376
  C  C73  1  0.912100  0.116510  0.288680  1.0  0.1346
  C  C74  1  0.934000  0.093240  0.351570  1.0  -0.0459
  C  C75  1  0.871700  0.017890  0.342400  1.0  -0.0801
  C  C76  1  0.801800  0.967530  0.270100  1.0  -0.0065
  C  C77  1  0.783500  0.995980  0.210890  1.0  0.1176
  C  C78  1  0.965400  0.197380  0.290240  1.0  0.6867
  C  C79  1  0.872800  0.991690  0.410950  1.0  0.7637
  C  C80  1  0.705700  0.949730  0.130310  1.0  0.6228
  C  C81  1  0.853200  0.180500  0.794830  1.0  0.0912
  C  C82  1  0.862900  0.182920  0.871140  1.0  -0.0177
  C  C83  1  0.804400  0.116630  0.884480  1.0  -0.0869
  C  C84  1  0.737000  0.051420  0.822490  1.0  -0.019
  C  C85  1  0.725000  0.055020  0.748680  1.0  0.0672
  C  C86  1  0.919300  0.247260  0.771220  1.0  0.7095
  C  C87  1  0.804900  0.116560  0.966270  1.0  0.6638
  C  C88  1  0.645700  0.990570  0.676600  1.0  0.6375
  N  N89  1  0.667800  0.570240  0.721310  1.0  -0.5166
  N  N90  1  0.714900  0.618130  0.235690  1.0  -0.4517
  N  N91  1  0.167800  0.929760  0.778690  1.0  -0.5144
  N  N92  1  0.214900  0.881870  0.264310  1.0  -0.4506
  N  N93  1  0.332200  0.429760  0.278690  1.0  -0.5144
  N  N94  1  0.285100  0.381870  0.764310  1.0  -0.4513
  N  N95  1  0.832200  0.070240  0.221310  1.0  -0.5161
  N  N96  1  0.785100  0.118130  0.735690  1.0  -0.4525
  O  O97  1  0.426200  0.740520  0.841770  1.0  -0.6684
  O  O98  1  0.608900  0.713780  0.734770  1.0  -0.7139
  O  O99  1  0.684200  0.540370  0.974520  1.0  -0.7843
  O  O100  1  0.574700  0.422040  0.897600  1.0  -0.7246
  O  O101  1  0.817900  0.378540  0.609640  1.0  -0.5329
  O  O102  1  0.831400  0.490260  0.588620  1.0  -0.7192
  O  O103  1  0.512100  0.807010  0.323540  1.0  -0.7434
  O  O104  1  0.601200  0.737330  0.200610  1.0  -0.6946
  O  O105  1  0.715500  0.552670  0.475820  1.0  -0.6537
  O  O106  1  0.684100  0.680920  0.523580  1.0  -0.6961
  O  O107  1  0.914000  0.428680  0.180680  1.0  -0.545
  O  O108  1  0.853700  0.506070  0.114860  1.0  -0.7106
  O  O109  1  0.926200  0.759480  0.658230  1.0  -0.6702
  O  O110  1  0.108900  0.786220  0.765230  1.0  -0.7162
  O  O111  1  0.184200  0.959630  0.525480  1.0  -0.7855
  O  O112  1  0.074700  0.077960  0.602400  1.0  -0.7242
  O  O113  1  0.317900  0.121460  0.890360  1.0  -0.5294
  O  O114  1  0.331400  0.009740  0.911380  1.0  -0.7204
  O  O115  1  0.012100  0.692990  0.176460  1.0  -0.7434
  O  O116  1  0.101200  0.762670  0.299390  1.0  -0.6949
  O  O117  1  0.215500  0.947330  0.024180  1.0  -0.6531
  O  O118  1  0.184100  0.819080  0.976420  1.0  -0.697
  O  O119  1  0.414000  0.071320  0.319320  1.0  -0.5467
  O  O120  1  0.353700  0.993930  0.385140  1.0  -0.71
  O  O121  1  0.573800  0.259480  0.158230  1.0  -0.6691
  O  O122  1  0.391100  0.286220  0.265230  1.0  -0.7154
  O  O123  1  0.315800  0.459630  0.025480  1.0  -0.785
  O  O124  1  0.425300  0.577960  0.102400  1.0  -0.7246
  O  O125  1  0.182100  0.621460  0.390360  1.0  -0.53
  O  O126  1  0.168600  0.509740  0.411380  1.0  -0.7216
  O  O127  1  0.487900  0.192990  0.676460  1.0  -0.7441
  O  O128  1  0.398800  0.262670  0.799390  1.0  -0.6948
  O  O129  1  0.284500  0.447330  0.524180  1.0  -0.6534
  O  O130  1  0.315900  0.319080  0.476420  1.0  -0.6971
  O  O131  1  0.086000  0.571320  0.819320  1.0  -0.5463
  O  O132  1  0.146300  0.493930  0.885140  1.0  -0.7108
  O  O133  1  0.073800  0.240520  0.341770  1.0  -0.6676
  O  O134  1  0.891100  0.213780  0.234770  1.0  -0.7135
  O  O135  1  0.815800  0.040370  0.474520  1.0  -0.7841
  O  O136  1  0.925300  0.922040  0.397600  1.0  -0.725
  O  O137  1  0.682100  0.878540  0.109640  1.0  -0.5339
  O  O138  1  0.668600  0.990260  0.088620  1.0  -0.7202
  O  O139  1  0.987900  0.307010  0.823540  1.0  -0.7441
  O  O140  1  0.898800  0.237330  0.700610  1.0  -0.6946
  O  O141  1  0.784500  0.052670  0.975820  1.0  -0.6538
  O  O142  1  0.815900  0.180920  0.023580  1.0  -0.6958
  O  O143  1  0.586000  0.928680  0.680680  1.0  -0.5456
  O  O144  1  0.646300  0.006070  0.614860  1.0  -0.7101
