# generated using pymatgen
data_CdC4
_symmetry_space_group_name_H-M   'P 1'
_cell_length_a   9.00300000
_cell_length_b   12.04600000
_cell_length_c   18.87000000
_cell_angle_alpha   90.00000000
_cell_angle_beta   96.23000000
_cell_angle_gamma   90.00000000
_symmetry_Int_Tables_number   1
_chemical_formula_structural   CdC4
_chemical_formula_sum   'Cd8 C32'
_cell_volume   2034.36831784
_cell_formula_units_Z   8
loop_
 _symmetry_equiv_pos_site_id
 _symmetry_equiv_pos_as_xyz
  1  'x, y, z'
loop_
 _atom_site_type_symbol
 _atom_site_label
 _atom_site_symmetry_multiplicity
 _atom_site_fract_x
 _atom_site_fract_y
 _atom_site_fract_z
 _atom_site_occupancy
 _atom_site_charge
  Cd  Cd1  1  0.755170  0.760370  0.592380  1.0  0.8527
  Cd  Cd2  1  0.730930  0.002810  0.845120  1.0  0.6877
  Cd  Cd3  1  0.244830  0.260370  0.907620  1.0  0.8528
  Cd  Cd4  1  0.269070  0.502810  0.654880  1.0  0.6893
  Cd  Cd5  1  0.244830  0.239630  0.407620  1.0  0.8517
  Cd  Cd6  1  0.269070  0.997190  0.154880  1.0  0.6898
  Cd  Cd7  1  0.755170  0.739630  0.092380  1.0  0.8515
  Cd  Cd8  1  0.730930  0.497190  0.345120  1.0  0.6881
  C  C9  1  0.732000  0.912800  0.742200  1.0  -0.1653
  C  C10  1  0.740000  0.868400  0.690100  1.0  -0.247
  C  C11  1  0.752000  0.616300  0.437500  1.0  -0.1736
  C  C12  1  0.758000  0.670900  0.486400  1.0  -0.2313
  C  C13  1  0.070000  0.615000  0.643300  1.0  -0.1855
  C  C14  1  0.964700  0.666100  0.634700  1.0  -0.164
  C  C15  1  0.477000  0.598700  0.644300  1.0  -0.2029
  C  C16  1  0.582500  0.644100  0.632000  1.0  -0.1729
  C  C17  1  0.268000  0.412800  0.757800  1.0  -0.1665
  C  C18  1  0.260000  0.368400  0.809900  1.0  -0.2455
  C  C19  1  0.248000  0.116300  0.062500  1.0  -0.1727
  C  C20  1  0.242000  0.170900  0.013600  1.0  -0.2312
  C  C21  1  0.930000  0.115000  0.856700  1.0  -0.1834
  C  C22  1  0.035300  0.166100  0.865300  1.0  -0.1632
  C  C23  1  0.523000  0.098700  0.855700  1.0  -0.2014
  C  C24  1  0.417500  0.144100  0.868000  1.0  -0.1727
  C  C25  1  0.268000  0.087200  0.257800  1.0  -0.1664
  C  C26  1  0.260000  0.131600  0.309900  1.0  -0.2459
  C  C27  1  0.248000  0.383700  0.562500  1.0  -0.1722
  C  C28  1  0.242000  0.329100  0.513600  1.0  -0.2313
  C  C29  1  0.930000  0.385000  0.356700  1.0  -0.185
  C  C30  1  0.035300  0.333900  0.365300  1.0  -0.163
  C  C31  1  0.523000  0.401300  0.355700  1.0  -0.2026
  C  C32  1  0.417500  0.355900  0.368000  1.0  -0.1731
  C  C33  1  0.732000  0.587200  0.242200  1.0  -0.166
  C  C34  1  0.740000  0.631600  0.190100  1.0  -0.2472
  C  C35  1  0.752000  0.883700  0.937500  1.0  -0.1734
  C  C36  1  0.758000  0.829100  0.986400  1.0  -0.2308
  C  C37  1  0.070000  0.885000  0.143300  1.0  -0.187
  C  C38  1  0.964700  0.833900  0.134700  1.0  -0.1638
  C  C39  1  0.477000  0.901300  0.144300  1.0  -0.2038
  C  C40  1  0.582500  0.855900  0.132000  1.0  -0.1731
