# generated using pymatgen
data_CdC4
_symmetry_space_group_name_H-M   'P 1'
_cell_length_a   8.50400000
_cell_length_b   14.44100000
_cell_length_c   45.88300000
_cell_angle_alpha   90.00000000
_cell_angle_beta   90.00000000
_cell_angle_gamma   90.00000000
_symmetry_Int_Tables_number   1
_chemical_formula_structural   CdC4
_chemical_formula_sum   'Cd24 C96'
_cell_volume   5634.71981111
_cell_formula_units_Z   24
loop_
 _symmetry_equiv_pos_site_id
 _symmetry_equiv_pos_as_xyz
  1  'x, y, z'
loop_
 _atom_site_type_symbol
 _atom_site_label
 _atom_site_symmetry_multiplicity
 _atom_site_fract_x
 _atom_site_fract_y
 _atom_site_fract_z
 _atom_site_occupancy
 _atom_site_charge
  Cd  Cd1  1  0.875000  0.875000  0.041750  1.0  0.9425
  Cd  Cd2  1  0.875000  0.375000  0.541750  1.0  0.9425
  Cd  Cd3  1  0.375000  0.875000  0.541750  1.0  0.9425
  Cd  Cd4  1  0.375000  0.375000  0.041750  1.0  0.9425
  Cd  Cd5  1  0.875000  0.875000  0.708250  1.0  0.9425
  Cd  Cd6  1  0.875000  0.375000  0.208250  1.0  0.9425
  Cd  Cd7  1  0.375000  0.875000  0.208250  1.0  0.9425
  Cd  Cd8  1  0.375000  0.375000  0.708250  1.0  0.9425
  Cd  Cd9  1  0.125000  0.125000  0.958250  1.0  0.9414
  Cd  Cd10  1  0.125000  0.625000  0.458250  1.0  0.9414
  Cd  Cd11  1  0.625000  0.125000  0.458250  1.0  0.9414
  Cd  Cd12  1  0.625000  0.625000  0.958250  1.0  0.9414
  Cd  Cd13  1  0.125000  0.125000  0.291750  1.0  0.9414
  Cd  Cd14  1  0.125000  0.625000  0.791750  1.0  0.9414
  Cd  Cd15  1  0.625000  0.125000  0.791750  1.0  0.9414
  Cd  Cd16  1  0.625000  0.625000  0.291750  1.0  0.9414
  Cd  Cd17  1  0.125000  0.125000  0.125000  1.0  0.5135
  Cd  Cd18  1  0.125000  0.625000  0.625000  1.0  0.5135
  Cd  Cd19  1  0.625000  0.125000  0.625000  1.0  0.5135
  Cd  Cd20  1  0.625000  0.625000  0.125000  1.0  0.5135
  Cd  Cd21  1  0.875000  0.875000  0.875000  1.0  0.5135
  Cd  Cd22  1  0.875000  0.375000  0.375000  1.0  0.5135
  Cd  Cd23  1  0.375000  0.875000  0.375000  1.0  0.5135
  Cd  Cd24  1  0.375000  0.375000  0.875000  1.0  0.5135
  C  C25  1  0.998000  0.028500  0.095800  1.0  -0.2436
  C  C26  1  0.952000  0.974300  0.079800  1.0  -0.201
  C  C27  1  0.975000  0.974600  0.009100  1.0  -0.1586
  C  C28  1  0.998000  0.528500  0.595800  1.0  -0.2436
  C  C29  1  0.952000  0.474300  0.579800  1.0  -0.201
  C  C30  1  0.975000  0.474600  0.509100  1.0  -0.1586
  C  C31  1  0.498000  0.028500  0.595800  1.0  -0.2436
  C  C32  1  0.452000  0.974300  0.579800  1.0  -0.201
  C  C33  1  0.475000  0.974600  0.509100  1.0  -0.1586
  C  C34  1  0.498000  0.528500  0.095800  1.0  -0.2436
  C  C35  1  0.452000  0.474300  0.079800  1.0  -0.201
  C  C36  1  0.475000  0.474600  0.009100  1.0  -0.1586
  C  C37  1  0.752000  0.721500  0.095800  1.0  -0.2418
  C  C38  1  0.798000  0.775700  0.079800  1.0  -0.2023
  C  C39  1  0.775000  0.775400  0.009100  1.0  -0.1595
  C  C40  1  0.752000  0.221500  0.595800  1.0  -0.2418
  C  C41  1  0.798000  0.275700  0.579800  1.0  -0.2023
  C  C42  1  0.775000  0.275400  0.509100  1.0  -0.1595
  C  C43  1  0.252000  0.721500  0.595800  1.0  -0.2418
  C  C44  1  0.298000  0.775700  0.579800  1.0  -0.2023
  C  C45  1  0.275000  0.775400  0.509100  1.0  -0.1595
  C  C46  1  0.252000  0.221500  0.095800  1.0  -0.2418
  C  C47  1  0.298000  0.275700  0.079800  1.0  -0.2023
  C  C48  1  0.275000  0.275400  0.009100  1.0  -0.1595
  C  C49  1  0.752000  0.028500  0.654200  1.0  -0.2361
  C  C50  1  0.798000  0.974300  0.670200  1.0  -0.2014
  C  C51  1  0.775000  0.974600  0.740900  1.0  -0.1575
  C  C52  1  0.752000  0.528500  0.154200  1.0  -0.2361
  C  C53  1  0.798000  0.474300  0.170200  1.0  -0.2014
  C  C54  1  0.775000  0.474600  0.240900  1.0  -0.1575
  C  C55  1  0.252000  0.028500  0.154200  1.0  -0.2361
  C  C56  1  0.298000  0.974300  0.170200  1.0  -0.2014
  C  C57  1  0.275000  0.974600  0.240900  1.0  -0.1575
  C  C58  1  0.252000  0.528500  0.654200  1.0  -0.2361
  C  C59  1  0.298000  0.474300  0.670200  1.0  -0.2014
  C  C60  1  0.275000  0.474600  0.740900  1.0  -0.1575
  C  C61  1  0.998000  0.721500  0.654200  1.0  -0.2366
  C  C62  1  0.952000  0.775700  0.670200  1.0  -0.2024
  C  C63  1  0.975000  0.775400  0.740900  1.0  -0.1581
  C  C64  1  0.998000  0.221500  0.154200  1.0  -0.2366
  C  C65  1  0.952000  0.275700  0.170200  1.0  -0.2024
  C  C66  1  0.975000  0.275400  0.240900  1.0  -0.1581
  C  C67  1  0.498000  0.721500  0.154200  1.0  -0.2366
  C  C68  1  0.452000  0.775700  0.170200  1.0  -0.2024
  C  C69  1  0.475000  0.775400  0.240900  1.0  -0.1581
  C  C70  1  0.498000  0.221500  0.654200  1.0  -0.2366
  C  C71  1  0.452000  0.275700  0.670200  1.0  -0.2024
  C  C72  1  0.475000  0.275400  0.740900  1.0  -0.1581
  C  C73  1  0.002000  0.971500  0.904200  1.0  -0.2397
  C  C74  1  0.048000  0.025700  0.920200  1.0  -0.1993
  C  C75  1  0.025000  0.025400  0.990900  1.0  -0.1582
  C  C76  1  0.002000  0.471500  0.404200  1.0  -0.2397
  C  C77  1  0.048000  0.525700  0.420200  1.0  -0.1993
  C  C78  1  0.025000  0.525400  0.490900  1.0  -0.1582
  C  C79  1  0.502000  0.971500  0.404200  1.0  -0.2397
  C  C80  1  0.548000  0.025700  0.420200  1.0  -0.1993
  C  C81  1  0.525000  0.025400  0.490900  1.0  -0.1582
  C  C82  1  0.502000  0.471500  0.904200  1.0  -0.2397
  C  C83  1  0.548000  0.525700  0.920200  1.0  -0.1993
  C  C84  1  0.525000  0.525400  0.990900  1.0  -0.1582
  C  C85  1  0.248000  0.278500  0.904200  1.0  -0.2419
  C  C86  1  0.202000  0.224300  0.920200  1.0  -0.2019
  C  C87  1  0.225000  0.224600  0.990900  1.0  -0.1572
  C  C88  1  0.248000  0.778500  0.404200  1.0  -0.2419
  C  C89  1  0.202000  0.724300  0.420200  1.0  -0.2019
  C  C90  1  0.225000  0.724600  0.490900  1.0  -0.1572
  C  C91  1  0.748000  0.278500  0.404200  1.0  -0.2419
  C  C92  1  0.702000  0.224300  0.420200  1.0  -0.2019
  C  C93  1  0.725000  0.224600  0.490900  1.0  -0.1572
  C  C94  1  0.748000  0.778500  0.904200  1.0  -0.2419
  C  C95  1  0.702000  0.724300  0.920200  1.0  -0.2019
  C  C96  1  0.725000  0.724600  0.990900  1.0  -0.1572
  C  C97  1  0.248000  0.971500  0.345800  1.0  -0.2384
  C  C98  1  0.202000  0.025700  0.329800  1.0  -0.202
  C  C99  1  0.225000  0.025400  0.259100  1.0  -0.1595
  C  C100  1  0.248000  0.471500  0.845800  1.0  -0.2384
  C  C101  1  0.202000  0.525700  0.829800  1.0  -0.202
  C  C102  1  0.225000  0.525400  0.759100  1.0  -0.1595
  C  C103  1  0.748000  0.971500  0.845800  1.0  -0.2384
  C  C104  1  0.702000  0.025700  0.829800  1.0  -0.202
  C  C105  1  0.725000  0.025400  0.759100  1.0  -0.1595
  C  C106  1  0.748000  0.471500  0.345800  1.0  -0.2384
  C  C107  1  0.702000  0.525700  0.329800  1.0  -0.202
  C  C108  1  0.725000  0.525400  0.259100  1.0  -0.1595
  C  C109  1  0.002000  0.278500  0.345800  1.0  -0.2384
  C  C110  1  0.048000  0.224300  0.329800  1.0  -0.2004
  C  C111  1  0.025000  0.224600  0.259100  1.0  -0.1589
  C  C112  1  0.002000  0.778500  0.845800  1.0  -0.2384
  C  C113  1  0.048000  0.724300  0.829800  1.0  -0.2004
  C  C114  1  0.025000  0.724600  0.759100  1.0  -0.1589
  C  C115  1  0.502000  0.278500  0.845800  1.0  -0.2384
  C  C116  1  0.548000  0.224300  0.829800  1.0  -0.2004
  C  C117  1  0.525000  0.224600  0.759100  1.0  -0.1589
  C  C118  1  0.502000  0.778500  0.345800  1.0  -0.2384
  C  C119  1  0.548000  0.724300  0.329800  1.0  -0.2004
  C  C120  1  0.525000  0.724600  0.259100  1.0  -0.1589
