# generated using pymatgen
data_In9P17H11O60
_symmetry_space_group_name_H-M   'P 1'
_cell_length_a   13.76760000
_cell_length_b   13.76760000
_cell_length_c   28.06190000
_cell_angle_alpha   90.00000000
_cell_angle_beta   90.00000000
_cell_angle_gamma   120.00000000
_symmetry_Int_Tables_number   1
_chemical_formula_structural   In9P17H11O60
_chemical_formula_sum   'In18 P34 H22 O120'
_cell_volume   4606.42689945
_cell_formula_units_Z   2
loop_
 _symmetry_equiv_pos_site_id
 _symmetry_equiv_pos_as_xyz
  1  'x, y, z'
loop_
 _atom_site_type_symbol
 _atom_site_label
 _atom_site_symmetry_multiplicity
 _atom_site_fract_x
 _atom_site_fract_y
 _atom_site_fract_z
 _atom_site_occupancy
 _atom_site_charge
  In  In1  1  0.853160  0.559700  0.975370  1.0  1.6022
  In  In2  1  0.440300  0.293460  0.975370  1.0  1.6038
  In  In3  1  0.706540  0.146840  0.975370  1.0  1.6024
  In  In4  1  0.146840  0.440300  0.475370  1.0  1.6028
  In  In5  1  0.559700  0.706540  0.475370  1.0  1.602
  In  In6  1  0.293460  0.853160  0.475370  1.0  1.6029
  In  In7  1  0.146840  0.440300  0.024630  1.0  1.6027
  In  In8  1  0.559700  0.706540  0.024630  1.0  1.6018
  In  In9  1  0.293460  0.853160  0.024630  1.0  1.6026
  In  In10  1  0.853160  0.559700  0.524630  1.0  1.6022
  In  In11  1  0.440300  0.293460  0.524630  1.0  1.6039
  In  In12  1  0.706540  0.146840  0.524630  1.0  1.6025
  In  In13  1  0.000000  0.000000  0.000000  1.0  1.618
  In  In14  1  0.000000  0.000000  0.500000  1.0  1.618
  In  In15  1  0.000000  0.000000  0.835590  1.0  1.561
  In  In16  1  0.000000  0.000000  0.335590  1.0  1.561
  In  In17  1  0.000000  0.000000  0.164410  1.0  1.5614
  In  In18  1  0.000000  0.000000  0.664410  1.0  1.5614
  P  P19  1  0.974670  0.809140  0.916830  1.0  1.5831
  P  P20  1  0.629420  0.507370  0.040110  1.0  1.8756
  P  P21  1  0.190860  0.165530  0.916830  1.0  1.5836
  P  P22  1  0.492630  0.122050  0.040110  1.0  1.8768
  P  P23  1  0.834470  0.025330  0.916830  1.0  1.5796
  P  P24  1  0.877950  0.370580  0.040110  1.0  1.8733
  P  P25  1  0.025330  0.190860  0.416830  1.0  1.5843
  P  P26  1  0.370580  0.492630  0.540110  1.0  1.8726
  P  P27  1  0.809140  0.834470  0.416830  1.0  1.5834
  P  P28  1  0.507370  0.877950  0.540110  1.0  1.8754
  P  P29  1  0.165530  0.974670  0.416830  1.0  1.5804
  P  P30  1  0.122050  0.629420  0.540110  1.0  1.8762
  P  P31  1  0.025330  0.190860  0.083170  1.0  1.5852
  P  P32  1  0.370580  0.492630  0.959890  1.0  1.8718
  P  P33  1  0.809140  0.834470  0.083170  1.0  1.5843
  P  P34  1  0.507370  0.877950  0.959890  1.0  1.8745
  P  P35  1  0.165530  0.974670  0.083170  1.0  1.5815
  P  P36  1  0.122050  0.629420  0.959890  1.0  1.8757
  P  P37  1  0.974670  0.809140  0.583170  1.0  1.5839
  P  P38  1  0.629420  0.507370  0.459890  1.0  1.8747
  P  P39  1  0.190860  0.165530  0.583170  1.0  1.5845
  P  P40  1  0.492630  0.122050  0.459890  1.0  1.8761
  P  P41  1  0.834470  0.025330  0.583170  1.0  1.5806
  P  P42  1  0.877950  0.370580  0.459890  1.0  1.8724
  P  P43  1  0.666667  0.333333  0.907640  1.0  1.4912
  P  P44  1  0.333333  0.666667  0.407640  1.0  1.4912
  P  P45  1  0.333333  0.666667  0.092360  1.0  1.4912
  P  P46  1  0.666667  0.333333  0.592360  1.0  1.4912
  P  P47  1  0.072770  0.876100  0.750000  1.0  1.7048
  P  P48  1  0.123900  0.196670  0.750000  1.0  1.7021
  P  P49  1  0.803330  0.927230  0.750000  1.0  1.6989
  P  P50  1  0.927230  0.123900  0.250000  1.0  1.7027
  P  P51  1  0.876100  0.803330  0.250000  1.0  1.7017
  P  P52  1  0.196670  0.072770  0.250000  1.0  1.7021
  H  H53  1  0.050600  0.801300  0.890000  1.0  -0.0413
  H  H54  1  0.198700  0.249300  0.890000  1.0  -0.0441
  H  H55  1  0.750700  0.949400  0.890000  1.0  -0.0426
  H  H56  1  0.949400  0.198700  0.390000  1.0  -0.0421
  H  H57  1  0.801300  0.750700  0.390000  1.0  -0.0435
  H  H58  1  0.249300  0.050600  0.390000  1.0  -0.0413
  H  H59  1  0.949400  0.198700  0.110000  1.0  -0.0408
  H  H60  1  0.801300  0.750700  0.110000  1.0  -0.043
  H  H61  1  0.249300  0.050600  0.110000  1.0  -0.0396
  H  H62  1  0.050600  0.801300  0.610000  1.0  -0.0401
  H  H63  1  0.198700  0.249300  0.610000  1.0  -0.0422
  H  H64  1  0.750700  0.949400  0.610000  1.0  -0.0421
  H  H65  1  0.666667  0.333333  0.860600  1.0  -0.0176
  H  H66  1  0.333333  0.666667  0.360600  1.0  -0.0176
  H  H67  1  0.333333  0.666667  0.139400  1.0  -0.0143
  H  H68  1  0.666667  0.333333  0.639400  1.0  -0.0143
  H  H69  1  0.151700  0.768100  0.750000  1.0  0.4601
  H  H70  1  0.231900  0.383600  0.750000  1.0  0.4556
  H  H71  1  0.616400  0.848300  0.750000  1.0  0.4573
  H  H72  1  0.848300  0.231900  0.250000  1.0  0.4573
  H  H73  1  0.768100  0.616400  0.250000  1.0  0.4624
  H  H74  1  0.383600  0.151700  0.250000  1.0  0.4535
  O  O75  1  0.032400  0.888800  0.957980  1.0  -0.7773
  O  O76  1  0.714500  0.571000  0.001620  1.0  -0.7424
  O  O77  1  0.878800  0.696300  0.932180  1.0  -0.7977
  O  O78  1  0.562700  0.564800  0.051460  1.0  -0.7596
  O  O79  1  0.930800  0.854000  0.878310  1.0  -0.763
  O  O80  1  0.759900  0.447900  0.920500  1.0  -0.7413
  O  O81  1  0.556000  0.384100  0.029680  1.0  -0.7887
  O  O82  1  0.090300  0.941400  0.795240  1.0  -0.7614
  O  O83  1  0.695800  0.508400  0.082100  1.0  -0.6286
  O  O84  1  0.111200  0.143600  0.957980  1.0  -0.7806
  O  O85  1  0.429000  0.143500  0.001620  1.0  -0.7421
  O  O86  1  0.303700  0.182500  0.932180  1.0  -0.7975
  O  O87  1  0.435200  0.997900  0.051460  1.0  -0.7597
  O  O88  1  0.146000  0.076800  0.878310  1.0  -0.7637
  O  O89  1  0.552100  0.312000  0.920500  1.0  -0.7408
  O  O90  1  0.615900  0.171900  0.029680  1.0  -0.7877
  O  O91  1  0.058600  0.148900  0.795240  1.0  -0.7597
  O  O92  1  0.491600  0.187400  0.082100  1.0  -0.6309
  O  O93  1  0.856400  0.967600  0.957980  1.0  -0.7797
  O  O94  1  0.856500  0.285500  0.001620  1.0  -0.7421
  O  O95  1  0.817500  0.121200  0.932180  1.0  -0.7988
  O  O96  1  0.002100  0.437300  0.051460  1.0  -0.7605
  O  O97  1  0.923200  0.069200  0.878310  1.0  -0.764
  O  O98  1  0.688000  0.240100  0.920500  1.0  -0.7423
  O  O99  1  0.828100  0.444000  0.029680  1.0  -0.7869
  O  O100  1  0.851100  0.909700  0.795240  1.0  -0.7617
  O  O101  1  0.812600  0.304200  0.082100  1.0  -0.6303
  O  O102  1  0.967600  0.111200  0.457980  1.0  -0.7788
  O  O103  1  0.285500  0.429000  0.501620  1.0  -0.7428
  O  O104  1  0.121200  0.303700  0.432180  1.0  -0.7972
  O  O105  1  0.437300  0.435200  0.551460  1.0  -0.7592
  O  O106  1  0.069200  0.146000  0.378310  1.0  -0.7622
  O  O107  1  0.240100  0.552100  0.420500  1.0  -0.7419
  O  O108  1  0.444000  0.615900  0.529680  1.0  -0.7885
  O  O109  1  0.909700  0.058600  0.295240  1.0  -0.7626
  O  O110  1  0.304200  0.491600  0.582100  1.0  -0.6299
  O  O111  1  0.888800  0.856400  0.457980  1.0  -0.7781
  O  O112  1  0.571000  0.856500  0.501620  1.0  -0.7418
  O  O113  1  0.696300  0.817500  0.432180  1.0  -0.798
  O  O114  1  0.564800  0.002100  0.551460  1.0  -0.7601
  O  O115  1  0.854000  0.923200  0.378310  1.0  -0.7636
  O  O116  1  0.447900  0.688000  0.420500  1.0  -0.7411
  O  O117  1  0.384100  0.828100  0.529680  1.0  -0.7866
  O  O118  1  0.941400  0.851100  0.295240  1.0  -0.7604
  O  O119  1  0.508400  0.812600  0.582100  1.0  -0.6299
  O  O120  1  0.143600  0.032400  0.457980  1.0  -0.7802
  O  O121  1  0.143500  0.714500  0.501620  1.0  -0.7421
  O  O122  1  0.182500  0.878800  0.432180  1.0  -0.7972
  O  O123  1  0.997900  0.562700  0.551460  1.0  -0.7606
  O  O124  1  0.076800  0.930800  0.378310  1.0  -0.7633
  O  O125  1  0.312000  0.759900  0.420500  1.0  -0.742
  O  O126  1  0.171900  0.556000  0.529680  1.0  -0.787
  O  O127  1  0.148900  0.090300  0.295240  1.0  -0.7627
  O  O128  1  0.187400  0.695800  0.582100  1.0  -0.6292
  O  O129  1  0.967600  0.111200  0.042020  1.0  -0.7781
  O  O130  1  0.285500  0.429000  0.998380  1.0  -0.7441
  O  O131  1  0.121200  0.303700  0.067820  1.0  -0.7969
  O  O132  1  0.437300  0.435200  0.948540  1.0  -0.7591
  O  O133  1  0.069200  0.146000  0.121690  1.0  -0.7608
  O  O134  1  0.240100  0.552100  0.079500  1.0  -0.7412
  O  O135  1  0.444000  0.615900  0.970320  1.0  -0.7886
  O  O136  1  0.909700  0.058600  0.204760  1.0  -0.7624
  O  O137  1  0.304200  0.491600  0.917900  1.0  -0.6272
  O  O138  1  0.888800  0.856400  0.042020  1.0  -0.7775
  O  O139  1  0.571000  0.856500  0.998380  1.0  -0.7429
  O  O140  1  0.696300  0.817500  0.067820  1.0  -0.7973
  O  O141  1  0.564800  0.002100  0.948540  1.0  -0.7597
  O  O142  1  0.854000  0.923200  0.121690  1.0  -0.7622
  O  O143  1  0.447900  0.688000  0.079500  1.0  -0.7392
  O  O144  1  0.384100  0.828100  0.970320  1.0  -0.7862
  O  O145  1  0.941400  0.851100  0.204760  1.0  -0.7602
  O  O146  1  0.508400  0.812600  0.917900  1.0  -0.6283
  O  O147  1  0.143600  0.032400  0.042020  1.0  -0.7792
  O  O148  1  0.143500  0.714500  0.998380  1.0  -0.7434
  O  O149  1  0.182500  0.878800  0.067820  1.0  -0.7972
  O  O150  1  0.997900  0.562700  0.948540  1.0  -0.7604
  O  O151  1  0.076800  0.930800  0.121690  1.0  -0.7623
  O  O152  1  0.312000  0.759900  0.079500  1.0  -0.7391
  O  O153  1  0.171900  0.556000  0.970320  1.0  -0.7866
  O  O154  1  0.148900  0.090300  0.204760  1.0  -0.7622
  O  O155  1  0.187400  0.695800  0.917900  1.0  -0.6267
  O  O156  1  0.032400  0.888800  0.542020  1.0  -0.777
  O  O157  1  0.714500  0.571000  0.498380  1.0  -0.7439
  O  O158  1  0.878800  0.696300  0.567820  1.0  -0.7974
  O  O159  1  0.562700  0.564800  0.448540  1.0  -0.7591
  O  O160  1  0.930800  0.854000  0.621690  1.0  -0.7617
  O  O161  1  0.759900  0.447900  0.579500  1.0  -0.7394
  O  O162  1  0.556000  0.384100  0.470320  1.0  -0.7882
  O  O163  1  0.090300  0.941400  0.704760  1.0  -0.7604
  O  O164  1  0.695800  0.508400  0.417900  1.0  -0.627
  O  O165  1  0.111200  0.143600  0.542020  1.0  -0.7796
  O  O166  1  0.429000  0.143500  0.498380  1.0  -0.7434
  O  O167  1  0.303700  0.182500  0.567820  1.0  -0.7978
  O  O168  1  0.435200  0.997900  0.448540  1.0  -0.7603
  O  O169  1  0.146000  0.076800  0.621690  1.0  -0.7632
  O  O170  1  0.552100  0.312000  0.579500  1.0  -0.7387
  O  O171  1  0.615900  0.171900  0.470320  1.0  -0.7872
  O  O172  1  0.058600  0.148900  0.704760  1.0  -0.7599
  O  O173  1  0.491600  0.187400  0.417900  1.0  -0.6274
  O  O174  1  0.856400  0.967600  0.542020  1.0  -0.7794
  O  O175  1  0.856500  0.285500  0.498380  1.0  -0.7429
  O  O176  1  0.817500  0.121200  0.567820  1.0  -0.7984
  O  O177  1  0.002100  0.437300  0.448540  1.0  -0.7593
  O  O178  1  0.923200  0.069200  0.621690  1.0  -0.7619
  O  O179  1  0.688000  0.240100  0.579500  1.0  -0.74
  O  O180  1  0.828100  0.444000  0.470320  1.0  -0.7867
  O  O181  1  0.851100  0.909700  0.704760  1.0  -0.7617
  O  O182  1  0.812600  0.304200  0.417900  1.0  -0.628
  O  O183  1  0.152970  0.828000  0.750000  1.0  -0.6498
  O  O184  1  0.962700  0.773400  0.750000  1.0  -0.5942
  O  O185  1  0.172000  0.324970  0.750000  1.0  -0.6487
  O  O186  1  0.226600  0.189300  0.750000  1.0  -0.5836
  O  O187  1  0.675030  0.847030  0.750000  1.0  -0.6501
  O  O188  1  0.810700  0.037300  0.750000  1.0  -0.5941
  O  O189  1  0.847030  0.172000  0.250000  1.0  -0.6473
  O  O190  1  0.037300  0.226600  0.250000  1.0  -0.5964
  O  O191  1  0.828000  0.675030  0.250000  1.0  -0.6506
  O  O192  1  0.773400  0.810700  0.250000  1.0  -0.5824
  O  O193  1  0.324970  0.152970  0.250000  1.0  -0.6562
  O  O194  1  0.189300  0.962700  0.250000  1.0  -0.5908
