# generated using pymatgen
data_NiHC4O3
_symmetry_space_group_name_H-M   'P 1'
_cell_length_a   6.68820000
_cell_length_b   15.16340000
_cell_length_c   15.16340000
_cell_angle_alpha   62.12300000
_cell_angle_beta   81.54540000
_cell_angle_gamma   98.45460000
_symmetry_Int_Tables_number   1
_chemical_formula_structural   NiHC4O3
_chemical_formula_sum   'Ni6 H6 C24 O18'
_cell_volume   1302.99338180
_cell_formula_units_Z   6
loop_
 _symmetry_equiv_pos_site_id
 _symmetry_equiv_pos_as_xyz
  1  'x, y, z'
loop_
 _atom_site_type_symbol
 _atom_site_label
 _atom_site_symmetry_multiplicity
 _atom_site_fract_x
 _atom_site_fract_y
 _atom_site_fract_z
 _atom_site_occupancy
 _atom_site_charge
  Ni  Ni1  1  0.698200  0.313700  0.269000  1.0  0.8855
  Ni  Ni2  1  0.967200  0.269000  0.417300  1.0  0.8837
  Ni  Ni3  1  0.384500  0.417300  0.313700  1.0  0.8792
  Ni  Ni4  1  0.301800  0.686300  0.731000  1.0  0.8829
  Ni  Ni5  1  0.032800  0.731000  0.582700  1.0  0.8827
  Ni  Ni6  1  0.615500  0.582700  0.686300  1.0  0.8773
  H  H7  1  0.644000  0.542000  0.470000  1.0  -0.0
  H  H8  1  0.114000  0.470000  0.988000  1.0  0.0005
  H  H9  1  0.102000  0.988000  0.542000  1.0  -0.0002
  H  H10  1  0.356000  0.458000  0.530000  1.0  -0.0016
  H  H11  1  0.886000  0.530000  0.012000  1.0  0.0
  H  H12  1  0.898000  0.012000  0.458000  1.0  0.0011
  C  C13  1  0.751800  0.431100  0.383700  1.0  0.6425
  C  C14  1  0.894300  0.462200  0.446300  1.0  -0.0123
  C  C15  1  0.069900  0.438600  0.462900  1.0  0.2645
  C  C16  1  0.829300  0.528100  0.476200  1.0  0.1789
  C  C17  1  0.135500  0.383700  0.185200  1.0  0.6433
  C  C18  1  0.340600  0.446300  0.091500  1.0  -0.0137
  C  C19  1  0.532800  0.462900  0.098500  1.0  0.2687
  C  C20  1  0.305500  0.476200  0.995700  1.0  0.1755
  C  C21  1  0.320700  0.185200  0.431100  1.0  0.6399
  C  C22  1  0.432100  0.091500  0.462200  1.0  -0.012
  C  C23  1  0.631300  0.098500  0.438600  1.0  0.2672
  C  C24  1  0.301200  0.995700  0.528100  1.0  0.1737
  C  C25  1  0.248200  0.568900  0.616300  1.0  0.6438
  C  C26  1  0.105700  0.537800  0.553700  1.0  -0.011
  C  C27  1  0.930100  0.561400  0.537100  1.0  0.2686
  C  C28  1  0.170700  0.471900  0.523800  1.0  0.1782
  C  C29  1  0.864500  0.616300  0.814800  1.0  0.6414
  C  C30  1  0.659400  0.553700  0.908500  1.0  -0.0136
  C  C31  1  0.467200  0.537100  0.901500  1.0  0.2699
  C  C32  1  0.694500  0.523800  0.004300  1.0  0.176
  C  C33  1  0.679300  0.814800  0.568900  1.0  0.6399
  C  C34  1  0.567900  0.908500  0.537800  1.0  -0.0106
  C  C35  1  0.368700  0.901500  0.561400  1.0  0.2663
  C  C36  1  0.698800  0.004300  0.471900  1.0  0.1788
  O  O37  1  0.594300  0.474300  0.371400  1.0  -0.6142
  O  O38  1  0.807500  0.378600  0.353100  1.0  -0.6284
  O  O39  1  0.147200  0.369300  0.440700  1.0  -0.7134
  O  O40  1  0.965700  0.371400  0.154300  1.0  -0.6163
  O  O41  1  0.160600  0.353100  0.268300  1.0  -0.6297
  O  O42  1  0.587900  0.440700  0.190000  1.0  -0.7146
  O  O43  1  0.120000  0.154300  0.474300  1.0  -0.6141
  O  O44  1  0.428900  0.268300  0.378600  1.0  -0.6321
  O  O45  1  0.777900  0.190000  0.369300  1.0  -0.7126
  O  O46  1  0.405700  0.525700  0.628600  1.0  -0.6098
  O  O47  1  0.192500  0.621400  0.646900  1.0  -0.6275
  O  O48  1  0.852800  0.630700  0.559300  1.0  -0.7144
  O  O49  1  0.034300  0.628600  0.845700  1.0  -0.6131
  O  O50  1  0.839400  0.646900  0.731700  1.0  -0.6285
  O  O51  1  0.412100  0.559300  0.810000  1.0  -0.7137
  O  O52  1  0.880000  0.845700  0.525700  1.0  -0.6112
  O  O53  1  0.571100  0.731700  0.621400  1.0  -0.6276
  O  O54  1  0.222100  0.810000  0.630700  1.0  -0.7137
