# generated using pymatgen
data_SrH2C6SO4
_symmetry_space_group_name_H-M   'P 1'
_cell_length_a   5.97950000
_cell_length_b   11.35920000
_cell_length_c   17.05830000
_cell_angle_alpha   90.00000000
_cell_angle_beta   90.00000000
_cell_angle_gamma   91.25700000
_symmetry_Int_Tables_number   1
_chemical_formula_structural   SrH2C6SO4
_chemical_formula_sum   'Sr4 H8 C24 S4 O16'
_cell_volume   1158.36076952
_cell_formula_units_Z   4
loop_
 _symmetry_equiv_pos_site_id
 _symmetry_equiv_pos_as_xyz
  1  'x, y, z'
loop_
 _atom_site_type_symbol
 _atom_site_label
 _atom_site_symmetry_multiplicity
 _atom_site_fract_x
 _atom_site_fract_y
 _atom_site_fract_z
 _atom_site_occupancy
 _atom_site_charge
  Sr  Sr1  1  0.722320  0.904410  0.998100  1.0  1.638
  Sr  Sr2  1  0.777680  0.595590  0.498100  1.0  1.6374
  Sr  Sr3  1  0.277680  0.095590  0.001900  1.0  1.6385
  Sr  Sr4  1  0.222320  0.404410  0.501900  1.0  1.6386
  H  H5  1  0.116000  0.336000  0.686500  1.0  0.1078
  H  H6  1  0.156000  0.225500  0.812500  1.0  0.0991
  H  H7  1  0.384000  0.164000  0.186500  1.0  0.1074
  H  H8  1  0.344000  0.274500  0.312500  1.0  0.1003
  H  H9  1  0.884000  0.664000  0.313500  1.0  0.1073
  H  H10  1  0.844000  0.774500  0.187500  1.0  0.1008
  H  H11  1  0.616000  0.836000  0.813500  1.0  0.1077
  H  H12  1  0.656000  0.725500  0.687500  1.0  0.1001
  C  C13  1  0.783600  0.105100  0.878950  1.0  0.7819
  C  C14  1  0.821100  0.179470  0.808570  1.0  -0.2229
  C  C15  1  0.017400  0.232230  0.784240  1.0  -0.0492
  C  C16  1  0.994500  0.292820  0.712340  1.0  -0.0531
  C  C17  1  0.781300  0.283950  0.683020  1.0  -0.2164
  C  C18  1  0.692000  0.329060  0.607430  1.0  0.7847
  C  C19  1  0.716400  0.394900  0.378950  1.0  0.7817
  C  C20  1  0.678900  0.320530  0.308570  1.0  -0.2212
  C  C21  1  0.482600  0.267770  0.284240  1.0  -0.0488
  C  C22  1  0.505500  0.207180  0.212340  1.0  -0.0537
  C  C23  1  0.718700  0.216050  0.183020  1.0  -0.2155
  C  C24  1  0.808000  0.170940  0.107430  1.0  0.783
  C  C25  1  0.216400  0.894900  0.121050  1.0  0.7809
  C  C26  1  0.178900  0.820530  0.191430  1.0  -0.2211
  C  C27  1  0.982600  0.767770  0.215760  1.0  -0.0493
  C  C28  1  0.005500  0.707180  0.287660  1.0  -0.0538
  C  C29  1  0.218700  0.716050  0.316980  1.0  -0.2156
  C  C30  1  0.308000  0.670940  0.392570  1.0  0.7847
  C  C31  1  0.283600  0.605100  0.621050  1.0  0.7813
  C  C32  1  0.321100  0.679470  0.691430  1.0  -0.2228
  C  C33  1  0.517400  0.732230  0.715760  1.0  -0.0498
  C  C34  1  0.494500  0.792820  0.787660  1.0  -0.0534
  C  C35  1  0.281300  0.783950  0.816980  1.0  -0.2163
  C  C36  1  0.192000  0.829060  0.892570  1.0  0.7862
  S  S37  1  0.607500  0.203380  0.743790  1.0  0.1732
  S  S38  1  0.892500  0.296620  0.243790  1.0  0.1728
  S  S39  1  0.392500  0.796620  0.256210  1.0  0.1729
  S  S40  1  0.107500  0.703380  0.756210  1.0  0.1733
  O  O41  1  0.586630  0.074700  0.896500  1.0  -0.7505
  O  O42  1  0.953660  0.073170  0.916480  1.0  -0.777
  O  O43  1  0.487310  0.310050  0.594370  1.0  -0.7306
  O  O44  1  0.828650  0.380750  0.562140  1.0  -0.7857
  O  O45  1  0.913370  0.425300  0.396500  1.0  -0.7515
  O  O46  1  0.546340  0.426830  0.416480  1.0  -0.7764
  O  O47  1  0.012690  0.189950  0.094370  1.0  -0.7313
  O  O48  1  0.671350  0.119250  0.062140  1.0  -0.786
  O  O49  1  0.413370  0.925300  0.103500  1.0  -0.751
  O  O50  1  0.046340  0.926830  0.083520  1.0  -0.7767
  O  O51  1  0.512690  0.689950  0.405630  1.0  -0.7297
  O  O52  1  0.171350  0.619250  0.437860  1.0  -0.7878
  O  O53  1  0.086630  0.574700  0.603500  1.0  -0.7503
  O  O54  1  0.453660  0.573170  0.583520  1.0  -0.777
  O  O55  1  0.987310  0.810050  0.905630  1.0  -0.7284
  O  O56  1  0.328650  0.880750  0.937860  1.0  -0.7868
