# generated using pymatgen
data_SrH2C6SO4
_symmetry_space_group_name_H-M   'P 1'
_cell_length_a   6.00780000
_cell_length_b   16.94010000
_cell_length_c   13.00610000
_cell_angle_alpha   90.00000000
_cell_angle_beta   116.15800000
_cell_angle_gamma   90.00000000
_symmetry_Int_Tables_number   1
_chemical_formula_structural   SrH2C6SO4
_chemical_formula_sum   'Sr4 H8 C24 S4 O16'
_cell_volume   1188.09877521
_cell_formula_units_Z   4
loop_
 _symmetry_equiv_pos_site_id
 _symmetry_equiv_pos_as_xyz
  1  'x, y, z'
loop_
 _atom_site_type_symbol
 _atom_site_label
 _atom_site_symmetry_multiplicity
 _atom_site_fract_x
 _atom_site_fract_y
 _atom_site_fract_z
 _atom_site_occupancy
 _atom_site_charge
  Sr  Sr1  1  0.817860  0.499470  0.594300  1.0  1.6328
  Sr  Sr2  1  0.182140  0.999470  0.905700  1.0  1.6344
  Sr  Sr3  1  0.182140  0.500530  0.405700  1.0  1.6346
  Sr  Sr4  1  0.817860  0.000530  0.094300  1.0  1.6336
  H  H5  1  0.929300  0.309200  0.280700  1.0  0.1069
  H  H6  1  0.784700  0.186000  0.175200  1.0  0.1025
  H  H7  1  0.070700  0.809200  0.219300  1.0  0.1079
  H  H8  1  0.215300  0.686000  0.324800  1.0  0.1019
  H  H9  1  0.070700  0.690800  0.719300  1.0  0.1077
  H  H10  1  0.215300  0.814000  0.824800  1.0  0.1019
  H  H11  1  0.929300  0.190800  0.780700  1.0  0.1066
  H  H12  1  0.784700  0.314000  0.675200  1.0  0.1026
  C  C13  1  0.681800  0.376940  0.399000  1.0  0.7765
  C  C14  1  0.647000  0.306110  0.326700  1.0  -0.2174
  C  C15  1  0.790900  0.281690  0.275800  1.0  -0.0784
  C  C16  1  0.707500  0.210370  0.214900  1.0  -0.0603
  C  C17  1  0.501600  0.180860  0.220400  1.0  -0.2126
  C  C18  1  0.364500  0.105910  0.171500  1.0  0.7738
  C  C19  1  0.318200  0.876940  0.101000  1.0  0.7766
  C  C20  1  0.353000  0.806110  0.173300  1.0  -0.2157
  C  C21  1  0.209100  0.781690  0.224200  1.0  -0.0778
  C  C22  1  0.292500  0.710370  0.285100  1.0  -0.0608
  C  C23  1  0.498400  0.680860  0.279600  1.0  -0.2116
  C  C24  1  0.635500  0.605910  0.328500  1.0  0.7736
  C  C25  1  0.318200  0.623060  0.601000  1.0  0.7767
  C  C26  1  0.353000  0.693890  0.673300  1.0  -0.216
  C  C27  1  0.209100  0.718310  0.724200  1.0  -0.0772
  C  C28  1  0.292500  0.789630  0.785100  1.0  -0.0613
  C  C29  1  0.498400  0.819140  0.779600  1.0  -0.2113
  C  C30  1  0.635500  0.894090  0.828500  1.0  0.7741
  C  C31  1  0.681800  0.123060  0.899000  1.0  0.7769
  C  C32  1  0.647000  0.193890  0.826700  1.0  -0.2173
  C  C33  1  0.790900  0.218310  0.775800  1.0  -0.0783
  C  C34  1  0.707500  0.289630  0.714900  1.0  -0.06
  C  C35  1  0.501600  0.319140  0.720400  1.0  -0.2125
  C  C36  1  0.364500  0.394090  0.671500  1.0  0.7736
  S  S37  1  0.407000  0.241470  0.299530  1.0  0.1557
  S  S38  1  0.593000  0.741470  0.200470  1.0  0.1567
  S  S39  1  0.593000  0.758530  0.700470  1.0  0.1565
  S  S40  1  0.407000  0.258530  0.799530  1.0  0.1557
  O  O41  1  0.178600  0.092620  0.188450  1.0  -0.7428
  O  O42  1  0.448100  0.062100  0.118860  1.0  -0.7524
  O  O43  1  0.515600  0.394320  0.428770  1.0  -0.7419
  O  O44  1  0.881000  0.414520  0.430230  1.0  -0.745
  O  O45  1  0.821400  0.592620  0.311550  1.0  -0.7417
  O  O46  1  0.551900  0.562100  0.381140  1.0  -0.7538
  O  O47  1  0.484400  0.894320  0.071230  1.0  -0.7431
  O  O48  1  0.119000  0.914520  0.069770  1.0  -0.7439
  O  O49  1  0.821400  0.907380  0.811550  1.0  -0.7423
  O  O50  1  0.551900  0.937900  0.881140  1.0  -0.754
  O  O51  1  0.484400  0.605680  0.571230  1.0  -0.7431
  O  O52  1  0.119000  0.585480  0.569770  1.0  -0.7444
  O  O53  1  0.178600  0.407380  0.688450  1.0  -0.7433
  O  O54  1  0.448100  0.437900  0.618860  1.0  -0.7526
  O  O55  1  0.515600  0.105680  0.928770  1.0  -0.742
  O  O56  1  0.881000  0.085480  0.930230  1.0  -0.7452
