# generated using pymatgen
data_LaP4H27(C17O6)2
_symmetry_space_group_name_H-M   'P 1'
_cell_length_a   14.78790000
_cell_length_b   14.78790000
_cell_length_c   27.90570000
_cell_angle_alpha   79.65160000
_cell_angle_beta   74.96580000
_cell_angle_gamma   99.87650000
_symmetry_Int_Tables_number   1
_chemical_formula_structural   LaP4H27(C17O6)2
_chemical_formula_sum   'La4 P16 H108 C136 O48'
_cell_volume   5642.85899593
_cell_formula_units_Z   4
loop_
 _symmetry_equiv_pos_site_id
 _symmetry_equiv_pos_as_xyz
  1  'x, y, z'
loop_
 _atom_site_type_symbol
 _atom_site_label
 _atom_site_symmetry_multiplicity
 _atom_site_fract_x
 _atom_site_fract_y
 _atom_site_fract_z
 _atom_site_occupancy
 _atom_site_charge
  La  La1  1  0.608450  0.873910  0.996760  1.0  2.2993
  La  La2  1  0.370670  0.605210  0.503240  1.0  2.3002
  La  La3  1  0.391550  0.126090  0.003240  1.0  2.2979
  La  La4  1  0.629330  0.394790  0.496760  1.0  2.3006
  P  P5  1  0.639000  0.729370  0.898770  1.0  1.3302
  P  P6  1  0.838330  0.432270  0.556020  1.0  1.3868
  P  P7  1  0.415870  0.860750  0.522280  1.0  1.3511
  P  P8  1  0.646790  0.648730  0.458120  1.0  1.502
  P  P9  1  0.128140  0.537770  0.601230  1.0  1.3297
  P  P10  1  0.488290  0.394350  0.943980  1.0  1.3852
  P  P11  1  0.883030  0.938150  0.977720  1.0  1.3514
  P  P12  1  0.606850  0.104910  0.041880  1.0  1.5042
  P  P13  1  0.361000  0.270630  0.101230  1.0  1.3299
  P  P14  1  0.161670  0.567730  0.443980  1.0  1.3873
  P  P15  1  0.584130  0.139250  0.477720  1.0  1.3514
  P  P16  1  0.353210  0.351270  0.541880  1.0  1.504
  P  P17  1  0.871860  0.462230  0.398770  1.0  1.3315
  P  P18  1  0.511710  0.605650  0.056020  1.0  1.3863
  P  P19  1  0.116970  0.061850  0.022280  1.0  1.3508
  P  P20  1  0.393150  0.895090  0.958120  1.0  1.5055
  H  H21  1  0.790500  0.890900  0.836400  1.0  0.0954
  H  H22  1  0.880900  0.938100  0.752200  1.0  0.1252
  H  H23  1  0.696300  0.738000  0.720700  1.0  0.133
  H  H24  1  0.774600  0.989200  0.662600  1.0  0.1113
  H  H25  1  0.872500  0.024400  0.675300  1.0  0.0935
  H  H26  1  0.877200  0.995400  0.531000  1.0  0.088
  H  H27  1  0.777300  0.971400  0.575700  1.0  0.1084
  H  H28  1  0.735000  0.826300  0.647300  1.0  0.1047
  H  H29  1  0.809100  0.759200  0.648900  1.0  0.1125
  H  H30  1  0.031200  0.060300  0.605700  1.0  0.1033
  H  H31  1  0.032200  0.048600  0.549600  1.0  0.0899
  H  H32  1  0.991400  0.885800  0.534200  1.0  0.0901
  H  H33  1  0.962900  0.795200  0.580900  1.0  0.1141
  H  H34  1  0.988000  0.920500  0.677100  1.0  0.1039
  H  H35  1  0.963400  0.816300  0.668100  1.0  0.1091
  H  H36  1  0.954400  0.178900  0.631700  1.0  0.1129
  H  H37  1  0.934400  0.330500  0.615900  1.0  0.0995
  H  H38  1  0.805300  0.273300  0.511800  1.0  0.0902
  H  H39  1  0.826300  0.122300  0.527200  1.0  0.1003
  H  H40  1  0.673400  0.839900  0.576900  1.0  0.1126
  H  H41  1  0.595200  0.760500  0.529700  1.0  0.1067
  H  H42  1  0.837000  0.672200  0.472200  1.0  0.1175
  H  H43  1  0.912300  0.754300  0.518800  1.0  0.1107
  H  H44  1  0.180800  0.048100  0.552300  1.0  0.1046
  H  H45  1  0.335900  0.025600  0.520300  1.0  0.0994
  H  H46  1  0.237300  0.749700  0.586600  1.0  0.089
  H  H47  1  0.084600  0.769900  0.617500  1.0  0.111
  H  H48  1  0.227300  0.626900  0.663600  1.0  0.0965
  H  H49  1  0.190300  0.633100  0.747800  1.0  0.1239
  H  H50  1  0.958700  0.417000  0.779300  1.0  0.1333
  H  H51  1  0.151800  0.437200  0.837400  1.0  0.1077
  H  H52  1  0.199700  0.547800  0.824700  1.0  0.0941
  H  H53  1  0.026400  0.408200  0.969000  1.0  0.0886
  H  H54  1  0.047100  0.353000  0.924300  1.0  0.1053
  H  H55  1  0.973600  0.382300  0.852700  1.0  0.0985
  H  H56  1  0.908100  0.458000  0.851100  1.0  0.1116
  H  H57  1  0.166000  0.636900  0.894300  1.0  0.1061
  H  H58  1  0.098200  0.581800  0.950400  1.0  0.0919
  H  H59  1  0.920000  0.525600  0.965800  1.0  0.0937
  H  H60  1  0.876100  0.543800  0.919100  1.0  0.1074
  H  H61  1  0.097600  0.665100  0.822900  1.0  0.1033
  H  H62  1  0.984400  0.631500  0.831900  1.0  0.1044
  H  H63  1  0.310600  0.586100  0.868300  1.0  0.1128
  H  H64  1  0.446400  0.550300  0.884100  1.0  0.0989
  H  H65  1  0.285100  0.317100  0.988200  1.0  0.0881
  H  H66  1  0.149500  0.353500  0.972800  1.0  0.1008
  H  H67  1  0.916800  0.250300  0.923100  1.0  0.1144
  H  H68  1  0.790200  0.124900  0.970300  1.0  0.1085
  H  H69  1  0.644400  0.309200  0.027800  1.0  0.1185
  H  H70  1  0.773100  0.431100  0.981200  1.0  0.1086
  H  H71  1  0.100400  0.733100  0.947700  1.0  0.1064
  H  H72  1  0.045900  0.856200  0.979700  1.0  0.0997
  H  H73  1  0.836300  0.823900  0.913400  1.0  0.0892
  H  H74  1  0.887400  0.702100  0.882500  1.0  0.11
  H  H75  1  0.209500  0.109100  0.163600  1.0  0.0949
  H  H76  1  0.119100  0.061900  0.247800  1.0  0.1244
  H  H77  1  0.303700  0.262000  0.279300  1.0  0.1331
  H  H78  1  0.225400  0.010800  0.337400  1.0  0.1108
  H  H79  1  0.127500  0.975600  0.324700  1.0  0.0944
  H  H80  1  0.122800  0.004600  0.469000  1.0  0.0897
  H  H81  1  0.222700  0.028600  0.424300  1.0  0.1092
  H  H82  1  0.265000  0.173700  0.352700  1.0  0.1038
  H  H83  1  0.190900  0.240800  0.351100  1.0  0.1128
  H  H84  1  0.968800  0.939700  0.394300  1.0  0.1037
  H  H85  1  0.967800  0.951400  0.450400  1.0  0.0906
  H  H86  1  0.008600  0.114200  0.465800  1.0  0.092
  H  H87  1  0.037100  0.204800  0.419100  1.0  0.1113
  H  H88  1  0.012000  0.079500  0.322900  1.0  0.1042
  H  H89  1  0.036600  0.183700  0.331900  1.0  0.1044
  H  H90  1  0.045600  0.821100  0.368300  1.0  0.1119
  H  H91  1  0.065600  0.669500  0.384100  1.0  0.0992
  H  H92  1  0.194700  0.726700  0.488200  1.0  0.0896
  H  H93  1  0.173700  0.877700  0.472800  1.0  0.1018
  H  H94  1  0.326600  0.160100  0.423100  1.0  0.1129
  H  H95  1  0.404800  0.239500  0.470300  1.0  0.1071
  H  H96  1  0.163000  0.327800  0.527800  1.0  0.1179
  H  H97  1  0.087700  0.245700  0.481200  1.0  0.1074
  H  H98  1  0.819200  0.951900  0.447700  1.0  0.1037
  H  H99  1  0.664100  0.974400  0.479700  1.0  0.0994
  H  H100  1  0.762700  0.250300  0.413400  1.0  0.0896
  H  H101  1  0.915400  0.230100  0.382500  1.0  0.1113
  H  H102  1  0.772700  0.373100  0.336400  1.0  0.0956
  H  H103  1  0.809700  0.366900  0.252200  1.0  0.1222
  H  H104  1  0.041300  0.583000  0.220700  1.0  0.1331
  H  H105  1  0.848200  0.562800  0.162600  1.0  0.1101
  H  H106  1  0.800300  0.452200  0.175300  1.0  0.0957
  H  H107  1  0.973600  0.591800  0.031000  1.0  0.0889
  H  H108  1  0.952900  0.647000  0.075700  1.0  0.1021
  H  H109  1  0.026400  0.617700  0.147300  1.0  0.0992
  H  H110  1  0.091900  0.542000  0.148900  1.0  0.1138
  H  H111  1  0.834000  0.363100  0.105700  1.0  0.1063
  H  H112  1  0.901800  0.418200  0.049600  1.0  0.0936
  H  H113  1  0.080000  0.474400  0.034200  1.0  0.0935
  H  H114  1  0.123900  0.456200  0.080900  1.0  0.1139
  H  H115  1  0.902400  0.334900  0.177100  1.0  0.1062
  H  H116  1  0.015600  0.368500  0.168100  1.0  0.1038
  H  H117  1  0.689400  0.413900  0.131700  1.0  0.1116
  H  H118  1  0.553600  0.449700  0.115900  1.0  0.0996
  H  H119  1  0.714900  0.682900  0.011800  1.0  0.0896
  H  H120  1  0.850500  0.646500  0.027200  1.0  0.0992
  H  H121  1  0.083200  0.749700  0.076900  1.0  0.1149
  H  H122  1  0.209800  0.875100  0.029700  1.0  0.1078
  H  H123  1  0.355600  0.690800  0.972200  1.0  0.1182
  H  H124  1  0.226900  0.568900  0.018800  1.0  0.1108
  H  H125  1  0.899600  0.266900  0.052300  1.0  0.1044
  H  H126  1  0.954100  0.143800  0.020300  1.0  0.1
  H  H127  1  0.163700  0.176100  0.086600  1.0  0.089
  H  H128  1  0.112600  0.297900  0.117500  1.0  0.1102
  C  C129  1  0.704900  0.771600  0.832900  1.0  -0.3268
  C  C130  1  0.776200  0.854600  0.813400  1.0  0.0266
  C  C131  1  0.826700  0.886400  0.762900  1.0  -0.1765
  C  C132  1  0.718100  0.767300  0.744600  1.0  -0.1457
  C  C133  1  0.670100  0.734900  0.796800  1.0  0.1351
  C  C134  1  0.799300  0.843600  0.727500  1.0  0.0881
  C  C135  1  0.850400  0.883500  0.670700  1.0  0.1275
  C  C136  1  0.843300  0.986500  0.655000  1.0  -0.2409
  C  C137  1  0.894300  0.028800  0.598100  1.0  0.1391
  C  C138  1  0.846000  0.968800  0.568000  1.0  -0.2628
  C  C139  1  0.853200  0.865100  0.581700  1.0  0.1348
  C  C140  1  0.804200  0.825500  0.639300  1.0  -0.2665
  C  C141  1  0.999000  0.022100  0.586500  1.0  -0.2587
  C  C142  1  0.958200  0.861600  0.571200  1.0  -0.2613
  C  C143  1  0.957000  0.881900  0.657700  1.0  -0.2323
  C  C144  1  0.008200  0.920200  0.600800  1.0  0.1423
  C  C145  1  0.884600  0.131000  0.583800  1.0  0.0761
  C  C146  1  0.920900  0.197200  0.608100  1.0  -0.1623
  C  C147  1  0.909200  0.287300  0.598700  1.0  0.0338
  C  C148  1  0.861900  0.317000  0.564700  1.0  -0.2854
  C  C149  1  0.833800  0.253600  0.537600  1.0  0.0185
  C  C150  1  0.845800  0.163600  0.547000  1.0  -0.1499
  C  C151  1  0.803000  0.808200  0.551800  1.0  0.0758
  C  C152  1  0.707400  0.807000  0.554800  1.0  -0.144
  C  C153  1  0.660600  0.759600  0.526600  1.0  0.0251
  C  C154  1  0.707200  0.711100  0.494100  1.0  -0.3375
  C  C155  1  0.803600  0.708000  0.492600  1.0  0.0203
  C  C156  1  0.847600  0.756500  0.520700  1.0  -0.1555
  C  C157  1  0.114400  0.911800  0.587200  1.0  0.0546
  C  C158  1  0.191400  0.986100  0.558900  1.0  -0.1594
  C  C159  1  0.284600  0.973100  0.539700  1.0  0.0311
  C  C160  1  0.301000  0.885000  0.549000  1.0  -0.2989
  C  C161  1  0.225400  0.811000  0.578800  1.0  0.0149
  C  C162  1  0.134600  0.822800  0.597400  1.0  -0.1536
  C  C163  1  0.104500  0.537800  0.667100  1.0  -0.3274
  C  C164  1  0.168000  0.589600  0.686600  1.0  0.0282
  C  C165  1  0.149300  0.589600  0.737100  1.0  -0.176
  C  C166  1  0.011900  0.462700  0.755400  1.0  -0.1554
  C  C167  1  0.031700  0.466900  0.703200  1.0  0.136
  C  C168  1  0.071100  0.526800  0.772500  1.0  0.092
  C  C169  1  0.054200  0.521100  0.829300  1.0  0.1177
  C  C170  1  0.141500  0.498300  0.845000  1.0  -0.2421
  C  C171  1  0.126900  0.492400  0.901900  1.0  0.1334
  C  C172  1  0.036800  0.414000  0.932000  1.0  -0.2586
  C  C173  1  0.946800  0.434900  0.918300  1.0  0.1387
  C  C174  1  0.964800  0.443500  0.860700  1.0  -0.2677
  C  C175  1  0.108600  0.585500  0.913500  1.0  -0.2651
  C  C176  1  0.932800  0.529400  0.928800  1.0  -0.2532
  C  C177  1  0.039600  0.614700  0.842300  1.0  -0.2343
  C  C178  1  0.021000  0.609000  0.899200  1.0  0.1398
  C  C179  1  0.214800  0.468400  0.916200  1.0  0.0731
  C  C180  1  0.305300  0.529000  0.891900  1.0  -0.1584
  C  C181  1  0.386000  0.507900  0.901300  1.0  0.0382
  C  C182  1  0.381700  0.426600  0.935300  1.0  -0.2904
  C  C183  1  0.291200  0.371400  0.962400  1.0  0.0212
  C  C184  1  0.210600  0.392800  0.953000  1.0  -0.1509
  C  C185  1  0.860000  0.354800  0.948200  1.0  0.0717
  C  C186  1  0.861800  0.262200  0.945200  1.0  -0.1463
  C  C187  1  0.786200  0.187200  0.973400  1.0  0.0193
  C  C188  1  0.705200  0.201300  0.005900  1.0  -0.3347
  C  C189  1  0.700600  0.296200  0.007400  1.0  0.0182
  C  C190  1  0.777200  0.368300  0.979300  1.0  -0.1516
  C  C191  1  0.999000  0.701600  0.912800  1.0  0.0601
  C  C192  1  0.045000  0.750300  0.941100  1.0  -0.155
  C  C193  1  0.012800  0.824300  0.960300  1.0  0.0359
  C  C194  1  0.934000  0.850000  0.951000  1.0  -0.2982
  C  C195  1  0.889800  0.804200  0.921200  1.0  0.0105
  C  C196  1  0.920200  0.732000  0.902600  1.0  -0.1631
  C  C197  1  0.295100  0.228400  0.167100  1.0  -0.3243
  C  C198  1  0.223800  0.145400  0.186600  1.0  0.0256
  C  C199  1  0.173300  0.113600  0.237100  1.0  -0.1745
  C  C200  1  0.281900  0.232700  0.255400  1.0  -0.1577
  C  C201  1  0.329900  0.265100  0.203200  1.0  0.135
  C  C202  1  0.200700  0.156400  0.272500  1.0  0.0861
  C  C203  1  0.149600  0.116500  0.329300  1.0  0.1231
  C  C204  1  0.156700  0.013500  0.345000  1.0  -0.2405
  C  C205  1  0.105700  0.971200  0.401900  1.0  0.1382
  C  C206  1  0.154000  0.031200  0.432000  1.0  -0.2651
  C  C207  1  0.146800  0.134900  0.418300  1.0  0.1372
  C  C208  1  0.195800  0.174500  0.360700  1.0  -0.2668
  C  C209  1  0.001000  0.977900  0.413500  1.0  -0.2593
  C  C210  1  0.041800  0.138400  0.428800  1.0  -0.2631
  C  C211  1  0.043000  0.118100  0.342300  1.0  -0.2344
  C  C212  1  0.991800  0.079800  0.399200  1.0  0.138
  C  C213  1  0.115400  0.869000  0.416200  1.0  0.076
  C  C214  1  0.079100  0.802800  0.391900  1.0  -0.1627
  C  C215  1  0.090800  0.712700  0.401300  1.0  0.0356
  C  C216  1  0.138100  0.683000  0.435300  1.0  -0.2876
  C  C217  1  0.166200  0.746400  0.462400  1.0  0.0196
  C  C218  1  0.154200  0.836400  0.453000  1.0  -0.1509
  C  C219  1  0.197000  0.191800  0.448200  1.0  0.0747
  C  C220  1  0.292600  0.193000  0.445200  1.0  -0.1452
  C  C221  1  0.339400  0.240400  0.473400  1.0  0.0247
  C  C222  1  0.292800  0.288900  0.505900  1.0  -0.3346
  C  C223  1  0.196400  0.292000  0.507400  1.0  0.02
  C  C224  1  0.152400  0.243500  0.479300  1.0  -0.1541
  C  C225  1  0.885600  0.088200  0.412800  1.0  0.0503
  C  C226  1  0.808600  0.013900  0.441100  1.0  -0.1557
  C  C227  1  0.715400  0.026900  0.460300  1.0  0.0305
  C  C228  1  0.699000  0.115000  0.451000  1.0  -0.2998
  C  C229  1  0.774600  0.189000  0.421200  1.0  0.0164
  C  C230  1  0.865400  0.177200  0.402600  1.0  -0.1546
  C  C231  1  0.895500  0.462200  0.332900  1.0  -0.3312
  C  C232  1  0.832000  0.410400  0.313400  1.0  0.0286
  C  C233  1  0.850700  0.410400  0.262900  1.0  -0.178
  C  C234  1  0.988100  0.537300  0.244600  1.0  -0.1576
  C  C235  1  0.968300  0.533100  0.296800  1.0  0.1342
  C  C236  1  0.928900  0.473200  0.227500  1.0  0.0946
  C  C237  1  0.945800  0.478900  0.170700  1.0  0.1284
  C  C238  1  0.858500  0.501700  0.155000  1.0  -0.2427
  C  C239  1  0.873100  0.507600  0.098100  1.0  0.1357
  C  C240  1  0.963200  0.586000  0.068000  1.0  -0.26
  C  C241  1  0.053200  0.565100  0.081700  1.0  0.1408
  C  C242  1  0.035200  0.556500  0.139300  1.0  -0.2654
  C  C243  1  0.891400  0.414500  0.086500  1.0  -0.2622
  C  C244  1  0.067200  0.470600  0.071200  1.0  -0.2521
  C  C245  1  0.960400  0.385300  0.157700  1.0  -0.2302
  C  C246  1  0.979000  0.391000  0.100800  1.0  0.1402
  C  C247  1  0.785200  0.531600  0.083800  1.0  0.0739
  C  C248  1  0.694700  0.471000  0.108100  1.0  -0.1566
  C  C249  1  0.614000  0.492100  0.098700  1.0  0.037
  C  C250  1  0.618300  0.573400  0.064700  1.0  -0.2916
  C  C251  1  0.708800  0.628600  0.037600  1.0  0.024
  C  C252  1  0.789400  0.607200  0.047000  1.0  -0.1492
  C  C253  1  0.140000  0.645200  0.051800  1.0  0.0723
  C  C254  1  0.138200  0.737800  0.054800  1.0  -0.1463
  C  C255  1  0.213800  0.812800  0.026600  1.0  0.0205
  C  C256  1  0.294800  0.798700  0.994100  1.0  -0.332
  C  C257  1  0.299400  0.703800  0.992600  1.0  0.018
  C  C258  1  0.222800  0.631700  0.020700  1.0  -0.1522
  C  C259  1  0.001000  0.298400  0.087200  1.0  0.0592
  C  C260  1  0.955000  0.249700  0.058900  1.0  -0.1556
  C  C261  1  0.987200  0.175700  0.039700  1.0  0.0322
  C  C262  1  0.066000  0.150000  0.049000  1.0  -0.2977
  C  C263  1  0.110200  0.195800  0.078800  1.0  0.0099
  C  C264  1  0.079800  0.268000  0.097400  1.0  -0.161
  O  O265  1  0.668200  0.793900  0.928900  1.0  -0.821
  O  O266  1  0.657200  0.625400  0.913000  1.0  -0.4847
  O  O267  1  0.529900  0.720500  0.903800  1.0  -0.4701
  O  O268  1  0.762600  0.435100  0.533700  1.0  -0.8659
  O  O269  1  0.929100  0.504800  0.528300  1.0  -0.4324
  O  O270  1  0.807100  0.453300  0.610600  1.0  -0.4863
  O  O271  1  0.403900  0.760200  0.521700  1.0  -0.8913
  O  O272  1  0.481200  0.891400  0.553600  1.0  -0.5196
  O  O273  1  0.462800  0.927200  0.467000  1.0  -0.4809
  O  O274  1  0.543100  0.627700  0.481800  1.0  -0.975
  O  O275  1  0.672600  0.718900  0.404100  1.0  -0.5285
  O  O276  1  0.688500  0.565500  0.449400  1.0  -0.8596
  O  O277  1  0.222800  0.597100  0.571100  1.0  -0.8191
  O  O278  1  0.038400  0.570200  0.587000  1.0  -0.4829
  O  O279  1  0.124300  0.433700  0.596200  1.0  -0.4693
  O  O280  1  0.468800  0.296300  0.966300  1.0  -0.8701
  O  O281  1  0.533100  0.457400  0.971700  1.0  -0.4339
  O  O282  1  0.563900  0.417700  0.889400  1.0  -0.4846
  O  O283  1  0.781900  0.925600  0.978300  1.0  -0.8892
  O  O284  1  0.945000  0.034800  0.946400  1.0  -0.5261
  O  O285  1  0.894200  0.929800  0.033000  1.0  -0.4779
  O  O286  1  0.609500  0.024900  0.018200  1.0  -0.9776
  O  O287  1  0.623000  0.076700  0.095900  1.0  -0.528
  O  O288  1  0.514900  0.137900  0.050600  1.0  -0.8556
  O  O289  1  0.331800  0.206100  0.071100  1.0  -0.8196
  O  O290  1  0.342800  0.374600  0.087000  1.0  -0.4843
  O  O291  1  0.470100  0.279500  0.096200  1.0  -0.4702
  O  O292  1  0.237400  0.564900  0.466300  1.0  -0.8689
  O  O293  1  0.070900  0.495200  0.471700  1.0  -0.4377
  O  O294  1  0.192900  0.546700  0.389400  1.0  -0.4868
  O  O295  1  0.596100  0.239800  0.478300  1.0  -0.8906
  O  O296  1  0.518800  0.108600  0.446400  1.0  -0.5214
  O  O297  1  0.537200  0.072800  0.533000  1.0  -0.4764
  O  O298  1  0.456900  0.372300  0.518200  1.0  -0.9781
  O  O299  1  0.327400  0.281100  0.595900  1.0  -0.5254
  O  O300  1  0.311500  0.434500  0.550600  1.0  -0.8598
  O  O301  1  0.777200  0.402900  0.428900  1.0  -0.8198
  O  O302  1  0.961600  0.429800  0.413000  1.0  -0.4819
  O  O303  1  0.875700  0.566300  0.403800  1.0  -0.4709
  O  O304  1  0.531200  0.703700  0.033700  1.0  -0.8678
  O  O305  1  0.466900  0.542600  0.028300  1.0  -0.4317
  O  O306  1  0.436100  0.582300  0.110600  1.0  -0.4831
  O  O307  1  0.218100  0.074400  0.021700  1.0  -0.891
  O  O308  1  0.055000  0.965200  0.053600  1.0  -0.527
  O  O309  1  0.105800  0.070200  0.967000  1.0  -0.4825
  O  O310  1  0.390500  0.975100  0.981800  1.0  -0.9769
  O  O311  1  0.377000  0.923300  0.904100  1.0  -0.5298
  O  O312  1  0.485100  0.862100  0.949400  1.0  -0.857
