# generated using pymatgen
data_Mn5H56C76(N16Cl)2
_symmetry_space_group_name_H-M   'P 1'
_cell_length_a   17.40470000
_cell_length_b   17.98920000
_cell_length_c   26.94300000
_cell_angle_alpha   90.00000000
_cell_angle_beta   90.00000000
_cell_angle_gamma   106.94100000
_symmetry_Int_Tables_number   1
_chemical_formula_structural   Mn5H56C76(N16Cl)2
_chemical_formula_sum   'Mn10 H112 C152 N64 Cl4'
_cell_volume   8069.69524264
_cell_formula_units_Z   2
loop_
 _symmetry_equiv_pos_site_id
 _symmetry_equiv_pos_as_xyz
  1  'x, y, z'
loop_
 _atom_site_type_symbol
 _atom_site_label
 _atom_site_symmetry_multiplicity
 _atom_site_fract_x
 _atom_site_fract_y
 _atom_site_fract_z
 _atom_site_occupancy
 _atom_site_charge
  Mn  Mn1  1  0.326380  0.052750  0.121170  1.0  0.9689
  Mn  Mn2  1  0.112450  0.029080  0.129490  1.0  1.0753
  Mn  Mn3  1  0.673620  0.447250  0.621170  1.0  0.9709
  Mn  Mn4  1  0.887550  0.470920  0.629490  1.0  1.0751
  Mn  Mn5  1  0.673620  0.947250  0.878830  1.0  0.9707
  Mn  Mn6  1  0.887550  0.970920  0.870510  1.0  1.0782
  Mn  Mn7  1  0.326380  0.552750  0.378830  1.0  0.969
  Mn  Mn8  1  0.112450  0.529080  0.370510  1.0  1.0768
  Mn  Mn9  1  0.000000  0.000000  0.000000  1.0  0.7995
  Mn  Mn10  1  0.000000  0.500000  0.500000  1.0  0.7995
  H  H11  1  0.362800  0.159100  0.762100  1.0  0.0851
  H  H12  1  0.373000  0.073400  0.762400  1.0  0.0957
  H  H13  1  0.303600  0.159200  0.632700  1.0  0.0991
  H  H14  1  0.319600  0.212500  0.681400  1.0  0.1003
  H  H15  1  0.181300  0.041400  0.628100  1.0  0.0906
  H  H16  1  0.121800  0.019100  0.674600  1.0  0.1033
  H  H17  1  0.252400  0.957100  0.756500  1.0  0.1005
  H  H18  1  0.164400  0.967500  0.752000  1.0  0.0858
  H  H19  1  0.322100  0.026700  0.634600  1.0  0.0829
  H  H20  1  0.348900  0.993200  0.684700  1.0  0.0925
  H  H21  1  0.224300  0.177000  0.754300  1.0  0.0967
  H  H22  1  0.146900  0.102700  0.751100  1.0  0.0986
  H  H23  1  0.122000  0.019300  0.819500  1.0  0.1017
  H  H24  1  0.103000  0.006400  0.903800  1.0  0.1031
  H  H25  1  0.340900  0.108500  0.924900  1.0  0.1105
  H  H26  1  0.359300  0.120300  0.840400  1.0  0.1118
  H  H27  1  0.462900  0.062800  0.640300  1.0  0.1051
  H  H28  1  0.597100  0.128700  0.624100  1.0  0.1181
  H  H29  1  0.573300  0.316800  0.697400  1.0  0.1291
  H  H30  1  0.440700  0.250300  0.714300  1.0  0.1063
  H  H31  1  0.131200  0.218100  0.725700  1.0  0.1086
  H  H32  1  0.074700  0.307800  0.691100  1.0  0.1057
  H  H33  1  0.114100  0.235900  0.555300  1.0  0.1122
  H  H34  1  0.179800  0.153700  0.589400  1.0  0.1166
  H  H35  1  0.160300  0.852100  0.729500  1.0  0.0934
  H  H36  1  0.096000  0.730000  0.697100  1.0  0.1115
  H  H37  1  0.153600  0.816100  0.558700  1.0  0.112
  H  H38  1  0.220200  0.936500  0.591600  1.0  0.1225
  H  H39  1  0.637200  0.340900  0.262100  1.0  0.0896
  H  H40  1  0.627000  0.426600  0.262400  1.0  0.0938
  H  H41  1  0.696400  0.340800  0.132700  1.0  0.0997
  H  H42  1  0.680400  0.287500  0.181400  1.0  0.1003
  H  H43  1  0.818700  0.458600  0.128100  1.0  0.0922
  H  H44  1  0.878200  0.480900  0.174600  1.0  0.1037
  H  H45  1  0.747600  0.542900  0.256500  1.0  0.0987
  H  H46  1  0.835600  0.532500  0.252000  1.0  0.0865
  H  H47  1  0.677900  0.473300  0.134600  1.0  0.0839
  H  H48  1  0.651100  0.506800  0.184700  1.0  0.0904
  H  H49  1  0.775700  0.323000  0.254300  1.0  0.0984
  H  H50  1  0.853100  0.397300  0.251100  1.0  0.099
  H  H51  1  0.878000  0.480700  0.319500  1.0  0.1025
  H  H52  1  0.897000  0.493600  0.403800  1.0  0.1026
  H  H53  1  0.659100  0.391500  0.424900  1.0  0.1111
  H  H54  1  0.640700  0.379700  0.340400  1.0  0.112
  H  H55  1  0.537100  0.437200  0.140300  1.0  0.1057
  H  H56  1  0.402900  0.371300  0.124100  1.0  0.1183
  H  H57  1  0.426700  0.183200  0.197400  1.0  0.1288
  H  H58  1  0.559300  0.249700  0.214300  1.0  0.1058
  H  H59  1  0.868800  0.281900  0.225700  1.0  0.1098
  H  H60  1  0.925300  0.192200  0.191100  1.0  0.1058
  H  H61  1  0.885900  0.264100  0.055300  1.0  0.112
  H  H62  1  0.820200  0.346300  0.089400  1.0  0.1164
  H  H63  1  0.839700  0.647900  0.229500  1.0  0.0931
  H  H64  1  0.904000  0.770000  0.197100  1.0  0.1113
  H  H65  1  0.846400  0.683900  0.058700  1.0  0.1126
  H  H66  1  0.779800  0.563500  0.091600  1.0  0.1224
  H  H67  1  0.637200  0.840900  0.237900  1.0  0.0876
  H  H68  1  0.627000  0.926600  0.237600  1.0  0.0948
  H  H69  1  0.696400  0.840800  0.367300  1.0  0.0999
  H  H70  1  0.680400  0.787500  0.318600  1.0  0.1006
  H  H71  1  0.818700  0.958600  0.371900  1.0  0.09
  H  H72  1  0.878200  0.980900  0.325400  1.0  0.1031
  H  H73  1  0.747600  0.042900  0.243500  1.0  0.1008
  H  H74  1  0.835600  0.032500  0.248000  1.0  0.0866
  H  H75  1  0.677900  0.973300  0.365400  1.0  0.0827
  H  H76  1  0.651100  0.006800  0.315300  1.0  0.0913
  H  H77  1  0.775700  0.823000  0.245700  1.0  0.0975
  H  H78  1  0.853100  0.897300  0.248900  1.0  0.0993
  H  H79  1  0.878000  0.980700  0.180500  1.0  0.1022
  H  H80  1  0.897000  0.993600  0.096200  1.0  0.1027
  H  H81  1  0.659100  0.891500  0.075100  1.0  0.1107
  H  H82  1  0.640700  0.879700  0.159600  1.0  0.1127
  H  H83  1  0.537100  0.937200  0.359700  1.0  0.1062
  H  H84  1  0.402900  0.871300  0.375900  1.0  0.1182
  H  H85  1  0.426700  0.683200  0.302600  1.0  0.1289
  H  H86  1  0.559300  0.749700  0.285700  1.0  0.1049
  H  H87  1  0.868800  0.781900  0.274300  1.0  0.1099
  H  H88  1  0.925300  0.692200  0.308900  1.0  0.1063
  H  H89  1  0.885900  0.764100  0.444700  1.0  0.112
  H  H90  1  0.820200  0.846300  0.410600  1.0  0.1171
  H  H91  1  0.839700  0.147900  0.270500  1.0  0.0931
  H  H92  1  0.904000  0.270000  0.302900  1.0  0.1115
  H  H93  1  0.846400  0.183900  0.441300  1.0  0.1125
  H  H94  1  0.779800  0.063500  0.408400  1.0  0.1231
  H  H95  1  0.362800  0.659100  0.737900  1.0  0.0865
  H  H96  1  0.373000  0.573400  0.737600  1.0  0.096
  H  H97  1  0.303600  0.659200  0.867300  1.0  0.0987
  H  H98  1  0.319600  0.712500  0.818600  1.0  0.1
  H  H99  1  0.181300  0.541400  0.871900  1.0  0.0915
  H  H100  1  0.121800  0.519100  0.825400  1.0  0.1039
  H  H101  1  0.252400  0.457100  0.743500  1.0  0.1006
  H  H102  1  0.164400  0.467500  0.748000  1.0  0.0855
  H  H103  1  0.322100  0.526700  0.865400  1.0  0.0807
  H  H104  1  0.348900  0.493200  0.815300  1.0  0.0928
  H  H105  1  0.224300  0.677000  0.745700  1.0  0.0976
  H  H106  1  0.146900  0.602700  0.748900  1.0  0.099
  H  H107  1  0.122000  0.519300  0.680500  1.0  0.1018
  H  H108  1  0.103000  0.506400  0.596200  1.0  0.1029
  H  H109  1  0.340900  0.608500  0.575100  1.0  0.111
  H  H110  1  0.359300  0.620300  0.659600  1.0  0.1133
  H  H111  1  0.462900  0.562800  0.859700  1.0  0.1049
  H  H112  1  0.597100  0.628700  0.875900  1.0  0.1182
  H  H113  1  0.573300  0.816800  0.802600  1.0  0.1291
  H  H114  1  0.440700  0.750300  0.785700  1.0  0.1066
  H  H115  1  0.131200  0.718100  0.774300  1.0  0.1093
  H  H116  1  0.074700  0.807800  0.808900  1.0  0.1057
  H  H117  1  0.114100  0.735900  0.944700  1.0  0.1125
  H  H118  1  0.179800  0.653700  0.910600  1.0  0.1173
  H  H119  1  0.160300  0.352100  0.770500  1.0  0.0927
  H  H120  1  0.096000  0.230000  0.802900  1.0  0.1108
  H  H121  1  0.153600  0.316100  0.941300  1.0  0.1121
  H  H122  1  0.220200  0.436500  0.908400  1.0  0.123
  C  C123  1  0.252800  0.072500  0.764000  1.0  0.1175
  C  C124  1  0.341100  0.106000  0.748500  1.0  -0.2481
  C  C125  1  0.349400  0.108800  0.691500  1.0  0.0855
  C  C126  1  0.298600  0.158400  0.669300  1.0  -0.2255
  C  C127  1  0.209100  0.126000  0.683700  1.0  0.1074
  C  C128  1  0.178700  0.041600  0.664800  1.0  -0.2332
  C  C129  1  0.228200  0.990700  0.685600  1.0  0.0951
  C  C130  1  0.221300  0.990200  0.742400  1.0  -0.251
  C  C131  1  0.316900  0.025900  0.671200  1.0  -0.2526
  C  C132  1  0.203800  0.123500  0.741100  1.0  -0.2652
  C  C133  1  0.242800  0.069700  0.820100  1.0  0.0555
  C  C134  1  0.167000  0.037100  0.840900  1.0  -0.145
  C  C135  1  0.155300  0.030200  0.891100  1.0  -0.115
  C  C136  1  0.219900  0.057700  0.924200  1.0  -0.0653
  C  C137  1  0.295900  0.090400  0.903500  1.0  -0.0734
  C  C138  1  0.307000  0.096900  0.853100  1.0  -0.2009
  C  C139  1  0.211600  0.048300  0.978100  1.0  0.3181
  C  C140  1  0.436500  0.148300  0.678200  1.0  0.0588
  C  C141  1  0.484700  0.114400  0.652200  1.0  -0.1717
  C  C142  1  0.565400  0.153800  0.642500  1.0  -0.0874
  C  C143  1  0.599100  0.228000  0.659200  1.0  -0.0771
  C  C144  1  0.551200  0.265000  0.686000  1.0  -0.1104
  C  C145  1  0.472300  0.225500  0.695600  1.0  -0.1694
  C  C146  1  0.684600  0.269500  0.654000  1.0  0.3242
  C  C147  1  0.163100  0.177100  0.661800  1.0  0.0511
  C  C148  1  0.129500  0.222400  0.690600  1.0  -0.184
  C  C149  1  0.093300  0.274300  0.670000  1.0  -0.1302
  C  C150  1  0.083900  0.277900  0.619600  1.0  -0.0841
  C  C151  1  0.117800  0.232900  0.590300  1.0  -0.0665
  C  C152  1  0.156900  0.183600  0.610700  1.0  -0.1881
  C  C153  1  0.041500  0.332000  0.600500  1.0  0.3196
  C  C154  1  0.192700  0.908100  0.664500  1.0  0.036
  C  C155  1  0.157800  0.845200  0.694500  1.0  -0.2109
  C  C156  1  0.119200  0.772200  0.675400  1.0  -0.1661
  C  C157  1  0.114600  0.761200  0.623700  1.0  -0.0508
  C  C158  1  0.153800  0.823300  0.593600  1.0  -0.0557
  C  C159  1  0.193000  0.895400  0.613100  1.0  -0.208
  C  C160  1  0.067500  0.685300  0.605500  1.0  0.3461
  C  C161  1  0.747200  0.427500  0.264000  1.0  0.1172
  C  C162  1  0.658900  0.394000  0.248500  1.0  -0.2502
  C  C163  1  0.650600  0.391200  0.191500  1.0  0.0849
  C  C164  1  0.701400  0.341600  0.169300  1.0  -0.2224
  C  C165  1  0.790900  0.374000  0.183700  1.0  0.107
  C  C166  1  0.821300  0.458400  0.164800  1.0  -0.2292
  C  C167  1  0.771800  0.509300  0.185600  1.0  0.0946
  C  C168  1  0.778700  0.509800  0.242400  1.0  -0.2521
  C  C169  1  0.683100  0.474100  0.171200  1.0  -0.2561
  C  C170  1  0.796200  0.376500  0.241100  1.0  -0.2631
  C  C171  1  0.757200  0.430300  0.320100  1.0  0.0547
  C  C172  1  0.833000  0.462900  0.340900  1.0  -0.1462
  C  C173  1  0.844700  0.469800  0.391100  1.0  -0.1161
  C  C174  1  0.780100  0.442300  0.424200  1.0  -0.0632
  C  C175  1  0.704100  0.409600  0.403500  1.0  -0.0745
  C  C176  1  0.693000  0.403100  0.353100  1.0  -0.2032
  C  C177  1  0.788400  0.451700  0.478100  1.0  0.3185
  C  C178  1  0.563500  0.351700  0.178200  1.0  0.0562
  C  C179  1  0.515300  0.385600  0.152200  1.0  -0.1724
  C  C180  1  0.434600  0.346200  0.142500  1.0  -0.0875
  C  C181  1  0.400900  0.272000  0.159200  1.0  -0.0786
  C  C182  1  0.448800  0.235000  0.186000  1.0  -0.1093
  C  C183  1  0.527700  0.274500  0.195600  1.0  -0.1696
  C  C184  1  0.315400  0.230500  0.154000  1.0  0.3251
  C  C185  1  0.836900  0.322900  0.161800  1.0  0.0515
  C  C186  1  0.870500  0.277600  0.190600  1.0  -0.185
  C  C187  1  0.906700  0.225700  0.170000  1.0  -0.1293
  C  C188  1  0.916100  0.222100  0.119600  1.0  -0.0861
  C  C189  1  0.882200  0.267100  0.090300  1.0  -0.0687
  C  C190  1  0.843100  0.316400  0.110700  1.0  -0.1858
  C  C191  1  0.958500  0.168000  0.100500  1.0  0.3192
  C  C192  1  0.807300  0.591900  0.164500  1.0  0.0373
  C  C193  1  0.842200  0.654800  0.194500  1.0  -0.2098
  C  C194  1  0.880800  0.727800  0.175400  1.0  -0.166
  C  C195  1  0.885400  0.738800  0.123700  1.0  -0.0525
  C  C196  1  0.846200  0.676700  0.093600  1.0  -0.0567
  C  C197  1  0.807000  0.604600  0.113100  1.0  -0.2073
  C  C198  1  0.932500  0.814700  0.105500  1.0  0.3452
  C  C199  1  0.747200  0.927500  0.236000  1.0  0.114
  C  C200  1  0.658900  0.894000  0.251500  1.0  -0.25
  C  C201  1  0.650600  0.891200  0.308500  1.0  0.0866
  C  C202  1  0.701400  0.841600  0.330700  1.0  -0.2224
  C  C203  1  0.790900  0.874000  0.316300  1.0  0.1078
  C  C204  1  0.821300  0.958400  0.335200  1.0  -0.231
  C  C205  1  0.771800  0.009300  0.314400  1.0  0.096
  C  C206  1  0.778700  0.009800  0.257600  1.0  -0.2514
  C  C207  1  0.683100  0.974100  0.328800  1.0  -0.2558
  C  C208  1  0.796200  0.876500  0.258900  1.0  -0.2636
  C  C209  1  0.757200  0.930300  0.179900  1.0  0.0511
  C  C210  1  0.833000  0.962900  0.159100  1.0  -0.1457
  C  C211  1  0.844700  0.969800  0.108900  1.0  -0.1168
  C  C212  1  0.780100  0.942300  0.075800  1.0  -0.0636
  C  C213  1  0.704100  0.909600  0.096500  1.0  -0.0739
  C  C214  1  0.693000  0.903100  0.146900  1.0  -0.2031
  C  C215  1  0.788400  0.951700  0.021900  1.0  0.3187
  C  C216  1  0.563500  0.851700  0.321800  1.0  0.0559
  C  C217  1  0.515300  0.885600  0.347800  1.0  -0.1715
  C  C218  1  0.434600  0.846200  0.357500  1.0  -0.0867
  C  C219  1  0.400900  0.772000  0.340800  1.0  -0.0784
  C  C220  1  0.448800  0.735000  0.314000  1.0  -0.1086
  C  C221  1  0.527700  0.774500  0.304400  1.0  -0.1694
  C  C222  1  0.315400  0.730500  0.346000  1.0  0.3251
  C  C223  1  0.836900  0.822900  0.338200  1.0  0.0525
  C  C224  1  0.870500  0.777600  0.309400  1.0  -0.1854
  C  C225  1  0.906700  0.725700  0.330000  1.0  -0.1301
  C  C226  1  0.916100  0.722100  0.380400  1.0  -0.0855
  C  C227  1  0.882200  0.767100  0.409700  1.0  -0.0668
  C  C228  1  0.843100  0.816400  0.389300  1.0  -0.1884
  C  C229  1  0.958500  0.668000  0.399500  1.0  0.3192
  C  C230  1  0.807300  0.091900  0.335500  1.0  0.0369
  C  C231  1  0.842200  0.154800  0.305500  1.0  -0.2099
  C  C232  1  0.880800  0.227800  0.324600  1.0  -0.1659
  C  C233  1  0.885400  0.238800  0.376300  1.0  -0.0528
  C  C234  1  0.846200  0.176700  0.406400  1.0  -0.0556
  C  C235  1  0.807000  0.104600  0.386900  1.0  -0.2087
  C  C236  1  0.932500  0.314700  0.394500  1.0  0.3453
  C  C237  1  0.252800  0.572500  0.736000  1.0  0.1141
  C  C238  1  0.341100  0.606000  0.751500  1.0  -0.2473
  C  C239  1  0.349400  0.608800  0.808500  1.0  0.0867
  C  C240  1  0.298600  0.658400  0.830700  1.0  -0.2282
  C  C241  1  0.209100  0.626000  0.816300  1.0  0.1079
  C  C242  1  0.178700  0.541600  0.835200  1.0  -0.2323
  C  C243  1  0.228200  0.490700  0.814400  1.0  0.0958
  C  C244  1  0.221300  0.490200  0.757600  1.0  -0.2515
  C  C245  1  0.316900  0.525900  0.828800  1.0  -0.2513
  C  C246  1  0.203800  0.623500  0.758900  1.0  -0.2652
  C  C247  1  0.242800  0.569700  0.679900  1.0  0.0507
  C  C248  1  0.167000  0.537100  0.659100  1.0  -0.1441
  C  C249  1  0.155300  0.530200  0.608900  1.0  -0.1159
  C  C250  1  0.219900  0.557700  0.575800  1.0  -0.064
  C  C251  1  0.295900  0.590400  0.596500  1.0  -0.0746
  C  C252  1  0.307000  0.596900  0.646900  1.0  -0.2025
  C  C253  1  0.211600  0.548300  0.521900  1.0  0.318
  C  C254  1  0.436500  0.648300  0.821800  1.0  0.057
  C  C255  1  0.484700  0.614400  0.847800  1.0  -0.1708
  C  C256  1  0.565400  0.653800  0.857500  1.0  -0.085
  C  C257  1  0.599100  0.728000  0.840800  1.0  -0.0771
  C  C258  1  0.551200  0.765000  0.814000  1.0  -0.1103
  C  C259  1  0.472300  0.725500  0.804400  1.0  -0.1695
  C  C260  1  0.684600  0.769500  0.846000  1.0  0.3241
  C  C261  1  0.163100  0.677100  0.838200  1.0  0.0525
  C  C262  1  0.129500  0.722400  0.809400  1.0  -0.1851
  C  C263  1  0.093300  0.774300  0.830000  1.0  -0.13
  C  C264  1  0.083900  0.777900  0.880400  1.0  -0.0835
  C  C265  1  0.117800  0.732900  0.909700  1.0  -0.0659
  C  C266  1  0.156900  0.683600  0.889300  1.0  -0.1903
  C  C267  1  0.041500  0.832000  0.899500  1.0  0.3196
  C  C268  1  0.192700  0.408100  0.835500  1.0  0.0358
  C  C269  1  0.157800  0.345200  0.805500  1.0  -0.2104
  C  C270  1  0.119200  0.272200  0.824600  1.0  -0.1661
  C  C271  1  0.114600  0.261200  0.876300  1.0  -0.0505
  C  C272  1  0.153800  0.323300  0.906400  1.0  -0.0557
  C  C273  1  0.193000  0.395400  0.886900  1.0  -0.2071
  C  C274  1  0.067500  0.185300  0.894500  1.0  0.345
  N  N275  1  0.143700  0.032400  0.005740  1.0  -0.3121
  N  N276  1  0.169500  0.032600  0.052610  1.0  0.0205
  N  N277  1  0.248200  0.048900  0.053000  1.0  -0.0608
  N  N278  1  0.276500  0.059700  0.007260  1.0  -0.3256
  N  N279  1  0.715900  0.345000  0.646600  1.0  -0.2196
  N  N280  1  0.796100  0.358800  0.646900  1.0  -0.1833
  N  N281  1  0.811400  0.290300  0.652500  1.0  -0.1175
  N  N282  1  0.742600  0.235600  0.658300  1.0  -0.219
  N  N283  1  0.994900  0.360300  0.629300  1.0  -0.3168
  N  N284  1  0.967400  0.405700  0.599300  1.0  -0.0074
  N  N285  1  0.996400  0.404800  0.555200  1.0  -0.0122
  N  N286  1  0.044800  0.358600  0.553500  1.0  -0.3506
  N  N287  1  0.070200  0.658300  0.559300  1.0  -0.3364
  N  N288  1  0.013700  0.588800  0.559900  1.0  -0.0158
  N  N289  1  0.979700  0.576600  0.604200  1.0  0.0063
  N  N290  1  0.012000  0.636200  0.633600  1.0  -0.3071
  N  N291  1  0.856300  0.467600  0.505740  1.0  -0.3147
  N  N292  1  0.830500  0.467400  0.552610  1.0  0.0206
  N  N293  1  0.751800  0.451100  0.553000  1.0  -0.058
  N  N294  1  0.723500  0.440300  0.507260  1.0  -0.3249
  N  N295  1  0.284100  0.155000  0.146600  1.0  -0.2192
  N  N296  1  0.203900  0.141200  0.146900  1.0  -0.1835
  N  N297  1  0.188600  0.209700  0.152500  1.0  -0.1211
  N  N298  1  0.257400  0.264400  0.158300  1.0  -0.2179
  N  N299  1  0.005100  0.139700  0.129300  1.0  -0.3165
  N  N300  1  0.032600  0.094300  0.099300  1.0  -0.0076
  N  N301  1  0.003600  0.095200  0.055200  1.0  -0.0125
  N  N302  1  0.955200  0.141400  0.053500  1.0  -0.3483
  N  N303  1  0.929800  0.841700  0.059300  1.0  -0.3389
  N  N304  1  0.986300  0.911200  0.059900  1.0  -0.0163
  N  N305  1  0.020300  0.923400  0.104200  1.0  0.0024
  N  N306  1  0.988000  0.863800  0.133600  1.0  -0.3073
  N  N307  1  0.856300  0.967600  0.994260  1.0  -0.3147
  N  N308  1  0.830500  0.967400  0.947390  1.0  0.021
  N  N309  1  0.751800  0.951100  0.947000  1.0  -0.0571
  N  N310  1  0.723500  0.940300  0.992740  1.0  -0.3244
  N  N311  1  0.284100  0.655000  0.353400  1.0  -0.2202
  N  N312  1  0.203900  0.641200  0.353100  1.0  -0.1822
  N  N313  1  0.188600  0.709700  0.347500  1.0  -0.121
  N  N314  1  0.257400  0.764400  0.341700  1.0  -0.2159
  N  N315  1  0.005100  0.639700  0.370700  1.0  -0.3191
  N  N316  1  0.032600  0.594300  0.400700  1.0  -0.0071
  N  N317  1  0.003600  0.595200  0.444800  1.0  -0.0113
  N  N318  1  0.955200  0.641400  0.446500  1.0  -0.3524
  N  N319  1  0.929800  0.341700  0.440700  1.0  -0.3399
  N  N320  1  0.986300  0.411200  0.440100  1.0  -0.0168
  N  N321  1  0.020300  0.423400  0.395800  1.0  0.0031
  N  N322  1  0.988000  0.363800  0.366400  1.0  -0.3091
  N  N323  1  0.143700  0.532400  0.494260  1.0  -0.312
  N  N324  1  0.169500  0.532600  0.447390  1.0  0.0204
  N  N325  1  0.248200  0.548900  0.447000  1.0  -0.0614
  N  N326  1  0.276500  0.559700  0.492740  1.0  -0.3248
  N  N327  1  0.715900  0.845000  0.853400  1.0  -0.2207
  N  N328  1  0.796100  0.858800  0.853100  1.0  -0.1825
  N  N329  1  0.811400  0.790300  0.847500  1.0  -0.1185
  N  N330  1  0.742600  0.735600  0.841700  1.0  -0.2186
  N  N331  1  0.994900  0.860300  0.870700  1.0  -0.3174
  N  N332  1  0.967400  0.905700  0.900700  1.0  -0.0076
  N  N333  1  0.996400  0.904800  0.944800  1.0  -0.0115
  N  N334  1  0.044800  0.858600  0.946500  1.0  -0.3514
  N  N335  1  0.070200  0.158300  0.940700  1.0  -0.339
  N  N336  1  0.013700  0.088800  0.940100  1.0  -0.0164
  N  N337  1  0.979700  0.076600  0.895800  1.0  0.006
  N  N338  1  0.012000  0.136200  0.866400  1.0  -0.3069
  Cl  Cl339  1  0.205060  0.957000  0.156540  1.0  -0.4601
  Cl  Cl340  1  0.794940  0.543000  0.656540  1.0  -0.4599
  Cl  Cl341  1  0.794940  0.043000  0.843460  1.0  -0.4606
  Cl  Cl342  1  0.205060  0.457000  0.343460  1.0  -0.4597
