# generated using pymatgen
data_CoPO4
_symmetry_space_group_name_H-M   'P 1'
_cell_length_a   14.71900000
_cell_length_b   14.73400000
_cell_length_c   17.89100000
_cell_angle_alpha   90.00000000
_cell_angle_beta   90.00000000
_cell_angle_gamma   90.02000000
_symmetry_Int_Tables_number   1
_chemical_formula_structural   CoPO4
_chemical_formula_sum   'Co32 P32 O128'
_cell_volume   3880.01638930
_cell_formula_units_Z   32
loop_
 _symmetry_equiv_pos_site_id
 _symmetry_equiv_pos_as_xyz
  1  'x, y, z'
loop_
 _atom_site_type_symbol
 _atom_site_label
 _atom_site_symmetry_multiplicity
 _atom_site_fract_x
 _atom_site_fract_y
 _atom_site_fract_z
 _atom_site_occupancy
 _atom_site_charge
  Co  Co1  1  0.994800  0.118600  0.331300  1.0  1.1126
  Co  Co2  1  0.013200  0.880400  0.172100  1.0  1.1278
  Co  Co3  1  0.368500  0.254000  0.422300  1.0  1.0115
  Co  Co4  1  0.870600  0.762400  0.418300  1.0  1.1404
  Co  Co5  1  0.494800  0.618600  0.831300  1.0  1.1126
  Co  Co6  1  0.513200  0.380400  0.672100  1.0  1.1278
  Co  Co7  1  0.868500  0.754000  0.922300  1.0  1.01
  Co  Co8  1  0.370600  0.262400  0.918300  1.0  1.1404
  Co  Co9  1  0.005200  0.381400  0.331300  1.0  1.1132
  Co  Co10  1  0.986800  0.619600  0.172100  1.0  1.1325
  Co  Co11  1  0.631500  0.246000  0.422300  1.0  1.0073
  Co  Co12  1  0.129400  0.737600  0.418300  1.0  1.1363
  Co  Co13  1  0.505200  0.881400  0.831300  1.0  1.1132
  Co  Co14  1  0.486800  0.119600  0.672100  1.0  1.1325
  Co  Co15  1  0.131500  0.746000  0.922300  1.0  1.0073
  Co  Co16  1  0.629400  0.237600  0.918300  1.0  1.1363
  Co  Co17  1  0.005200  0.881400  0.668700  1.0  1.1131
  Co  Co18  1  0.986800  0.119600  0.827900  1.0  1.1318
  Co  Co19  1  0.631500  0.746000  0.577700  1.0  1.0084
  Co  Co20  1  0.129400  0.237600  0.581700  1.0  1.1359
  Co  Co21  1  0.505200  0.381400  0.168700  1.0  1.1131
  Co  Co22  1  0.486800  0.619600  0.327900  1.0  1.1318
  Co  Co23  1  0.131500  0.246000  0.077700  1.0  1.0084
  Co  Co24  1  0.629400  0.737600  0.081700  1.0  1.1359
  Co  Co25  1  0.994800  0.618600  0.668700  1.0  1.1126
  Co  Co26  1  0.013200  0.380400  0.827900  1.0  1.1274
  Co  Co27  1  0.368500  0.754000  0.577700  1.0  1.0094
  Co  Co28  1  0.870600  0.262400  0.581700  1.0  1.1398
  Co  Co29  1  0.494800  0.118600  0.168700  1.0  1.1126
  Co  Co30  1  0.513200  0.880400  0.327900  1.0  1.1274
  Co  Co31  1  0.868500  0.254000  0.077700  1.0  1.0094
  Co  Co32  1  0.370600  0.762400  0.081700  1.0  1.1398
  P  P33  1  0.147900  0.246000  0.400100  1.0  1.6787
  P  P34  1  0.003000  0.899200  0.352300  1.0  1.746
  P  P35  1  0.988500  0.102200  0.149900  1.0  1.7986
  P  P36  1  0.850600  0.761200  0.102700  1.0  1.7051
  P  P37  1  0.647900  0.746000  0.900100  1.0  1.6787
  P  P38  1  0.503000  0.399200  0.852300  1.0  1.7459
  P  P39  1  0.488500  0.602200  0.649900  1.0  1.7986
  P  P40  1  0.350600  0.261200  0.602700  1.0  1.7051
  P  P41  1  0.852100  0.254000  0.400100  1.0  1.6775
  P  P42  1  0.997000  0.600800  0.352300  1.0  1.7459
  P  P43  1  0.011500  0.397800  0.149900  1.0  1.7983
  P  P44  1  0.149400  0.738800  0.102700  1.0  1.7092
  P  P45  1  0.352100  0.754000  0.900100  1.0  1.6776
  P  P46  1  0.497000  0.100800  0.852300  1.0  1.7459
  P  P47  1  0.511500  0.897800  0.649900  1.0  1.7983
  P  P48  1  0.649400  0.238800  0.602700  1.0  1.7092
  P  P49  1  0.852100  0.754000  0.599900  1.0  1.6779
  P  P50  1  0.997000  0.100800  0.647700  1.0  1.7455
  P  P51  1  0.011500  0.897800  0.850100  1.0  1.7983
  P  P52  1  0.149400  0.238800  0.897300  1.0  1.7066
  P  P53  1  0.352100  0.254000  0.099900  1.0  1.6777
  P  P54  1  0.497000  0.600800  0.147700  1.0  1.7455
  P  P55  1  0.511500  0.397800  0.350100  1.0  1.7983
  P  P56  1  0.649400  0.738800  0.397300  1.0  1.7088
  P  P57  1  0.147900  0.746000  0.599900  1.0  1.6786
  P  P58  1  0.003000  0.399200  0.647700  1.0  1.7453
  P  P59  1  0.988500  0.602200  0.850100  1.0  1.7986
  P  P60  1  0.850600  0.261200  0.897300  1.0  1.7118
  P  P61  1  0.647900  0.246000  0.099900  1.0  1.6786
  P  P62  1  0.503000  0.899200  0.147700  1.0  1.7453
  P  P63  1  0.488500  0.102200  0.350100  1.0  1.7986
  P  P64  1  0.350600  0.761200  0.397300  1.0  1.7118
  O  O65  1  0.985800  0.999200  0.375900  1.0  -0.6837
  O  O66  1  0.904800  0.869100  0.356400  1.0  -0.6706
  O  O67  1  0.750000  0.768900  0.125100  1.0  -0.7023
  O  O68  1  0.112100  0.176200  0.342000  1.0  -0.6805
  O  O69  1  0.144900  0.199600  0.479400  1.0  -0.7387
  O  O70  1  0.056900  0.845400  0.413300  1.0  -0.7385
  O  O71  1  0.950200  0.101500  0.228100  1.0  -0.7343
  O  O72  1  0.901000  0.816100  0.160800  1.0  -0.7541
  O  O73  1  0.012200  0.002800  0.128000  1.0  -0.6799
  O  O74  1  0.247100  0.262100  0.377200  1.0  -0.665
  O  O75  1  0.880000  0.659200  0.111900  1.0  -0.6615
  O  O76  1  0.869200  0.796300  0.026700  1.0  -0.7321
  O  O77  1  0.916500  0.133200  0.094300  1.0  -0.6888
  O  O78  1  0.095800  0.333400  0.401200  1.0  -0.6794
  O  O79  1  0.074300  0.158400  0.145700  1.0  -0.7392
  O  O80  1  0.047500  0.878800  0.274900  1.0  -0.7724
  O  O81  1  0.485800  0.499200  0.875900  1.0  -0.6839
  O  O82  1  0.404800  0.369100  0.856400  1.0  -0.6706
  O  O83  1  0.250000  0.268900  0.625100  1.0  -0.7023
  O  O84  1  0.612100  0.676200  0.842000  1.0  -0.6804
  O  O85  1  0.644900  0.699600  0.979400  1.0  -0.7388
  O  O86  1  0.556900  0.345400  0.913300  1.0  -0.7385
  O  O87  1  0.450200  0.601500  0.728100  1.0  -0.7343
  O  O88  1  0.401000  0.316100  0.660800  1.0  -0.7541
  O  O89  1  0.512200  0.502800  0.628000  1.0  -0.6799
  O  O90  1  0.747100  0.762100  0.877200  1.0  -0.665
  O  O91  1  0.380000  0.159200  0.611900  1.0  -0.6615
  O  O92  1  0.369200  0.296300  0.526700  1.0  -0.7321
  O  O93  1  0.416500  0.633200  0.594300  1.0  -0.6888
  O  O94  1  0.595800  0.833400  0.901200  1.0  -0.6794
  O  O95  1  0.574300  0.658400  0.645700  1.0  -0.7392
  O  O96  1  0.547500  0.378800  0.774900  1.0  -0.7724
  O  O97  1  0.014200  0.500800  0.375900  1.0  -0.6831
  O  O98  1  0.095200  0.630900  0.356400  1.0  -0.6735
  O  O99  1  0.250000  0.731100  0.125100  1.0  -0.7011
  O  O100  1  0.887900  0.323800  0.342000  1.0  -0.6797
  O  O101  1  0.855100  0.300400  0.479400  1.0  -0.7406
  O  O102  1  0.943100  0.654600  0.413300  1.0  -0.7395
  O  O103  1  0.049800  0.398500  0.228100  1.0  -0.7346
  O  O104  1  0.099000  0.683900  0.160800  1.0  -0.7535
  O  O105  1  0.987800  0.497200  0.128000  1.0  -0.6802
  O  O106  1  0.752900  0.237900  0.377200  1.0  -0.6658
  O  O107  1  0.120000  0.840800  0.111900  1.0  -0.6616
  O  O108  1  0.130800  0.703700  0.026700  1.0  -0.7314
  O  O109  1  0.083500  0.366800  0.094300  1.0  -0.689
  O  O110  1  0.904200  0.166600  0.401200  1.0  -0.6807
  O  O111  1  0.925700  0.341600  0.145700  1.0  -0.7376
  O  O112  1  0.952500  0.621200  0.274900  1.0  -0.7716
  O  O113  1  0.514200  0.000800  0.875900  1.0  -0.6831
  O  O114  1  0.595200  0.130900  0.856400  1.0  -0.6735
  O  O115  1  0.750000  0.231100  0.625100  1.0  -0.7013
  O  O116  1  0.387900  0.823800  0.842000  1.0  -0.6796
  O  O117  1  0.355100  0.800400  0.979400  1.0  -0.7407
  O  O118  1  0.443100  0.154600  0.913300  1.0  -0.7398
  O  O119  1  0.549800  0.898500  0.728100  1.0  -0.7346
  O  O120  1  0.599000  0.183900  0.660800  1.0  -0.7535
  O  O121  1  0.487800  0.997200  0.628000  1.0  -0.6802
  O  O122  1  0.252900  0.737900  0.877200  1.0  -0.6658
  O  O123  1  0.620000  0.340800  0.611900  1.0  -0.6616
  O  O124  1  0.630800  0.203700  0.526700  1.0  -0.7314
  O  O125  1  0.583500  0.866800  0.594300  1.0  -0.689
  O  O126  1  0.404200  0.666667  0.901200  1.0  -0.6801
  O  O127  1  0.425700  0.841600  0.645700  1.0  -0.7376
  O  O128  1  0.452500  0.121200  0.774900  1.0  -0.7716
  O  O129  1  0.014200  0.000800  0.624100  1.0  -0.6808
  O  O130  1  0.095200  0.130900  0.643600  1.0  -0.6741
  O  O131  1  0.250000  0.231100  0.874900  1.0  -0.6993
  O  O132  1  0.887900  0.823800  0.658000  1.0  -0.6814
  O  O133  1  0.855100  0.800400  0.520600  1.0  -0.7412
  O  O134  1  0.943100  0.154600  0.586700  1.0  -0.7386
  O  O135  1  0.049800  0.898500  0.771900  1.0  -0.7341
  O  O136  1  0.099000  0.183900  0.839200  1.0  -0.7524
  O  O137  1  0.987800  0.997200  0.872000  1.0  -0.682
  O  O138  1  0.752900  0.737900  0.622800  1.0  -0.6671
  O  O139  1  0.120000  0.340800  0.888100  1.0  -0.6617
  O  O140  1  0.130800  0.203700  0.973300  1.0  -0.731
  O  O141  1  0.083500  0.866800  0.905700  1.0  -0.6888
  O  O142  1  0.904200  0.666667  0.598800  1.0  -0.6793
  O  O143  1  0.925700  0.841600  0.854300  1.0  -0.7371
  O  O144  1  0.952500  0.121200  0.725100  1.0  -0.7715
  O  O145  1  0.514200  0.500800  0.124100  1.0  -0.6808
  O  O146  1  0.595200  0.630900  0.143600  1.0  -0.6741
  O  O147  1  0.750000  0.731100  0.374900  1.0  -0.6991
  O  O148  1  0.387900  0.323800  0.158000  1.0  -0.6815
  O  O149  1  0.355100  0.300400  0.020600  1.0  -0.7411
  O  O150  1  0.443100  0.654600  0.086700  1.0  -0.7386
  O  O151  1  0.549800  0.398500  0.271900  1.0  -0.7341
  O  O152  1  0.599000  0.683900  0.339200  1.0  -0.7524
  O  O153  1  0.487800  0.497200  0.372000  1.0  -0.682
  O  O154  1  0.252900  0.237900  0.122800  1.0  -0.6671
  O  O155  1  0.620000  0.840800  0.388100  1.0  -0.6617
  O  O156  1  0.630800  0.703700  0.473300  1.0  -0.731
  O  O157  1  0.583500  0.366800  0.405700  1.0  -0.6888
  O  O158  1  0.404200  0.166600  0.098800  1.0  -0.68
  O  O159  1  0.425700  0.341600  0.354300  1.0  -0.7371
  O  O160  1  0.452500  0.621200  0.225100  1.0  -0.7715
  O  O161  1  0.985800  0.499200  0.624100  1.0  -0.6818
  O  O162  1  0.904800  0.369100  0.643600  1.0  -0.6709
  O  O163  1  0.750000  0.268900  0.874900  1.0  -0.7006
  O  O164  1  0.112100  0.676200  0.658000  1.0  -0.6815
  O  O165  1  0.144900  0.699600  0.520600  1.0  -0.7395
  O  O166  1  0.056900  0.345400  0.586700  1.0  -0.7373
  O  O167  1  0.950200  0.601500  0.771900  1.0  -0.7341
  O  O168  1  0.901000  0.316100  0.839200  1.0  -0.7528
  O  O169  1  0.012200  0.502800  0.872000  1.0  -0.6815
  O  O170  1  0.247100  0.762100  0.622800  1.0  -0.6666
  O  O171  1  0.880000  0.159200  0.888100  1.0  -0.6611
  O  O172  1  0.869200  0.296300  0.973300  1.0  -0.732
  O  O173  1  0.916500  0.633200  0.905700  1.0  -0.6882
  O  O174  1  0.095800  0.833400  0.598800  1.0  -0.679
  O  O175  1  0.074300  0.658400  0.854300  1.0  -0.7389
  O  O176  1  0.047500  0.378800  0.725100  1.0  -0.7714
  O  O177  1  0.485800  0.999200  0.124100  1.0  -0.6817
  O  O178  1  0.404800  0.869100  0.143600  1.0  -0.6709
  O  O179  1  0.250000  0.768900  0.374900  1.0  -0.7006
  O  O180  1  0.612100  0.176200  0.158000  1.0  -0.6815
  O  O181  1  0.644900  0.199600  0.020600  1.0  -0.7394
  O  O182  1  0.556900  0.845400  0.086700  1.0  -0.7373
  O  O183  1  0.450200  0.101500  0.271900  1.0  -0.7341
  O  O184  1  0.401000  0.816100  0.339200  1.0  -0.7528
  O  O185  1  0.512200  0.002800  0.372000  1.0  -0.6815
  O  O186  1  0.747100  0.262100  0.122800  1.0  -0.6666
  O  O187  1  0.380000  0.659200  0.388100  1.0  -0.6611
  O  O188  1  0.369200  0.796300  0.473300  1.0  -0.732
  O  O189  1  0.416500  0.133200  0.405700  1.0  -0.6882
  O  O190  1  0.595800  0.333400  0.098800  1.0  -0.679
  O  O191  1  0.574300  0.158400  0.354300  1.0  -0.7389
  O  O192  1  0.547500  0.878800  0.225100  1.0  -0.7714
