# generated using pymatgen
data_Fe(C8N5)2
_symmetry_space_group_name_H-M   'P 1'
_cell_length_a   11.14000000
_cell_length_b   11.49700000
_cell_length_c   16.85400000
_cell_angle_alpha   90.00000000
_cell_angle_beta   90.00000000
_cell_angle_gamma   90.00000000
_symmetry_Int_Tables_number   1
_chemical_formula_structural   Fe(C8N5)2
_chemical_formula_sum   'Fe4 C64 N40'
_cell_volume   2158.60267932
_cell_formula_units_Z   4
loop_
 _symmetry_equiv_pos_site_id
 _symmetry_equiv_pos_as_xyz
  1  'x, y, z'
loop_
 _atom_site_type_symbol
 _atom_site_label
 _atom_site_symmetry_multiplicity
 _atom_site_fract_x
 _atom_site_fract_y
 _atom_site_fract_z
 _atom_site_occupancy
 _atom_site_charge
  Fe  Fe1  1  0.000000  0.000000  0.000000  1.0  0.6417
  Fe  Fe2  1  0.500000  0.000000  0.500000  1.0  0.6417
  Fe  Fe3  1  0.000000  0.500000  0.500000  1.0  0.6417
  Fe  Fe4  1  0.500000  0.500000  0.000000  1.0  0.6417
  C  C5  1  0.177400  0.066500  0.247200  1.0  -0.2394
  C  C6  1  0.130200  0.147600  0.298300  1.0  0.1506
  C  C7  1  0.169400  0.181200  0.374100  1.0  -0.2909
  C  C8  1  0.125000  0.047300  0.169900  1.0  0.3893
  C  C9  1  0.281600  0.999300  0.263900  1.0  0.3628
  C  C10  1  0.017900  0.202100  0.271200  1.0  0.2944
  C  C11  1  0.770900  0.130700  0.087600  1.0  0.3877
  C  C12  1  0.112000  0.229700  0.916200  1.0  0.4018
  C  C13  1  0.322600  0.933500  0.747200  1.0  -0.2391
  C  C14  1  0.369800  0.852400  0.798300  1.0  0.1504
  C  C15  1  0.330600  0.818800  0.874100  1.0  -0.2907
  C  C16  1  0.375000  0.952700  0.669900  1.0  0.3902
  C  C17  1  0.218400  0.000700  0.763900  1.0  0.3627
  C  C18  1  0.482100  0.797900  0.771200  1.0  0.2947
  C  C19  1  0.729100  0.869300  0.587600  1.0  0.3878
  C  C20  1  0.388000  0.770300  0.416200  1.0  0.402
  C  C21  1  0.822600  0.566500  0.252800  1.0  -0.2389
  C  C22  1  0.869800  0.647600  0.201700  1.0  0.1504
  C  C23  1  0.830600  0.681200  0.125900  1.0  -0.2907
  C  C24  1  0.875000  0.547300  0.330100  1.0  0.391
  C  C25  1  0.718400  0.499300  0.236100  1.0  0.3639
  C  C26  1  0.982100  0.702100  0.228800  1.0  0.2945
  C  C27  1  0.229100  0.630700  0.412400  1.0  0.3878
  C  C28  1  0.888000  0.729700  0.583800  1.0  0.4023
  C  C29  1  0.677400  0.433500  0.752800  1.0  -0.2392
  C  C30  1  0.630200  0.352400  0.701700  1.0  0.1505
  C  C31  1  0.669400  0.318800  0.625900  1.0  -0.2908
  C  C32  1  0.625000  0.452700  0.830100  1.0  0.3907
  C  C33  1  0.781600  0.500700  0.736100  1.0  0.3606
  C  C34  1  0.517900  0.297900  0.728800  1.0  0.2949
  C  C35  1  0.270900  0.369300  0.912400  1.0  0.3877
  C  C36  1  0.612000  0.270300  0.083800  1.0  0.4023
  C  C37  1  0.822600  0.933500  0.752800  1.0  -0.2389
  C  C38  1  0.869800  0.852400  0.701700  1.0  0.1503
  C  C39  1  0.830600  0.818800  0.625900  1.0  -0.2908
  C  C40  1  0.875000  0.952700  0.830100  1.0  0.3914
  C  C41  1  0.718400  0.000700  0.736100  1.0  0.3616
  C  C42  1  0.982100  0.797900  0.728800  1.0  0.295
  C  C43  1  0.229100  0.869300  0.912400  1.0  0.3883
  C  C44  1  0.888000  0.770300  0.083800  1.0  0.4024
  C  C45  1  0.677400  0.066500  0.252800  1.0  -0.2387
  C  C46  1  0.630200  0.147600  0.201700  1.0  0.1506
  C  C47  1  0.669400  0.181200  0.125900  1.0  -0.2912
  C  C48  1  0.625000  0.047300  0.330100  1.0  0.3904
  C  C49  1  0.781600  0.999300  0.236100  1.0  0.3622
  C  C50  1  0.517900  0.202100  0.228800  1.0  0.2946
  C  C51  1  0.270900  0.130700  0.412400  1.0  0.3879
  C  C52  1  0.612000  0.229700  0.583800  1.0  0.4021
  C  C53  1  0.177400  0.433500  0.747200  1.0  -0.2388
  C  C54  1  0.130200  0.352400  0.798300  1.0  0.1506
  C  C55  1  0.169400  0.318800  0.874100  1.0  -0.2914
  C  C56  1  0.125000  0.452700  0.669900  1.0  0.3896
  C  C57  1  0.281600  0.500700  0.763900  1.0  0.3612
  C  C58  1  0.017900  0.297900  0.771200  1.0  0.2948
  C  C59  1  0.770900  0.369300  0.587600  1.0  0.3879
  C  C60  1  0.112000  0.270300  0.416200  1.0  0.4018
  C  C61  1  0.322600  0.566500  0.247200  1.0  -0.2391
  C  C62  1  0.369800  0.647600  0.298300  1.0  0.1504
  C  C63  1  0.330600  0.681200  0.374100  1.0  -0.2908
  C  C64  1  0.375000  0.547300  0.169900  1.0  0.3899
  C  C65  1  0.218400  0.499300  0.263900  1.0  0.3637
  C  C66  1  0.482100  0.702100  0.271200  1.0  0.2942
  C  C67  1  0.729100  0.630700  0.087600  1.0  0.3883
  C  C68  1  0.388000  0.729700  0.916200  1.0  0.402
  N  N69  1  0.090200  0.032500  0.107700  1.0  -0.3323
  N  N70  1  0.362100  0.942600  0.274400  1.0  -0.3965
  N  N71  1  0.930500  0.242700  0.252700  1.0  -0.3561
  N  N72  1  0.848600  0.089600  0.051700  1.0  -0.343
  N  N73  1  0.066800  0.158000  0.951800  1.0  -0.3494
  N  N74  1  0.409800  0.967500  0.607700  1.0  -0.3314
  N  N75  1  0.137900  0.057400  0.774400  1.0  -0.3972
  N  N76  1  0.569500  0.757300  0.752700  1.0  -0.3565
  N  N77  1  0.651400  0.910400  0.551700  1.0  -0.3451
  N  N78  1  0.433200  0.842000  0.451800  1.0  -0.3489
  N  N79  1  0.909800  0.532500  0.392300  1.0  -0.3316
  N  N80  1  0.637900  0.442600  0.225600  1.0  -0.3966
  N  N81  1  0.069500  0.742700  0.247300  1.0  -0.357
  N  N82  1  0.151400  0.589600  0.448300  1.0  -0.3455
  N  N83  1  0.933200  0.658000  0.548200  1.0  -0.3485
  N  N84  1  0.590200  0.467500  0.892300  1.0  -0.3333
  N  N85  1  0.862100  0.557400  0.725600  1.0  -0.3975
  N  N86  1  0.430500  0.257300  0.747300  1.0  -0.3564
  N  N87  1  0.348600  0.410400  0.948300  1.0  -0.3428
  N  N88  1  0.566800  0.342000  0.048200  1.0  -0.3492
  N  N89  1  0.909800  0.967500  0.892300  1.0  -0.3316
  N  N90  1  0.637900  0.057400  0.725600  1.0  -0.3975
  N  N91  1  0.069500  0.757300  0.747300  1.0  -0.3568
  N  N92  1  0.151400  0.910400  0.948300  1.0  -0.3449
  N  N93  1  0.933200  0.842000  0.048200  1.0  -0.3489
  N  N94  1  0.590200  0.032500  0.392300  1.0  -0.3332
  N  N95  1  0.862100  0.942600  0.225600  1.0  -0.3964
  N  N96  1  0.430500  0.242700  0.247300  1.0  -0.3564
  N  N97  1  0.348600  0.089600  0.448300  1.0  -0.3432
  N  N98  1  0.566800  0.158000  0.548200  1.0  -0.3488
  N  N99  1  0.090200  0.467500  0.607700  1.0  -0.3327
  N  N100  1  0.362100  0.557400  0.774400  1.0  -0.3971
  N  N101  1  0.930500  0.257300  0.752700  1.0  -0.3562
  N  N102  1  0.848600  0.410400  0.551700  1.0  -0.3432
  N  N103  1  0.066800  0.342000  0.451800  1.0  -0.3493
  N  N104  1  0.409800  0.532500  0.107700  1.0  -0.3312
  N  N105  1  0.137900  0.442600  0.274400  1.0  -0.3967
  N  N106  1  0.569500  0.742700  0.252700  1.0  -0.3566
  N  N107  1  0.651400  0.589600  0.051700  1.0  -0.3453
  N  N108  1  0.433200  0.658000  0.951800  1.0  -0.3488
