# generated using pymatgen
data_PrH13(C3N2)4
_symmetry_space_group_name_H-M   'P 1'
_cell_length_a   14.00400000
_cell_length_b   23.29200000
_cell_length_c   23.47900000
_cell_angle_alpha   107.51000000
_cell_angle_beta   90.00000000
_cell_angle_gamma   90.00000000
_symmetry_Int_Tables_number   1
_chemical_formula_structural   PrH13(C3N2)4
_chemical_formula_sum   'Pr16 H208 C192 N128'
_cell_volume   7303.55113739
_cell_formula_units_Z   16
loop_
 _symmetry_equiv_pos_site_id
 _symmetry_equiv_pos_as_xyz
  1  'x, y, z'
loop_
 _atom_site_type_symbol
 _atom_site_label
 _atom_site_symmetry_multiplicity
 _atom_site_fract_x
 _atom_site_fract_y
 _atom_site_fract_z
 _atom_site_occupancy
 _atom_site_charge
  Pr  Pr1  1  0.203460  0.511000  0.773650  1.0  2.1657
  Pr  Pr2  1  0.858460  0.742630  0.790050  1.0  2.196
  Pr  Pr3  1  0.942110  0.252490  0.708120  1.0  2.2064
  Pr  Pr4  1  0.299370  0.276520  0.503590  1.0  2.1954
  Pr  Pr5  1  0.703460  0.989000  0.726350  1.0  2.1661
  Pr  Pr6  1  0.358460  0.757370  0.709950  1.0  2.1962
  Pr  Pr7  1  0.442110  0.247510  0.791880  1.0  2.2062
  Pr  Pr8  1  0.799370  0.223480  0.996410  1.0  2.1955
  Pr  Pr9  1  0.796540  0.489000  0.226350  1.0  2.1663
  Pr  Pr10  1  0.141540  0.257370  0.209950  1.0  2.1957
  Pr  Pr11  1  0.057890  0.747510  0.291880  1.0  2.206
  Pr  Pr12  1  0.700630  0.723480  0.496410  1.0  2.1957
  Pr  Pr13  1  0.296540  0.011000  0.273650  1.0  2.1659
  Pr  Pr14  1  0.641540  0.242630  0.290050  1.0  2.1955
  Pr  Pr15  1  0.557890  0.752490  0.208120  1.0  2.2062
  Pr  Pr16  1  0.200630  0.776520  0.003590  1.0  2.1957
  H  H17  1  0.031000  0.640200  0.832800  1.0  0.0467
  H  H18  1  0.055300  0.544500  0.663600  1.0  0.0696
  H  H19  1  0.913000  0.608900  0.673700  1.0  0.0696
  H  H20  1  0.232000  0.645000  0.747300  1.0  0.0583
  H  H21  1  0.342800  0.506300  0.628100  1.0  0.0575
  H  H22  1  0.401800  0.596500  0.605900  1.0  0.0815
  H  H23  1  0.108700  0.371000  0.771700  1.0  0.0449
  H  H24  1  0.935000  0.504300  0.773600  1.0  0.0633
  H  H25  1  0.845700  0.408500  0.734700  1.0  0.0696
  H  H26  1  0.366800  0.376700  0.744800  1.0  0.0475
  H  H27  1  0.222400  0.445100  0.894000  1.0  0.0684
  H  H28  1  0.331000  0.367800  0.908600  1.0  0.0548
  H  H29  1  0.319100  0.394900  0.651800  1.0  0.0609
  H  H30  1  0.557600  0.626300  0.823700  1.0  0.2314
  H  H31  1  0.048000  0.437100  0.648500  1.0  0.0643
  H  H32  1  0.091900  0.367000  0.549600  1.0  0.0712
  H  H33  1  0.269300  0.638200  0.889400  1.0  0.058
  H  H34  1  0.043100  0.547400  0.908400  1.0  0.0687
  H  H35  1  0.037400  0.647700  0.984700  1.0  0.0725
  H  H36  1  0.414600  0.601900  0.762200  1.0  0.0457
  H  H37  1  0.401900  0.513300  0.880900  1.0  0.0565
  H  H38  1  0.554500  0.572000  0.899100  1.0  0.085
  H  H39  1  0.631500  0.690600  0.961700  1.0  0.0667
  H  H40  1  0.595600  0.804900  0.769700  1.0  0.0494
  H  H41  1  0.700400  0.638800  0.728400  1.0  0.0727
  H  H42  1  0.532800  0.632500  0.695400  1.0  0.0752
  H  H43  1  0.728900  0.764500  0.661000  1.0  0.0638
  H  H44  1  0.995700  0.707300  0.645200  1.0  0.0612
  H  H45  1  0.945100  0.713000  0.546800  1.0  0.0706
  H  H46  1  0.071800  0.766600  0.884000  1.0  0.0507
  H  H47  1  0.810900  0.797100  0.949800  1.0  0.0709
  H  H48  1  0.848500  0.364100  0.541500  1.0  0.2302
  H  H49  1  0.922200  0.797400  0.031400  1.0  0.0848
  H  H50  1  0.635700  0.727000  0.874400  1.0  0.0691
  H  H51  1  0.323000  0.456000  0.391500  1.0  0.2251
  H  H52  1  0.871200  0.631000  0.871200  1.0  0.0682
  H  H53  1  0.774100  0.630600  0.957800  1.0  0.2597
  H  H54  1  0.703300  0.195900  0.714200  1.0  0.0535
  H  H55  1  0.768100  0.363900  0.800100  1.0  0.0609
  H  H56  1  0.598300  0.350600  0.816700  1.0  0.0691
  H  H57  1  0.829400  0.283700  0.862500  1.0  0.0623
  H  H58  1  0.045200  0.171600  0.803000  1.0  0.0782
  H  H59  1  0.986000  0.156400  0.896700  1.0  0.0836
  H  H60  1  0.151200  0.274000  0.633000  1.0  0.0384
  H  H61  1  0.965900  0.155400  0.541500  1.0  0.0616
  H  H62  1  0.091500  0.166300  0.470600  1.0  0.0692
  H  H63  1  0.954900  0.304300  0.577700  1.0  0.0494
  H  H64  1  0.707400  0.307000  0.657600  1.0  0.0555
  H  H65  1  0.694800  0.372300  0.593200  1.0  0.0845
  H  H66  1  0.250100  0.361800  0.391400  1.0  0.0452
  H  H67  1  0.414200  0.425700  0.537400  1.0  0.0822
  H  H68  1  0.412700  0.499200  0.479900  1.0  0.0662
  H  H69  1  0.531000  0.859800  0.667200  1.0  0.0468
  H  H70  1  0.555300  0.955500  0.836400  1.0  0.0705
  H  H71  1  0.413000  0.891100  0.826300  1.0  0.0694
  H  H72  1  0.732000  0.855000  0.752700  1.0  0.0581
  H  H73  1  0.842800  0.993700  0.871900  1.0  0.0587
  H  H74  1  0.901800  0.903500  0.894100  1.0  0.0813
  H  H75  1  0.608700  0.129000  0.728300  1.0  0.0443
  H  H76  1  0.435000  0.995700  0.726400  1.0  0.0631
  H  H77  1  0.345700  0.091500  0.765300  1.0  0.0692
  H  H78  1  0.866800  0.123300  0.755200  1.0  0.0481
  H  H79  1  0.722400  0.054900  0.606000  1.0  0.0677
  H  H80  1  0.831000  0.132200  0.591400  1.0  0.0548
  H  H81  1  0.819100  0.105100  0.848200  1.0  0.0622
  H  H82  1  0.057600  0.873700  0.676300  1.0  0.2312
  H  H83  1  0.548000  0.062900  0.851500  1.0  0.0642
  H  H84  1  0.591900  0.133000  0.950400  1.0  0.0712
  H  H85  1  0.769300  0.861800  0.610600  1.0  0.0582
  H  H86  1  0.543100  0.952600  0.591600  1.0  0.0689
  H  H87  1  0.537400  0.852300  0.515300  1.0  0.0717
  H  H88  1  0.914600  0.898100  0.737800  1.0  0.0451
  H  H89  1  0.901900  0.986700  0.619100  1.0  0.0557
  H  H90  1  0.054500  0.928000  0.600900  1.0  0.0854
  H  H91  1  0.131500  0.809400  0.538300  1.0  0.0665
  H  H92  1  0.095600  0.695100  0.730300  1.0  0.0495
  H  H93  1  0.200400  0.861200  0.771600  1.0  0.0724
  H  H94  1  0.032800  0.867500  0.804600  1.0  0.0755
  H  H95  1  0.228900  0.735500  0.839000  1.0  0.0638
  H  H96  1  0.495700  0.792700  0.854800  1.0  0.0611
  H  H97  1  0.445100  0.787000  0.953200  1.0  0.0711
  H  H98  1  0.571800  0.733400  0.616000  1.0  0.0516
  H  H99  1  0.310900  0.702900  0.550200  1.0  0.071
  H  H100  1  0.348500  0.135900  0.958500  1.0  0.2306
  H  H101  1  0.422200  0.702600  0.468600  1.0  0.0833
  H  H102  1  0.135700  0.773000  0.625600  1.0  0.068
  H  H103  1  0.823000  0.044000  0.108500  1.0  0.226
  H  H104  1  0.371200  0.869000  0.628800  1.0  0.0685
  H  H105  1  0.274100  0.869400  0.542200  1.0  0.2598
  H  H106  1  0.203300  0.304100  0.785800  1.0  0.0533
  H  H107  1  0.268100  0.136100  0.699900  1.0  0.0606
  H  H108  1  0.098300  0.149400  0.683300  1.0  0.0688
  H  H109  1  0.329400  0.216300  0.637500  1.0  0.0618
  H  H110  1  0.545200  0.328400  0.697000  1.0  0.0783
  H  H111  1  0.486000  0.343600  0.603300  1.0  0.0824
  H  H112  1  0.651200  0.226000  0.867000  1.0  0.0387
  H  H113  1  0.465900  0.344600  0.958500  1.0  0.0629
  H  H114  1  0.591500  0.333700  0.029400  1.0  0.0694
  H  H115  1  0.454900  0.195700  0.922300  1.0  0.0497
  H  H116  1  0.207400  0.193000  0.842400  1.0  0.0552
  H  H117  1  0.194800  0.127700  0.906800  1.0  0.0848
  H  H118  1  0.750100  0.138200  0.108600  1.0  0.0444
  H  H119  1  0.914200  0.074300  0.962600  1.0  0.0827
  H  H120  1  0.912700  0.000800  0.020100  1.0  0.0661
  H  H121  1  0.969000  0.359800  0.167200  1.0  0.0468
  H  H122  1  0.944700  0.455500  0.336400  1.0  0.0707
  H  H123  1  0.087000  0.391100  0.326300  1.0  0.0695
  H  H124  1  0.768000  0.355000  0.252700  1.0  0.0582
  H  H125  1  0.657200  0.493700  0.371900  1.0  0.0589
  H  H126  1  0.598200  0.403500  0.394100  1.0  0.0817
  H  H127  1  0.891300  0.629000  0.228300  1.0  0.0449
  H  H128  1  0.065000  0.495700  0.226400  1.0  0.0634
  H  H129  1  0.154300  0.591500  0.265300  1.0  0.0693
  H  H130  1  0.633200  0.623300  0.255200  1.0  0.0484
  H  H131  1  0.777600  0.554900  0.106000  1.0  0.0667
  H  H132  1  0.669000  0.632200  0.091400  1.0  0.0548
  H  H133  1  0.680900  0.605100  0.348200  1.0  0.0609
  H  H134  1  0.442400  0.373700  0.176300  1.0  0.2316
  H  H135  1  0.952000  0.562900  0.351500  1.0  0.0627
  H  H136  1  0.908100  0.633000  0.450400  1.0  0.0716
  H  H137  1  0.730700  0.361800  0.110600  1.0  0.0588
  H  H138  1  0.956900  0.452600  0.091600  1.0  0.069
  H  H139  1  0.962600  0.352300  0.015300  1.0  0.072
  H  H140  1  0.585400  0.398100  0.237800  1.0  0.0454
  H  H141  1  0.598100  0.486700  0.119100  1.0  0.0553
  H  H142  1  0.445500  0.428000  0.100900  1.0  0.0854
  H  H143  1  0.368500  0.309400  0.038300  1.0  0.0666
  H  H144  1  0.404400  0.195100  0.230300  1.0  0.0495
  H  H145  1  0.299600  0.361200  0.271600  1.0  0.0721
  H  H146  1  0.467200  0.367500  0.304600  1.0  0.075
  H  H147  1  0.271100  0.235500  0.339000  1.0  0.0637
  H  H148  1  0.004300  0.292700  0.354800  1.0  0.0618
  H  H149  1  0.054900  0.287000  0.453200  1.0  0.0711
  H  H150  1  0.928200  0.233400  0.116000  1.0  0.0516
  H  H151  1  0.189100  0.202900  0.050200  1.0  0.0703
  H  H152  1  0.151500  0.635900  0.458500  1.0  0.2302
  H  H153  1  0.077800  0.202600  0.968600  1.0  0.084
  H  H154  1  0.364300  0.273000  0.125600  1.0  0.0683
  H  H155  1  0.677000  0.544000  0.608500  1.0  0.2255
  H  H156  1  0.128800  0.369000  0.128800  1.0  0.0682
  H  H157  1  0.225900  0.369400  0.042200  1.0  0.2603
  H  H158  1  0.296700  0.804100  0.285800  1.0  0.0532
  H  H159  1  0.231900  0.636100  0.199900  1.0  0.0604
  H  H160  1  0.401700  0.649400  0.183300  1.0  0.0692
  H  H161  1  0.170600  0.716300  0.137500  1.0  0.0619
  H  H162  1  0.954800  0.828400  0.197000  1.0  0.0783
  H  H163  1  0.014000  0.843600  0.103300  1.0  0.0828
  H  H164  1  0.848800  0.726000  0.367000  1.0  0.0383
  H  H165  1  0.034100  0.844600  0.458500  1.0  0.0625
  H  H166  1  0.908500  0.833700  0.529400  1.0  0.0697
  H  H167  1  0.045100  0.695700  0.422300  1.0  0.049
  H  H168  1  0.292600  0.693000  0.342400  1.0  0.055
  H  H169  1  0.305200  0.627700  0.406800  1.0  0.0847
  H  H170  1  0.749900  0.638200  0.608600  1.0  0.0442
  H  H171  1  0.585800  0.574300  0.462600  1.0  0.0822
  H  H172  1  0.587300  0.500800  0.520100  1.0  0.0658
  H  H173  1  0.469000  0.140200  0.332800  1.0  0.0467
  H  H174  1  0.444700  0.044500  0.163600  1.0  0.0696
  H  H175  1  0.587000  0.108900  0.173700  1.0  0.0697
  H  H176  1  0.268000  0.145000  0.247300  1.0  0.0578
  H  H177  1  0.157200  0.006300  0.128100  1.0  0.0578
  H  H178  1  0.098200  0.096500  0.105900  1.0  0.0817
  H  H179  1  0.391300  0.871000  0.271700  1.0  0.0451
  H  H180  1  0.565000  0.004300  0.273600  1.0  0.0636
  H  H181  1  0.654300  0.908500  0.234700  1.0  0.0696
  H  H182  1  0.133200  0.876700  0.244800  1.0  0.0477
  H  H183  1  0.277600  0.945100  0.394000  1.0  0.0677
  H  H184  1  0.169000  0.867800  0.408600  1.0  0.0551
  H  H185  1  0.180900  0.894900  0.151800  1.0  0.0629
  H  H186  1  0.942400  0.126300  0.323700  1.0  0.2318
  H  H187  1  0.452000  0.937100  0.148500  1.0  0.0629
  H  H188  1  0.408100  0.867000  0.049600  1.0  0.0712
  H  H189  1  0.230700  0.138200  0.389400  1.0  0.0584
  H  H190  1  0.456900  0.047400  0.408400  1.0  0.0685
  H  H191  1  0.462600  0.147700  0.484700  1.0  0.0726
  H  H192  1  0.085400  0.101900  0.262200  1.0  0.0457
  H  H193  1  0.098100  0.013300  0.380900  1.0  0.0565
  H  H194  1  0.945500  0.072000  0.399100  1.0  0.0854
  H  H195  1  0.868500  0.190600  0.461700  1.0  0.0668
  H  H196  1  0.904400  0.304900  0.269700  1.0  0.0491
  H  H197  1  0.799600  0.138800  0.228400  1.0  0.0728
  H  H198  1  0.967200  0.132500  0.195400  1.0  0.0752
  H  H199  1  0.771100  0.264500  0.161000  1.0  0.0635
  H  H200  1  0.504300  0.207300  0.145200  1.0  0.0617
  H  H201  1  0.554900  0.213000  0.046800  1.0  0.0705
  H  H202  1  0.428200  0.266600  0.384000  1.0  0.0509
  H  H203  1  0.689100  0.297100  0.449800  1.0  0.0702
  H  H204  1  0.651500  0.864100  0.041500  1.0  0.2303
  H  H205  1  0.577800  0.297400  0.531400  1.0  0.0847
  H  H206  1  0.864300  0.227000  0.374400  1.0  0.0688
  H  H207  1  0.177000  0.956000  0.891500  1.0  0.2243
  H  H208  1  0.628800  0.131000  0.371200  1.0  0.0676
  H  H209  1  0.725900  0.130600  0.457800  1.0  0.2604
  H  H210  1  0.796700  0.695900  0.214200  1.0  0.0531
  H  H211  1  0.731900  0.863900  0.300100  1.0  0.061
  H  H212  1  0.901700  0.850600  0.316700  1.0  0.0687
  H  H213  1  0.670600  0.783700  0.362500  1.0  0.0618
  H  H214  1  0.454800  0.671600  0.303000  1.0  0.078
  H  H215  1  0.514000  0.656400  0.396700  1.0  0.0835
  H  H216  1  0.348800  0.774000  0.133000  1.0  0.0382
  H  H217  1  0.534100  0.655400  0.041500  1.0  0.0618
  H  H218  1  0.408500  0.666300  0.970600  1.0  0.0695
  H  H219  1  0.545100  0.804300  0.077700  1.0  0.0487
  H  H220  1  0.792600  0.807000  0.157600  1.0  0.0555
  H  H221  1  0.805200  0.872300  0.093200  1.0  0.0844
  H  H222  1  0.249900  0.861800  0.891400  1.0  0.0448
  H  H223  1  0.085800  0.925700  0.037400  1.0  0.0822
  H  H224  1  0.087300  0.999200  0.979900  1.0  0.0661
  C  C225  1  0.018600  0.623600  0.791300  1.0  0.1673
  C  C226  1  0.032000  0.571400  0.699800  1.0  -0.0804
  C  C227  1  0.954400  0.607900  0.705500  1.0  -0.0264
  C  C228  1  0.267700  0.621200  0.714200  1.0  0.1591
  C  C229  1  0.327100  0.546400  0.650400  1.0  -0.002
  C  C230  1  0.359900  0.595800  0.637500  1.0  -0.0849
  C  C231  1  0.052900  0.392800  0.768000  1.0  0.233
  C  C232  1  0.960100  0.465300  0.768900  1.0  -0.0459
  C  C233  1  0.910400  0.412400  0.747600  1.0  -0.06
  C  C234  1  0.345300  0.385200  0.784800  1.0  0.2268
  C  C235  1  0.266600  0.422500  0.865200  1.0  -0.0467
  C  C236  1  0.326000  0.379200  0.873100  1.0  -0.0439
  C  C237  1  0.254900  0.396200  0.639100  1.0  0.2103
  C  C238  1  0.109400  0.419800  0.637900  1.0  -0.0374
  C  C239  1  0.133700  0.380200  0.582900  1.0  0.0099
  C  C240  1  0.210500  0.627900  0.904100  1.0  0.2194
  C  C241  1  0.089500  0.578300  0.913200  1.0  -0.039
  C  C242  1  0.086600  0.633900  0.955900  1.0  -0.0519
  C  C243  1  0.430200  0.587100  0.794600  1.0  0.1356
  C  C244  1  0.423700  0.539100  0.859000  1.0  -0.0448
  C  C245  1  0.508200  0.571300  0.869300  1.0  -0.0778
  C  C246  1  0.680800  0.683000  0.932600  1.0  -0.0565
  C  C247  1  0.600700  0.762400  0.754900  1.0  0.1761
  C  C248  1  0.659100  0.672300  0.732900  1.0  -0.0046
  C  C249  1  0.566700  0.668500  0.714500  1.0  -0.0462
  C  C250  1  0.789500  0.750300  0.644700  1.0  0.2027
  C  C251  1  0.934100  0.719500  0.636400  1.0  -0.0121
  C  C252  1  0.906400  0.722500  0.581600  1.0  -0.0434
  C  C253  1  0.019500  0.773500  0.911000  1.0  0.2147
  C  C254  1  0.877800  0.790500  0.945600  1.0  -0.0408
  C  C255  1  0.939300  0.790200  0.990700  1.0  -0.0492
  C  C256  1  0.683900  0.703500  0.885200  1.0  -0.0167
  C  C257  1  0.812200  0.651200  0.882900  1.0  0.1241
  C  C258  1  0.698900  0.236800  0.738000  1.0  0.1788
  C  C259  1  0.733800  0.327400  0.784000  1.0  -0.0304
  C  C260  1  0.640200  0.320200  0.793900  1.0  -0.0764
  C  C261  1  0.877200  0.254000  0.859900  1.0  0.2234
  C  C262  1  0.994100  0.192900  0.826800  1.0  -0.0744
  C  C263  1  0.961700  0.184900  0.878800  1.0  -0.0664
  C  C264  1  0.120300  0.245500  0.600600  1.0  0.2199
  C  C265  1  0.019900  0.181200  0.551400  1.0  -0.0499
  C  C266  1  0.089000  0.187300  0.512000  1.0  -0.0669
  C  C267  1  0.890100  0.312000  0.589500  1.0  0.1434
  C  C268  1  0.756900  0.314100  0.632900  1.0  -0.0382
  C  C269  1  0.749200  0.349500  0.597400  1.0  -0.1167
  C  C270  1  0.291300  0.386000  0.421200  1.0  0.1417
  C  C271  1  0.380700  0.421900  0.501200  1.0  -0.0871
  C  C272  1  0.381000  0.461400  0.468900  1.0  -0.0478
  C  C273  1  0.518600  0.876400  0.708700  1.0  0.1676
  C  C274  1  0.532000  0.928600  0.800200  1.0  -0.0809
  C  C275  1  0.454400  0.892100  0.794500  1.0  -0.0259
  C  C276  1  0.767700  0.878800  0.785800  1.0  0.1597
  C  C277  1  0.827100  0.953600  0.849600  1.0  -0.0022
  C  C278  1  0.859900  0.904200  0.862500  1.0  -0.0847
  C  C279  1  0.552900  0.107200  0.732000  1.0  0.2314
  C  C280  1  0.460100  0.034700  0.731100  1.0  -0.0463
  C  C281  1  0.410400  0.087600  0.752400  1.0  -0.0604
  C  C282  1  0.845300  0.114800  0.715200  1.0  0.2281
  C  C283  1  0.766600  0.077500  0.634800  1.0  -0.0443
  C  C284  1  0.826000  0.120800  0.626900  1.0  -0.0433
  C  C285  1  0.754900  0.103800  0.860900  1.0  0.2103
  C  C286  1  0.609400  0.080200  0.862100  1.0  -0.0368
  C  C287  1  0.633700  0.119800  0.917100  1.0  0.0117
  C  C288  1  0.710500  0.872100  0.595900  1.0  0.2191
  C  C289  1  0.589500  0.921700  0.586800  1.0  -0.0362
  C  C290  1  0.586600  0.866100  0.544100  1.0  -0.0502
  C  C291  1  0.930200  0.912900  0.705400  1.0  0.135
  C  C292  1  0.923700  0.960900  0.641000  1.0  -0.0457
  C  C293  1  0.008200  0.928700  0.630700  1.0  -0.0776
  C  C294  1  0.180800  0.817000  0.567400  1.0  -0.0581
  C  C295  1  0.100700  0.737600  0.745100  1.0  0.1759
  C  C296  1  0.159100  0.827700  0.767100  1.0  -0.0043
  C  C297  1  0.066700  0.831500  0.785500  1.0  -0.0456
  C  C298  1  0.289500  0.749700  0.855300  1.0  0.2026
  C  C299  1  0.434100  0.780500  0.863600  1.0  -0.0117
  C  C300  1  0.406400  0.777500  0.918400  1.0  -0.0427
  C  C301  1  0.519500  0.726500  0.589000  1.0  0.2147
  C  C302  1  0.377800  0.709500  0.554400  1.0  -0.0405
  C  C303  1  0.439300  0.709800  0.509300  1.0  -0.049
  C  C304  1  0.183900  0.796500  0.614800  1.0  -0.0169
  C  C305  1  0.312200  0.848800  0.617100  1.0  0.124
  C  C306  1  0.198900  0.263200  0.762000  1.0  0.1794
  C  C307  1  0.233800  0.172600  0.716000  1.0  -0.03
  C  C308  1  0.140200  0.179800  0.706100  1.0  -0.076
  C  C309  1  0.377200  0.246000  0.640100  1.0  0.2236
  C  C310  1  0.494100  0.307100  0.673200  1.0  -0.0743
  C  C311  1  0.461700  0.315100  0.621200  1.0  -0.0669
  C  C312  1  0.620300  0.254500  0.899400  1.0  0.2197
  C  C313  1  0.519900  0.318800  0.948600  1.0  -0.0498
  C  C314  1  0.589000  0.312700  0.988000  1.0  -0.0654
  C  C315  1  0.390100  0.188000  0.910500  1.0  0.1439
  C  C316  1  0.256900  0.185900  0.867100  1.0  -0.0378
  C  C317  1  0.249200  0.150500  0.902600  1.0  -0.1161
  C  C318  1  0.791300  0.114000  0.078800  1.0  0.1429
  C  C319  1  0.880700  0.078100  0.998800  1.0  -0.0871
  C  C320  1  0.881000  0.038600  0.031100  1.0  -0.047
  C  C321  1  0.981400  0.376400  0.208700  1.0  0.1685
  C  C322  1  0.968000  0.428600  0.300200  1.0  -0.0819
  C  C323  1  0.045600  0.392100  0.294500  1.0  -0.0241
  C  C324  1  0.732300  0.378800  0.285800  1.0  0.1596
  C  C325  1  0.672900  0.453600  0.349600  1.0  -0.003
  C  C326  1  0.640100  0.404200  0.362500  1.0  -0.0842
  C  C327  1  0.947100  0.607200  0.232000  1.0  0.2322
  C  C328  1  0.039900  0.534700  0.231100  1.0  -0.0467
  C  C329  1  0.089600  0.587600  0.252400  1.0  -0.0586
  C  C330  1  0.654700  0.614800  0.215200  1.0  0.2277
  C  C331  1  0.733400  0.577500  0.134800  1.0  -0.0442
  C  C332  1  0.674000  0.620800  0.126900  1.0  -0.0433
  C  C333  1  0.745100  0.603800  0.360900  1.0  0.2106
  C  C334  1  0.890600  0.580200  0.362100  1.0  -0.0367
  C  C335  1  0.866300  0.619800  0.417100  1.0  0.011
  C  C336  1  0.789500  0.372100  0.095900  1.0  0.2189
  C  C337  1  0.910500  0.421700  0.086800  1.0  -0.0371
  C  C338  1  0.913400  0.366100  0.044100  1.0  -0.0513
  C  C339  1  0.569800  0.412900  0.205400  1.0  0.1352
  C  C340  1  0.576300  0.460900  0.141000  1.0  -0.0445
  C  C341  1  0.491800  0.428700  0.130700  1.0  -0.0786
  C  C342  1  0.319200  0.317000  0.067400  1.0  -0.0577
  C  C343  1  0.399300  0.237600  0.245100  1.0  0.1758
  C  C344  1  0.340900  0.327700  0.267100  1.0  -0.0051
  C  C345  1  0.433300  0.331500  0.285500  1.0  -0.0449
  C  C346  1  0.210500  0.249700  0.355300  1.0  0.2015
  C  C347  1  0.065900  0.280500  0.363600  1.0  -0.012
  C  C348  1  0.093600  0.277500  0.418400  1.0  -0.0416
  C  C349  1  0.980500  0.226500  0.089000  1.0  0.2158
  C  C350  1  0.122200  0.209500  0.054400  1.0  -0.0408
  C  C351  1  0.060700  0.209800  0.009300  1.0  -0.0471
  C  C352  1  0.316100  0.296500  0.114800  1.0  -0.0172
  C  C353  1  0.187800  0.348800  0.117100  1.0  0.1242
  C  C354  1  0.301100  0.763200  0.262000  1.0  0.1794
  C  C355  1  0.266200  0.672600  0.216000  1.0  -0.0308
  C  C356  1  0.359800  0.679800  0.206100  1.0  -0.0754
  C  C357  1  0.122800  0.746000  0.140100  1.0  0.2226
  C  C358  1  0.005900  0.807100  0.173200  1.0  -0.0743
  C  C359  1  0.038300  0.815100  0.121200  1.0  -0.0673
  C  C360  1  0.879700  0.754500  0.399400  1.0  0.2203
  C  C361  1  0.980100  0.818800  0.448600  1.0  -0.0487
  C  C362  1  0.911000  0.812700  0.488000  1.0  -0.0651
  C  C363  1  0.109900  0.688000  0.410500  1.0  0.1423
  C  C364  1  0.243100  0.685900  0.367100  1.0  -0.0378
  C  C365  1  0.250800  0.650500  0.402600  1.0  -0.1149
  C  C366  1  0.708700  0.614000  0.578800  1.0  0.1425
  C  C367  1  0.619300  0.578100  0.498800  1.0  -0.0867
  C  C368  1  0.619000  0.538600  0.531100  1.0  -0.0481
  C  C369  1  0.481400  0.123600  0.291300  1.0  0.1681
  C  C370  1  0.468000  0.071400  0.199800  1.0  -0.0813
  C  C371  1  0.545600  0.107900  0.205500  1.0  -0.0254
  C  C372  1  0.232300  0.121200  0.214200  1.0  0.1598
  C  C373  1  0.172900  0.046400  0.150400  1.0  -0.0022
  C  C374  1  0.140100  0.095800  0.137500  1.0  -0.0843
  C  C375  1  0.447100  0.892800  0.268000  1.0  0.2333
  C  C376  1  0.539900  0.965300  0.268900  1.0  -0.0467
  C  C377  1  0.589600  0.912400  0.247600  1.0  -0.0587
  C  C378  1  0.154700  0.885200  0.284800  1.0  0.227
  C  C379  1  0.233400  0.922500  0.365200  1.0  -0.0444
  C  C380  1  0.174000  0.879200  0.373100  1.0  -0.0439
  C  C381  1  0.245100  0.896200  0.139100  1.0  0.2107
  C  C382  1  0.390600  0.919800  0.137900  1.0  -0.0368
  C  C383  1  0.366300  0.880200  0.082900  1.0  0.0087
  C  C384  1  0.289500  0.127900  0.404100  1.0  0.2191
  C  C385  1  0.410500  0.078300  0.413200  1.0  -0.0383
  C  C386  1  0.413400  0.133900  0.455900  1.0  -0.0518
  C  C387  1  0.069800  0.087100  0.294600  1.0  0.1355
  C  C388  1  0.076300  0.039100  0.359000  1.0  -0.0443
  C  C389  1  0.991800  0.071300  0.369300  1.0  -0.0785
  C  C390  1  0.819200  0.183000  0.432600  1.0  -0.0554
  C  C391  1  0.899300  0.262400  0.254900  1.0  0.1766
  C  C392  1  0.840900  0.172300  0.232900  1.0  -0.0046
  C  C393  1  0.933300  0.168500  0.214500  1.0  -0.0453
  C  C394  1  0.710500  0.250300  0.144700  1.0  0.2021
  C  C395  1  0.565900  0.219500  0.136400  1.0  -0.0121
  C  C396  1  0.593600  0.222500  0.081600  1.0  -0.0424
  C  C397  1  0.480500  0.273500  0.411000  1.0  0.2156
  C  C398  1  0.622200  0.290500  0.445600  1.0  -0.0405
  C  C399  1  0.560700  0.290200  0.490700  1.0  -0.0473
  C  C400  1  0.816100  0.203500  0.385200  1.0  -0.0167
  C  C401  1  0.687800  0.151200  0.382900  1.0  0.1256
  C  C402  1  0.801100  0.736800  0.238000  1.0  0.1788
  C  C403  1  0.766200  0.827400  0.284000  1.0  -0.032
  C  C404  1  0.859800  0.820200  0.293900  1.0  -0.0747
  C  C405  1  0.622800  0.754000  0.359900  1.0  0.2235
  C  C406  1  0.505900  0.692900  0.326800  1.0  -0.0744
  C  C407  1  0.538300  0.684900  0.378800  1.0  -0.0672
  C  C408  1  0.379700  0.745500  0.100600  1.0  0.2203
  C  C409  1  0.480100  0.681200  0.051400  1.0  -0.0499
  C  C410  1  0.411000  0.687300  0.012000  1.0  -0.0668
  C  C411  1  0.609900  0.812000  0.089500  1.0  0.1421
  C  C412  1  0.743100  0.814100  0.132900  1.0  -0.0382
  C  C413  1  0.750800  0.849500  0.097400  1.0  -0.1152
  C  C414  1  0.208700  0.886000  0.921200  1.0  0.1415
  C  C415  1  0.119300  0.921900  0.001200  1.0  -0.0873
  C  C416  1  0.119000  0.961400  0.968900  1.0  -0.049
  N  N417  1  0.071100  0.580400  0.755800  1.0  -0.4412
  N  N418  1  0.944600  0.642500  0.763000  1.0  -0.485
  N  N419  1  0.267300  0.561500  0.700400  1.0  -0.4483
  N  N420  1  0.318600  0.646900  0.681200  1.0  -0.4822
  N  N421  1  0.052300  0.453000  0.782500  1.0  -0.4962
  N  N422  1  0.971300  0.365300  0.748200  1.0  -0.4888
  N  N423  1  0.280500  0.428700  0.809000  1.0  -0.4889
  N  N424  1  0.377200  0.354700  0.821700  1.0  -0.4808
  N  N425  1  0.188000  0.430200  0.674600  1.0  -0.4832
  N  N426  1  0.224100  0.363600  0.583500  1.0  -0.4396
  N  N427  1  0.168100  0.574800  0.879800  1.0  -0.4455
  N  N428  1  0.164900  0.665800  0.950300  1.0  -0.4819
  N  N429  1  0.376600  0.550300  0.812600  1.0  -0.3525
  N  N430  1  0.512000  0.602000  0.828000  1.0  -0.3235
  N  N431  1  0.684000  0.730800  0.758600  1.0  -0.4493
  N  N432  1  0.530100  0.727100  0.728700  1.0  -0.4204
  N  N433  1  0.860500  0.736500  0.677100  1.0  -0.4896
  N  N434  1  0.813000  0.741700  0.585400  1.0  -0.4677
  N  N435  1  0.928300  0.779600  0.893500  1.0  -0.4774
  N  N436  1  0.030300  0.777800  0.967800  1.0  -0.4615
  N  N437  1  0.768700  0.685200  0.854400  1.0  -0.4036
  N  N438  1  0.773700  0.274400  0.746900  1.0  -0.4787
  N  N439  1  0.615800  0.261400  0.765600  1.0  -0.4638
  N  N440  1  0.938500  0.238200  0.814800  1.0  -0.4921
  N  N441  1  0.886700  0.225500  0.901700  1.0  -0.4989
  N  N442  1  0.041800  0.218400  0.607200  1.0  -0.392
  N  N443  1  0.155000  0.230000  0.544100  1.0  -0.4656
  N  N444  1  0.848100  0.289300  0.628200  1.0  -0.4759
  N  N445  1  0.833900  0.346500  0.568700  1.0  -0.3471
  N  N446  1  0.319100  0.372900  0.469400  1.0  -0.4229
  N  N447  1  0.330400  0.439200  0.420200  1.0  -0.3509
  N  N448  1  0.759300  0.649700  0.931900  1.0  -0.3261
  N  N449  1  0.571100  0.919600  0.744200  1.0  -0.4419
  N  N450  1  0.444600  0.857500  0.737000  1.0  -0.4852
  N  N451  1  0.767300  0.938500  0.799600  1.0  -0.4476
  N  N452  1  0.818600  0.853100  0.818800  1.0  -0.4837
  N  N453  1  0.552300  0.047000  0.717500  1.0  -0.4962
  N  N454  1  0.471300  0.134700  0.751800  1.0  -0.4855
  N  N455  1  0.780500  0.071300  0.691000  1.0  -0.49
  N  N456  1  0.877200  0.145300  0.678300  1.0  -0.4815
  N  N457  1  0.688000  0.069800  0.825400  1.0  -0.4824
  N  N458  1  0.724100  0.136400  0.916500  1.0  -0.438
  N  N459  1  0.668100  0.925200  0.620200  1.0  -0.4461
  N  N460  1  0.664900  0.834200  0.549700  1.0  -0.4826
  N  N461  1  0.876600  0.949700  0.687400  1.0  -0.3536
  N  N462  1  0.012000  0.898000  0.672000  1.0  -0.3228
  N  N463  1  0.184000  0.769200  0.741400  1.0  -0.4492
  N  N464  1  0.030100  0.772900  0.771300  1.0  -0.4211
  N  N465  1  0.360500  0.763500  0.822900  1.0  -0.4913
  N  N466  1  0.313000  0.758300  0.914600  1.0  -0.4677
  N  N467  1  0.428300  0.720400  0.606500  1.0  -0.4784
  N  N468  1  0.530300  0.722200  0.532200  1.0  -0.4619
  N  N469  1  0.268700  0.814800  0.645600  1.0  -0.404
  N  N470  1  0.273700  0.225600  0.753100  1.0  -0.4801
  N  N471  1  0.115800  0.238600  0.734400  1.0  -0.4645
  N  N472  1  0.438500  0.261800  0.685200  1.0  -0.4891
  N  N473  1  0.386700  0.274500  0.598300  1.0  -0.4992
  N  N474  1  0.541800  0.281600  0.892800  1.0  -0.3921
  N  N475  1  0.655000  0.270000  0.955900  1.0  -0.466
  N  N476  1  0.348100  0.210700  0.871800  1.0  -0.4751
  N  N477  1  0.333900  0.153500  0.931300  1.0  -0.3465
  N  N478  1  0.819100  0.127100  0.030600  1.0  -0.422
  N  N479  1  0.830400  0.060800  0.079800  1.0  -0.35
  N  N480  1  0.259300  0.850300  0.568100  1.0  -0.3281
  N  N481  1  0.928900  0.419600  0.244200  1.0  -0.4414
  N  N482  1  0.055400  0.357500  0.237000  1.0  -0.484
  N  N483  1  0.732700  0.438500  0.299600  1.0  -0.4479
  N  N484  1  0.681400  0.353100  0.318800  1.0  -0.482
  N  N485  1  0.947700  0.547000  0.217500  1.0  -0.4958
  N  N486  1  0.028700  0.634700  0.251800  1.0  -0.4853
  N  N487  1  0.719500  0.571300  0.191000  1.0  -0.4894
  N  N488  1  0.622800  0.645300  0.178300  1.0  -0.4818
  N  N489  1  0.812000  0.569800  0.325400  1.0  -0.4822
  N  N490  1  0.775900  0.636400  0.416500  1.0  -0.4377
  N  N491  1  0.831900  0.425200  0.120200  1.0  -0.4468
  N  N492  1  0.835100  0.334200  0.049700  1.0  -0.4826
  N  N493  1  0.623400  0.449700  0.187400  1.0  -0.3559
  N  N494  1  0.488000  0.398000  0.172000  1.0  -0.3216
  N  N495  1  0.316000  0.269200  0.241400  1.0  -0.4502
  N  N496  1  0.469900  0.272900  0.271300  1.0  -0.4208
  N  N497  1  0.139500  0.263500  0.322900  1.0  -0.4909
  N  N498  1  0.187000  0.258300  0.414600  1.0  -0.4687
  N  N499  1  0.071700  0.220400  0.106500  1.0  -0.4775
  N  N500  1  0.969700  0.222200  0.032200  1.0  -0.4591
  N  N501  1  0.231300  0.314800  0.145600  1.0  -0.4042
  N  N502  1  0.226300  0.725600  0.253100  1.0  -0.4788
  N  N503  1  0.384200  0.738600  0.234400  1.0  -0.464
  N  N504  1  0.061500  0.761800  0.185200  1.0  -0.4884
  N  N505  1  0.113300  0.774500  0.098300  1.0  -0.4992
  N  N506  1  0.958200  0.781600  0.392800  1.0  -0.3918
  N  N507  1  0.845000  0.770000  0.455900  1.0  -0.4658
  N  N508  1  0.151900  0.710700  0.371800  1.0  -0.4747
  N  N509  1  0.166100  0.653500  0.431300  1.0  -0.345
  N  N510  1  0.680900  0.627100  0.530600  1.0  -0.4223
  N  N511  1  0.669600  0.560800  0.579800  1.0  -0.3507
  N  N512  1  0.240700  0.350300  0.068100  1.0  -0.3271
  N  N513  1  0.428900  0.080400  0.255800  1.0  -0.4415
  N  N514  1  0.555400  0.142500  0.263000  1.0  -0.4846
  N  N515  1  0.232700  0.061500  0.200400  1.0  -0.4477
  N  N516  1  0.181400  0.146900  0.181200  1.0  -0.4808
  N  N517  1  0.447700  0.953000  0.282500  1.0  -0.4962
  N  N518  1  0.528700  0.865300  0.248200  1.0  -0.4889
  N  N519  1  0.219500  0.928700  0.309000  1.0  -0.4884
  N  N520  1  0.122800  0.854700  0.321700  1.0  -0.4823
  N  N521  1  0.312000  0.930200  0.174600  1.0  -0.4834
  N  N522  1  0.275900  0.863600  0.083500  1.0  -0.4392
  N  N523  1  0.331900  0.074800  0.379800  1.0  -0.4465
  N  N524  1  0.335100  0.165800  0.450300  1.0  -0.4816
  N  N525  1  0.123400  0.050300  0.312600  1.0  -0.3538
  N  N526  1  0.988000  0.102000  0.328000  1.0  -0.3222
  N  N527  1  0.816000  0.230800  0.258600  1.0  -0.4506
  N  N528  1  0.969900  0.227100  0.228700  1.0  -0.4208
  N  N529  1  0.639500  0.236500  0.177100  1.0  -0.4898
  N  N530  1  0.687000  0.241700  0.085400  1.0  -0.4688
  N  N531  1  0.571700  0.279600  0.393500  1.0  -0.4776
  N  N532  1  0.469700  0.277800  0.467800  1.0  -0.4597
  N  N533  1  0.731300  0.185200  0.354400  1.0  -0.4038
  N  N534  1  0.726300  0.774400  0.246900  1.0  -0.478
  N  N535  1  0.884200  0.761400  0.265600  1.0  -0.4625
  N  N536  1  0.561500  0.738200  0.314800  1.0  -0.491
  N  N537  1  0.613300  0.725500  0.401700  1.0  -0.4982
  N  N538  1  0.458200  0.718400  0.107200  1.0  -0.3905
  N  N539  1  0.345000  0.730000  0.044100  1.0  -0.4652
  N  N540  1  0.651900  0.789300  0.128200  1.0  -0.4756
  N  N541  1  0.666100  0.846500  0.068700  1.0  -0.3462
  N  N542  1  0.180900  0.872900  0.969400  1.0  -0.4228
  N  N543  1  0.169600  0.939200  0.920200  1.0  -0.3518
  N  N544  1  0.740700  0.149700  0.431900  1.0  -0.3251
