# generated using pymatgen
data_CdPH8C14NO6
_symmetry_space_group_name_H-M   'P 1'
_cell_length_a   12.15830000
_cell_length_b   16.78310000
_cell_length_c   43.41000000
_cell_angle_alpha   90.00000000
_cell_angle_beta   90.00000000
_cell_angle_gamma   93.68800000
_symmetry_Int_Tables_number   1
_chemical_formula_structural   CdPH8C14NO6
_chemical_formula_sum   'Cd12 P12 H96 C168 N12 O72'
_cell_volume   8839.63871904
_cell_formula_units_Z   12
loop_
 _symmetry_equiv_pos_site_id
 _symmetry_equiv_pos_as_xyz
  1  'x, y, z'
loop_
 _atom_site_type_symbol
 _atom_site_label
 _atom_site_symmetry_multiplicity
 _atom_site_fract_x
 _atom_site_fract_y
 _atom_site_fract_z
 _atom_site_occupancy
 _atom_site_charge
  Cd  Cd1  1  0.185470  0.464080  0.297930  1.0  0.9086
  Cd  Cd2  1  0.920360  0.566840  0.295750  1.0  0.983
  Cd  Cd3  1  0.226800  0.321430  0.504890  1.0  0.839
  Cd  Cd4  1  0.314530  0.535920  0.797930  1.0  0.9087
  Cd  Cd5  1  0.579640  0.433160  0.795750  1.0  0.9837
  Cd  Cd6  1  0.273200  0.678570  0.004890  1.0  0.8202
  Cd  Cd7  1  0.814530  0.535920  0.702070  1.0  0.9074
  Cd  Cd8  1  0.079640  0.433160  0.704250  1.0  0.9832
  Cd  Cd9  1  0.773200  0.678570  0.495110  1.0  0.8385
  Cd  Cd10  1  0.685470  0.464080  0.202070  1.0  0.9082
  Cd  Cd11  1  0.420360  0.566840  0.204240  1.0  0.9821
  Cd  Cd12  1  0.726800  0.321430  0.995110  1.0  0.8206
  P  P13  1  0.941000  0.014570  0.323960  1.0  1.4324
  P  P14  1  0.168200  0.018130  0.324580  1.0  1.4336
  P  P15  1  0.055000  0.017560  0.269560  1.0  1.4913
  P  P16  1  0.559000  0.985430  0.823960  1.0  1.4329
  P  P17  1  0.331800  0.981870  0.824580  1.0  1.4331
  P  P18  1  0.445000  0.982440  0.769560  1.0  1.4911
  P  P19  1  0.059000  0.985430  0.676040  1.0  1.4322
  P  P20  1  0.831800  0.981870  0.675420  1.0  1.4327
  P  P21  1  0.945000  0.982440  0.730440  1.0  1.4923
  P  P22  1  0.441000  0.014570  0.176040  1.0  1.4319
  P  P23  1  0.668200  0.018130  0.175420  1.0  1.4332
  P  P24  1  0.555000  0.017560  0.230440  1.0  1.4924
  H  H25  1  0.022800  0.180700  0.348500  1.0  0.1215
  H  H26  1  0.040200  0.314600  0.335400  1.0  0.1046
  H  H27  1  0.746500  0.290700  0.292800  1.0  0.0979
  H  H28  1  0.731000  0.156400  0.306700  1.0  0.1301
  H  H29  1  0.832300  0.989000  0.386100  1.0  0.1234
  H  H30  1  0.777200  0.914700  0.428800  1.0  0.1096
  H  H31  1  0.835900  0.715800  0.383900  1.0  0.0957
  H  H32  1  0.868200  0.788200  0.338900  1.0  0.1333
  H  H33  1  0.261000  0.037500  0.388300  1.0  0.1125
  H  H34  1  0.274700  0.106400  0.434600  1.0  0.111
  H  H35  1  0.253400  0.313600  0.389200  1.0  0.1108
  H  H36  1  0.239600  0.244600  0.342900  1.0  0.1082
  H  H37  1  0.079900  0.849400  0.347100  1.0  0.1123
  H  H38  1  0.060300  0.718000  0.331400  1.0  0.1201
  H  H39  1  0.360900  0.738200  0.295100  1.0  0.0904
  H  H40  1  0.375400  0.873700  0.305600  1.0  0.1352
  H  H41  1  0.982600  0.798400  0.251400  1.0  0.1091
  H  H42  1  0.084300  0.690700  0.238200  1.0  0.1041
  H  H43  1  0.341500  0.840700  0.216900  1.0  0.0923
  H  H44  1  0.241600  0.947900  0.229200  1.0  0.1169
  H  H45  1  0.122700  0.238800  0.252800  1.0  0.1033
  H  H46  1  0.022100  0.345400  0.237800  1.0  0.1142
  H  H47  1  0.768600  0.191700  0.214400  1.0  0.0975
  H  H48  1  0.873900  0.083500  0.228000  1.0  0.1258
  H  H49  1  0.477200  0.819300  0.848500  1.0  0.1205
  H  H50  1  0.459800  0.685400  0.835400  1.0  0.1047
  H  H51  1  0.753500  0.709300  0.792800  1.0  0.0974
  H  H52  1  0.769000  0.843600  0.806700  1.0  0.1303
  H  H53  1  0.667700  0.011000  0.886100  1.0  0.1243
  H  H54  1  0.722800  0.085300  0.928800  1.0  0.1094
  H  H55  1  0.664100  0.284200  0.883900  1.0  0.0958
  H  H56  1  0.631800  0.211800  0.838900  1.0  0.1325
  H  H57  1  0.239000  0.962500  0.888300  1.0  0.1109
  H  H58  1  0.225300  0.893600  0.934600  1.0  0.1111
  H  H59  1  0.246600  0.686400  0.889200  1.0  0.1105
  H  H60  1  0.260400  0.755400  0.842900  1.0  0.1087
  H  H61  1  0.420100  0.150600  0.847100  1.0  0.1135
  H  H62  1  0.439700  0.282000  0.831400  1.0  0.1202
  H  H63  1  0.139100  0.261800  0.795100  1.0  0.0897
  H  H64  1  0.124600  0.126300  0.805600  1.0  0.135
  H  H65  1  0.517400  0.201600  0.751400  1.0  0.1091
  H  H66  1  0.415700  0.309300  0.738200  1.0  0.1039
  H  H67  1  0.158500  0.159300  0.716900  1.0  0.0917
  H  H68  1  0.258400  0.052100  0.729200  1.0  0.1167
  H  H69  1  0.377300  0.761200  0.752800  1.0  0.1033
  H  H70  1  0.477900  0.654600  0.737800  1.0  0.1145
  H  H71  1  0.731400  0.808300  0.714400  1.0  0.0972
  H  H72  1  0.626100  0.916500  0.728000  1.0  0.1257
  H  H73  1  0.977200  0.819300  0.651500  1.0  0.1207
  H  H74  1  0.959800  0.685400  0.664600  1.0  0.1044
  H  H75  1  0.253500  0.709300  0.707200  1.0  0.0963
  H  H76  1  0.269000  0.843600  0.693300  1.0  0.1302
  H  H77  1  0.167700  0.011000  0.613900  1.0  0.1241
  H  H78  1  0.222800  0.085300  0.571200  1.0  0.1092
  H  H79  1  0.164100  0.284200  0.616100  1.0  0.0957
  H  H80  1  0.131800  0.211800  0.661100  1.0  0.1319
  H  H81  1  0.739000  0.962500  0.611700  1.0  0.1111
  H  H82  1  0.725300  0.893600  0.565400  1.0  0.1108
  H  H83  1  0.746600  0.686400  0.610800  1.0  0.1107
  H  H84  1  0.760400  0.755400  0.657100  1.0  0.1079
  H  H85  1  0.920100  0.150600  0.652900  1.0  0.1131
  H  H86  1  0.939700  0.282000  0.668600  1.0  0.12
  H  H87  1  0.639100  0.261800  0.704900  1.0  0.0891
  H  H88  1  0.624600  0.126300  0.694400  1.0  0.134
  H  H89  1  0.017400  0.201600  0.748600  1.0  0.1096
  H  H90  1  0.915700  0.309300  0.761800  1.0  0.1033
  H  H91  1  0.658500  0.159300  0.783100  1.0  0.0919
  H  H92  1  0.758400  0.052100  0.770800  1.0  0.1186
  H  H93  1  0.877300  0.761200  0.747200  1.0  0.1034
  H  H94  1  0.977900  0.654600  0.762200  1.0  0.1144
  H  H95  1  0.231400  0.808300  0.785600  1.0  0.0974
  H  H96  1  0.126100  0.916500  0.772000  1.0  0.1255
  H  H97  1  0.522800  0.180700  0.151500  1.0  0.121
  H  H98  1  0.540200  0.314600  0.164600  1.0  0.1039
  H  H99  1  0.246500  0.290700  0.207200  1.0  0.0971
  H  H100  1  0.231000  0.156400  0.193300  1.0  0.1289
  H  H101  1  0.332300  0.989000  0.113900  1.0  0.1232
  H  H102  1  0.277200  0.914700  0.071200  1.0  0.1094
  H  H103  1  0.335900  0.715800  0.116100  1.0  0.0959
  H  H104  1  0.368200  0.788200  0.161100  1.0  0.1333
  H  H105  1  0.761000  0.037500  0.111700  1.0  0.1132
  H  H106  1  0.774700  0.106400  0.065400  1.0  0.1109
  H  H107  1  0.753400  0.313600  0.110800  1.0  0.1105
  H  H108  1  0.739600  0.244600  0.157100  1.0  0.1076
  H  H109  1  0.579900  0.849400  0.152900  1.0  0.1127
  H  H110  1  0.560300  0.718000  0.168600  1.0  0.1198
  H  H111  1  0.860900  0.738200  0.204900  1.0  0.0895
  H  H112  1  0.875400  0.873700  0.194400  1.0  0.1353
  H  H113  1  0.482600  0.798400  0.248600  1.0  0.1095
  H  H114  1  0.584300  0.690700  0.261800  1.0  0.104
  H  H115  1  0.841500  0.840700  0.283100  1.0  0.0926
  H  H116  1  0.741600  0.947900  0.270800  1.0  0.1185
  H  H117  1  0.622700  0.238800  0.247200  1.0  0.1037
  H  H118  1  0.522100  0.345400  0.262200  1.0  0.1137
  H  H119  1  0.268600  0.191700  0.285600  1.0  0.0976
  H  H120  1  0.373900  0.083500  0.272000  1.0  0.1256
  C  C121  1  0.876300  0.158900  0.328300  1.0  0.2459
  C  C122  1  0.968000  0.203500  0.337100  1.0  -0.1578
  C  C123  1  0.978500  0.283400  0.329000  1.0  -0.0238
  C  C124  1  0.897200  0.318500  0.311100  1.0  -0.0627
  C  C125  1  0.803500  0.269100  0.303600  1.0  -0.0245
  C  C126  1  0.793100  0.188600  0.312100  1.0  -0.1342
  C  C127  1  0.910900  0.402600  0.302700  1.0  0.6533
  C  C128  1  0.851200  0.894900  0.358900  1.0  0.2815
  C  C129  1  0.829000  0.933500  0.385400  1.0  -0.1635
  C  C130  1  0.801400  0.889400  0.411200  1.0  -0.0459
  C  C131  1  0.809600  0.806000  0.411300  1.0  -0.0569
  C  C132  1  0.833200  0.771000  0.384400  1.0  -0.0272
  C  C133  1  0.853600  0.813800  0.357300  1.0  -0.2546
  C  C134  1  0.249000  0.134200  0.360970  1.0  0.2612
  C  C135  1  0.259500  0.092800  0.388440  1.0  -0.148
  C  C136  1  0.267700  0.134100  0.416190  1.0  -0.0567
  C  C137  1  0.265400  0.216800  0.416470  1.0  -0.1446
  C  C138  1  0.254900  0.258200  0.389000  1.0  -0.058
  C  C139  1  0.246700  0.216900  0.361250  1.0  -0.133
  C  C140  1  0.269900  0.258500  0.446100  1.0  0.6547
  C  C141  1  0.229700  0.872900  0.329000  1.0  0.2785
  C  C142  1  0.136100  0.827200  0.336200  1.0  -0.1568
  C  C143  1  0.124700  0.749000  0.327200  1.0  -0.073
  C  C144  1  0.212800  0.716600  0.311500  1.0  -0.0784
  C  C145  1  0.303000  0.761500  0.304900  1.0  -0.0262
  C  C146  1  0.314200  0.841800  0.312000  1.0  -0.1629
  C  C147  1  0.207400  0.629700  0.304400  1.0  0.6294
  C  C148  1  0.101600  0.884400  0.240600  1.0  0.311
  C  C149  1  0.054200  0.807000  0.244000  1.0  -0.2259
  C  C150  1  0.115800  0.742500  0.236300  1.0  -0.0145
  C  C151  1  0.223800  0.754800  0.225800  1.0  -0.1642
  C  C152  1  0.269000  0.831900  0.223500  1.0  -0.0334
  C  C153  1  0.209300  0.896400  0.230800  1.0  -0.2047
  C  C154  1  0.290300  0.685700  0.217800  1.0  0.6912
  C  C155  1  0.006700  0.152100  0.240600  1.0  0.2926
  C  C156  1  0.052400  0.229800  0.244600  1.0  -0.1915
  C  C157  1  0.991800  0.293300  0.236100  1.0  -0.0205
  C  C158  1  0.885900  0.278500  0.225100  1.0  -0.1194
  C  C159  1  0.840000  0.200800  0.221800  1.0  -0.0317
  C  C160  1  0.903000  0.135900  0.229900  1.0  -0.191
  C  C161  1  0.819700  0.346400  0.215700  1.0  0.6654
  C  C162  1  0.791400  0.760300  0.439900  1.0  0.6202
  C  C163  1  0.623700  0.841100  0.828300  1.0  0.2476
  C  C164  1  0.532000  0.796500  0.837100  1.0  -0.1591
  C  C165  1  0.521500  0.716600  0.829000  1.0  -0.0231
  C  C166  1  0.602800  0.681500  0.811100  1.0  -0.0609
  C  C167  1  0.696500  0.730900  0.803600  1.0  -0.0217
  C  C168  1  0.706900  0.811400  0.812100  1.0  -0.1324
  C  C169  1  0.589100  0.597400  0.802700  1.0  0.6544
  C  C170  1  0.648800  0.105100  0.858900  1.0  0.2813
  C  C171  1  0.671000  0.066500  0.885400  1.0  -0.164
  C  C172  1  0.698600  0.110600  0.911200  1.0  -0.0461
  C  C173  1  0.690400  0.194000  0.911300  1.0  -0.0558
  C  C174  1  0.666800  0.229000  0.884400  1.0  -0.0264
  C  C175  1  0.646400  0.186200  0.857300  1.0  -0.2556
  C  C176  1  0.251000  0.865800  0.860970  1.0  0.2619
  C  C177  1  0.240500  0.907200  0.888440  1.0  -0.1499
  C  C178  1  0.232300  0.865900  0.916190  1.0  -0.0576
  C  C179  1  0.234600  0.783200  0.916470  1.0  -0.1447
  C  C180  1  0.245100  0.741800  0.889000  1.0  -0.0583
  C  C181  1  0.253300  0.783100  0.861250  1.0  -0.1334
  C  C182  1  0.230100  0.741500  0.946100  1.0  0.6602
  C  C183  1  0.270300  0.127100  0.829000  1.0  0.2747
  C  C184  1  0.363900  0.172800  0.836200  1.0  -0.1552
  C  C185  1  0.375300  0.251000  0.827200  1.0  -0.0712
  C  C186  1  0.287200  0.283400  0.811500  1.0  -0.0775
  C  C187  1  0.197000  0.238500  0.804900  1.0  -0.0268
  C  C188  1  0.185800  0.158200  0.812000  1.0  -0.1644
  C  C189  1  0.292600  0.370300  0.804400  1.0  0.6283
  C  C190  1  0.398400  0.115600  0.740600  1.0  0.309
  C  C191  1  0.445800  0.193000  0.744000  1.0  -0.2265
  C  C192  1  0.384200  0.257500  0.736300  1.0  -0.0133
  C  C193  1  0.276200  0.245200  0.725800  1.0  -0.1619
  C  C194  1  0.231000  0.168100  0.723500  1.0  -0.032
  C  C195  1  0.290700  0.103600  0.730800  1.0  -0.2061
  C  C196  1  0.209700  0.314300  0.717800  1.0  0.6939
  C  C197  1  0.493300  0.847900  0.740600  1.0  0.2933
  C  C198  1  0.447600  0.770200  0.744600  1.0  -0.1899
  C  C199  1  0.508200  0.706700  0.736100  1.0  -0.0212
  C  C200  1  0.614100  0.721500  0.725100  1.0  -0.1217
  C  C201  1  0.660000  0.799200  0.721800  1.0  -0.0353
  C  C202  1  0.597000  0.864100  0.729900  1.0  -0.1894
  C  C203  1  0.680300  0.653600  0.715700  1.0  0.6638
  C  C204  1  0.708600  0.239700  0.939900  1.0  0.6202
  C  C205  1  0.123700  0.841100  0.671700  1.0  0.2462
  C  C206  1  0.032000  0.796500  0.662900  1.0  -0.1604
  C  C207  1  0.021500  0.716600  0.671000  1.0  -0.0241
  C  C208  1  0.102800  0.681500  0.688900  1.0  -0.0619
  C  C209  1  0.196500  0.730900  0.696400  1.0  -0.0217
  C  C210  1  0.206900  0.811400  0.687900  1.0  -0.1336
  C  C211  1  0.089100  0.597400  0.697300  1.0  0.6544
  C  C212  1  0.148800  0.105100  0.641100  1.0  0.2797
  C  C213  1  0.171000  0.066500  0.614600  1.0  -0.1636
  C  C214  1  0.198600  0.110600  0.588800  1.0  -0.0442
  C  C215  1  0.190400  0.194000  0.588700  1.0  -0.0569
  C  C216  1  0.166800  0.229000  0.615600  1.0  -0.0278
  C  C217  1  0.146400  0.186200  0.642700  1.0  -0.2552
  C  C218  1  0.751000  0.865800  0.639030  1.0  0.2608
  C  C219  1  0.740500  0.907200  0.611560  1.0  -0.1482
  C  C220  1  0.732300  0.865900  0.583810  1.0  -0.056
  C  C221  1  0.734600  0.783200  0.583530  1.0  -0.1457
  C  C222  1  0.745100  0.741800  0.611000  1.0  -0.0583
  C  C223  1  0.753300  0.783100  0.638750  1.0  -0.132
  C  C224  1  0.730100  0.741500  0.553900  1.0  0.6534
  C  C225  1  0.770300  0.127100  0.671000  1.0  0.2735
  C  C226  1  0.863900  0.172800  0.663800  1.0  -0.1562
  C  C227  1  0.875300  0.251000  0.672800  1.0  -0.073
  C  C228  1  0.787200  0.283400  0.688500  1.0  -0.079
  C  C229  1  0.697000  0.238500  0.695100  1.0  -0.0272
  C  C230  1  0.685800  0.158200  0.688000  1.0  -0.1611
  C  C231  1  0.792600  0.370300  0.695600  1.0  0.6283
  C  C232  1  0.898400  0.115600  0.759400  1.0  0.3091
  C  C233  1  0.945800  0.193000  0.756000  1.0  -0.2268
  C  C234  1  0.884200  0.257500  0.763700  1.0  -0.015
  C  C235  1  0.776200  0.245200  0.774200  1.0  -0.1637
  C  C236  1  0.731000  0.168100  0.776500  1.0  -0.0322
  C  C237  1  0.790700  0.103600  0.769200  1.0  -0.2053
  C  C238  1  0.709700  0.314300  0.782200  1.0  0.6927
  C  C239  1  0.993300  0.847900  0.759400  1.0  0.2935
  C  C240  1  0.947600  0.770200  0.755400  1.0  -0.1899
  C  C241  1  0.008200  0.706700  0.763900  1.0  -0.0223
  C  C242  1  0.114100  0.721500  0.774900  1.0  -0.1224
  C  C243  1  0.160000  0.799200  0.778200  1.0  -0.0356
  C  C244  1  0.097000  0.864100  0.770100  1.0  -0.1891
  C  C245  1  0.180300  0.653600  0.784300  1.0  0.6649
  C  C246  1  0.208600  0.239700  0.560100  1.0  0.6182
  C  C247  1  0.376300  0.158900  0.171700  1.0  0.2448
  C  C248  1  0.468000  0.203500  0.162900  1.0  -0.158
  C  C249  1  0.478500  0.283400  0.171000  1.0  -0.0266
  C  C250  1  0.397200  0.318500  0.188900  1.0  -0.0612
  C  C251  1  0.303500  0.269100  0.196400  1.0  -0.0232
  C  C252  1  0.293100  0.188600  0.187900  1.0  -0.1339
  C  C253  1  0.410900  0.402600  0.197300  1.0  0.6539
  C  C254  1  0.351200  0.894900  0.141100  1.0  0.2789
  C  C255  1  0.329000  0.933500  0.114600  1.0  -0.1623
  C  C256  1  0.301400  0.889400  0.088800  1.0  -0.0435
  C  C257  1  0.309600  0.806000  0.088700  1.0  -0.0572
  C  C258  1  0.333200  0.771000  0.115600  1.0  -0.0277
  C  C259  1  0.353600  0.813800  0.142700  1.0  -0.2537
  C  C260  1  0.749000  0.134200  0.139030  1.0  0.261
  C  C261  1  0.759500  0.092800  0.111560  1.0  -0.1481
  C  C262  1  0.767700  0.134100  0.083810  1.0  -0.0569
  C  C263  1  0.765400  0.216800  0.083530  1.0  -0.1456
  C  C264  1  0.754900  0.258200  0.111000  1.0  -0.0584
  C  C265  1  0.746700  0.216900  0.138750  1.0  -0.1334
  C  C266  1  0.769900  0.258500  0.053900  1.0  0.6606
  C  C267  1  0.729700  0.872900  0.171000  1.0  0.2748
  C  C268  1  0.636100  0.827200  0.163800  1.0  -0.1568
  C  C269  1  0.624700  0.749000  0.172800  1.0  -0.0736
  C  C270  1  0.712800  0.716600  0.188500  1.0  -0.0825
  C  C271  1  0.803000  0.761500  0.195100  1.0  -0.0257
  C  C272  1  0.814200  0.841800  0.188000  1.0  -0.1618
  C  C273  1  0.707400  0.629700  0.195600  1.0  0.6296
  C  C274  1  0.601600  0.884400  0.259400  1.0  0.31
  C  C275  1  0.554200  0.807000  0.256000  1.0  -0.2264
  C  C276  1  0.615800  0.742500  0.263700  1.0  -0.0149
  C  C277  1  0.723800  0.754800  0.274200  1.0  -0.1648
  C  C278  1  0.769000  0.831900  0.276500  1.0  -0.0337
  C  C279  1  0.709300  0.896400  0.269200  1.0  -0.2047
  C  C280  1  0.790300  0.685700  0.282200  1.0  0.691
  C  C281  1  0.506700  0.152100  0.259400  1.0  0.2932
  C  C282  1  0.552400  0.229800  0.255400  1.0  -0.1917
  C  C283  1  0.491800  0.293300  0.263900  1.0  -0.023
  C  C284  1  0.385900  0.278500  0.274900  1.0  -0.1212
  C  C285  1  0.340000  0.200800  0.278200  1.0  -0.0317
  C  C286  1  0.403000  0.135900  0.270100  1.0  -0.1901
  C  C287  1  0.319700  0.346400  0.284300  1.0  0.6645
  C  C288  1  0.291400  0.760300  0.060100  1.0  0.6199
  N  N289  1  0.054700  0.017200  0.342600  1.0  -0.5544
  N  N290  1  0.165900  0.010100  0.288100  1.0  -0.5513
  N  N291  1  0.947000  0.025700  0.288200  1.0  -0.5687
  N  N292  1  0.445300  0.982800  0.842600  1.0  -0.5541
  N  N293  1  0.334100  0.989900  0.788100  1.0  -0.5523
  N  N294  1  0.553000  0.974300  0.788200  1.0  -0.5705
  N  N295  1  0.945300  0.982800  0.657400  1.0  -0.5526
  N  N296  1  0.834100  0.989900  0.711900  1.0  -0.5526
  N  N297  1  0.053000  0.974300  0.711800  1.0  -0.571
  N  N298  1  0.554700  0.017200  0.157400  1.0  -0.5528
  N  N299  1  0.665900  0.010100  0.211900  1.0  -0.5514
  N  N300  1  0.447000  0.025700  0.211800  1.0  -0.569
  O  O301  1  0.862100  0.077700  0.338010  1.0  -0.4446
  O  O302  1  0.997100  0.443300  0.303770  1.0  -0.6732
  O  O303  1  0.822900  0.436500  0.294190  1.0  -0.6593
  O  O304  1  0.868000  0.935300  0.330710  1.0  -0.5609
  O  O305  1  0.241700  0.097100  0.332470  1.0  -0.4988
  O  O306  1  0.281600  0.222200  0.469600  1.0  -0.573
  O  O307  1  0.265300  0.331100  0.447700  1.0  -0.6127
  O  O308  1  0.244000  0.953200  0.337830  1.0  -0.432
  O  O309  1  0.108100  0.590100  0.305080  1.0  -0.7562
  O  O310  1  0.286500  0.592900  0.297810  1.0  -0.6148
  O  O311  1  0.035500  0.945900  0.246900  1.0  -0.5711
  O  O312  1  0.389400  0.698600  0.210310  1.0  -0.5827
  O  O313  1  0.245500  0.617000  0.218510  1.0  -0.5798
  O  O314  1  0.074900  0.090100  0.246880  1.0  -0.5552
  O  O315  1  0.860500  0.417700  0.215180  1.0  -0.6092
  O  O316  1  0.719400  0.331600  0.208840  1.0  -0.5909
  O  O317  1  0.797400  0.689200  0.440500  1.0  -0.5004
  O  O318  1  0.764300  0.795900  0.464200  1.0  -0.6567
  O  O319  1  0.637900  0.922300  0.838010  1.0  -0.4441
  O  O320  1  0.502900  0.556700  0.803770  1.0  -0.675
  O  O321  1  0.677100  0.563500  0.794190  1.0  -0.6584
  O  O322  1  0.632000  0.064700  0.830710  1.0  -0.5611
  O  O323  1  0.258300  0.902900  0.832470  1.0  -0.4995
  O  O324  1  0.218400  0.777800  0.969600  1.0  -0.5704
  O  O325  1  0.234700  0.668900  0.947700  1.0  -0.612
  O  O326  1  0.256000  0.046800  0.837830  1.0  -0.4306
  O  O327  1  0.391900  0.409900  0.805080  1.0  -0.7543
  O  O328  1  0.213500  0.407100  0.797810  1.0  -0.615
  O  O329  1  0.464500  0.054100  0.746900  1.0  -0.5713
  O  O330  1  0.110600  0.301400  0.710310  1.0  -0.5816
  O  O331  1  0.254500  0.383000  0.718510  1.0  -0.5799
  O  O332  1  0.425100  0.909900  0.746880  1.0  -0.5554
  O  O333  1  0.639500  0.582300  0.715180  1.0  -0.6073
  O  O334  1  0.780600  0.668400  0.708840  1.0  -0.592
  O  O335  1  0.702600  0.310800  0.940500  1.0  -0.5214
  O  O336  1  0.735700  0.204100  0.964200  1.0  -0.6482
  O  O337  1  0.137900  0.922300  0.661990  1.0  -0.4448
  O  O338  1  0.002900  0.556700  0.696230  1.0  -0.6755
  O  O339  1  0.177100  0.563500  0.705810  1.0  -0.658
  O  O340  1  0.132000  0.064700  0.669290  1.0  -0.561
  O  O341  1  0.758300  0.902900  0.667530  1.0  -0.4975
  O  O342  1  0.718400  0.777800  0.530400  1.0  -0.5751
  O  O343  1  0.734700  0.668900  0.552300  1.0  -0.6117
  O  O344  1  0.756000  0.046800  0.662170  1.0  -0.4303
  O  O345  1  0.891900  0.409900  0.694920  1.0  -0.7552
  O  O346  1  0.713500  0.407100  0.702190  1.0  -0.6148
  O  O347  1  0.964500  0.054100  0.753100  1.0  -0.5709
  O  O348  1  0.610600  0.301400  0.789690  1.0  -0.5811
  O  O349  1  0.754500  0.383000  0.781490  1.0  -0.581
  O  O350  1  0.925100  0.909900  0.753120  1.0  -0.5556
  O  O351  1  0.139500  0.582300  0.784820  1.0  -0.6065
  O  O352  1  0.280600  0.668400  0.791160  1.0  -0.5937
  O  O353  1  0.202600  0.310800  0.559500  1.0  -0.4978
  O  O354  1  0.235700  0.204100  0.535800  1.0  -0.6587
  O  O355  1  0.362100  0.077700  0.161990  1.0  -0.4444
  O  O356  1  0.497100  0.443300  0.196230  1.0  -0.6733
  O  O357  1  0.322900  0.436500  0.205810  1.0  -0.6585
  O  O358  1  0.368000  0.935300  0.169290  1.0  -0.5601
  O  O359  1  0.741700  0.097100  0.167530  1.0  -0.4972
  O  O360  1  0.781600  0.222200  0.030400  1.0  -0.5682
  O  O361  1  0.765300  0.331100  0.052300  1.0  -0.6123
  O  O362  1  0.744000  0.953200  0.162170  1.0  -0.431
  O  O363  1  0.608100  0.590100  0.194920  1.0  -0.757
  O  O364  1  0.786500  0.592900  0.202190  1.0  -0.6136
  O  O365  1  0.535500  0.945900  0.253100  1.0  -0.5715
  O  O366  1  0.889400  0.698600  0.289690  1.0  -0.5819
  O  O367  1  0.745500  0.617000  0.281490  1.0  -0.5802
  O  O368  1  0.574900  0.090100  0.253120  1.0  -0.5548
  O  O369  1  0.360500  0.417700  0.284820  1.0  -0.6084
  O  O370  1  0.219400  0.331600  0.291160  1.0  -0.5933
  O  O371  1  0.297400  0.689200  0.059500  1.0  -0.5233
  O  O372  1  0.264300  0.795900  0.035800  1.0  -0.6544
