# generated using pymatgen
data_CuHC4O3
_symmetry_space_group_name_H-M   'P 1'
_cell_length_a   6.25870000
_cell_length_b   15.15380000
_cell_length_c   15.15380000
_cell_angle_alpha   61.86370000
_cell_angle_beta   82.08700000
_cell_angle_gamma   97.91300000
_symmetry_Int_Tables_number   1
_chemical_formula_structural   CuHC4O3
_chemical_formula_sum   'Cu6 H6 C24 O18'
_cell_volume   1221.09030892
_cell_formula_units_Z   6
loop_
 _symmetry_equiv_pos_site_id
 _symmetry_equiv_pos_as_xyz
  1  'x, y, z'
loop_
 _atom_site_type_symbol
 _atom_site_label
 _atom_site_symmetry_multiplicity
 _atom_site_fract_x
 _atom_site_fract_y
 _atom_site_fract_z
 _atom_site_occupancy
 _atom_site_charge
  Cu  Cu1  1  0.929050  0.260490  0.433330  1.0  0.8972
  Cu  Cu2  1  0.362380  0.433330  0.306180  1.0  0.896
  Cu  Cu3  1  0.668560  0.306180  0.260490  1.0  0.8991
  Cu  Cu4  1  0.070950  0.739510  0.566670  1.0  0.8969
  Cu  Cu5  1  0.637620  0.566670  0.693820  1.0  0.8974
  Cu  Cu6  1  0.331440  0.693820  0.739510  1.0  0.8981
  H  H7  1  0.314700  0.439600  0.539000  1.0  0.1187
  H  H8  1  0.853700  0.539000  0.021400  1.0  0.1201
  H  H9  1  0.875100  0.021400  0.439600  1.0  0.1202
  H  H10  1  0.685300  0.560400  0.461000  1.0  0.1185
  H  H11  1  0.146300  0.461000  0.978600  1.0  0.12
  H  H12  1  0.124900  0.978600  0.560400  1.0  0.1203
  C  C13  1  0.185500  0.463900  0.522800  1.0  -0.0816
  C  C14  1  0.718200  0.429900  0.398500  1.0  0.7152
  C  C15  1  0.063900  0.428600  0.471300  1.0  0.3576
  C  C16  1  0.872500  0.466700  0.448500  1.0  -0.1255
  C  C17  1  0.708300  0.522800  0.013300  1.0  -0.0822
  C  C18  1  0.116700  0.398500  0.171600  1.0  0.713
  C  C19  1  0.535200  0.471300  0.100100  1.0  0.361
  C  C20  1  0.321000  0.448500  0.084800  1.0  -0.1268
  C  C21  1  0.721600  0.013300  0.463900  1.0  -0.0802
  C  C22  1  0.288300  0.171600  0.429900  1.0  0.7138
  C  C23  1  0.635300  0.100100  0.428600  1.0  0.3567
  C  C24  1  0.405800  0.084800  0.466700  1.0  -0.127
  C  C25  1  0.814500  0.536100  0.477200  1.0  -0.0811
  C  C26  1  0.281800  0.570100  0.601500  1.0  0.7152
  C  C27  1  0.936100  0.571400  0.528700  1.0  0.3577
  C  C28  1  0.127500  0.533300  0.551500  1.0  -0.1253
  C  C29  1  0.291700  0.477200  0.986700  1.0  -0.0813
  C  C30  1  0.883300  0.601500  0.828400  1.0  0.7132
  C  C31  1  0.464800  0.528700  0.899900  1.0  0.3629
  C  C32  1  0.679000  0.551500  0.915200  1.0  -0.1277
  C  C33  1  0.278400  0.986700  0.536100  1.0  -0.08
  C  C34  1  0.711700  0.828400  0.570100  1.0  0.7143
  C  C35  1  0.364700  0.899900  0.571400  1.0  0.3568
  C  C36  1  0.594200  0.915200  0.533300  1.0  -0.127
  O  O37  1  0.138220  0.363650  0.442890  1.0  -0.6604
  O  O38  1  0.716670  0.346340  0.399630  1.0  -0.6253
  O  O39  1  0.586410  0.484600  0.358370  1.0  -0.5953
  O  O40  1  0.581110  0.442890  0.193460  1.0  -0.6641
  O  O41  1  0.116300  0.399630  0.254030  1.0  -0.6269
  O  O42  1  0.944780  0.358370  0.157030  1.0  -0.5934
  O  O43  1  0.774570  0.193460  0.363650  1.0  -0.6624
  O  O44  1  0.370330  0.254030  0.346340  1.0  -0.6263
  O  O45  1  0.101810  0.157030  0.484600  1.0  -0.5925
  O  O46  1  0.861780  0.636350  0.557110  1.0  -0.6629
  O  O47  1  0.283330  0.653660  0.600370  1.0  -0.6261
  O  O48  1  0.413590  0.515400  0.641630  1.0  -0.5959
  O  O49  1  0.418890  0.557110  0.806540  1.0  -0.6639
  O  O50  1  0.883700  0.600370  0.745970  1.0  -0.6273
  O  O51  1  0.055220  0.641630  0.842970  1.0  -0.5922
  O  O52  1  0.225430  0.806540  0.636350  1.0  -0.6618
  O  O53  1  0.629670  0.745970  0.653660  1.0  -0.626
  O  O54  1  0.898190  0.842970  0.515400  1.0  -0.5917
