# generated using pymatgen
data_AgH5C9S(NO)2
_symmetry_space_group_name_H-M   'P 1'
_cell_length_a   7.03730000
_cell_length_b   10.43990000
_cell_length_c   13.31050000
_cell_angle_alpha   90.00000000
_cell_angle_beta   90.00000000
_cell_angle_gamma   90.00000000
_symmetry_Int_Tables_number   1
_chemical_formula_structural   AgH5C9S(NO)2
_chemical_formula_sum   'Ag4 H20 C36 S4 N8 O8'
_cell_volume   977.90524143
_cell_formula_units_Z   4
loop_
 _symmetry_equiv_pos_site_id
 _symmetry_equiv_pos_as_xyz
  1  'x, y, z'
loop_
 _atom_site_type_symbol
 _atom_site_label
 _atom_site_symmetry_multiplicity
 _atom_site_fract_x
 _atom_site_fract_y
 _atom_site_fract_z
 _atom_site_occupancy
 _atom_site_charge
  Ag  Ag1  1  0.781150  0.893950  0.319700  1.0  0.4319
  Ag  Ag2  1  0.718850  0.106050  0.819700  1.0  0.4313
  Ag  Ag3  1  0.218850  0.393950  0.180300  1.0  0.4313
  Ag  Ag4  1  0.281150  0.606050  0.680300  1.0  0.4313
  H  H5  1  0.957900  0.423000  0.359700  1.0  0.148
  H  H6  1  0.823900  0.660400  0.689100  1.0  0.1308
  H  H7  1  0.817300  0.810200  0.813700  1.0  0.0829
  H  H8  1  0.956900  0.080700  0.627900  1.0  0.0793
  H  H9  1  0.976100  0.939300  0.496700  1.0  0.1224
  H  H10  1  0.542100  0.577000  0.859700  1.0  0.1467
  H  H11  1  0.676100  0.339600  0.189100  1.0  0.131
  H  H12  1  0.682700  0.189800  0.313700  1.0  0.083
  H  H13  1  0.543100  0.919300  0.127900  1.0  0.0804
  H  H14  1  0.523900  0.060700  0.996700  1.0  0.1224
  H  H15  1  0.042100  0.923000  0.140300  1.0  0.1468
  H  H16  1  0.176100  0.160400  0.810900  1.0  0.1296
  H  H17  1  0.182700  0.310200  0.686300  1.0  0.0836
  H  H18  1  0.043100  0.580700  0.872100  1.0  0.0792
  H  H19  1  0.023900  0.439300  0.003300  1.0  0.1218
  H  H20  1  0.457900  0.077000  0.640300  1.0  0.1475
  H  H21  1  0.323900  0.839600  0.310900  1.0  0.131
  H  H22  1  0.317300  0.689800  0.186300  1.0  0.0836
  H  H23  1  0.456900  0.419300  0.372100  1.0  0.0809
  H  H24  1  0.476100  0.560700  0.503300  1.0  0.1226
  C  C25  1  0.886600  0.621400  0.225800  1.0  0.633
  C  C26  1  0.902500  0.610500  0.338800  1.0  0.0403
  C  C27  1  0.939300  0.502600  0.389500  1.0  -0.1682
  C  C28  1  0.901400  0.690300  0.493700  1.0  0.1238
  C  C29  1  0.894500  0.783200  0.576800  1.0  0.0553
  C  C30  1  0.850000  0.745700  0.674500  1.0  -0.1789
  C  C31  1  0.845500  0.836700  0.748700  1.0  0.1746
  C  C32  1  0.928300  0.995100  0.639900  1.0  0.1739
  C  C33  1  0.939500  0.911100  0.560000  1.0  -0.168
  C  C34  1  0.613400  0.378600  0.725800  1.0  0.6329
  C  C35  1  0.597500  0.389500  0.838800  1.0  0.0389
  C  C36  1  0.560700  0.497400  0.889500  1.0  -0.1657
  C  C37  1  0.598600  0.309700  0.993700  1.0  0.1233
  C  C38  1  0.605500  0.216800  0.076800  1.0  0.0688
  C  C39  1  0.650000  0.254300  0.174500  1.0  -0.1772
  C  C40  1  0.654500  0.163300  0.248700  1.0  0.1756
  C  C41  1  0.571700  0.004900  0.139900  1.0  0.1732
  C  C42  1  0.560500  0.088900  0.060000  1.0  -0.1684
  C  C43  1  0.113400  0.121400  0.274200  1.0  0.6357
  C  C44  1  0.097500  0.110500  0.161200  1.0  0.0415
  C  C45  1  0.060700  0.002600  0.110500  1.0  -0.1682
  C  C46  1  0.098600  0.190300  0.006300  1.0  0.1245
  C  C47  1  0.105500  0.283200  0.923200  1.0  0.0676
  C  C48  1  0.150000  0.245700  0.825500  1.0  -0.1769
  C  C49  1  0.154500  0.336700  0.751300  1.0  0.1761
  C  C50  1  0.071700  0.495100  0.860100  1.0  0.1725
  C  C51  1  0.060500  0.411100  0.940000  1.0  -0.1674
  C  C52  1  0.386600  0.878600  0.774200  1.0  0.6346
  C  C53  1  0.402500  0.889500  0.661200  1.0  0.0397
  C  C54  1  0.439300  0.997400  0.610500  1.0  -0.1663
  C  C55  1  0.401400  0.809700  0.506300  1.0  0.1242
  C  C56  1  0.394500  0.716800  0.423200  1.0  0.0561
  C  C57  1  0.350000  0.754300  0.325500  1.0  -0.1787
  C  C58  1  0.345500  0.663300  0.251300  1.0  0.1748
  C  C59  1  0.428300  0.504900  0.360100  1.0  0.1737
  C  C60  1  0.439500  0.588900  0.440000  1.0  -0.1701
  S  S61  1  0.947580  0.530020  0.515920  1.0  0.169
  S  S62  1  0.552420  0.469980  0.015920  1.0  0.1679
  S  S63  1  0.052420  0.030020  0.984080  1.0  0.1585
  S  S64  1  0.447580  0.969980  0.484080  1.0  0.1576
  N  N65  1  0.879300  0.718100  0.398700  1.0  -0.2852
  N  N66  1  0.879300  0.961800  0.733400  1.0  -0.3446
  N  N67  1  0.620700  0.281900  0.898700  1.0  -0.285
  N  N68  1  0.620700  0.038200  0.233400  1.0  -0.3424
  N  N69  1  0.120700  0.218100  0.101300  1.0  -0.285
  N  N70  1  0.120700  0.461800  0.766600  1.0  -0.343
  N  N71  1  0.379300  0.781900  0.601300  1.0  -0.2852
  N  N72  1  0.379300  0.538200  0.266600  1.0  -0.3453
  O  O73  1  0.843300  0.727300  0.190200  1.0  -0.5957
  O  O74  1  0.919900  0.520200  0.177200  1.0  -0.6283
  O  O75  1  0.656700  0.272700  0.690200  1.0  -0.5966
  O  O76  1  0.580100  0.479800  0.677200  1.0  -0.6302
  O  O77  1  0.156700  0.227300  0.309800  1.0  -0.5947
  O  O78  1  0.080100  0.020200  0.322800  1.0  -0.6311
  O  O79  1  0.343300  0.772700  0.809800  1.0  -0.5961
  O  O80  1  0.419900  0.979800  0.822800  1.0  -0.6243
