# generated using pymatgen
data_EuH7C12O7
_symmetry_space_group_name_H-M   'P 1'
_cell_length_a   13.34710000
_cell_length_b   13.61080000
_cell_length_c   17.89630000
_cell_angle_alpha   90.00000000
_cell_angle_beta   90.00000000
_cell_angle_gamma   91.70530000
_symmetry_Int_Tables_number   1
_chemical_formula_structural   EuH7C12O7
_chemical_formula_sum   'Eu8 H56 C96 O56'
_cell_volume   3249.68624004
_cell_formula_units_Z   8
loop_
 _symmetry_equiv_pos_site_id
 _symmetry_equiv_pos_as_xyz
  1  'x, y, z'
loop_
 _atom_site_type_symbol
 _atom_site_label
 _atom_site_symmetry_multiplicity
 _atom_site_fract_x
 _atom_site_fract_y
 _atom_site_fract_z
 _atom_site_occupancy
 _atom_site_charge
  Eu  Eu1  1  0.594450  0.142660  0.970340  1.0  2.1642
  Eu  Eu2  1  0.852010  0.402420  0.012570  1.0  2.1523
  Eu  Eu3  1  0.905550  0.357340  0.470340  1.0  2.1655
  Eu  Eu4  1  0.647990  0.097580  0.512570  1.0  2.1519
  Eu  Eu5  1  0.405550  0.857340  0.029660  1.0  2.1654
  Eu  Eu6  1  0.147990  0.597580  0.987430  1.0  2.15
  Eu  Eu7  1  0.094450  0.642660  0.529660  1.0  2.1647
  Eu  Eu8  1  0.352010  0.902420  0.487430  1.0  2.1503
  H  H9  1  0.649000  0.265100  0.741000  1.0  0.118
  H  H10  1  0.752700  0.508500  0.846500  1.0  0.1262
  H  H11  1  0.807000  0.572200  0.733100  1.0  0.1187
  H  H12  1  0.791100  0.480800  0.625900  1.0  0.1033
  H  H13  1  0.557300  0.148100  0.242700  1.0  0.1132
  H  H14  1  0.467900  0.401500  0.153900  1.0  0.1209
  H  H15  1  0.443500  0.462400  0.272300  1.0  0.1034
  H  H16  1  0.492400  0.374100  0.375800  1.0  0.1115
  H  H17  1  0.717700  0.715300  0.007100  1.0  0.1153
  H  H18  1  0.996500  0.785800  0.937100  1.0  0.12
  H  H19  1  0.959500  0.950400  0.943100  1.0  0.1048
  H  H20  1  0.803300  0.997900  0.980400  1.0  0.1101
  H  H21  1  0.649000  0.392000  0.077000  1.0  0.3789
  H  H22  1  0.515000  0.992000  0.864000  1.0  0.3875
  H  H23  1  0.851000  0.234900  0.241000  1.0  0.1181
  H  H24  1  0.747300  0.991500  0.346500  1.0  0.1262
  H  H25  1  0.693000  0.927800  0.233100  1.0  0.1194
  H  H26  1  0.708900  0.019200  0.125900  1.0  0.1022
  H  H27  1  0.942700  0.351900  0.742700  1.0  0.1126
  H  H28  1  0.032100  0.098500  0.653900  1.0  0.121
  H  H29  1  0.056500  0.037600  0.772300  1.0  0.1033
  H  H30  1  0.007600  0.125900  0.875800  1.0  0.1118
  H  H31  1  0.782300  0.784700  0.507100  1.0  0.1156
  H  H32  1  0.503500  0.714200  0.437100  1.0  0.1198
  H  H33  1  0.540500  0.549600  0.443100  1.0  0.1049
  H  H34  1  0.696700  0.502100  0.480400  1.0  0.1098
  H  H35  1  0.851000  0.108000  0.577000  1.0  0.3784
  H  H36  1  0.985000  0.508000  0.364000  1.0  0.3879
  H  H37  1  0.351000  0.734900  0.259000  1.0  0.1181
  H  H38  1  0.247300  0.491500  0.153500  1.0  0.1258
  H  H39  1  0.193000  0.427800  0.266900  1.0  0.1197
  H  H40  1  0.208900  0.519200  0.374100  1.0  0.1034
  H  H41  1  0.442700  0.851900  0.757300  1.0  0.1128
  H  H42  1  0.532100  0.598500  0.846100  1.0  0.1213
  H  H43  1  0.556500  0.537600  0.727700  1.0  0.1038
  H  H44  1  0.507600  0.625900  0.624200  1.0  0.1115
  H  H45  1  0.282300  0.284700  0.992900  1.0  0.1158
  H  H46  1  0.003500  0.214200  0.062900  1.0  0.1199
  H  H47  1  0.040500  0.049600  0.056900  1.0  0.1052
  H  H48  1  0.196700  0.002100  0.019600  1.0  0.1096
  H  H49  1  0.351000  0.608000  0.923000  1.0  0.378
  H  H50  1  0.485000  0.008000  0.136000  1.0  0.3866
  H  H51  1  0.149000  0.765100  0.759000  1.0  0.1177
  H  H52  1  0.252700  0.008500  0.653500  1.0  0.1258
  H  H53  1  0.307000  0.072200  0.766900  1.0  0.1188
  H  H54  1  0.291100  0.980800  0.874100  1.0  0.1025
  H  H55  1  0.057300  0.648100  0.257300  1.0  0.1129
  H  H56  1  0.967900  0.901500  0.346100  1.0  0.1213
  H  H57  1  0.943500  0.962400  0.227700  1.0  0.1041
  H  H58  1  0.992400  0.874100  0.124200  1.0  0.1116
  H  H59  1  0.217700  0.215300  0.492900  1.0  0.1152
  H  H60  1  0.496500  0.285800  0.562900  1.0  0.1206
  H  H61  1  0.459500  0.450400  0.556900  1.0  0.1047
  H  H62  1  0.303300  0.497900  0.519600  1.0  0.1096
  H  H63  1  0.149000  0.892000  0.423000  1.0  0.379
  H  H64  1  0.015000  0.492000  0.636000  1.0  0.3873
  C  C65  1  0.715600  0.300700  0.602400  1.0  0.7153
  C  C66  1  0.719200  0.362400  0.672100  1.0  -0.1438
  C  C67  1  0.682600  0.325900  0.739700  1.0  0.0196
  C  C68  1  0.695800  0.379400  0.805100  1.0  -0.116
  C  C69  1  0.743500  0.472200  0.802900  1.0  -0.0546
  C  C70  1  0.777100  0.509700  0.735000  1.0  -0.0941
  C  C71  1  0.766600  0.455500  0.670800  1.0  -0.0422
  C  C72  1  0.666100  0.335200  0.879400  1.0  0.753
  C  C73  1  0.566700  0.197500  0.385500  1.0  0.7031
  C  C74  1  0.531800  0.252900  0.319500  1.0  -0.1221
  C  C75  1  0.538100  0.212800  0.248500  1.0  -0.0057
  C  C76  1  0.515700  0.268500  0.185900  1.0  -0.1258
  C  C77  1  0.482300  0.363300  0.195400  1.0  -0.063
  C  C78  1  0.470200  0.400600  0.266200  1.0  -0.1047
  C  C79  1  0.497300  0.346900  0.328300  1.0  -0.0641
  C  C80  1  0.532300  0.227700  0.109900  1.0  0.7234
  C  C81  1  0.640000  0.890900  0.016900  1.0  0.6669
  C  C82  1  0.743300  0.861100  0.996900  1.0  -0.1382
  C  C83  1  0.766100  0.762700  0.994000  1.0  0.044
  C  C84  1  0.860700  0.733900  0.971800  1.0  -0.1485
  C  C85  1  0.933300  0.804600  0.952300  1.0  -0.0521
  C  C86  1  0.910900  0.903000  0.955900  1.0  -0.0885
  C  C87  1  0.817400  0.931500  0.978000  1.0  -0.0429
  C  C88  1  0.884900  0.627200  0.971200  1.0  0.7121
  C  C89  1  0.784400  0.199300  0.102400  1.0  0.716
  C  C90  1  0.780800  0.137600  0.172100  1.0  -0.1421
  C  C91  1  0.817400  0.174100  0.239700  1.0  0.0207
  C  C92  1  0.804200  0.120600  0.305100  1.0  -0.1177
  C  C93  1  0.756500  0.027800  0.302900  1.0  -0.054
  C  C94  1  0.722900  0.990300  0.235000  1.0  -0.0947
  C  C95  1  0.733400  0.044500  0.170800  1.0  -0.0419
  C  C96  1  0.833900  0.164800  0.379400  1.0  0.7515
  C  C97  1  0.933300  0.302500  0.885500  1.0  0.7019
  C  C98  1  0.968200  0.247100  0.819500  1.0  -0.1224
  C  C99  1  0.961900  0.287200  0.748500  1.0  -0.0057
  C  C100  1  0.984300  0.231500  0.685900  1.0  -0.1252
  C  C101  1  0.017700  0.136700  0.695400  1.0  -0.0623
  C  C102  1  0.029800  0.099400  0.766200  1.0  -0.1047
  C  C103  1  0.002700  0.153100  0.828300  1.0  -0.0631
  C  C104  1  0.967700  0.272300  0.609900  1.0  0.7238
  C  C105  1  0.860000  0.609100  0.516900  1.0  0.6653
  C  C106  1  0.756700  0.638900  0.496900  1.0  -0.1364
  C  C107  1  0.733900  0.737300  0.494000  1.0  0.0424
  C  C108  1  0.639300  0.766100  0.471800  1.0  -0.148
  C  C109  1  0.566700  0.695400  0.452300  1.0  -0.0525
  C  C110  1  0.589100  0.597000  0.455900  1.0  -0.0869
  C  C111  1  0.682600  0.568500  0.478000  1.0  -0.0431
  C  C112  1  0.615100  0.872800  0.471200  1.0  0.7145
  C  C113  1  0.284400  0.699300  0.397600  1.0  0.7167
  C  C114  1  0.280800  0.637600  0.327900  1.0  -0.1424
  C  C115  1  0.317400  0.674100  0.260300  1.0  0.0211
  C  C116  1  0.304200  0.620600  0.194900  1.0  -0.1169
  C  C117  1  0.256500  0.527800  0.197100  1.0  -0.055
  C  C118  1  0.222900  0.490300  0.265000  1.0  -0.095
  C  C119  1  0.233400  0.544500  0.329200  1.0  -0.0422
  C  C120  1  0.333900  0.664800  0.120600  1.0  0.7537
  C  C121  1  0.433300  0.802500  0.614500  1.0  0.7015
  C  C122  1  0.468200  0.747100  0.680500  1.0  -0.1219
  C  C123  1  0.461900  0.787200  0.751500  1.0  -0.006
  C  C124  1  0.484300  0.731500  0.814100  1.0  -0.1258
  C  C125  1  0.517700  0.636700  0.804600  1.0  -0.0618
  C  C126  1  0.529800  0.599400  0.733800  1.0  -0.1041
  C  C127  1  0.502700  0.653100  0.671700  1.0  -0.0644
  C  C128  1  0.467700  0.772300  0.890100  1.0  0.724
  C  C129  1  0.360000  0.109100  0.983100  1.0  0.6683
  C  C130  1  0.256700  0.138900  0.003100  1.0  -0.1362
  C  C131  1  0.233900  0.237300  0.006000  1.0  0.0432
  C  C132  1  0.139300  0.266100  0.028200  1.0  -0.1482
  C  C133  1  0.066700  0.195400  0.047700  1.0  -0.0521
  C  C134  1  0.089100  0.097000  0.044100  1.0  -0.0879
  C  C135  1  0.182600  0.068500  0.022000  1.0  -0.0422
  C  C136  1  0.115100  0.372800  0.028800  1.0  0.7143
  C  C137  1  0.215600  0.800700  0.897600  1.0  0.7166
  C  C138  1  0.219200  0.862400  0.827900  1.0  -0.1426
  C  C139  1  0.182600  0.825900  0.760300  1.0  0.02
  C  C140  1  0.195800  0.879400  0.694900  1.0  -0.1167
  C  C141  1  0.243500  0.972200  0.697100  1.0  -0.0548
  C  C142  1  0.277100  0.009700  0.765000  1.0  -0.0942
  C  C143  1  0.266600  0.955500  0.829200  1.0  -0.0427
  C  C144  1  0.166100  0.835200  0.620600  1.0  0.7554
  C  C145  1  0.066700  0.697500  0.114500  1.0  0.7025
  C  C146  1  0.031800  0.752900  0.180500  1.0  -0.1224
  C  C147  1  0.038100  0.712800  0.251500  1.0  -0.0061
  C  C148  1  0.015700  0.768500  0.314100  1.0  -0.1259
  C  C149  1  0.982300  0.863300  0.304600  1.0  -0.0629
  C  C150  1  0.970200  0.900600  0.233800  1.0  -0.1043
  C  C151  1  0.997300  0.846900  0.171700  1.0  -0.065
  C  C152  1  0.032300  0.727700  0.390100  1.0  0.7236
  C  C153  1  0.140000  0.390900  0.483100  1.0  0.6647
  C  C154  1  0.243300  0.361100  0.503100  1.0  -0.1378
  C  C155  1  0.266100  0.262700  0.506000  1.0  0.0442
  C  C156  1  0.360700  0.233900  0.528200  1.0  -0.1484
  C  C157  1  0.433300  0.304600  0.547700  1.0  -0.052
  C  C158  1  0.410900  0.403000  0.544100  1.0  -0.0889
  C  C159  1  0.317400  0.431500  0.522000  1.0  -0.043
  C  C160  1  0.384900  0.127200  0.528800  1.0  0.712
  O  O161  1  0.763300  0.330500  0.545800  1.0  -0.715
  O  O162  1  0.664600  0.221600  0.604550  1.0  -0.6258
  O  O163  1  0.713700  0.361800  0.936170  1.0  -0.7385
  O  O164  1  0.596000  0.271100  0.880150  1.0  -0.6262
  O  O165  1  0.553900  0.284900  0.056330  1.0  -0.6331
  O  O166  1  0.528000  0.135500  0.100110  1.0  -0.6841
  O  O167  1  0.565500  0.103900  0.385580  1.0  -0.6206
  O  O168  1  0.601700  0.245500  0.440570  1.0  -0.6185
  O  O169  1  0.614900  0.978100  0.005900  1.0  -0.777
  O  O170  1  0.580200  0.826100  0.042000  1.0  -0.6619
  O  O171  1  0.813200  0.565600  0.976700  1.0  -0.6287
  O  O172  1  0.974200  0.602400  0.966100  1.0  -0.7489
  O  O173  1  0.695900  0.438200  0.081200  1.0  -0.6473
  O  O174  1  0.548600  0.047000  0.857300  1.0  -0.6546
  O  O175  1  0.736700  0.169500  0.045800  1.0  -0.7136
  O  O176  1  0.835400  0.278400  0.104550  1.0  -0.6262
  O  O177  1  0.786300  0.138200  0.436170  1.0  -0.7373
  O  O178  1  0.904000  0.228900  0.380150  1.0  -0.6257
  O  O179  1  0.946100  0.215100  0.556330  1.0  -0.6326
  O  O180  1  0.972000  0.364500  0.600110  1.0  -0.6843
  O  O181  1  0.934500  0.396100  0.885580  1.0  -0.6214
  O  O182  1  0.898300  0.254500  0.940570  1.0  -0.619
  O  O183  1  0.885100  0.521900  0.505900  1.0  -0.7763
  O  O184  1  0.919800  0.673900  0.542000  1.0  -0.663
  O  O185  1  0.686800  0.934400  0.476700  1.0  -0.6286
  O  O186  1  0.525800  0.897600  0.466100  1.0  -0.749
  O  O187  1  0.804100  0.061800  0.581200  1.0  -0.6432
  O  O188  1  0.951400  0.453000  0.357300  1.0  -0.6575
  O  O189  1  0.236700  0.669500  0.454200  1.0  -0.7131
  O  O190  1  0.335400  0.778400  0.395450  1.0  -0.6279
  O  O191  1  0.286300  0.638200  0.063830  1.0  -0.7377
  O  O192  1  0.404000  0.728900  0.119850  1.0  -0.625
  O  O193  1  0.446100  0.715100  0.943670  1.0  -0.6326
  O  O194  1  0.472000  0.864500  0.899890  1.0  -0.6843
  O  O195  1  0.434500  0.896100  0.614420  1.0  -0.6216
  O  O196  1  0.398300  0.754500  0.559430  1.0  -0.6194
  O  O197  1  0.385100  0.021900  0.994100  1.0  -0.7768
  O  O198  1  0.419800  0.173900  0.958000  1.0  -0.6642
  O  O199  1  0.186800  0.434400  0.023300  1.0  -0.63
  O  O200  1  0.025800  0.397600  0.033900  1.0  -0.7499
  O  O201  1  0.304100  0.561800  0.918800  1.0  -0.6459
  O  O202  1  0.451400  0.953000  0.142700  1.0  -0.6586
  O  O203  1  0.263300  0.830500  0.954200  1.0  -0.714
  O  O204  1  0.164600  0.721600  0.895450  1.0  -0.6278
  O  O205  1  0.213700  0.861800  0.563830  1.0  -0.7378
  O  O206  1  0.096000  0.771100  0.619850  1.0  -0.6257
  O  O207  1  0.053900  0.784900  0.443670  1.0  -0.633
  O  O208  1  0.028000  0.635500  0.399890  1.0  -0.6842
  O  O209  1  0.065500  0.603900  0.114420  1.0  -0.6204
  O  O210  1  0.101700  0.745500  0.059430  1.0  -0.6188
  O  O211  1  0.114900  0.478100  0.494100  1.0  -0.7784
  O  O212  1  0.080200  0.326100  0.458000  1.0  -0.6623
  O  O213  1  0.313200  0.065600  0.523300  1.0  -0.6299
  O  O214  1  0.474200  0.102400  0.533900  1.0  -0.7486
  O  O215  1  0.195900  0.938200  0.418800  1.0  -0.6458
  O  O216  1  0.048600  0.547000  0.642700  1.0  -0.6569
