# generated using pymatgen
data_Sm2H6(C3O4)3
_symmetry_space_group_name_H-M   'P 1'
_cell_length_a   17.15000000
_cell_length_b   12.28400000
_cell_length_c   11.14400000
_cell_angle_alpha   90.00000000
_cell_angle_beta   127.54900000
_cell_angle_gamma   90.00000000
_symmetry_Int_Tables_number   1
_chemical_formula_structural   Sm2H6(C3O4)3
_chemical_formula_sum   'Sm8 H24 C36 O48'
_cell_volume   1861.34313597
_cell_formula_units_Z   4
loop_
 _symmetry_equiv_pos_site_id
 _symmetry_equiv_pos_as_xyz
  1  'x, y, z'
loop_
 _atom_site_type_symbol
 _atom_site_label
 _atom_site_symmetry_multiplicity
 _atom_site_fract_x
 _atom_site_fract_y
 _atom_site_fract_z
 _atom_site_occupancy
 _atom_site_charge
  Sm  Sm1  1  0.216810  0.351920  0.120230  1.0  2.3116
  Sm  Sm2  1  0.716810  0.851920  0.120230  1.0  2.3116
  Sm  Sm3  1  0.783190  0.351920  0.379770  1.0  2.3116
  Sm  Sm4  1  0.283190  0.851920  0.379770  1.0  2.3116
  Sm  Sm5  1  0.783190  0.648080  0.879770  1.0  2.3116
  Sm  Sm6  1  0.283190  0.148080  0.879770  1.0  2.3116
  Sm  Sm7  1  0.216810  0.648080  0.620230  1.0  2.3117
  Sm  Sm8  1  0.716810  0.148080  0.620230  1.0  2.3117
  H  H9  1  0.054000  0.167000  0.185000  1.0  0.1439
  H  H10  1  0.029000  0.074000  0.711000  1.0  0.1003
  H  H11  1  0.119000  0.126000  0.364000  1.0  0.0999
  H  H12  1  0.554000  0.667000  0.185000  1.0  0.1439
  H  H13  1  0.529000  0.574000  0.711000  1.0  0.1003
  H  H14  1  0.619000  0.626000  0.364000  1.0  0.0999
  H  H15  1  0.946000  0.167000  0.315000  1.0  0.1456
  H  H16  1  0.971000  0.074000  0.789000  1.0  0.1007
  H  H17  1  0.881000  0.126000  0.136000  1.0  0.0993
  H  H18  1  0.446000  0.667000  0.315000  1.0  0.1456
  H  H19  1  0.471000  0.574000  0.789000  1.0  0.1007
  H  H20  1  0.381000  0.626000  0.136000  1.0  0.0993
  H  H21  1  0.946000  0.833000  0.815000  1.0  0.1456
  H  H22  1  0.971000  0.926000  0.289000  1.0  0.1001
  H  H23  1  0.881000  0.874000  0.636000  1.0  0.0994
  H  H24  1  0.446000  0.333000  0.815000  1.0  0.1456
  H  H25  1  0.471000  0.426000  0.289000  1.0  0.1001
  H  H26  1  0.381000  0.374000  0.636000  1.0  0.0994
  H  H27  1  0.054000  0.833000  0.685000  1.0  0.1433
  H  H28  1  0.029000  0.926000  0.211000  1.0  0.0999
  H  H29  1  0.119000  0.874000  0.864000  1.0  0.0997
  H  H30  1  0.554000  0.333000  0.685000  1.0  0.1433
  H  H31  1  0.529000  0.426000  0.211000  1.0  0.0999
  H  H32  1  0.619000  0.374000  0.864000  1.0  0.0997
  C  C33  1  0.139800  0.288900  0.332100  1.0  0.7941
  C  C34  1  0.118900  0.171600  0.279300  1.0  -0.3392
  C  C35  1  0.187800  0.116100  0.256900  1.0  0.8492
  C  C36  1  0.075700  0.201000  0.875800  1.0  0.7489
  C  C37  1  0.639800  0.788900  0.332100  1.0  0.7941
  C  C38  1  0.618900  0.671600  0.279300  1.0  -0.3392
  C  C39  1  0.687800  0.616100  0.256900  1.0  0.8492
  C  C40  1  0.575700  0.701000  0.875800  1.0  0.7489
  C  C41  1  0.860200  0.288900  0.167900  1.0  0.7935
  C  C42  1  0.881100  0.171600  0.220700  1.0  -0.3369
  C  C43  1  0.812200  0.116100  0.243100  1.0  0.8522
  C  C44  1  0.924300  0.201000  0.624200  1.0  0.7504
  C  C45  1  0.360200  0.788900  0.167900  1.0  0.7935
  C  C46  1  0.381100  0.671600  0.220700  1.0  -0.3369
  C  C47  1  0.312200  0.616100  0.243100  1.0  0.8522
  C  C48  1  0.424300  0.701000  0.624200  1.0  0.7504
  C  C49  1  0.860200  0.711100  0.667900  1.0  0.793
  C  C50  1  0.881100  0.828400  0.720700  1.0  -0.3365
  C  C51  1  0.812200  0.883900  0.743100  1.0  0.8518
  C  C52  1  0.924300  0.799000  0.124200  1.0  0.751
  C  C53  1  0.360200  0.211100  0.667900  1.0  0.793
  C  C54  1  0.381100  0.328400  0.720700  1.0  -0.3365
  C  C55  1  0.312200  0.383900  0.743100  1.0  0.8518
  C  C56  1  0.424300  0.299000  0.124200  1.0  0.751
  C  C57  1  0.139800  0.711100  0.832100  1.0  0.7941
  C  C58  1  0.118900  0.828400  0.779300  1.0  -0.3387
  C  C59  1  0.187800  0.883900  0.756900  1.0  0.8491
  C  C60  1  0.075700  0.799000  0.375800  1.0  0.7508
  C  C61  1  0.639800  0.211100  0.832100  1.0  0.7941
  C  C62  1  0.618900  0.328400  0.779300  1.0  -0.3387
  C  C63  1  0.687800  0.383900  0.756900  1.0  0.8491
  C  C64  1  0.575700  0.299000  0.375800  1.0  0.7508
  C  C65  1  0.000000  0.125100  0.750000  1.0  -0.5154
  C  C66  1  0.500000  0.625100  0.750000  1.0  -0.5154
  C  C67  1  0.000000  0.874900  0.250000  1.0  -0.5151
  C  C68  1  0.500000  0.374900  0.250000  1.0  -0.5151
  O  O69  1  0.164800  0.355500  0.274500  1.0  -0.8269
  O  O70  1  0.226000  0.168300  0.208400  1.0  -0.7317
  O  O71  1  0.128700  0.315600  0.428000  1.0  -0.5411
  O  O72  1  0.200400  0.016400  0.284900  1.0  -0.8185
  O  O73  1  0.051000  0.257500  0.941100  1.0  -0.6928
  O  O74  1  0.159500  0.209600  0.908300  1.0  -0.8478
  O  O75  1  0.664800  0.855500  0.274500  1.0  -0.8269
  O  O76  1  0.726000  0.668300  0.208400  1.0  -0.7317
  O  O77  1  0.628700  0.815600  0.428000  1.0  -0.5411
  O  O78  1  0.700400  0.516400  0.284900  1.0  -0.8185
  O  O79  1  0.551000  0.757500  0.941100  1.0  -0.6928
  O  O80  1  0.659500  0.709600  0.908300  1.0  -0.8478
  O  O81  1  0.835200  0.355500  0.225500  1.0  -0.8252
  O  O82  1  0.774000  0.168300  0.291600  1.0  -0.7309
  O  O83  1  0.871300  0.315600  0.072000  1.0  -0.5406
  O  O84  1  0.799600  0.016400  0.215100  1.0  -0.818
  O  O85  1  0.949000  0.257500  0.558900  1.0  -0.6913
  O  O86  1  0.840500  0.209600  0.591700  1.0  -0.8487
  O  O87  1  0.335200  0.855500  0.225500  1.0  -0.8252
  O  O88  1  0.274000  0.668300  0.291600  1.0  -0.7309
  O  O89  1  0.371300  0.815600  0.072000  1.0  -0.5406
  O  O90  1  0.299600  0.516400  0.215100  1.0  -0.818
  O  O91  1  0.449000  0.757500  0.558900  1.0  -0.6913
  O  O92  1  0.340500  0.709600  0.591700  1.0  -0.8487
  O  O93  1  0.835200  0.644500  0.725500  1.0  -0.8236
  O  O94  1  0.774000  0.831700  0.791600  1.0  -0.731
  O  O95  1  0.871300  0.684400  0.572000  1.0  -0.5411
  O  O96  1  0.799600  0.983600  0.715100  1.0  -0.8196
  O  O97  1  0.949000  0.742500  0.058900  1.0  -0.69
  O  O98  1  0.840500  0.790400  0.091700  1.0  -0.8486
  O  O99  1  0.335200  0.144500  0.725500  1.0  -0.8236
  O  O100  1  0.274000  0.331700  0.791600  1.0  -0.731
  O  O101  1  0.371300  0.184400  0.572000  1.0  -0.5411
  O  O102  1  0.299600  0.483600  0.715100  1.0  -0.8196
  O  O103  1  0.449000  0.242500  0.058900  1.0  -0.69
  O  O104  1  0.340500  0.290400  0.091700  1.0  -0.8486
  O  O105  1  0.164800  0.644500  0.774500  1.0  -0.8239
  O  O106  1  0.226000  0.831700  0.708400  1.0  -0.732
  O  O107  1  0.128700  0.684400  0.928000  1.0  -0.541
  O  O108  1  0.200400  0.983600  0.784900  1.0  -0.818
  O  O109  1  0.051000  0.742500  0.441100  1.0  -0.6903
  O  O110  1  0.159500  0.790400  0.408300  1.0  -0.8478
  O  O111  1  0.664800  0.144500  0.774500  1.0  -0.8239
  O  O112  1  0.726000  0.331700  0.708400  1.0  -0.732
  O  O113  1  0.628700  0.184400  0.928000  1.0  -0.541
  O  O114  1  0.700400  0.483600  0.784900  1.0  -0.818
  O  O115  1  0.551000  0.242500  0.441100  1.0  -0.6903
  O  O116  1  0.659500  0.290400  0.408300  1.0  -0.8478
