# generated using pymatgen
data_Sm2H6(C3O4)3
_symmetry_space_group_name_H-M   'P 1'
_cell_length_a   10.56710000
_cell_length_b   10.56710000
_cell_length_c   10.91940000
_cell_angle_alpha   78.77080000
_cell_angle_beta   62.49630000
_cell_angle_gamma   108.75800000
_symmetry_Int_Tables_number   1
_chemical_formula_structural   Sm2H6(C3O4)3
_chemical_formula_sum   'Sm4 H12 C18 O24'
_cell_volume   934.62950771
_cell_formula_units_Z   2
loop_
 _symmetry_equiv_pos_site_id
 _symmetry_equiv_pos_as_xyz
  1  'x, y, z'
loop_
 _atom_site_type_symbol
 _atom_site_label
 _atom_site_symmetry_multiplicity
 _atom_site_fract_x
 _atom_site_fract_y
 _atom_site_fract_z
 _atom_site_occupancy
 _atom_site_charge
  Sm  Sm1  1  0.448530  0.635170  0.620160  1.0  2.3396
  Sm  Sm2  1  0.755330  0.068690  0.879840  1.0  2.3404
  Sm  Sm3  1  0.551470  0.364830  0.379840  1.0  2.3401
  Sm  Sm4  1  0.244670  0.931310  0.120160  1.0  2.3406
  H  H5  1  0.897000  0.513700  0.849100  1.0  0.1782
  H  H6  1  0.041500  0.616700  0.681600  1.0  0.1868
  H  H7  1  0.733300  0.391100  0.717000  1.0  0.147
  H  H8  1  0.862800  0.746100  0.650900  1.0  0.1734
  H  H9  1  0.798300  0.723100  0.818400  1.0  0.1865
  H  H10  1  0.608100  0.450300  0.783000  1.0  0.1474
  H  H11  1  0.103000  0.486300  0.150900  1.0  0.177
  H  H12  1  0.958500  0.383300  0.318400  1.0  0.1876
  H  H13  1  0.266700  0.608900  0.283000  1.0  0.1566
  H  H14  1  0.137200  0.253900  0.349100  1.0  0.1737
  H  H15  1  0.201700  0.276900  0.181600  1.0  0.1854
  H  H16  1  0.391900  0.549700  0.217000  1.0  0.1492
  C  C17  1  0.096400  0.649000  0.831600  1.0  0.8604
  C  C18  1  0.013000  0.554000  0.777800  1.0  -0.6287
  C  C19  1  0.047100  0.427900  0.757600  1.0  0.9547
  C  C20  1  0.598800  0.374600  0.625200  1.0  0.8403
  C  C21  1  0.980600  0.928000  0.668400  1.0  0.8576
  C  C22  1  0.831800  0.790800  0.722200  1.0  -0.6307
  C  C23  1  0.685500  0.804700  0.742400  1.0  0.9558
  C  C24  1  0.499800  0.224000  0.874800  1.0  0.8361
  C  C25  1  0.903600  0.351000  0.168400  1.0  0.8615
  C  C26  1  0.987000  0.446000  0.222200  1.0  -0.63
  C  C27  1  0.952900  0.572100  0.242400  1.0  0.9513
  C  C28  1  0.401200  0.625400  0.374800  1.0  0.8418
  C  C29  1  0.019400  0.072000  0.331600  1.0  0.8571
  C  C30  1  0.168200  0.209200  0.277800  1.0  -0.6308
  C  C31  1  0.314500  0.195300  0.257600  1.0  0.9472
  C  C32  1  0.500200  0.776000  0.125200  1.0  0.8371
  C  C33  1  0.624900  0.374900  0.750000  1.0  -0.5161
  C  C34  1  0.375100  0.625100  0.250000  1.0  -0.5178
  O  O35  1  0.246100  0.691100  0.774400  1.0  -0.8544
  O  O36  1  0.015200  0.687500  0.927900  1.0  -0.6151
  O  O37  1  0.186500  0.442600  0.708500  1.0  -0.7471
  O  O38  1  0.932200  0.314900  0.786100  1.0  -0.8466
  O  O39  1  0.632800  0.293800  0.558400  1.0  -0.6676
  O  O40  1  0.539500  0.450600  0.591900  1.0  -0.8822
  O  O41  1  0.965500  0.020500  0.725600  1.0  -0.8561
  O  O42  1  0.115400  0.943100  0.572100  1.0  -0.6195
  O  O43  1  0.651100  0.895000  0.791500  1.0  -0.7447
  O  O44  1  0.601000  0.718300  0.713900  1.0  -0.8458
  O  O45  1  0.352200  0.191200  0.941600  1.0  -0.6706
  O  O46  1  0.542500  0.131400  0.908100  1.0  -0.88
  O  O47  1  0.753900  0.308900  0.225600  1.0  -0.8513
  O  O48  1  0.984800  0.312500  0.072100  1.0  -0.6162
  O  O49  1  0.813500  0.557400  0.291500  1.0  -0.75
  O  O50  1  0.067800  0.685100  0.213900  1.0  -0.8495
  O  O51  1  0.367200  0.706200  0.441600  1.0  -0.6673
  O  O52  1  0.460500  0.549400  0.408100  1.0  -0.8799
  O  O53  1  0.034500  0.979500  0.274400  1.0  -0.8539
  O  O54  1  0.884600  0.056900  0.427900  1.0  -0.6167
  O  O55  1  0.348900  0.105000  0.208500  1.0  -0.7445
  O  O56  1  0.399000  0.281700  0.286100  1.0  -0.8446
  O  O57  1  0.647800  0.808800  0.058400  1.0  -0.6715
  O  O58  1  0.457500  0.868600  0.091900  1.0  -0.8814
