# generated using pymatgen
data_CuH14C15(NO)2
_symmetry_space_group_name_H-M   'P 1'
_cell_length_a   16.05030000
_cell_length_b   16.05030000
_cell_length_c   36.84300000
_cell_angle_alpha   90.00000000
_cell_angle_beta   90.00000000
_cell_angle_gamma   120.00000000
_symmetry_Int_Tables_number   1
_chemical_formula_structural   CuH14C15(NO)2
_chemical_formula_sum   'Cu12 H168 C180 N24 O24'
_cell_volume   8219.62352441
_cell_formula_units_Z   12
loop_
 _symmetry_equiv_pos_site_id
 _symmetry_equiv_pos_as_xyz
  1  'x, y, z'
loop_
 _atom_site_type_symbol
 _atom_site_label
 _atom_site_symmetry_multiplicity
 _atom_site_fract_x
 _atom_site_fract_y
 _atom_site_fract_z
 _atom_site_occupancy
 _atom_site_charge
  Cu  Cu1  1  0.297770  0.148890  0.083330  1.0  0.8995
  Cu  Cu2  1  0.726170  0.863090  0.083330  1.0  0.7721
  Cu  Cu3  1  0.851110  0.148890  0.416670  1.0  0.9001
  Cu  Cu4  1  0.136910  0.863080  0.416670  1.0  0.7709
  Cu  Cu5  1  0.851110  0.702230  0.750000  1.0  0.9018
  Cu  Cu6  1  0.136920  0.273830  0.750000  1.0  0.7656
  Cu  Cu7  1  0.702230  0.851110  0.583330  1.0  0.9004
  Cu  Cu8  1  0.273830  0.136910  0.583330  1.0  0.7707
  Cu  Cu9  1  0.148890  0.851110  0.916670  1.0  0.9002
  Cu  Cu10  1  0.863090  0.136920  0.916670  1.0  0.7722
  Cu  Cu11  1  0.148890  0.297770  0.250000  1.0  0.9012
  Cu  Cu12  1  0.863090  0.726170  0.250000  1.0  0.7664
  H  H13  1  0.341700  0.197700  0.162900  1.0  0.0889
  H  H14  1  0.458200  0.321600  0.197800  1.0  0.1039
  H  H15  1  0.593700  0.463200  0.107000  1.0  0.1089
  H  H16  1  0.477200  0.339300  0.072100  1.0  0.0921
  H  H17  1  0.815200  0.686900  0.171100  1.0  0.0834
  H  H18  1  0.696700  0.567800  0.135200  1.0  0.105
  H  H19  1  0.554100  0.425200  0.224900  1.0  0.0986
  H  H20  1  0.672600  0.544200  0.260700  1.0  0.0921
  H  H21  1  0.952000  0.866500  0.153300  1.0  0.1097
  H  H22  1  0.033600  0.906700  0.123900  1.0  0.1093
  H  H23  1  0.949300  0.799900  0.121600  1.0  0.1136
  H  H24  1  0.000600  0.094500  0.136300  1.0  0.0998
  H  H25  1  0.043300  0.190400  0.113900  1.0  0.1066
  H  H26  1  0.098400  0.184000  0.148000  1.0  0.1215
  H  H27  1  0.802300  0.144000  0.496230  1.0  0.0907
  H  H28  1  0.678400  0.136600  0.531130  1.0  0.1066
  H  H29  1  0.536800  0.130500  0.440330  1.0  0.1078
  H  H30  1  0.660700  0.137900  0.405430  1.0  0.0927
  H  H31  1  0.313100  0.128300  0.504430  1.0  0.0832
  H  H32  1  0.432200  0.128900  0.468530  1.0  0.107
  H  H33  1  0.574800  0.128900  0.558230  1.0  0.0977
  H  H34  1  0.455800  0.128400  0.594030  1.0  0.0916
  H  H35  1  0.133500  0.085500  0.486630  1.0  0.1086
  H  H36  1  0.093300  0.126900  0.457230  1.0  0.107
  H  H37  1  0.200100  0.149400  0.454930  1.0  0.1135
  H  H38  1  0.905500  0.906100  0.469630  1.0  0.0984
  H  H39  1  0.809600  0.852900  0.447230  1.0  0.1047
  H  H40  1  0.816000  0.914400  0.481330  1.0  0.1215
  H  H41  1  0.856000  0.658300  0.829570  1.0  0.0881
  H  H42  1  0.863400  0.541800  0.864470  1.0  0.1042
  H  H43  1  0.869500  0.406300  0.773670  1.0  0.1106
  H  H44  1  0.862100  0.522800  0.738770  1.0  0.0922
  H  H45  1  0.871700  0.184800  0.837770  1.0  0.0823
  H  H46  1  0.871100  0.303300  0.801870  1.0  0.1043
  H  H47  1  0.871100  0.445900  0.891570  1.0  0.0985
  H  H48  1  0.871600  0.327400  0.927370  1.0  0.0919
  H  H49  1  0.914500  0.048000  0.819970  1.0  0.1096
  H  H50  1  0.873100  0.966400  0.790570  1.0  0.1072
  H  H51  1  0.850600  0.050700  0.788270  1.0  0.1145
  H  H52  1  0.093900  0.999400  0.802970  1.0  0.0991
  H  H53  1  0.147100  0.956700  0.780570  1.0  0.1061
  H  H54  1  0.085600  0.901600  0.814670  1.0  0.1215
  H  H55  1  0.658300  0.802300  0.662900  1.0  0.0881
  H  H56  1  0.541800  0.678400  0.697800  1.0  0.1044
  H  H57  1  0.406300  0.536800  0.607000  1.0  0.109
  H  H58  1  0.522800  0.660700  0.572100  1.0  0.0924
  H  H59  1  0.184800  0.313100  0.671100  1.0  0.0833
  H  H60  1  0.303300  0.432200  0.635200  1.0  0.106
  H  H61  1  0.445900  0.574800  0.724900  1.0  0.1003
  H  H62  1  0.327400  0.455800  0.760700  1.0  0.0914
  H  H63  1  0.048000  0.133500  0.653300  1.0  0.1095
  H  H64  1  0.966400  0.093300  0.623900  1.0  0.1086
  H  H65  1  0.050700  0.200100  0.621600  1.0  0.1135
  H  H66  1  0.999400  0.905500  0.636300  1.0  0.0998
  H  H67  1  0.956700  0.809600  0.613900  1.0  0.1067
  H  H68  1  0.901600  0.816000  0.648000  1.0  0.1214
  H  H69  1  0.197700  0.856000  0.996230  1.0  0.0904
  H  H70  1  0.321600  0.863400  0.031130  1.0  0.1041
  H  H71  1  0.463200  0.869500  0.940330  1.0  0.1083
  H  H72  1  0.339300  0.862100  0.905430  1.0  0.0924
  H  H73  1  0.686900  0.871700  0.004430  1.0  0.0834
  H  H74  1  0.567800  0.871100  0.968530  1.0  0.1051
  H  H75  1  0.425200  0.871100  0.058230  1.0  0.0965
  H  H76  1  0.544200  0.871600  0.094030  1.0  0.092
  H  H77  1  0.866500  0.914500  0.986630  1.0  0.1083
  H  H78  1  0.906700  0.873100  0.957230  1.0  0.106
  H  H79  1  0.799900  0.850600  0.954930  1.0  0.1143
  H  H80  1  0.094500  0.093900  0.969630  1.0  0.0993
  H  H81  1  0.190400  0.147100  0.947230  1.0  0.1059
  H  H82  1  0.184000  0.085600  0.981330  1.0  0.1208
  H  H83  1  0.144000  0.341700  0.329570  1.0  0.0883
  H  H84  1  0.136600  0.458200  0.364470  1.0  0.1049
  H  H85  1  0.130500  0.593700  0.273670  1.0  0.1095
  H  H86  1  0.137900  0.477200  0.238770  1.0  0.0926
  H  H87  1  0.128300  0.815200  0.337770  1.0  0.083
  H  H88  1  0.128900  0.696700  0.301870  1.0  0.1055
  H  H89  1  0.128900  0.554100  0.391570  1.0  0.0975
  H  H90  1  0.128400  0.672600  0.427370  1.0  0.0919
  H  H91  1  0.085500  0.952000  0.319970  1.0  0.1097
  H  H92  1  0.126900  0.033600  0.290570  1.0  0.1088
  H  H93  1  0.149400  0.949300  0.288270  1.0  0.1127
  H  H94  1  0.906100  0.000600  0.302970  1.0  0.0995
  H  H95  1  0.852900  0.043300  0.280570  1.0  0.1062
  H  H96  1  0.914400  0.098400  0.314670  1.0  0.1213
  H  H97  1  0.197700  0.341700  0.170430  1.0  0.0877
  H  H98  1  0.321600  0.458200  0.135530  1.0  0.1027
  H  H99  1  0.463200  0.593700  0.226330  1.0  0.1116
  H  H100  1  0.339300  0.477200  0.261230  1.0  0.0923
  H  H101  1  0.686900  0.815200  0.162230  1.0  0.0822
  H  H102  1  0.567800  0.696700  0.198130  1.0  0.1059
  H  H103  1  0.425200  0.554100  0.108430  1.0  0.0966
  H  H104  1  0.544200  0.672600  0.072630  1.0  0.0913
  H  H105  1  0.866500  0.952000  0.180030  1.0  0.1098
  H  H106  1  0.906700  0.033600  0.209430  1.0  0.1072
  H  H107  1  0.799900  0.949300  0.211730  1.0  0.1137
  H  H108  1  0.094500  0.000600  0.197030  1.0  0.1001
  H  H109  1  0.190400  0.043300  0.219430  1.0  0.1054
  H  H110  1  0.184000  0.098400  0.185330  1.0  0.1211
  H  H111  1  0.144000  0.802300  0.837100  1.0  0.0892
  H  H112  1  0.136600  0.678400  0.802200  1.0  0.1023
  H  H113  1  0.130500  0.536800  0.893000  1.0  0.1093
  H  H114  1  0.137900  0.660700  0.927900  1.0  0.0925
  H  H115  1  0.128300  0.313100  0.828900  1.0  0.0837
  H  H116  1  0.128900  0.432200  0.864800  1.0  0.1051
  H  H117  1  0.128900  0.574800  0.775100  1.0  0.0977
  H  H118  1  0.128400  0.455800  0.739300  1.0  0.0916
  H  H119  1  0.085500  0.133500  0.846700  1.0  0.1108
  H  H120  1  0.126900  0.093300  0.876100  1.0  0.1087
  H  H121  1  0.149400  0.200100  0.878400  1.0  0.113
  H  H122  1  0.906100  0.905500  0.863700  1.0  0.1003
  H  H123  1  0.852900  0.809600  0.886100  1.0  0.1071
  H  H124  1  0.914400  0.816000  0.852000  1.0  0.1215
  H  H125  1  0.658300  0.856000  0.503770  1.0  0.0898
  H  H126  1  0.541800  0.863400  0.468870  1.0  0.1028
  H  H127  1  0.406300  0.869500  0.559670  1.0  0.1078
  H  H128  1  0.522800  0.862100  0.594570  1.0  0.0926
  H  H129  1  0.184800  0.871700  0.495570  1.0  0.0836
  H  H130  1  0.303300  0.871100  0.531470  1.0  0.1065
  H  H131  1  0.445900  0.871100  0.441770  1.0  0.0965
  H  H132  1  0.327400  0.871600  0.405970  1.0  0.0914
  H  H133  1  0.048000  0.914500  0.513370  1.0  0.1091
  H  H134  1  0.966400  0.873100  0.542770  1.0  0.1076
  H  H135  1  0.050700  0.850600  0.545070  1.0  0.1138
  H  H136  1  0.999400  0.093900  0.530370  1.0  0.0988
  H  H137  1  0.956700  0.147100  0.552770  1.0  0.1054
  H  H138  1  0.901600  0.085600  0.518670  1.0  0.1206
  H  H139  1  0.802300  0.658300  0.670430  1.0  0.0884
  H  H140  1  0.678400  0.541800  0.635530  1.0  0.1028
  H  H141  1  0.536800  0.406300  0.726330  1.0  0.1102
  H  H142  1  0.660700  0.522800  0.761230  1.0  0.0928
  H  H143  1  0.313100  0.184800  0.662230  1.0  0.0833
  H  H144  1  0.432200  0.303300  0.698130  1.0  0.1054
  H  H145  1  0.574800  0.445900  0.608430  1.0  0.0965
  H  H146  1  0.455800  0.327400  0.572630  1.0  0.0916
  H  H147  1  0.133500  0.048000  0.680030  1.0  0.1108
  H  H148  1  0.093300  0.966400  0.709430  1.0  0.1108
  H  H149  1  0.200100  0.050700  0.711730  1.0  0.1127
  H  H150  1  0.905500  0.999400  0.697030  1.0  0.0994
  H  H151  1  0.809600  0.956700  0.719430  1.0  0.106
  H  H152  1  0.816000  0.901600  0.685330  1.0  0.1218
  H  H153  1  0.856000  0.197700  0.337100  1.0  0.0879
  H  H154  1  0.863400  0.321600  0.302200  1.0  0.1026
  H  H155  1  0.869500  0.463200  0.393000  1.0  0.1094
  H  H156  1  0.862100  0.339300  0.427900  1.0  0.0925
  H  H157  1  0.871700  0.686900  0.328900  1.0  0.0837
  H  H158  1  0.871100  0.567800  0.364800  1.0  0.1061
  H  H159  1  0.871100  0.425200  0.275100  1.0  0.098
  H  H160  1  0.871600  0.544200  0.239300  1.0  0.0912
  H  H161  1  0.914500  0.866500  0.346700  1.0  0.1096
  H  H162  1  0.873100  0.906700  0.376100  1.0  0.1097
  H  H163  1  0.850600  0.799900  0.378400  1.0  0.1131
  H  H164  1  0.093900  0.094500  0.363700  1.0  0.1006
  H  H165  1  0.147100  0.190400  0.386100  1.0  0.1061
  H  H166  1  0.085600  0.184000  0.352000  1.0  0.1211
  H  H167  1  0.341700  0.144000  0.003770  1.0  0.0906
  H  H168  1  0.458200  0.136600  0.968870  1.0  0.1039
  H  H169  1  0.593700  0.130500  0.059670  1.0  0.1093
  H  H170  1  0.477200  0.137900  0.094570  1.0  0.0923
  H  H171  1  0.815200  0.128300  0.995570  1.0  0.0835
  H  H172  1  0.696700  0.128900  0.031470  1.0  0.1071
  H  H173  1  0.554100  0.128900  0.941770  1.0  0.0954
  H  H174  1  0.672600  0.128400  0.905970  1.0  0.0916
  H  H175  1  0.952000  0.085500  0.013370  1.0  0.1099
  H  H176  1  0.033600  0.126900  0.042770  1.0  0.1072
  H  H177  1  0.949300  0.149400  0.045070  1.0  0.1144
  H  H178  1  0.000600  0.906100  0.030370  1.0  0.0996
  H  H179  1  0.043300  0.852900  0.052770  1.0  0.106
  H  H180  1  0.098400  0.914400  0.018670  1.0  0.1213
  C  C181  1  0.392200  0.250900  0.151700  1.0  0.1424
  C  C182  1  0.462000  0.325200  0.172600  1.0  -0.1449
  C  C183  1  0.537500  0.404700  0.155900  1.0  -0.0713
  C  C184  1  0.543200  0.410000  0.118200  1.0  -0.1891
  C  C185  1  0.473400  0.335700  0.097300  1.0  0.1471
  C  C186  1  0.762900  0.634400  0.181900  1.0  0.1375
  C  C187  1  0.691900  0.563100  0.160400  1.0  -0.1235
  C  C188  1  0.613600  0.484700  0.176500  1.0  -0.0173
  C  C189  1  0.606400  0.477600  0.214100  1.0  -0.1883
  C  C190  1  0.677500  0.549000  0.235600  1.0  0.141
  C  C191  1  0.966200  0.864400  0.128100  1.0  -0.4326
  C  C192  1  0.910100  0.895300  0.105700  1.0  0.3097
  C  C193  1  0.112400  0.115300  0.103900  1.0  0.3279
  C  C194  1  0.058800  0.149100  0.127700  1.0  -0.3991
  C  C195  1  0.749100  0.141300  0.485030  1.0  0.1439
  C  C196  1  0.674800  0.136800  0.505930  1.0  -0.1446
  C  C197  1  0.595300  0.132800  0.489230  1.0  -0.0679
  C  C198  1  0.590000  0.133200  0.451530  1.0  -0.1892
  C  C199  1  0.664300  0.137700  0.430630  1.0  0.1492
  C  C200  1  0.365600  0.128500  0.515230  1.0  0.1348
  C  C201  1  0.436900  0.128800  0.493730  1.0  -0.1277
  C  C202  1  0.515300  0.128900  0.509830  1.0  -0.0114
  C  C203  1  0.522400  0.128800  0.547430  1.0  -0.1858
  C  C204  1  0.451000  0.128500  0.568930  1.0  0.1408
  C  C205  1  0.135600  0.101800  0.461430  1.0  -0.4309
  C  C206  1  0.104700  0.014800  0.439030  1.0  0.3116
  C  C207  1  0.884700  0.997100  0.437230  1.0  0.3314
  C  C208  1  0.850900  0.909700  0.461030  1.0  -0.3999
  C  C209  1  0.858700  0.607800  0.818370  1.0  0.1454
  C  C210  1  0.863200  0.538000  0.839270  1.0  -0.1422
  C  C211  1  0.867200  0.462500  0.822570  1.0  -0.0709
  C  C212  1  0.866800  0.456800  0.784870  1.0  -0.191
  C  C213  1  0.862300  0.526600  0.763970  1.0  0.1488
  C  C214  1  0.871500  0.237100  0.848570  1.0  0.1323
  C  C215  1  0.871200  0.308100  0.827070  1.0  -0.1227
  C  C216  1  0.871100  0.386400  0.843170  1.0  -0.0154
  C  C217  1  0.871200  0.393600  0.880770  1.0  -0.1839
  C  C218  1  0.871500  0.322500  0.902270  1.0  0.1417
  C  C219  1  0.898200  0.033800  0.794770  1.0  -0.4358
  C  C220  1  0.985200  0.089900  0.772370  1.0  0.3123
  C  C221  1  0.002900  0.887600  0.770570  1.0  0.3336
  C  C222  1  0.090300  0.941200  0.794370  1.0  -0.4031
  C  C223  1  0.607800  0.749100  0.651700  1.0  0.1412
  C  C224  1  0.538000  0.674800  0.672600  1.0  -0.1449
  C  C225  1  0.462500  0.595300  0.655900  1.0  -0.0701
  C  C226  1  0.456800  0.590000  0.618200  1.0  -0.1858
  C  C227  1  0.526600  0.664300  0.597300  1.0  0.1493
  C  C228  1  0.237100  0.365600  0.681900  1.0  0.1369
  C  C229  1  0.308100  0.436900  0.660400  1.0  -0.1241
  C  C230  1  0.386400  0.515300  0.676500  1.0  -0.0153
  C  C231  1  0.393600  0.522400  0.714100  1.0  -0.1878
  C  C232  1  0.322500  0.451000  0.735600  1.0  0.1416
  C  C233  1  0.033800  0.135600  0.628100  1.0  -0.4315
  C  C234  1  0.089900  0.104700  0.605700  1.0  0.3089
  C  C235  1  0.887600  0.884700  0.603900  1.0  0.3307
  C  C236  1  0.941200  0.850900  0.627700  1.0  -0.4002
  C  C237  1  0.250900  0.858700  0.985030  1.0  0.145
  C  C238  1  0.325200  0.863200  0.005930  1.0  -0.1446
  C  C239  1  0.404700  0.867200  0.989230  1.0  -0.0677
  C  C240  1  0.410000  0.866800  0.951530  1.0  -0.1919
  C  C241  1  0.335700  0.862300  0.930630  1.0  0.1476
  C  C242  1  0.634400  0.871500  0.015230  1.0  0.1339
  C  C243  1  0.563100  0.871200  0.993730  1.0  -0.127
  C  C244  1  0.484700  0.871100  0.009830  1.0  -0.0125
  C  C245  1  0.477600  0.871200  0.047430  1.0  -0.1887
  C  C246  1  0.549000  0.871500  0.068930  1.0  0.1418
  C  C247  1  0.864400  0.898200  0.961430  1.0  -0.4306
  C  C248  1  0.895300  0.985200  0.939030  1.0  0.3106
  C  C249  1  0.115300  0.002900  0.937230  1.0  0.3305
  C  C250  1  0.149100  0.090300  0.961030  1.0  -0.4005
  C  C251  1  0.141300  0.392200  0.318370  1.0  0.1451
  C  C252  1  0.136800  0.462000  0.339270  1.0  -0.1409
  C  C253  1  0.132800  0.537500  0.322570  1.0  -0.0726
  C  C254  1  0.133200  0.543200  0.284870  1.0  -0.1915
  C  C255  1  0.137700  0.473400  0.263970  1.0  0.1476
  C  C256  1  0.128500  0.762900  0.348570  1.0  0.1331
  C  C257  1  0.128800  0.691900  0.327070  1.0  -0.1233
  C  C258  1  0.128900  0.613600  0.343170  1.0  -0.0169
  C  C259  1  0.128800  0.606400  0.380770  1.0  -0.1845
  C  C260  1  0.128500  0.677500  0.402270  1.0  0.1414
  C  C261  1  0.101800  0.966200  0.294770  1.0  -0.4354
  C  C262  1  0.014800  0.910100  0.272370  1.0  0.3111
  C  C263  1  0.997100  0.112400  0.270570  1.0  0.3318
  C  C264  1  0.909700  0.058800  0.294370  1.0  -0.4031
  C  C265  1  0.250900  0.392200  0.181630  1.0  0.1464
  C  C266  1  0.325200  0.462000  0.160730  1.0  -0.1429
  C  C267  1  0.404700  0.537500  0.177430  1.0  -0.0709
  C  C268  1  0.410000  0.543200  0.215130  1.0  -0.191
  C  C269  1  0.335700  0.473400  0.236030  1.0  0.1457
  C  C270  1  0.634400  0.762900  0.151430  1.0  0.1332
  C  C271  1  0.563100  0.691900  0.172930  1.0  -0.1227
  C  C272  1  0.484700  0.613600  0.156830  1.0  -0.0145
  C  C273  1  0.477600  0.606400  0.119230  1.0  -0.1813
  C  C274  1  0.549000  0.677500  0.097730  1.0  0.1461
  C  C275  1  0.864400  0.966200  0.205230  1.0  -0.4357
  C  C276  1  0.895300  0.910100  0.227630  1.0  0.3121
  C  C277  1  0.115300  0.112400  0.229430  1.0  0.3329
  C  C278  1  0.149100  0.058800  0.205630  1.0  -0.4034
  C  C279  1  0.141300  0.749100  0.848300  1.0  0.1422
  C  C280  1  0.136800  0.674800  0.827400  1.0  -0.1469
  C  C281  1  0.132800  0.595300  0.844100  1.0  -0.0712
  C  C282  1  0.133200  0.590000  0.881800  1.0  -0.1892
  C  C283  1  0.137700  0.664300  0.902700  1.0  0.1455
  C  C284  1  0.128500  0.365600  0.818100  1.0  0.1374
  C  C285  1  0.128800  0.436900  0.839600  1.0  -0.1228
  C  C286  1  0.128900  0.515300  0.823500  1.0  -0.0179
  C  C287  1  0.128800  0.522400  0.785900  1.0  -0.1859
  C  C288  1  0.128500  0.451000  0.764400  1.0  0.144
  C  C289  1  0.101800  0.135600  0.871900  1.0  -0.4327
  C  C290  1  0.014800  0.104700  0.894300  1.0  0.311
  C  C291  1  0.997100  0.884700  0.896100  1.0  0.3277
  C  C292  1  0.909700  0.850900  0.872300  1.0  -0.3987
  C  C293  1  0.607800  0.858700  0.514970  1.0  0.1436
  C  C294  1  0.538000  0.863200  0.494070  1.0  -0.1458
  C  C295  1  0.462500  0.867200  0.510770  1.0  -0.0679
  C  C296  1  0.456800  0.866800  0.548470  1.0  -0.1922
  C  C297  1  0.526600  0.862300  0.569370  1.0  0.146
  C  C298  1  0.237100  0.871500  0.484770  1.0  0.1354
  C  C299  1  0.308100  0.871200  0.506270  1.0  -0.128
  C  C300  1  0.386400  0.871100  0.490170  1.0  -0.0121
  C  C301  1  0.393600  0.871200  0.452570  1.0  -0.187
  C  C302  1  0.322500  0.871500  0.431070  1.0  0.1447
  C  C303  1  0.033800  0.898200  0.538570  1.0  -0.4312
  C  C304  1  0.089900  0.985200  0.560970  1.0  0.3117
  C  C305  1  0.887600  0.002900  0.562770  1.0  0.3314
  C  C306  1  0.941200  0.090300  0.538970  1.0  -0.4003
  C  C307  1  0.749100  0.607800  0.681630  1.0  0.146
  C  C308  1  0.674800  0.538000  0.660730  1.0  -0.1428
  C  C309  1  0.595300  0.462500  0.677430  1.0  -0.0731
  C  C310  1  0.590000  0.456800  0.715130  1.0  -0.1938
  C  C311  1  0.664300  0.526600  0.736030  1.0  0.1452
  C  C312  1  0.365600  0.237100  0.651430  1.0  0.1339
  C  C313  1  0.436900  0.308100  0.672930  1.0  -0.1243
  C  C314  1  0.515300  0.386400  0.656830  1.0  -0.0177
  C  C315  1  0.522400  0.393600  0.619230  1.0  -0.1847
  C  C316  1  0.451000  0.322500  0.597730  1.0  0.1447
  C  C317  1  0.135600  0.033800  0.705230  1.0  -0.4347
  C  C318  1  0.104700  0.089900  0.727630  1.0  0.3122
  C  C319  1  0.884700  0.887600  0.729430  1.0  0.3325
  C  C320  1  0.850900  0.941200  0.705630  1.0  -0.403
  C  C321  1  0.858700  0.250900  0.348300  1.0  0.1414
  C  C322  1  0.863200  0.325200  0.327400  1.0  -0.1444
  C  C323  1  0.867200  0.404700  0.344100  1.0  -0.0697
  C  C324  1  0.866800  0.410000  0.381800  1.0  -0.1882
  C  C325  1  0.862300  0.335700  0.402700  1.0  0.1454
  C  C326  1  0.871500  0.634400  0.318100  1.0  0.1378
  C  C327  1  0.871200  0.563100  0.339600  1.0  -0.1234
  C  C328  1  0.871100  0.484700  0.323500  1.0  -0.015
  C  C329  1  0.871200  0.477600  0.285900  1.0  -0.1874
  C  C330  1  0.871500  0.549000  0.264400  1.0  0.1452
  C  C331  1  0.898200  0.864400  0.371900  1.0  -0.4313
  C  C332  1  0.985200  0.895300  0.394300  1.0  0.3091
  C  C333  1  0.002900  0.115300  0.396100  1.0  0.3309
  C  C334  1  0.090300  0.149100  0.372300  1.0  -0.4009
  C  C335  1  0.392200  0.141300  0.014970  1.0  0.1447
  C  C336  1  0.462000  0.136800  0.994070  1.0  -0.147
  C  C337  1  0.537500  0.132800  0.010770  1.0  -0.0683
  C  C338  1  0.543200  0.133200  0.048470  1.0  -0.1912
  C  C339  1  0.473400  0.137700  0.069370  1.0  0.145
  C  C340  1  0.762900  0.128500  0.984770  1.0  0.1352
  C  C341  1  0.691900  0.128800  0.006270  1.0  -0.125
  C  C342  1  0.613600  0.128900  0.990170  1.0  -0.0116
  C  C343  1  0.606400  0.128800  0.952570  1.0  -0.1856
  C  C344  1  0.677500  0.128500  0.931070  1.0  0.1455
  C  C345  1  0.966200  0.101800  0.038570  1.0  -0.4308
  C  C346  1  0.910100  0.014800  0.060970  1.0  0.3112
  C  C347  1  0.112400  0.997100  0.062770  1.0  0.3312
  C  C348  1  0.058800  0.909700  0.038970  1.0  -0.4
  C  C349  1  0.954800  0.977400  0.083330  1.0  -0.1484
  C  C350  1  0.069600  0.034800  0.083330  1.0  0.0413
  C  C351  1  0.022600  0.977400  0.416670  1.0  -0.1478
  C  C352  1  0.965200  0.034800  0.416670  1.0  0.0389
  C  C353  1  0.022600  0.045200  0.750000  1.0  -0.1447
  C  C354  1  0.965200  0.930400  0.750000  1.0  0.0408
  C  C355  1  0.045200  0.022600  0.583330  1.0  -0.1465
  C  C356  1  0.930400  0.965200  0.583330  1.0  0.0383
  C  C357  1  0.977400  0.022600  0.916670  1.0  -0.1467
  C  C358  1  0.034800  0.965200  0.916670  1.0  0.0409
  C  C359  1  0.977400  0.954800  0.250000  1.0  -0.1462
  C  C360  1  0.034800  0.069600  0.250000  1.0  0.0411
  N  N361  1  0.397900  0.256200  0.114100  1.0  -0.3346
  N  N362  1  0.755700  0.627400  0.219500  1.0  -0.3435
  N  N363  1  0.743800  0.141700  0.447430  1.0  -0.3334
  N  N364  1  0.372600  0.128300  0.552830  1.0  -0.3419
  N  N365  1  0.858300  0.602100  0.780770  1.0  -0.333
  N  N366  1  0.871700  0.244300  0.886170  1.0  -0.344
  N  N367  1  0.602100  0.743800  0.614100  1.0  -0.3341
  N  N368  1  0.244300  0.372600  0.719500  1.0  -0.3435
  N  N369  1  0.256200  0.858300  0.947430  1.0  -0.3329
  N  N370  1  0.627400  0.871700  0.052830  1.0  -0.343
  N  N371  1  0.141700  0.397900  0.280770  1.0  -0.3335
  N  N372  1  0.128300  0.755700  0.386170  1.0  -0.3435
  N  N373  1  0.256200  0.397900  0.219230  1.0  -0.3326
  N  N374  1  0.627400  0.755700  0.113830  1.0  -0.3448
  N  N375  1  0.141700  0.743800  0.885900  1.0  -0.3329
  N  N376  1  0.128300  0.372600  0.780500  1.0  -0.344
  N  N377  1  0.602100  0.858300  0.552570  1.0  -0.3317
  N  N378  1  0.244300  0.871700  0.447170  1.0  -0.3432
  N  N379  1  0.743800  0.602100  0.719230  1.0  -0.332
  N  N380  1  0.372600  0.244300  0.613830  1.0  -0.3455
  N  N381  1  0.858300  0.256200  0.385900  1.0  -0.3333
  N  N382  1  0.871700  0.627400  0.280500  1.0  -0.3445
  N  N383  1  0.397900  0.141700  0.052570  1.0  -0.3314
  N  N384  1  0.755700  0.128300  0.947170  1.0  -0.3445
  O  O385  1  0.820600  0.851500  0.111400  1.0  -0.5826
  O  O386  1  0.203700  0.162000  0.108800  1.0  -0.6002
  O  O387  1  0.148500  0.969100  0.444730  1.0  -0.5805
  O  O388  1  0.838000  0.041700  0.442130  1.0  -0.6014
  O  O389  1  0.030900  0.179400  0.778070  1.0  -0.583
  O  O390  1  0.958300  0.796300  0.775470  1.0  -0.6005
  O  O391  1  0.179400  0.148500  0.611400  1.0  -0.5818
  O  O392  1  0.796300  0.838000  0.608800  1.0  -0.6016
  O  O393  1  0.851500  0.030900  0.944730  1.0  -0.5818
  O  O394  1  0.162000  0.958300  0.942130  1.0  -0.6002
  O  O395  1  0.969100  0.820600  0.278070  1.0  -0.5831
  O  O396  1  0.041700  0.203700  0.275470  1.0  -0.6012
  O  O397  1  0.851500  0.820600  0.221930  1.0  -0.5843
  O  O398  1  0.162000  0.203700  0.224530  1.0  -0.6
  O  O399  1  0.969100  0.148500  0.888600  1.0  -0.5826
  O  O400  1  0.041700  0.838000  0.891200  1.0  -0.6012
  O  O401  1  0.179400  0.030900  0.555270  1.0  -0.5814
  O  O402  1  0.796300  0.958300  0.557870  1.0  -0.602
  O  O403  1  0.148500  0.179400  0.721930  1.0  -0.5832
  O  O404  1  0.838000  0.796300  0.724530  1.0  -0.6016
  O  O405  1  0.030900  0.851500  0.388600  1.0  -0.5825
  O  O406  1  0.958300  0.162000  0.391200  1.0  -0.6001
  O  O407  1  0.820600  0.969100  0.055270  1.0  -0.5823
  O  O408  1  0.203700  0.041700  0.057870  1.0  -0.5997
