# generated using pymatgen
data_CuH14C15(NO)2
_symmetry_space_group_name_H-M   'P 1'
_cell_length_a   21.43500000
_cell_length_b   21.43500000
_cell_length_c   11.38200000
_cell_angle_alpha   90.00000000
_cell_angle_beta   90.00000000
_cell_angle_gamma   90.00000000
_symmetry_Int_Tables_number   1
_chemical_formula_structural   CuH14C15(NO)2
_chemical_formula_sum   'Cu8 H112 C120 N16 O16'
_cell_volume   5229.56489895
_cell_formula_units_Z   8
loop_
 _symmetry_equiv_pos_site_id
 _symmetry_equiv_pos_as_xyz
  1  'x, y, z'
loop_
 _atom_site_type_symbol
 _atom_site_label
 _atom_site_symmetry_multiplicity
 _atom_site_fract_x
 _atom_site_fract_y
 _atom_site_fract_z
 _atom_site_occupancy
 _atom_site_charge
  Cu  Cu1  1  0.250000  0.938060  0.000000  1.0  0.7948
  Cu  Cu2  1  0.250000  0.561940  0.000000  1.0  0.7951
  Cu  Cu3  1  0.561940  0.250000  0.500000  1.0  0.7959
  Cu  Cu4  1  0.938060  0.250000  0.500000  1.0  0.7958
  Cu  Cu5  1  0.750000  0.061940  0.000000  1.0  0.7951
  Cu  Cu6  1  0.750000  0.438060  0.000000  1.0  0.7948
  Cu  Cu7  1  0.438060  0.750000  0.500000  1.0  0.7958
  Cu  Cu8  1  0.061940  0.750000  0.500000  1.0  0.7959
  H  H9  1  0.182800  0.058900  0.958100  1.0  0.0697
  H  H10  1  0.122700  0.129400  0.057900  1.0  0.1147
  H  H11  1  0.149700  0.027300  0.350900  1.0  0.1167
  H  H12  1  0.210200  0.961100  0.241100  1.0  0.0573
  H  H13  1  0.350600  0.804800  0.788700  1.0  0.1148
  H  H14  1  0.324900  0.741200  0.836400  1.0  0.1056
  H  H15  1  0.378800  0.775600  0.903300  1.0  0.1196
  H  H16  1  0.317200  0.441100  0.958100  1.0  0.0693
  H  H17  1  0.377300  0.370600  0.057900  1.0  0.1144
  H  H18  1  0.350300  0.472700  0.350900  1.0  0.1168
  H  H19  1  0.289800  0.538900  0.241100  1.0  0.0576
  H  H20  1  0.149400  0.695200  0.788700  1.0  0.114
  H  H21  1  0.175100  0.758800  0.836400  1.0  0.106
  H  H22  1  0.121200  0.724400  0.903300  1.0  0.1176
  H  H23  1  0.441100  0.182800  0.458100  1.0  0.0697
  H  H24  1  0.370600  0.122700  0.557900  1.0  0.1148
  H  H25  1  0.472700  0.149700  0.850900  1.0  0.1167
  H  H26  1  0.538900  0.210200  0.741100  1.0  0.0576
  H  H27  1  0.695200  0.350600  0.288700  1.0  0.114
  H  H28  1  0.758800  0.324900  0.336400  1.0  0.102
  H  H29  1  0.724400  0.378800  0.403300  1.0  0.117
  H  H30  1  0.058900  0.317200  0.458100  1.0  0.0687
  H  H31  1  0.129400  0.377300  0.557900  1.0  0.1145
  H  H32  1  0.027300  0.350300  0.850900  1.0  0.1171
  H  H33  1  0.961100  0.289800  0.741100  1.0  0.0582
  H  H34  1  0.804800  0.149400  0.288700  1.0  0.1137
  H  H35  1  0.741200  0.175100  0.336400  1.0  0.1011
  H  H36  1  0.775600  0.121200  0.403300  1.0  0.1184
  H  H37  1  0.317200  0.058900  0.041900  1.0  0.0698
  H  H38  1  0.377300  0.129400  0.942100  1.0  0.1146
  H  H39  1  0.350300  0.027300  0.649100  1.0  0.1171
  H  H40  1  0.289800  0.961100  0.758900  1.0  0.0573
  H  H41  1  0.149400  0.804800  0.211300  1.0  0.1148
  H  H42  1  0.175100  0.741200  0.163600  1.0  0.1065
  H  H43  1  0.121200  0.775600  0.096700  1.0  0.1177
  H  H44  1  0.182800  0.441100  0.041900  1.0  0.0705
  H  H45  1  0.122700  0.370600  0.942100  1.0  0.1144
  H  H46  1  0.149700  0.472700  0.649100  1.0  0.117
  H  H47  1  0.210200  0.538900  0.758900  1.0  0.0576
  H  H48  1  0.350600  0.695200  0.211300  1.0  0.1146
  H  H49  1  0.324900  0.758800  0.163600  1.0  0.106
  H  H50  1  0.378800  0.724400  0.096700  1.0  0.1193
  H  H51  1  0.058900  0.182800  0.541900  1.0  0.0698
  H  H52  1  0.129400  0.122700  0.442100  1.0  0.1142
  H  H53  1  0.027300  0.149700  0.149100  1.0  0.1171
  H  H54  1  0.961100  0.210200  0.258900  1.0  0.0581
  H  H55  1  0.804800  0.350600  0.711300  1.0  0.114
  H  H56  1  0.741200  0.324900  0.663600  1.0  0.1014
  H  H57  1  0.775600  0.378800  0.596700  1.0  0.1175
  H  H58  1  0.441100  0.317200  0.541900  1.0  0.0699
  H  H59  1  0.370600  0.377300  0.442100  1.0  0.1147
  H  H60  1  0.472700  0.350300  0.149100  1.0  0.1175
  H  H61  1  0.538900  0.289800  0.258900  1.0  0.0571
  H  H62  1  0.695200  0.149400  0.711300  1.0  0.1153
  H  H63  1  0.758800  0.175100  0.663600  1.0  0.1028
  H  H64  1  0.724400  0.121200  0.596700  1.0  0.1159
  H  H65  1  0.817200  0.941100  0.041900  1.0  0.0694
  H  H66  1  0.877300  0.870600  0.942100  1.0  0.1146
  H  H67  1  0.850300  0.972700  0.649100  1.0  0.1172
  H  H68  1  0.789800  0.038900  0.758900  1.0  0.0578
  H  H69  1  0.649400  0.195200  0.211300  1.0  0.1148
  H  H70  1  0.675100  0.258800  0.163600  1.0  0.1063
  H  H71  1  0.621200  0.224400  0.096700  1.0  0.117
  H  H72  1  0.682800  0.558900  0.041900  1.0  0.0706
  H  H73  1  0.622700  0.629400  0.942100  1.0  0.115
  H  H74  1  0.649700  0.527300  0.649100  1.0  0.1169
  H  H75  1  0.710200  0.461100  0.758900  1.0  0.0572
  H  H76  1  0.850600  0.304800  0.211300  1.0  0.1149
  H  H77  1  0.824900  0.241200  0.163600  1.0  0.106
  H  H78  1  0.878800  0.275600  0.096700  1.0  0.1196
  H  H79  1  0.558900  0.817200  0.541900  1.0  0.0697
  H  H80  1  0.629400  0.877300  0.442100  1.0  0.1144
  H  H81  1  0.527300  0.850300  0.149100  1.0  0.1174
  H  H82  1  0.461100  0.789800  0.258900  1.0  0.0578
  H  H83  1  0.304800  0.649400  0.711300  1.0  0.1135
  H  H84  1  0.241200  0.675100  0.663600  1.0  0.1011
  H  H85  1  0.275600  0.621200  0.596700  1.0  0.1172
  H  H86  1  0.941100  0.682800  0.541900  1.0  0.0702
  H  H87  1  0.870600  0.622700  0.442100  1.0  0.115
  H  H88  1  0.972700  0.649700  0.149100  1.0  0.1172
  H  H89  1  0.038900  0.710200  0.258900  1.0  0.0575
  H  H90  1  0.195200  0.850600  0.711300  1.0  0.1151
  H  H91  1  0.258800  0.824900  0.663600  1.0  0.1024
  H  H92  1  0.224400  0.878800  0.596700  1.0  0.1174
  H  H93  1  0.682800  0.941100  0.958100  1.0  0.0698
  H  H94  1  0.622700  0.870600  0.057900  1.0  0.114
  H  H95  1  0.649700  0.972700  0.350900  1.0  0.1167
  H  H96  1  0.710200  0.038900  0.241100  1.0  0.0575
  H  H97  1  0.850600  0.195200  0.788700  1.0  0.1144
  H  H98  1  0.824900  0.258800  0.836400  1.0  0.1058
  H  H99  1  0.878800  0.224400  0.903300  1.0  0.1195
  H  H100  1  0.817200  0.558900  0.958100  1.0  0.0693
  H  H101  1  0.877300  0.629400  0.057900  1.0  0.1145
  H  H102  1  0.850300  0.527300  0.350900  1.0  0.1167
  H  H103  1  0.789800  0.461100  0.241100  1.0  0.0575
  H  H104  1  0.649400  0.304800  0.788700  1.0  0.1143
  H  H105  1  0.675100  0.241200  0.836400  1.0  0.1056
  H  H106  1  0.621200  0.275600  0.903300  1.0  0.1179
  H  H107  1  0.941100  0.817200  0.458100  1.0  0.0691
  H  H108  1  0.870600  0.877300  0.557900  1.0  0.1146
  H  H109  1  0.972700  0.850300  0.850900  1.0  0.1168
  H  H110  1  0.038900  0.789800  0.741100  1.0  0.0576
  H  H111  1  0.195200  0.649400  0.288700  1.0  0.1144
  H  H112  1  0.258800  0.675100  0.336400  1.0  0.1023
  H  H113  1  0.224400  0.621200  0.403300  1.0  0.1173
  H  H114  1  0.558900  0.682800  0.458100  1.0  0.0693
  H  H115  1  0.629400  0.622700  0.557900  1.0  0.1142
  H  H116  1  0.527300  0.649700  0.850900  1.0  0.117
  H  H117  1  0.461100  0.710200  0.741100  1.0  0.0579
  H  H118  1  0.304800  0.850600  0.288700  1.0  0.1138
  H  H119  1  0.241200  0.824900  0.336400  1.0  0.1012
  H  H120  1  0.275600  0.878800  0.403300  1.0  0.1166
  C  C121  1  0.176000  0.052900  0.037900  1.0  0.1525
  C  C122  1  0.139500  0.095200  0.096900  1.0  -0.2069
  C  C123  1  0.127800  0.085900  0.216200  1.0  0.0535
  C  C124  1  0.155600  0.034600  0.271200  1.0  -0.1905
  C  C125  1  0.192000  0.995200  0.204300  1.0  0.1595
  C  C126  1  0.293400  0.816200  0.931400  1.0  0.3271
  C  C127  1  0.341300  0.781300  0.858200  1.0  -0.3855
  C  C128  1  0.324000  0.447100  0.037900  1.0  0.1523
  C  C129  1  0.360500  0.404800  0.096900  1.0  -0.2056
  C  C130  1  0.372200  0.414100  0.216200  1.0  0.0536
  C  C131  1  0.344400  0.465400  0.271200  1.0  -0.1903
  C  C132  1  0.308000  0.504800  0.204300  1.0  0.1592
  C  C133  1  0.206600  0.683800  0.931400  1.0  0.324
  C  C134  1  0.158700  0.718700  0.858200  1.0  -0.384
  C  C135  1  0.447100  0.176000  0.537900  1.0  0.1528
  C  C136  1  0.404800  0.139500  0.596900  1.0  -0.2077
  C  C137  1  0.414100  0.127800  0.716200  1.0  0.0534
  C  C138  1  0.465400  0.155600  0.771200  1.0  -0.1912
  C  C139  1  0.504800  0.192000  0.704300  1.0  0.1596
  C  C140  1  0.683800  0.293400  0.431400  1.0  0.3251
  C  C141  1  0.718700  0.341300  0.358200  1.0  -0.3821
  C  C142  1  0.052900  0.324000  0.537900  1.0  0.1529
  C  C143  1  0.095200  0.360500  0.596900  1.0  -0.2072
  C  C144  1  0.085900  0.372200  0.716200  1.0  0.0527
  C  C145  1  0.034600  0.344400  0.771200  1.0  -0.1916
  C  C146  1  0.995200  0.308000  0.704300  1.0  0.1586
  C  C147  1  0.816200  0.206600  0.431400  1.0  0.3219
  C  C148  1  0.781300  0.158700  0.358200  1.0  -0.3827
  C  C149  1  0.324000  0.052900  0.962100  1.0  0.1523
  C  C150  1  0.360500  0.095200  0.903100  1.0  -0.207
  C  C151  1  0.372200  0.085900  0.783800  1.0  0.0538
  C  C152  1  0.344400  0.034600  0.728800  1.0  -0.1907
  C  C153  1  0.308000  0.995200  0.795700  1.0  0.1594
  C  C154  1  0.206600  0.816200  0.068600  1.0  0.3276
  C  C155  1  0.158700  0.781300  0.141800  1.0  -0.384
  C  C156  1  0.176000  0.447100  0.962100  1.0  0.1529
  C  C157  1  0.139500  0.404800  0.903100  1.0  -0.2074
  C  C158  1  0.127800  0.414100  0.783800  1.0  0.0538
  C  C159  1  0.155600  0.465400  0.728800  1.0  -0.1915
  C  C160  1  0.192000  0.504800  0.795700  1.0  0.1596
  C  C161  1  0.293400  0.683800  0.068600  1.0  0.3252
  C  C162  1  0.341300  0.718700  0.141800  1.0  -0.3847
  C  C163  1  0.052900  0.176000  0.462100  1.0  0.1524
  C  C164  1  0.095200  0.139500  0.403100  1.0  -0.2078
  C  C165  1  0.085900  0.127800  0.283800  1.0  0.0531
  C  C166  1  0.034600  0.155600  0.228800  1.0  -0.1918
  C  C167  1  0.995200  0.192000  0.295700  1.0  0.1581
  C  C168  1  0.816200  0.293400  0.568600  1.0  0.3234
  C  C169  1  0.781300  0.341300  0.641800  1.0  -0.3826
  C  C170  1  0.447100  0.324000  0.462100  1.0  0.153
  C  C171  1  0.404800  0.360500  0.403100  1.0  -0.2099
  C  C172  1  0.414100  0.372200  0.283800  1.0  0.0536
  C  C173  1  0.465400  0.344400  0.228800  1.0  -0.1925
  C  C174  1  0.504800  0.308000  0.295700  1.0  0.1594
  C  C175  1  0.683800  0.206600  0.568600  1.0  0.3247
  C  C176  1  0.718700  0.158700  0.641800  1.0  -0.3834
  C  C177  1  0.250000  0.785400  0.000000  1.0  -0.1301
  C  C178  1  0.250000  0.714600  0.000000  1.0  -0.1319
  C  C179  1  0.714600  0.250000  0.500000  1.0  -0.1314
  C  C180  1  0.785400  0.250000  0.500000  1.0  -0.1308
  C  C181  1  0.824000  0.947100  0.962100  1.0  0.1524
  C  C182  1  0.860500  0.904800  0.903100  1.0  -0.2065
  C  C183  1  0.872200  0.914100  0.783800  1.0  0.0539
  C  C184  1  0.844400  0.965400  0.728800  1.0  -0.1918
  C  C185  1  0.808000  0.004800  0.795700  1.0  0.1594
  C  C186  1  0.706600  0.183800  0.068600  1.0  0.3252
  C  C187  1  0.658700  0.218700  0.141800  1.0  -0.3844
  C  C188  1  0.676000  0.552900  0.962100  1.0  0.1531
  C  C189  1  0.639500  0.595200  0.903100  1.0  -0.2084
  C  C190  1  0.627800  0.585900  0.783800  1.0  0.0539
  C  C191  1  0.655600  0.534600  0.728800  1.0  -0.1904
  C  C192  1  0.692000  0.495200  0.795700  1.0  0.1597
  C  C193  1  0.793400  0.316200  0.068600  1.0  0.3272
  C  C194  1  0.841300  0.281300  0.141800  1.0  -0.385
  C  C195  1  0.552900  0.824000  0.462100  1.0  0.1535
  C  C196  1  0.595200  0.860500  0.403100  1.0  -0.2082
  C  C197  1  0.585900  0.872200  0.283800  1.0  0.053
  C  C198  1  0.534600  0.844400  0.228800  1.0  -0.192
  C  C199  1  0.495200  0.808000  0.295700  1.0  0.1582
  C  C200  1  0.316200  0.706600  0.568600  1.0  0.3231
  C  C201  1  0.281300  0.658700  0.641800  1.0  -0.3826
  C  C202  1  0.947100  0.676000  0.462100  1.0  0.1518
  C  C203  1  0.904800  0.639500  0.403100  1.0  -0.2095
  C  C204  1  0.914100  0.627800  0.283800  1.0  0.0536
  C  C205  1  0.965400  0.655600  0.228800  1.0  -0.1925
  C  C206  1  0.004800  0.692000  0.295700  1.0  0.1594
  C  C207  1  0.183800  0.793400  0.568600  1.0  0.3253
  C  C208  1  0.218700  0.841300  0.641800  1.0  -0.3824
  C  C209  1  0.676000  0.947100  0.037900  1.0  0.153
  C  C210  1  0.639500  0.904800  0.096900  1.0  -0.2052
  C  C211  1  0.627800  0.914100  0.216200  1.0  0.0536
  C  C212  1  0.655600  0.965400  0.271200  1.0  -0.1909
  C  C213  1  0.692000  0.004800  0.204300  1.0  0.1597
  C  C214  1  0.793400  0.183800  0.931400  1.0  0.3245
  C  C215  1  0.841300  0.218700  0.858200  1.0  -0.385
  C  C216  1  0.824000  0.552900  0.037900  1.0  0.1519
  C  C217  1  0.860500  0.595200  0.096900  1.0  -0.2068
  C  C218  1  0.872200  0.585900  0.216200  1.0  0.0534
  C  C219  1  0.844400  0.534600  0.271200  1.0  -0.1899
  C  C220  1  0.808000  0.495200  0.204300  1.0  0.159
  C  C221  1  0.706600  0.316200  0.931400  1.0  0.3266
  C  C222  1  0.658700  0.281300  0.858200  1.0  -0.3842
  C  C223  1  0.947100  0.824000  0.537900  1.0  0.1535
  C  C224  1  0.904800  0.860500  0.596900  1.0  -0.2079
  C  C225  1  0.914100  0.872200  0.716200  1.0  0.0533
  C  C226  1  0.965400  0.844400  0.771200  1.0  -0.1908
  C  C227  1  0.004800  0.808000  0.704300  1.0  0.1597
  C  C228  1  0.183800  0.706600  0.431400  1.0  0.3239
  C  C229  1  0.218700  0.658700  0.358200  1.0  -0.3837
  C  C230  1  0.552900  0.676000  0.537900  1.0  0.1522
  C  C231  1  0.595200  0.639500  0.596900  1.0  -0.207
  C  C232  1  0.585900  0.627800  0.716200  1.0  0.0529
  C  C233  1  0.534600  0.655600  0.771200  1.0  -0.1919
  C  C234  1  0.495200  0.692000  0.704300  1.0  0.1582
  C  C235  1  0.316200  0.793400  0.431400  1.0  0.323
  C  C236  1  0.281300  0.841300  0.358200  1.0  -0.3826
  C  C237  1  0.750000  0.214600  0.000000  1.0  -0.1319
  C  C238  1  0.750000  0.285400  0.000000  1.0  -0.1301
  C  C239  1  0.285400  0.750000  0.500000  1.0  -0.1308
  C  C240  1  0.214600  0.750000  0.500000  1.0  -0.1314
  N  N241  1  0.202400  0.003200  0.090000  1.0  -0.3368
  N  N242  1  0.297600  0.496800  0.090000  1.0  -0.3361
  N  N243  1  0.496800  0.202400  0.590000  1.0  -0.3358
  N  N244  1  0.003200  0.297600  0.590000  1.0  -0.3359
  N  N245  1  0.297600  0.003200  0.910000  1.0  -0.3356
  N  N246  1  0.202400  0.496800  0.910000  1.0  -0.3358
  N  N247  1  0.003200  0.202400  0.410000  1.0  -0.3343
  N  N248  1  0.496800  0.297600  0.410000  1.0  -0.3354
  N  N249  1  0.797600  0.996800  0.910000  1.0  -0.3355
  N  N250  1  0.702400  0.503200  0.910000  1.0  -0.3358
  N  N251  1  0.503200  0.797600  0.410000  1.0  -0.3348
  N  N252  1  0.996800  0.702400  0.410000  1.0  -0.3352
  N  N253  1  0.702400  0.996800  0.090000  1.0  -0.3364
  N  N254  1  0.797600  0.503200  0.090000  1.0  -0.3367
  N  N255  1  0.996800  0.797600  0.590000  1.0  -0.3364
  N  N256  1  0.503200  0.702400  0.590000  1.0  -0.3349
  O  O257  1  0.298700  0.876220  0.920700  1.0  -0.5984
  O  O258  1  0.201300  0.623780  0.920700  1.0  -0.5998
  O  O259  1  0.623780  0.298700  0.420700  1.0  -0.5982
  O  O260  1  0.876220  0.201300  0.420700  1.0  -0.5996
  O  O261  1  0.201300  0.876220  0.079300  1.0  -0.5987
  O  O262  1  0.298700  0.623780  0.079300  1.0  -0.6
  O  O263  1  0.876220  0.298700  0.579300  1.0  -0.5984
  O  O264  1  0.623780  0.201300  0.579300  1.0  -0.5999
  O  O265  1  0.701300  0.123780  0.079300  1.0  -0.6001
  O  O266  1  0.798700  0.376220  0.079300  1.0  -0.5986
  O  O267  1  0.376220  0.701300  0.579300  1.0  -0.5998
  O  O268  1  0.123780  0.798700  0.579300  1.0  -0.5982
  O  O269  1  0.798700  0.123780  0.920700  1.0  -0.5995
  O  O270  1  0.701300  0.376220  0.920700  1.0  -0.5985
  O  O271  1  0.123780  0.701300  0.420700  1.0  -0.5998
  O  O272  1  0.376220  0.798700  0.420700  1.0  -0.5984
