# generated using pymatgen
data_CuH14C15(NO)2
_symmetry_space_group_name_H-M   'P 1'
_cell_length_a   10.04300000
_cell_length_b   31.42900000
_cell_length_c   11.82100000
_cell_angle_alpha   90.00000000
_cell_angle_beta   92.98000000
_cell_angle_gamma   90.00000000
_symmetry_Int_Tables_number   1
_chemical_formula_structural   CuH14C15(NO)2
_chemical_formula_sum   'Cu8 H112 C120 N16 O16'
_cell_volume   3726.15200553
_cell_formula_units_Z   8
loop_
 _symmetry_equiv_pos_site_id
 _symmetry_equiv_pos_as_xyz
  1  'x, y, z'
loop_
 _atom_site_type_symbol
 _atom_site_label
 _atom_site_symmetry_multiplicity
 _atom_site_fract_x
 _atom_site_fract_y
 _atom_site_fract_z
 _atom_site_occupancy
 _atom_site_charge
  Cu  Cu1  1  0.330250  0.874460  0.304860  1.0  0.7417
  Cu  Cu2  1  0.180250  0.122320  0.261300  1.0  0.8193
  Cu  Cu3  1  0.830250  0.625540  0.804860  1.0  0.7415
  Cu  Cu4  1  0.680250  0.377680  0.761300  1.0  0.8197
  Cu  Cu5  1  0.169750  0.374460  0.195140  1.0  0.7411
  Cu  Cu6  1  0.319750  0.622320  0.238700  1.0  0.8186
  Cu  Cu7  1  0.669750  0.125540  0.695140  1.0  0.7409
  Cu  Cu8  1  0.819750  0.877680  0.738700  1.0  0.819
  H  H9  1  0.487500  0.001400  0.145800  1.0  0.106
  H  H10  1  0.345300  0.000100  0.084600  1.0  0.1001
  H  H11  1  0.450000  0.964600  0.060300  1.0  0.1148
  H  H12  1  0.086400  0.983200  0.447000  1.0  0.1176
  H  H13  1  0.219200  0.004100  0.495300  1.0  0.11
  H  H14  1  0.172400  0.960400  0.543500  1.0  0.1278
  H  H15  1  0.975200  0.011300  0.134200  1.0  0.1303
  H  H16  1  0.034600  0.979600  0.225900  1.0  0.1191
  H  H17  1  0.103000  0.984800  0.110500  1.0  0.1109
  H  H18  1  0.534700  0.063600  0.391300  1.0  0.1239
  H  H19  1  0.505200  0.015500  0.365000  1.0  0.1044
  H  H20  1  0.458900  0.035800  0.477500  1.0  0.0928
  H  H21  1  0.396700  0.858900  0.062600  1.0  0.0677
  H  H22  1  0.501800  0.809000  0.955500  1.0  0.1102
  H  H23  1  0.559400  0.738600  0.236500  1.0  0.0994
  H  H24  1  0.458100  0.791000  0.334800  1.0  0.0676
  H  H25  1  0.534100  0.749200  0.865000  1.0  0.1017
  H  H26  1  0.641200  0.697700  0.767600  1.0  0.0713
  H  H27  1  0.812300  0.653600  0.045000  1.0  0.0661
  H  H28  1  0.715200  0.705400  0.150900  1.0  0.108
  H  H29  1  0.423900  0.175800  0.255900  1.0  0.088
  H  H30  1  0.515000  0.235000  0.342100  1.0  0.0953
  H  H31  1  0.207100  0.239200  0.542600  1.0  0.1081
  H  H32  1  0.113400  0.184100  0.438200  1.0  0.0609
  H  H33  1  0.625100  0.269000  0.467900  1.0  0.0993
  H  H34  1  0.728200  0.318300  0.583000  1.0  0.0591
  H  H35  1  0.387700  0.353800  0.698300  1.0  0.0904
  H  H36  1  0.276700  0.305100  0.585200  1.0  0.0957
  H  H37  1  0.987500  0.498600  0.645800  1.0  0.1057
  H  H38  1  0.845300  0.499900  0.584600  1.0  0.1
  H  H39  1  0.950000  0.535400  0.560300  1.0  0.1143
  H  H40  1  0.586400  0.516800  0.947000  1.0  0.1177
  H  H41  1  0.719200  0.495900  0.995300  1.0  0.1094
  H  H42  1  0.672400  0.539600  0.043500  1.0  0.1272
  H  H43  1  0.475200  0.488700  0.634200  1.0  0.1304
  H  H44  1  0.534600  0.520400  0.725900  1.0  0.1193
  H  H45  1  0.603000  0.515200  0.610500  1.0  0.1107
  H  H46  1  0.034700  0.436400  0.891300  1.0  0.1241
  H  H47  1  0.005200  0.484500  0.865000  1.0  0.105
  H  H48  1  0.958900  0.464200  0.977500  1.0  0.0934
  H  H49  1  0.896700  0.641100  0.562600  1.0  0.0674
  H  H50  1  0.001800  0.691000  0.455500  1.0  0.1096
  H  H51  1  0.059400  0.761400  0.736500  1.0  0.0993
  H  H52  1  0.958100  0.709000  0.834800  1.0  0.0668
  H  H53  1  0.034100  0.750800  0.365000  1.0  0.1017
  H  H54  1  0.141200  0.802300  0.267600  1.0  0.0714
  H  H55  1  0.312300  0.846400  0.545000  1.0  0.0657
  H  H56  1  0.215200  0.794600  0.650900  1.0  0.1077
  H  H57  1  0.923900  0.324200  0.755900  1.0  0.088
  H  H58  1  0.015000  0.265000  0.842100  1.0  0.0953
  H  H59  1  0.707100  0.260800  0.042600  1.0  0.1078
  H  H60  1  0.613400  0.315900  0.938200  1.0  0.0611
  H  H61  1  0.125100  0.231000  0.967900  1.0  0.099
  H  H62  1  0.228200  0.181700  0.083000  1.0  0.0589
  H  H63  1  0.887700  0.146200  0.198300  1.0  0.0899
  H  H64  1  0.776700  0.194900  0.085200  1.0  0.0952
  H  H65  1  0.012500  0.501400  0.354200  1.0  0.1051
  H  H66  1  0.154700  0.500100  0.415400  1.0  0.0999
  H  H67  1  0.050000  0.464600  0.439700  1.0  0.1131
  H  H68  1  0.413600  0.483200  0.053000  1.0  0.1178
  H  H69  1  0.280800  0.504100  0.004700  1.0  0.1106
  H  H70  1  0.327600  0.460400  0.956500  1.0  0.1265
  H  H71  1  0.524800  0.511300  0.365800  1.0  0.1332
  H  H72  1  0.465400  0.479600  0.274100  1.0  0.1182
  H  H73  1  0.397000  0.484800  0.389500  1.0  0.1132
  H  H74  1  0.965300  0.563600  0.108700  1.0  0.1238
  H  H75  1  0.994800  0.515500  0.135000  1.0  0.1039
  H  H76  1  0.041100  0.535800  0.022500  1.0  0.093
  H  H77  1  0.103300  0.358900  0.437400  1.0  0.0682
  H  H78  1  0.998200  0.309000  0.544500  1.0  0.1089
  H  H79  1  0.940600  0.238600  0.263500  1.0  0.0996
  H  H80  1  0.041900  0.291000  0.165200  1.0  0.0688
  H  H81  1  0.965900  0.249200  0.635000  1.0  0.1023
  H  H82  1  0.858800  0.197700  0.732400  1.0  0.0708
  H  H83  1  0.687700  0.153600  0.455000  1.0  0.0657
  H  H84  1  0.784800  0.205400  0.349100  1.0  0.1093
  H  H85  1  0.076100  0.675800  0.244100  1.0  0.0882
  H  H86  1  0.985000  0.735000  0.157900  1.0  0.0958
  H  H87  1  0.292900  0.739200  0.957400  1.0  0.1089
  H  H88  1  0.386600  0.684100  0.061800  1.0  0.0603
  H  H89  1  0.874900  0.769000  0.032100  1.0  0.0996
  H  H90  1  0.771800  0.818300  0.917000  1.0  0.0599
  H  H91  1  0.112300  0.853800  0.801700  1.0  0.0902
  H  H92  1  0.223300  0.805100  0.914800  1.0  0.0958
  H  H93  1  0.512500  0.998600  0.854200  1.0  0.1056
  H  H94  1  0.654700  0.999900  0.915400  1.0  0.1006
  H  H95  1  0.550000  0.035400  0.939700  1.0  0.1136
  H  H96  1  0.913600  0.016800  0.553000  1.0  0.1174
  H  H97  1  0.780800  0.995900  0.504700  1.0  0.1085
  H  H98  1  0.827600  0.039600  0.456500  1.0  0.1261
  H  H99  1  0.024800  0.988700  0.865800  1.0  0.1329
  H  H100  1  0.965400  0.020400  0.774100  1.0  0.1193
  H  H101  1  0.897000  0.015200  0.889500  1.0  0.1129
  H  H102  1  0.465300  0.936400  0.608700  1.0  0.1241
  H  H103  1  0.494800  0.984500  0.635000  1.0  0.104
  H  H104  1  0.541100  0.964200  0.522500  1.0  0.0933
  H  H105  1  0.603300  0.141100  0.937400  1.0  0.0679
  H  H106  1  0.498200  0.191000  0.044500  1.0  0.1087
  H  H107  1  0.440600  0.261400  0.763500  1.0  0.0998
  H  H108  1  0.541900  0.209000  0.665200  1.0  0.0685
  H  H109  1  0.465900  0.250800  0.135000  1.0  0.1027
  H  H110  1  0.358800  0.302300  0.232400  1.0  0.071
  H  H111  1  0.187700  0.346400  0.955000  1.0  0.0654
  H  H112  1  0.284800  0.294600  0.849100  1.0  0.1097
  H  H113  1  0.576100  0.824200  0.744100  1.0  0.0878
  H  H114  1  0.485000  0.765000  0.657900  1.0  0.0959
  H  H115  1  0.792900  0.760800  0.457400  1.0  0.1089
  H  H116  1  0.886600  0.815900  0.561800  1.0  0.0605
  H  H117  1  0.374900  0.731000  0.532100  1.0  0.099
  H  H118  1  0.271800  0.681700  0.417000  1.0  0.0601
  H  H119  1  0.612300  0.646200  0.301700  1.0  0.0899
  H  H120  1  0.723300  0.694900  0.414800  1.0  0.0955
  C  C121  1  0.417000  0.983100  0.117200  1.0  -0.3981
  C  C122  1  0.367900  0.957300  0.210700  1.0  0.2895
  C  C123  1  0.294600  0.976300  0.295000  1.0  -0.0961
  C  C124  1  0.252400  0.954400  0.388300  1.0  0.3525
  C  C125  1  0.175500  0.977700  0.476600  1.0  -0.4017
  C  C126  1  0.056000  0.999300  0.167600  1.0  -0.4406
  C  C127  1  0.142200  0.034400  0.218000  1.0  0.3645
  C  C128  1  0.259900  0.022900  0.282300  1.0  -0.0716
  C  C129  1  0.340000  0.053100  0.339200  1.0  0.3493
  C  C130  1  0.471800  0.040900  0.398700  1.0  -0.39
  C  C131  1  0.430000  0.834500  0.097900  1.0  0.1725
  C  C132  1  0.493500  0.804400  0.032500  1.0  -0.223
  C  C133  1  0.544000  0.767500  0.083100  1.0  0.0566
  C  C134  1  0.528000  0.762900  0.198900  1.0  -0.2092
  C  C135  1  0.465700  0.794400  0.257200  1.0  0.1794
  C  C136  1  0.612000  0.733900  0.018500  1.0  0.0724
  C  C137  1  0.591600  0.730400  0.903900  1.0  -0.2085
  C  C138  1  0.656200  0.699300  0.845800  1.0  0.1683
  C  C139  1  0.757200  0.673600  0.008000  1.0  0.1608
  C  C140  1  0.698100  0.704400  0.072800  1.0  -0.2126
  C  C141  1  0.377500  0.189600  0.311200  1.0  0.1126
  C  C142  1  0.434100  0.224600  0.365200  1.0  -0.1595
  C  C143  1  0.373300  0.244400  0.452500  1.0  0.0477
  C  C144  1  0.251200  0.227800  0.482300  1.0  -0.2175
  C  C145  1  0.197000  0.193900  0.419900  1.0  0.1756
  C  C146  1  0.438300  0.279300  0.518100  1.0  0.0499
  C  C147  1  0.575200  0.285300  0.515800  1.0  -0.2093
  C  C148  1  0.636200  0.315300  0.584500  1.0  0.1775
  C  C149  1  0.436100  0.336200  0.652300  1.0  0.1403
  C  C150  1  0.369200  0.306700  0.585400  1.0  -0.1892
  C  C151  1  0.917000  0.516900  0.617200  1.0  -0.3968
  C  C152  1  0.867900  0.542700  0.710700  1.0  0.2911
  C  C153  1  0.794600  0.523700  0.795000  1.0  -0.0957
  C  C154  1  0.752400  0.545600  0.888300  1.0  0.3528
  C  C155  1  0.675500  0.522300  0.976600  1.0  -0.4025
  C  C156  1  0.556000  0.500700  0.667600  1.0  -0.4411
  C  C157  1  0.642200  0.465600  0.718000  1.0  0.3636
  C  C158  1  0.759900  0.477100  0.782300  1.0  -0.0743
  C  C159  1  0.840000  0.446900  0.839200  1.0  0.3475
  C  C160  1  0.971800  0.459100  0.898700  1.0  -0.3904
  C  C161  1  0.930000  0.665500  0.597900  1.0  0.1704
  C  C162  1  0.993500  0.695600  0.532500  1.0  -0.2224
  C  C163  1  0.044000  0.732500  0.583100  1.0  0.0572
  C  C164  1  0.028000  0.737100  0.698900  1.0  -0.2097
  C  C165  1  0.965700  0.705600  0.757200  1.0  0.1788
  C  C166  1  0.112000  0.766100  0.518500  1.0  0.0724
  C  C167  1  0.091600  0.769600  0.403900  1.0  -0.208
  C  C168  1  0.156200  0.800700  0.345800  1.0  0.1687
  C  C169  1  0.257200  0.826400  0.508000  1.0  0.1612
  C  C170  1  0.198100  0.795600  0.572800  1.0  -0.211
  C  C171  1  0.877500  0.310400  0.811200  1.0  0.1118
  C  C172  1  0.934100  0.275400  0.865200  1.0  -0.1596
  C  C173  1  0.873300  0.255600  0.952500  1.0  0.0479
  C  C174  1  0.751200  0.272200  0.982300  1.0  -0.2169
  C  C175  1  0.697000  0.306100  0.919900  1.0  0.1759
  C  C176  1  0.938300  0.220700  0.018100  1.0  0.0498
  C  C177  1  0.075200  0.214700  0.015800  1.0  -0.2104
  C  C178  1  0.136200  0.184700  0.084500  1.0  0.1747
  C  C179  1  0.936100  0.163800  0.152300  1.0  0.1402
  C  C180  1  0.869200  0.193300  0.085400  1.0  -0.1876
  C  C181  1  0.083000  0.483100  0.382800  1.0  -0.396
  C  C182  1  0.132100  0.457300  0.289300  1.0  0.2903
  C  C183  1  0.205400  0.476300  0.205000  1.0  -0.0956
  C  C184  1  0.247600  0.454400  0.111700  1.0  0.3526
  C  C185  1  0.324500  0.477700  0.023400  1.0  -0.4037
  C  C186  1  0.444000  0.499300  0.332400  1.0  -0.4413
  C  C187  1  0.357800  0.534400  0.282000  1.0  0.3611
  C  C188  1  0.240100  0.522900  0.217700  1.0  -0.0705
  C  C189  1  0.160000  0.553100  0.160800  1.0  0.3492
  C  C190  1  0.028200  0.540900  0.101300  1.0  -0.3892
  C  C191  1  0.070000  0.334500  0.402100  1.0  0.1729
  C  C192  1  0.006500  0.304400  0.467500  1.0  -0.2231
  C  C193  1  0.956000  0.267500  0.416900  1.0  0.0574
  C  C194  1  0.972000  0.262900  0.301100  1.0  -0.2089
  C  C195  1  0.034300  0.294400  0.242800  1.0  0.1805
  C  C196  1  0.888000  0.233900  0.481500  1.0  0.0724
  C  C197  1  0.908400  0.230400  0.596100  1.0  -0.2104
  C  C198  1  0.843800  0.199300  0.654200  1.0  0.1675
  C  C199  1  0.742800  0.173600  0.492000  1.0  0.1601
  C  C200  1  0.801900  0.204400  0.427200  1.0  -0.2126
  C  C201  1  0.122500  0.689600  0.188800  1.0  0.1143
  C  C202  1  0.065900  0.724600  0.134800  1.0  -0.1577
  C  C203  1  0.126700  0.744400  0.047500  1.0  0.0479
  C  C204  1  0.248800  0.727800  0.017700  1.0  -0.2199
  C  C205  1  0.303000  0.693900  0.080100  1.0  0.1746
  C  C206  1  0.061700  0.779300  0.981900  1.0  0.0501
  C  C207  1  0.924800  0.785300  0.984200  1.0  -0.2094
  C  C208  1  0.863800  0.815300  0.915500  1.0  0.174
  C  C209  1  0.063900  0.836200  0.847700  1.0  0.1392
  C  C210  1  0.130800  0.806700  0.914600  1.0  -0.1883
  C  C211  1  0.583000  0.016900  0.882800  1.0  -0.3963
  C  C212  1  0.632100  0.042700  0.789300  1.0  0.292
  C  C213  1  0.705400  0.023700  0.705000  1.0  -0.0952
  C  C214  1  0.747600  0.045600  0.611700  1.0  0.3528
  C  C215  1  0.824500  0.022300  0.523400  1.0  -0.4033
  C  C216  1  0.944000  0.000700  0.832400  1.0  -0.4413
  C  C217  1  0.857800  0.965600  0.782000  1.0  0.361
  C  C218  1  0.740100  0.977100  0.717700  1.0  -0.0737
  C  C219  1  0.660000  0.946900  0.660800  1.0  0.3474
  C  C220  1  0.528200  0.959100  0.601300  1.0  -0.3891
  C  C221  1  0.570000  0.165500  0.902100  1.0  0.1714
  C  C222  1  0.506500  0.195600  0.967500  1.0  -0.2229
  C  C223  1  0.456000  0.232500  0.916900  1.0  0.0576
  C  C224  1  0.472000  0.237100  0.801100  1.0  -0.2098
  C  C225  1  0.534300  0.205600  0.742800  1.0  0.1806
  C  C226  1  0.388000  0.266100  0.981500  1.0  0.0724
  C  C227  1  0.408400  0.269600  0.096100  1.0  -0.2101
  C  C228  1  0.343800  0.300700  0.154200  1.0  0.1685
  C  C229  1  0.242800  0.326400  0.992000  1.0  0.1611
  C  C230  1  0.301900  0.295600  0.927200  1.0  -0.2128
  C  C231  1  0.622500  0.810400  0.688800  1.0  0.1123
  C  C232  1  0.565900  0.775400  0.634800  1.0  -0.1582
  C  C233  1  0.626700  0.755600  0.547500  1.0  0.0482
  C  C234  1  0.748800  0.772200  0.517700  1.0  -0.219
  C  C235  1  0.803000  0.806100  0.580100  1.0  0.1781
  C  C236  1  0.561700  0.720700  0.481900  1.0  0.0503
  C  C237  1  0.424800  0.714700  0.484200  1.0  -0.2101
  C  C238  1  0.363800  0.684700  0.415500  1.0  0.1748
  C  C239  1  0.563900  0.663800  0.347700  1.0  0.1382
  C  C240  1  0.630800  0.693300  0.414600  1.0  -0.1888
  N  N241  1  0.415100  0.829860  0.207400  1.0  -0.3412
  N  N242  1  0.739700  0.671040  0.896700  1.0  -0.3213
  N  N243  1  0.255300  0.174780  0.337100  1.0  -0.3254
  N  N244  1  0.570800  0.340650  0.653700  1.0  -0.348
  N  N245  1  0.915100  0.670140  0.707400  1.0  -0.3406
  N  N246  1  0.239700  0.828960  0.396700  1.0  -0.3206
  N  N247  1  0.755300  0.325220  0.837100  1.0  -0.3237
  N  N248  1  0.070800  0.159350  0.153700  1.0  -0.3492
  N  N249  1  0.084900  0.329860  0.292600  1.0  -0.3403
  N  N250  1  0.760300  0.171040  0.603300  1.0  -0.3214
  N  N251  1  0.244700  0.674780  0.162900  1.0  -0.3267
  N  N252  1  0.929200  0.840650  0.846300  1.0  -0.3473
  N  N253  1  0.584900  0.170140  0.792600  1.0  -0.3411
  N  N254  1  0.260300  0.328960  0.103300  1.0  -0.3211
  N  N255  1  0.744700  0.825220  0.662900  1.0  -0.3257
  N  N256  1  0.429200  0.659350  0.346300  1.0  -0.349
  O  O257  1  0.404000  0.917830  0.212100  1.0  -0.606
  O  O258  1  0.270900  0.915000  0.410000  1.0  -0.5982
  O  O259  1  0.101400  0.072010  0.197000  1.0  -0.5942
  O  O260  1  0.314300  0.092640  0.348800  1.0  -0.6132
  O  O261  1  0.904000  0.582170  0.712100  1.0  -0.6046
  O  O262  1  0.770900  0.585000  0.910000  1.0  -0.5979
  O  O263  1  0.601400  0.427990  0.697000  1.0  -0.5941
  O  O264  1  0.814300  0.407360  0.848800  1.0  -0.6126
  O  O265  1  0.096000  0.417830  0.287900  1.0  -0.6047
  O  O266  1  0.229100  0.415000  0.090000  1.0  -0.5989
  O  O267  1  0.398600  0.572010  0.303000  1.0  -0.5949
  O  O268  1  0.185700  0.592640  0.151200  1.0  -0.6121
  O  O269  1  0.596000  0.082170  0.787900  1.0  -0.6038
  O  O270  1  0.729100  0.085000  0.590000  1.0  -0.5985
  O  O271  1  0.898600  0.927990  0.803000  1.0  -0.5956
  O  O272  1  0.685700  0.907360  0.651200  1.0  -0.6122
