# generated using pymatgen
data_FeP2(HO3)2
_symmetry_space_group_name_H-M   'P 1'
_cell_length_a   8.80300000
_cell_length_b   8.80300000
_cell_length_c   25.29200000
_cell_angle_alpha   90.00000000
_cell_angle_beta   90.00000000
_cell_angle_gamma   120.00000000
_symmetry_Int_Tables_number   1
_chemical_formula_structural   FeP2(HO3)2
_chemical_formula_sum   'Fe9 P18 H18 O54'
_cell_volume   1697.36486655
_cell_formula_units_Z   9
loop_
 _symmetry_equiv_pos_site_id
 _symmetry_equiv_pos_as_xyz
  1  'x, y, z'
loop_
 _atom_site_type_symbol
 _atom_site_label
 _atom_site_symmetry_multiplicity
 _atom_site_fract_x
 _atom_site_fract_y
 _atom_site_fract_z
 _atom_site_occupancy
 _atom_site_charge
  Fe  Fe1  1  0.666667  0.333333  0.022270  1.0  1.1454
  Fe  Fe2  1  0.333333  0.666667  0.355600  1.0  1.1457
  Fe  Fe3  1  0.000000  0.000000  0.688940  1.0  1.1458
  Fe  Fe4  1  0.333333  0.666667  0.977730  1.0  1.1429
  Fe  Fe5  1  0.000000  0.000000  0.311060  1.0  1.1428
  Fe  Fe6  1  0.666667  0.333333  0.644400  1.0  1.1429
  Fe  Fe7  1  0.333333  0.666667  0.166670  1.0  0.9921
  Fe  Fe8  1  0.000000  0.000000  0.500000  1.0  0.9904
  Fe  Fe9  1  0.666667  0.333333  0.833330  1.0  0.9939
  P  P10  1  0.045530  0.489200  0.070290  1.0  1.6047
  P  P11  1  0.712200  0.822530  0.403620  1.0  1.6047
  P  P12  1  0.378860  0.155870  0.736960  1.0  1.6047
  P  P13  1  0.510800  0.556330  0.070290  1.0  1.5988
  P  P14  1  0.177470  0.889660  0.403620  1.0  1.5988
  P  P15  1  0.844130  0.223000  0.736960  1.0  1.5988
  P  P16  1  0.443670  0.954470  0.070290  1.0  1.6148
  P  P17  1  0.110340  0.287800  0.403620  1.0  1.6148
  P  P18  1  0.777000  0.621140  0.736960  1.0  1.6148
  P  P19  1  0.954470  0.510800  0.929710  1.0  1.6111
  P  P20  1  0.621140  0.844130  0.263040  1.0  1.6111
  P  P21  1  0.287800  0.177470  0.596380  1.0  1.6111
  P  P22  1  0.489200  0.443670  0.929710  1.0  1.5984
  P  P23  1  0.155870  0.777000  0.263040  1.0  1.5984
  P  P24  1  0.822530  0.110340  0.596380  1.0  1.5984
  P  P25  1  0.556330  0.045530  0.929710  1.0  1.6052
  P  P26  1  0.223000  0.378860  0.263040  1.0  1.6052
  P  P27  1  0.889660  0.712200  0.596380  1.0  1.6052
  H  H28  1  0.055000  0.626000  0.068600  1.0  0.1316
  H  H29  1  0.721670  0.959330  0.401930  1.0  0.1294
  H  H30  1  0.388330  0.292670  0.735270  1.0  0.1316
  H  H31  1  0.374000  0.429000  0.068600  1.0  0.1302
  H  H32  1  0.040670  0.762330  0.401930  1.0  0.1328
  H  H33  1  0.707330  0.095670  0.735270  1.0  0.1302
  H  H34  1  0.571000  0.945000  0.068600  1.0  0.1295
  H  H35  1  0.237670  0.278330  0.401930  1.0  0.1342
  H  H36  1  0.904330  0.611670  0.735270  1.0  0.1295
  H  H37  1  0.945000  0.374000  0.931400  1.0  0.132
  H  H38  1  0.611670  0.707330  0.264730  1.0  0.132
  H  H39  1  0.278330  0.040670  0.598070  1.0  0.1296
  H  H40  1  0.626000  0.571000  0.931400  1.0  0.1289
  H  H41  1  0.292670  0.904330  0.264730  1.0  0.1289
  H  H42  1  0.959330  0.237670  0.598070  1.0  0.1321
  H  H43  1  0.429000  0.055000  0.931400  1.0  0.1298
  H  H44  1  0.095670  0.388330  0.264730  1.0  0.1298
  H  H45  1  0.762330  0.721670  0.598070  1.0  0.1343
  O  O46  1  0.132200  0.489600  0.122720  1.0  -0.7773
  O  O47  1  0.855200  0.338800  0.069440  1.0  -0.7272
  O  O48  1  0.147300  0.479500  0.022790  1.0  -0.7782
  O  O49  1  0.798870  0.822930  0.456050  1.0  -0.7773
  O  O50  1  0.521870  0.672130  0.402770  1.0  -0.7341
  O  O51  1  0.813970  0.812830  0.356120  1.0  -0.7781
  O  O52  1  0.465530  0.156270  0.789390  1.0  -0.7773
  O  O53  1  0.188530  0.005470  0.736110  1.0  -0.7272
  O  O54  1  0.480630  0.146170  0.689460  1.0  -0.7782
  O  O55  1  0.510400  0.642600  0.122720  1.0  -0.7749
  O  O56  1  0.661200  0.516400  0.069440  1.0  -0.733
  O  O57  1  0.520500  0.667800  0.022790  1.0  -0.7762
  O  O58  1  0.177070  0.975930  0.456050  1.0  -0.7749
  O  O59  1  0.327870  0.849730  0.402770  1.0  -0.7283
  O  O60  1  0.187170  0.001130  0.356120  1.0  -0.7762
  O  O61  1  0.843730  0.309270  0.789390  1.0  -0.7749
  O  O62  1  0.994530  0.183070  0.736110  1.0  -0.733
  O  O63  1  0.853830  0.334470  0.689460  1.0  -0.7762
  O  O64  1  0.357400  0.867800  0.122720  1.0  -0.773
  O  O65  1  0.483600  0.144800  0.069440  1.0  -0.7341
  O  O66  1  0.332200  0.852700  0.022790  1.0  -0.7755
  O  O67  1  0.024070  0.201130  0.456050  1.0  -0.773
  O  O68  1  0.150270  0.478130  0.402770  1.0  -0.7244
  O  O69  1  0.998870  0.186030  0.356120  1.0  -0.7755
  O  O70  1  0.690730  0.534470  0.789390  1.0  -0.773
  O  O71  1  0.816930  0.811470  0.736110  1.0  -0.7341
  O  O72  1  0.665530  0.519370  0.689460  1.0  -0.7753
  O  O73  1  0.867800  0.510400  0.877280  1.0  -0.7761
  O  O74  1  0.144800  0.661200  0.930560  1.0  -0.7297
  O  O75  1  0.852700  0.520500  0.977210  1.0  -0.7784
  O  O76  1  0.534470  0.843730  0.210610  1.0  -0.7761
  O  O77  1  0.811470  0.994530  0.263890  1.0  -0.7297
  O  O78  1  0.519370  0.853830  0.310540  1.0  -0.7784
  O  O79  1  0.201130  0.177070  0.543950  1.0  -0.7761
  O  O80  1  0.478130  0.327870  0.597230  1.0  -0.7364
  O  O81  1  0.186030  0.187170  0.643880  1.0  -0.7784
  O  O82  1  0.489600  0.357400  0.877280  1.0  -0.7748
  O  O83  1  0.338800  0.483600  0.930560  1.0  -0.7346
  O  O84  1  0.479500  0.332200  0.977210  1.0  -0.7763
  O  O85  1  0.156270  0.690730  0.210610  1.0  -0.7748
  O  O86  1  0.005470  0.816930  0.263890  1.0  -0.7347
  O  O87  1  0.146170  0.665530  0.310540  1.0  -0.7763
  O  O88  1  0.822930  0.024070  0.543950  1.0  -0.775
  O  O89  1  0.672130  0.150270  0.597230  1.0  -0.7304
  O  O90  1  0.812830  0.998870  0.643880  1.0  -0.7763
  O  O91  1  0.642600  0.132200  0.877280  1.0  -0.7754
  O  O92  1  0.516400  0.855200  0.930560  1.0  -0.7345
  O  O93  1  0.667800  0.147300  0.977210  1.0  -0.7749
  O  O94  1  0.309270  0.465530  0.210610  1.0  -0.7754
  O  O95  1  0.183070  0.188530  0.263890  1.0  -0.7345
  O  O96  1  0.334470  0.480630  0.310540  1.0  -0.7749
  O  O97  1  0.975930  0.798870  0.543950  1.0  -0.7754
  O  O98  1  0.849730  0.521870  0.597230  1.0  -0.7246
  O  O99  1  0.001130  0.813970  0.643880  1.0  -0.7749
