# generated using pymatgen
data_CoH24C30(NO)6
_symmetry_space_group_name_H-M   'P 1'
_cell_length_a   23.16200000
_cell_length_b   23.16200000
_cell_length_c   23.16200000
_cell_angle_alpha   90.00000000
_cell_angle_beta   90.00000000
_cell_angle_gamma   90.00000000
_symmetry_Int_Tables_number   1
_chemical_formula_structural   CoH24C30(NO)6
_chemical_formula_sum   'Co8 H192 C240 N48 O48'
_cell_volume   12425.90908753
_cell_formula_units_Z   8
loop_
 _symmetry_equiv_pos_site_id
 _symmetry_equiv_pos_as_xyz
  1  'x, y, z'
loop_
 _atom_site_type_symbol
 _atom_site_label
 _atom_site_symmetry_multiplicity
 _atom_site_fract_x
 _atom_site_fract_y
 _atom_site_fract_z
 _atom_site_occupancy
 _atom_site_charge
  Co  Co1  1  0.250000  0.250000  0.250000  1.0  0.8225
  Co  Co2  1  0.750000  0.750000  0.250000  1.0  0.8225
  Co  Co3  1  0.750000  0.250000  0.750000  1.0  0.8225
  Co  Co4  1  0.250000  0.750000  0.750000  1.0  0.8225
  Co  Co5  1  0.750000  0.750000  0.750000  1.0  0.8225
  Co  Co6  1  0.250000  0.250000  0.750000  1.0  0.8225
  Co  Co7  1  0.250000  0.750000  0.250000  1.0  0.8225
  Co  Co8  1  0.750000  0.250000  0.250000  1.0  0.8225
  H  H9  1  0.264000  0.355000  0.158800  1.0  0.1137
  H  H10  1  0.262800  0.456300  0.159500  1.0  0.1112
  H  H11  1  0.392900  0.454600  0.273100  1.0  0.1029
  H  H12  1  0.387400  0.358100  0.277200  1.0  0.1071
  H  H13  1  0.764000  0.855000  0.658800  1.0  0.1137
  H  H14  1  0.762800  0.956300  0.659500  1.0  0.1112
  H  H15  1  0.892900  0.954600  0.773100  1.0  0.1029
  H  H16  1  0.887400  0.858100  0.777200  1.0  0.1071
  H  H17  1  0.736000  0.645000  0.158800  1.0  0.1134
  H  H18  1  0.737200  0.543700  0.159500  1.0  0.1108
  H  H19  1  0.607100  0.545400  0.273100  1.0  0.1026
  H  H20  1  0.612600  0.641900  0.277200  1.0  0.1071
  H  H21  1  0.236000  0.145000  0.658800  1.0  0.1134
  H  H22  1  0.237200  0.043700  0.659500  1.0  0.1108
  H  H23  1  0.107100  0.045400  0.773100  1.0  0.1026
  H  H24  1  0.112600  0.141900  0.777200  1.0  0.1071
  H  H25  1  0.736000  0.355000  0.841200  1.0  0.114
  H  H26  1  0.737200  0.456300  0.840500  1.0  0.1115
  H  H27  1  0.607100  0.454600  0.726900  1.0  0.102
  H  H28  1  0.612600  0.358100  0.722800  1.0  0.107
  H  H29  1  0.236000  0.855000  0.341200  1.0  0.114
  H  H30  1  0.237200  0.956300  0.340500  1.0  0.1115
  H  H31  1  0.107100  0.954600  0.226900  1.0  0.102
  H  H32  1  0.112600  0.858100  0.222800  1.0  0.107
  H  H33  1  0.264000  0.645000  0.841200  1.0  0.1143
  H  H34  1  0.262800  0.543700  0.840500  1.0  0.112
  H  H35  1  0.392900  0.545400  0.726900  1.0  0.1026
  H  H36  1  0.387400  0.641900  0.722800  1.0  0.1075
  H  H37  1  0.764000  0.145000  0.341200  1.0  0.1143
  H  H38  1  0.762800  0.043700  0.340500  1.0  0.112
  H  H39  1  0.892900  0.045400  0.226900  1.0  0.1026
  H  H40  1  0.887400  0.141900  0.222800  1.0  0.1075
  H  H41  1  0.158800  0.264000  0.355000  1.0  0.1134
  H  H42  1  0.159500  0.262800  0.456300  1.0  0.1125
  H  H43  1  0.273100  0.392900  0.454600  1.0  0.1027
  H  H44  1  0.277200  0.387400  0.358100  1.0  0.1075
  H  H45  1  0.658800  0.764000  0.855000  1.0  0.1134
  H  H46  1  0.659500  0.762800  0.956300  1.0  0.1125
  H  H47  1  0.773100  0.892900  0.954600  1.0  0.1027
  H  H48  1  0.777200  0.887400  0.858100  1.0  0.1075
  H  H49  1  0.158800  0.736000  0.645000  1.0  0.113
  H  H50  1  0.159500  0.737200  0.543700  1.0  0.1107
  H  H51  1  0.273100  0.607100  0.545400  1.0  0.1021
  H  H52  1  0.277200  0.612600  0.641900  1.0  0.107
  H  H53  1  0.658800  0.236000  0.145000  1.0  0.113
  H  H54  1  0.659500  0.237200  0.043700  1.0  0.1107
  H  H55  1  0.773100  0.107100  0.045400  1.0  0.1021
  H  H56  1  0.777200  0.112600  0.141900  1.0  0.107
  H  H57  1  0.841200  0.736000  0.355000  1.0  0.1136
  H  H58  1  0.840500  0.737200  0.456300  1.0  0.1119
  H  H59  1  0.726900  0.607100  0.454600  1.0  0.1024
  H  H60  1  0.722800  0.612600  0.358100  1.0  0.1073
  H  H61  1  0.341200  0.236000  0.855000  1.0  0.1136
  H  H62  1  0.340500  0.237200  0.956300  1.0  0.1119
  H  H63  1  0.226900  0.107100  0.954600  1.0  0.1024
  H  H64  1  0.222800  0.112600  0.858100  1.0  0.1073
  H  H65  1  0.841200  0.264000  0.645000  1.0  0.1137
  H  H66  1  0.840500  0.262800  0.543700  1.0  0.1117
  H  H67  1  0.726900  0.392900  0.545400  1.0  0.103
  H  H68  1  0.722800  0.387400  0.641900  1.0  0.107
  H  H69  1  0.341200  0.764000  0.145000  1.0  0.1137
  H  H70  1  0.340500  0.762800  0.043700  1.0  0.1117
  H  H71  1  0.226900  0.892900  0.045400  1.0  0.103
  H  H72  1  0.222800  0.887400  0.141900  1.0  0.107
  H  H73  1  0.355000  0.158800  0.264000  1.0  0.1126
  H  H74  1  0.456300  0.159500  0.262800  1.0  0.1135
  H  H75  1  0.454600  0.273100  0.392900  1.0  0.1045
  H  H76  1  0.358100  0.277200  0.387400  1.0  0.1085
  H  H77  1  0.855000  0.658800  0.764000  1.0  0.1126
  H  H78  1  0.956300  0.659500  0.762800  1.0  0.1135
  H  H79  1  0.954600  0.773100  0.892900  1.0  0.1045
  H  H80  1  0.858100  0.777200  0.887400  1.0  0.1085
  H  H81  1  0.645000  0.158800  0.736000  1.0  0.1123
  H  H82  1  0.543700  0.159500  0.737200  1.0  0.1133
  H  H83  1  0.545400  0.273100  0.607100  1.0  0.1043
  H  H84  1  0.641900  0.277200  0.612600  1.0  0.1076
  H  H85  1  0.145000  0.658800  0.236000  1.0  0.1123
  H  H86  1  0.043700  0.659500  0.237200  1.0  0.1133
  H  H87  1  0.045400  0.773100  0.107100  1.0  0.1043
  H  H88  1  0.141900  0.777200  0.112600  1.0  0.1076
  H  H89  1  0.355000  0.841200  0.736000  1.0  0.1129
  H  H90  1  0.456300  0.840500  0.737200  1.0  0.1127
  H  H91  1  0.454600  0.726900  0.607100  1.0  0.1043
  H  H92  1  0.358100  0.722800  0.612600  1.0  0.1079
  H  H93  1  0.855000  0.341200  0.236000  1.0  0.1129
  H  H94  1  0.956300  0.340500  0.237200  1.0  0.1127
  H  H95  1  0.954600  0.226900  0.107100  1.0  0.1043
  H  H96  1  0.858100  0.222800  0.112600  1.0  0.1079
  H  H97  1  0.645000  0.841200  0.264000  1.0  0.1133
  H  H98  1  0.543700  0.840500  0.262800  1.0  0.1122
  H  H99  1  0.545400  0.726900  0.392900  1.0  0.1047
  H  H100  1  0.641900  0.722800  0.387400  1.0  0.1082
  H  H101  1  0.145000  0.341200  0.764000  1.0  0.1133
  H  H102  1  0.043700  0.340500  0.762800  1.0  0.1122
  H  H103  1  0.045400  0.226900  0.892900  1.0  0.1047
  H  H104  1  0.141900  0.222800  0.887400  1.0  0.1082
  H  H105  1  0.736000  0.645000  0.841200  1.0  0.1141
  H  H106  1  0.737200  0.543700  0.840500  1.0  0.1117
  H  H107  1  0.607100  0.545400  0.726900  1.0  0.102
  H  H108  1  0.612600  0.641900  0.722800  1.0  0.1069
  H  H109  1  0.236000  0.145000  0.341200  1.0  0.1141
  H  H110  1  0.237200  0.043700  0.340500  1.0  0.1117
  H  H111  1  0.107100  0.045400  0.226900  1.0  0.102
  H  H112  1  0.112600  0.141900  0.222800  1.0  0.1069
  H  H113  1  0.264000  0.355000  0.841200  1.0  0.1143
  H  H114  1  0.262800  0.456300  0.840500  1.0  0.1117
  H  H115  1  0.392900  0.454600  0.726900  1.0  0.1027
  H  H116  1  0.387400  0.358100  0.722800  1.0  0.1075
  H  H117  1  0.764000  0.855000  0.341200  1.0  0.1143
  H  H118  1  0.762800  0.956300  0.340500  1.0  0.1117
  H  H119  1  0.892900  0.954600  0.226900  1.0  0.1027
  H  H120  1  0.887400  0.858100  0.222800  1.0  0.1075
  H  H121  1  0.264000  0.645000  0.158800  1.0  0.1135
  H  H122  1  0.262800  0.543700  0.159500  1.0  0.1117
  H  H123  1  0.392900  0.545400  0.273100  1.0  0.103
  H  H124  1  0.387400  0.641900  0.277200  1.0  0.1074
  H  H125  1  0.764000  0.145000  0.658800  1.0  0.1135
  H  H126  1  0.762800  0.043700  0.659500  1.0  0.1117
  H  H127  1  0.892900  0.045400  0.773100  1.0  0.103
  H  H128  1  0.887400  0.141900  0.777200  1.0  0.1074
  H  H129  1  0.736000  0.355000  0.158800  1.0  0.1134
  H  H130  1  0.737200  0.456300  0.159500  1.0  0.1102
  H  H131  1  0.607100  0.454600  0.273100  1.0  0.1024
  H  H132  1  0.612600  0.358100  0.277200  1.0  0.107
  H  H133  1  0.236000  0.855000  0.658800  1.0  0.1134
  H  H134  1  0.237200  0.956300  0.659500  1.0  0.1102
  H  H135  1  0.107100  0.954600  0.773100  1.0  0.1024
  H  H136  1  0.112600  0.858100  0.777200  1.0  0.107
  H  H137  1  0.841200  0.736000  0.645000  1.0  0.1138
  H  H138  1  0.840500  0.737200  0.543700  1.0  0.1113
  H  H139  1  0.726900  0.607100  0.545400  1.0  0.1019
  H  H140  1  0.722800  0.612600  0.641900  1.0  0.1068
  H  H141  1  0.341200  0.236000  0.145000  1.0  0.1138
  H  H142  1  0.340500  0.237200  0.043700  1.0  0.1113
  H  H143  1  0.226900  0.107100  0.045400  1.0  0.1019
  H  H144  1  0.222800  0.112600  0.141900  1.0  0.1068
  H  H145  1  0.841200  0.264000  0.355000  1.0  0.1137
  H  H146  1  0.840500  0.262800  0.456300  1.0  0.1125
  H  H147  1  0.726900  0.392900  0.454600  1.0  0.1029
  H  H148  1  0.722800  0.387400  0.358100  1.0  0.1077
  H  H149  1  0.341200  0.764000  0.855000  1.0  0.1137
  H  H150  1  0.340500  0.762800  0.956300  1.0  0.1125
  H  H151  1  0.226900  0.892900  0.954600  1.0  0.1029
  H  H152  1  0.222800  0.887400  0.858100  1.0  0.1077
  H  H153  1  0.158800  0.264000  0.645000  1.0  0.1129
  H  H154  1  0.159500  0.262800  0.543700  1.0  0.1118
  H  H155  1  0.273100  0.392900  0.545400  1.0  0.1028
  H  H156  1  0.277200  0.387400  0.641900  1.0  0.1068
  H  H157  1  0.658800  0.764000  0.145000  1.0  0.1129
  H  H158  1  0.659500  0.762800  0.043700  1.0  0.1118
  H  H159  1  0.773100  0.892900  0.045400  1.0  0.1028
  H  H160  1  0.777200  0.887400  0.141900  1.0  0.1068
  H  H161  1  0.158800  0.736000  0.355000  1.0  0.1134
  H  H162  1  0.159500  0.737200  0.456300  1.0  0.1108
  H  H163  1  0.273100  0.607100  0.454600  1.0  0.1025
  H  H164  1  0.277200  0.612600  0.358100  1.0  0.1075
  H  H165  1  0.658800  0.236000  0.855000  1.0  0.1134
  H  H166  1  0.659500  0.237200  0.956300  1.0  0.1108
  H  H167  1  0.773100  0.107100  0.954600  1.0  0.1025
  H  H168  1  0.777200  0.112600  0.858100  1.0  0.1075
  H  H169  1  0.645000  0.841200  0.736000  1.0  0.1125
  H  H170  1  0.543700  0.840500  0.737200  1.0  0.1124
  H  H171  1  0.545400  0.726900  0.607100  1.0  0.1043
  H  H172  1  0.641900  0.722800  0.612600  1.0  0.1073
  H  H173  1  0.145000  0.341200  0.236000  1.0  0.1125
  H  H174  1  0.043700  0.340500  0.237200  1.0  0.1124
  H  H175  1  0.045400  0.226900  0.107100  1.0  0.1043
  H  H176  1  0.141900  0.222800  0.112600  1.0  0.1073
  H  H177  1  0.355000  0.841200  0.264000  1.0  0.1139
  H  H178  1  0.456300  0.840500  0.262800  1.0  0.112
  H  H179  1  0.454600  0.726900  0.392900  1.0  0.1048
  H  H180  1  0.358100  0.722800  0.387400  1.0  0.1086
  H  H181  1  0.855000  0.341200  0.764000  1.0  0.1139
  H  H182  1  0.956300  0.340500  0.762800  1.0  0.112
  H  H183  1  0.954600  0.226900  0.892900  1.0  0.1048
  H  H184  1  0.858100  0.222800  0.887400  1.0  0.1086
  H  H185  1  0.645000  0.158800  0.264000  1.0  0.1121
  H  H186  1  0.543700  0.159500  0.262800  1.0  0.1136
  H  H187  1  0.545400  0.273100  0.392900  1.0  0.1044
  H  H188  1  0.641900  0.277200  0.387400  1.0  0.1083
  H  H189  1  0.145000  0.658800  0.764000  1.0  0.1121
  H  H190  1  0.043700  0.659500  0.762800  1.0  0.1136
  H  H191  1  0.045400  0.773100  0.892900  1.0  0.1044
  H  H192  1  0.141900  0.777200  0.887400  1.0  0.1083
  H  H193  1  0.355000  0.158800  0.736000  1.0  0.1125
  H  H194  1  0.456300  0.159500  0.737200  1.0  0.1136
  H  H195  1  0.454600  0.273100  0.607100  1.0  0.1044
  H  H196  1  0.358100  0.277200  0.612600  1.0  0.1081
  H  H197  1  0.855000  0.658800  0.236000  1.0  0.1125
  H  H198  1  0.956300  0.659500  0.237200  1.0  0.1136
  H  H199  1  0.954600  0.773100  0.107100  1.0  0.1044
  H  H200  1  0.858100  0.777200  0.112600  1.0  0.1081
  C  C201  1  0.288100  0.375700  0.183300  1.0  0.0192
  C  C202  1  0.289200  0.436820  0.182600  1.0  -0.1353
  C  C203  1  0.327900  0.468530  0.214800  1.0  0.0114
  C  C204  1  0.365540  0.435550  0.250800  1.0  -0.1563
  C  C205  1  0.362470  0.378420  0.253090  1.0  -0.0144
  C  C206  1  0.788100  0.875700  0.683300  1.0  0.0192
  C  C207  1  0.789200  0.936820  0.682600  1.0  -0.1353
  C  C208  1  0.827900  0.968530  0.714800  1.0  0.0114
  C  C209  1  0.865540  0.935550  0.750800  1.0  -0.1563
  C  C210  1  0.862470  0.878420  0.753090  1.0  -0.0144
  C  C211  1  0.711900  0.624300  0.183300  1.0  0.0194
  C  C212  1  0.710800  0.563180  0.182600  1.0  -0.1359
  C  C213  1  0.672100  0.531470  0.214800  1.0  0.0107
  C  C214  1  0.634460  0.564450  0.250800  1.0  -0.1571
  C  C215  1  0.637530  0.621580  0.253090  1.0  -0.0148
  C  C216  1  0.211900  0.124300  0.683300  1.0  0.0194
  C  C217  1  0.210800  0.063180  0.682600  1.0  -0.1359
  C  C218  1  0.172100  0.031470  0.714800  1.0  0.0107
  C  C219  1  0.134460  0.064450  0.750800  1.0  -0.1571
  C  C220  1  0.137530  0.121580  0.753090  1.0  -0.0148
  C  C221  1  0.711900  0.375700  0.816700  1.0  0.0174
  C  C222  1  0.710800  0.436820  0.817400  1.0  -0.1337
  C  C223  1  0.672100  0.468530  0.785200  1.0  0.0108
  C  C224  1  0.634460  0.435550  0.749200  1.0  -0.1565
  C  C225  1  0.637530  0.378420  0.746910  1.0  -0.0152
  C  C226  1  0.211900  0.875700  0.316700  1.0  0.0174
  C  C227  1  0.210800  0.936820  0.317400  1.0  -0.1337
  C  C228  1  0.172100  0.968530  0.285200  1.0  0.0108
  C  C229  1  0.134460  0.935550  0.249200  1.0  -0.1565
  C  C230  1  0.137530  0.878420  0.246910  1.0  -0.0152
  C  C231  1  0.288100  0.624300  0.816700  1.0  0.0182
  C  C232  1  0.289200  0.563180  0.817400  1.0  -0.1359
  C  C233  1  0.327900  0.531470  0.785200  1.0  0.0105
  C  C234  1  0.365540  0.564450  0.749200  1.0  -0.1562
  C  C235  1  0.362470  0.621580  0.746910  1.0  -0.0144
  C  C236  1  0.788100  0.124300  0.316700  1.0  0.0182
  C  C237  1  0.789200  0.063180  0.317400  1.0  -0.1359
  C  C238  1  0.827900  0.031470  0.285200  1.0  0.0105
  C  C239  1  0.865540  0.064450  0.249200  1.0  -0.1562
  C  C240  1  0.862470  0.121580  0.246910  1.0  -0.0144
  C  C241  1  0.183300  0.288100  0.375700  1.0  0.018
  C  C242  1  0.182600  0.289200  0.436820  1.0  -0.1339
  C  C243  1  0.214800  0.327900  0.468530  1.0  0.0103
  C  C244  1  0.250800  0.365540  0.435550  1.0  -0.1576
  C  C245  1  0.253090  0.362470  0.378420  1.0  -0.0104
  C  C246  1  0.683300  0.788100  0.875700  1.0  0.018
  C  C247  1  0.682600  0.789200  0.936820  1.0  -0.1339
  C  C248  1  0.714800  0.827900  0.968530  1.0  0.0103
  C  C249  1  0.750800  0.865540  0.935550  1.0  -0.1576
  C  C250  1  0.753090  0.862470  0.878420  1.0  -0.0104
  C  C251  1  0.183300  0.711900  0.624300  1.0  0.0191
  C  C252  1  0.182600  0.710800  0.563180  1.0  -0.1343
  C  C253  1  0.214800  0.672100  0.531470  1.0  0.0091
  C  C254  1  0.250800  0.634460  0.564450  1.0  -0.1593
  C  C255  1  0.253090  0.637530  0.621580  1.0  -0.0113
  C  C256  1  0.683300  0.211900  0.124300  1.0  0.0191
  C  C257  1  0.682600  0.210800  0.063180  1.0  -0.1343
  C  C258  1  0.714800  0.172100  0.031470  1.0  0.0091
  C  C259  1  0.750800  0.134460  0.064450  1.0  -0.1593
  C  C260  1  0.753090  0.137530  0.121580  1.0  -0.0113
  C  C261  1  0.816700  0.711900  0.375700  1.0  0.0201
  C  C262  1  0.817400  0.710800  0.436820  1.0  -0.1343
  C  C263  1  0.785200  0.672100  0.468530  1.0  0.0093
  C  C264  1  0.749200  0.634460  0.435550  1.0  -0.1573
  C  C265  1  0.746910  0.637530  0.378420  1.0  -0.0124
  C  C266  1  0.316700  0.211900  0.875700  1.0  0.0201
  C  C267  1  0.317400  0.210800  0.936820  1.0  -0.1343
  C  C268  1  0.285200  0.172100  0.968530  1.0  0.0093
  C  C269  1  0.249200  0.134460  0.935550  1.0  -0.1573
  C  C270  1  0.246910  0.137530  0.878420  1.0  -0.0124
  C  C271  1  0.816700  0.288100  0.624300  1.0  0.021
  C  C272  1  0.817400  0.289200  0.563180  1.0  -0.134
  C  C273  1  0.785200  0.327900  0.531470  1.0  0.0102
  C  C274  1  0.749200  0.365540  0.564450  1.0  -0.1576
  C  C275  1  0.746910  0.362470  0.621580  1.0  -0.0111
  C  C276  1  0.316700  0.788100  0.124300  1.0  0.021
  C  C277  1  0.317400  0.789200  0.063180  1.0  -0.134
  C  C278  1  0.285200  0.827900  0.031470  1.0  0.0102
  C  C279  1  0.249200  0.865540  0.064450  1.0  -0.1576
  C  C280  1  0.246910  0.862470  0.121580  1.0  -0.0111
  C  C281  1  0.375700  0.183300  0.288100  1.0  0.0197
  C  C282  1  0.436820  0.182600  0.289200  1.0  -0.1394
  C  C283  1  0.468530  0.214800  0.327900  1.0  0.0103
  C  C284  1  0.435550  0.250800  0.365540  1.0  -0.1573
  C  C285  1  0.378420  0.253090  0.362470  1.0  -0.0143
  C  C286  1  0.875700  0.683300  0.788100  1.0  0.0197
  C  C287  1  0.936820  0.682600  0.789200  1.0  -0.1394
  C  C288  1  0.968530  0.714800  0.827900  1.0  0.0103
  C  C289  1  0.935550  0.750800  0.865540  1.0  -0.1573
  C  C290  1  0.878420  0.753090  0.862470  1.0  -0.0143
  C  C291  1  0.624300  0.183300  0.711900  1.0  0.0203
  C  C292  1  0.563180  0.182600  0.710800  1.0  -0.1408
  C  C293  1  0.531470  0.214800  0.672100  1.0  0.0103
  C  C294  1  0.564450  0.250800  0.634460  1.0  -0.1571
  C  C295  1  0.621580  0.253090  0.637530  1.0  -0.0125
  C  C296  1  0.124300  0.683300  0.211900  1.0  0.0203
  C  C297  1  0.063180  0.682600  0.210800  1.0  -0.1408
  C  C298  1  0.031470  0.714800  0.172100  1.0  0.0103
  C  C299  1  0.064450  0.750800  0.134460  1.0  -0.1571
  C  C300  1  0.121580  0.753090  0.137530  1.0  -0.0125
  C  C301  1  0.375700  0.816700  0.711900  1.0  0.0201
  C  C302  1  0.436820  0.817400  0.710800  1.0  -0.1392
  C  C303  1  0.468530  0.785200  0.672100  1.0  0.0122
  C  C304  1  0.435550  0.749200  0.634460  1.0  -0.1582
  C  C305  1  0.378420  0.746910  0.637530  1.0  -0.0137
  C  C306  1  0.875700  0.316700  0.211900  1.0  0.0201
  C  C307  1  0.936820  0.317400  0.210800  1.0  -0.1392
  C  C308  1  0.968530  0.285200  0.172100  1.0  0.0122
  C  C309  1  0.935550  0.249200  0.134460  1.0  -0.1582
  C  C310  1  0.878420  0.246910  0.137530  1.0  -0.0137
  C  C311  1  0.624300  0.816700  0.288100  1.0  0.0195
  C  C312  1  0.563180  0.817400  0.289200  1.0  -0.1408
  C  C313  1  0.531470  0.785200  0.327900  1.0  0.0104
  C  C314  1  0.564450  0.749200  0.365540  1.0  -0.1575
  C  C315  1  0.621580  0.746910  0.362470  1.0  -0.0128
  C  C316  1  0.124300  0.316700  0.788100  1.0  0.0195
  C  C317  1  0.063180  0.317400  0.789200  1.0  -0.1408
  C  C318  1  0.031470  0.285200  0.827900  1.0  0.0104
  C  C319  1  0.064450  0.249200  0.865540  1.0  -0.1575
  C  C320  1  0.121580  0.246910  0.862470  1.0  -0.0128
  C  C321  1  0.711900  0.624300  0.816700  1.0  0.0183
  C  C322  1  0.710800  0.563180  0.817400  1.0  -0.1347
  C  C323  1  0.672100  0.531470  0.785200  1.0  0.0106
  C  C324  1  0.634460  0.564450  0.749200  1.0  -0.1547
  C  C325  1  0.637530  0.621580  0.746910  1.0  -0.0142
  C  C326  1  0.211900  0.124300  0.316700  1.0  0.0183
  C  C327  1  0.210800  0.063180  0.317400  1.0  -0.1347
  C  C328  1  0.172100  0.031470  0.285200  1.0  0.0106
  C  C329  1  0.134460  0.064450  0.249200  1.0  -0.1547
  C  C330  1  0.137530  0.121580  0.246910  1.0  -0.0142
  C  C331  1  0.288100  0.375700  0.816700  1.0  0.0168
  C  C332  1  0.289200  0.436820  0.817400  1.0  -0.1359
  C  C333  1  0.327900  0.468530  0.785200  1.0  0.0106
  C  C334  1  0.365540  0.435550  0.749200  1.0  -0.1541
  C  C335  1  0.362470  0.378420  0.746910  1.0  -0.0151
  C  C336  1  0.788100  0.875700  0.316700  1.0  0.0168
  C  C337  1  0.789200  0.936820  0.317400  1.0  -0.1359
  C  C338  1  0.827900  0.968530  0.285200  1.0  0.0106
  C  C339  1  0.865540  0.935550  0.249200  1.0  -0.1541
  C  C340  1  0.862470  0.878420  0.246910  1.0  -0.0151
  C  C341  1  0.288100  0.624300  0.183300  1.0  0.0196
  C  C342  1  0.289200  0.563180  0.182600  1.0  -0.1352
  C  C343  1  0.327900  0.531470  0.214800  1.0  0.011
  C  C344  1  0.365540  0.564450  0.250800  1.0  -0.1548
  C  C345  1  0.362470  0.621580  0.253090  1.0  -0.014
  C  C346  1  0.788100  0.124300  0.683300  1.0  0.0196
  C  C347  1  0.789200  0.063180  0.682600  1.0  -0.1352
  C  C348  1  0.827900  0.031470  0.714800  1.0  0.011
  C  C349  1  0.865540  0.064450  0.750800  1.0  -0.1548
  C  C350  1  0.862470  0.121580  0.753090  1.0  -0.014
  C  C351  1  0.711900  0.375700  0.183300  1.0  0.0194
  C  C352  1  0.710800  0.436820  0.182600  1.0  -0.1363
  C  C353  1  0.672100  0.468530  0.214800  1.0  0.0114
  C  C354  1  0.634460  0.435550  0.250800  1.0  -0.1558
  C  C355  1  0.637530  0.378420  0.253090  1.0  -0.0154
  C  C356  1  0.211900  0.875700  0.683300  1.0  0.0194
  C  C357  1  0.210800  0.936820  0.682600  1.0  -0.1363
  C  C358  1  0.172100  0.968530  0.714800  1.0  0.0114
  C  C359  1  0.134460  0.935550  0.750800  1.0  -0.1558
  C  C360  1  0.137530  0.878420  0.753090  1.0  -0.0154
  C  C361  1  0.816700  0.711900  0.624300  1.0  0.0211
  C  C362  1  0.817400  0.710800  0.563180  1.0  -0.1343
  C  C363  1  0.785200  0.672100  0.531470  1.0  0.0095
  C  C364  1  0.749200  0.634460  0.564450  1.0  -0.1564
  C  C365  1  0.746910  0.637530  0.621580  1.0  -0.0121
  C  C366  1  0.316700  0.211900  0.124300  1.0  0.0211
  C  C367  1  0.317400  0.210800  0.063180  1.0  -0.1343
  C  C368  1  0.285200  0.172100  0.031470  1.0  0.0095
  C  C369  1  0.249200  0.134460  0.064450  1.0  -0.1564
  C  C370  1  0.246910  0.137530  0.121580  1.0  -0.0121
  C  C371  1  0.816700  0.288100  0.375700  1.0  0.0199
  C  C372  1  0.817400  0.289200  0.436820  1.0  -0.1337
  C  C373  1  0.785200  0.327900  0.468530  1.0  0.0101
  C  C374  1  0.749200  0.365540  0.435550  1.0  -0.1558
  C  C375  1  0.746910  0.362470  0.378420  1.0  -0.0105
  C  C376  1  0.316700  0.788100  0.875700  1.0  0.0199
  C  C377  1  0.317400  0.789200  0.936820  1.0  -0.1337
  C  C378  1  0.285200  0.827900  0.968530  1.0  0.0101
  C  C379  1  0.249200  0.865540  0.935550  1.0  -0.1558
  C  C380  1  0.246910  0.862470  0.878420  1.0  -0.0105
  C  C381  1  0.183300  0.288100  0.624300  1.0  0.0193
  C  C382  1  0.182600  0.289200  0.563180  1.0  -0.1336
  C  C383  1  0.214800  0.327900  0.531470  1.0  0.0098
  C  C384  1  0.250800  0.365540  0.564450  1.0  -0.1563
  C  C385  1  0.253090  0.362470  0.621580  1.0  -0.0113
  C  C386  1  0.683300  0.788100  0.124300  1.0  0.0193
  C  C387  1  0.682600  0.789200  0.063180  1.0  -0.1336
  C  C388  1  0.714800  0.827900  0.031470  1.0  0.0098
  C  C389  1  0.750800  0.865540  0.064450  1.0  -0.1563
  C  C390  1  0.753090  0.862470  0.121580  1.0  -0.0113
  C  C391  1  0.183300  0.711900  0.375700  1.0  0.0178
  C  C392  1  0.182600  0.710800  0.436820  1.0  -0.1345
  C  C393  1  0.214800  0.672100  0.468530  1.0  0.0096
  C  C394  1  0.250800  0.634460  0.435550  1.0  -0.1574
  C  C395  1  0.253090  0.637530  0.378420  1.0  -0.0114
  C  C396  1  0.683300  0.211900  0.875700  1.0  0.0178
  C  C397  1  0.682600  0.210800  0.936820  1.0  -0.1345
  C  C398  1  0.714800  0.172100  0.968530  1.0  0.0096
  C  C399  1  0.750800  0.134460  0.935550  1.0  -0.1574
  C  C400  1  0.753090  0.137530  0.878420  1.0  -0.0114
  C  C401  1  0.624300  0.816700  0.711900  1.0  0.0201
  C  C402  1  0.563180  0.817400  0.710800  1.0  -0.141
  C  C403  1  0.531470  0.785200  0.672100  1.0  0.0114
  C  C404  1  0.564450  0.749200  0.634460  1.0  -0.1558
  C  C405  1  0.621580  0.746910  0.637530  1.0  -0.0126
  C  C406  1  0.124300  0.316700  0.211900  1.0  0.0201
  C  C407  1  0.063180  0.317400  0.210800  1.0  -0.141
  C  C408  1  0.031470  0.285200  0.172100  1.0  0.0114
  C  C409  1  0.064450  0.249200  0.134460  1.0  -0.1558
  C  C410  1  0.121580  0.246910  0.137530  1.0  -0.0126
  C  C411  1  0.375700  0.816700  0.288100  1.0  0.0193
  C  C412  1  0.436820  0.817400  0.289200  1.0  -0.1391
  C  C413  1  0.468530  0.785200  0.327900  1.0  0.0111
  C  C414  1  0.435550  0.749200  0.365540  1.0  -0.156
  C  C415  1  0.378420  0.746910  0.362470  1.0  -0.0142
  C  C416  1  0.875700  0.316700  0.788100  1.0  0.0193
  C  C417  1  0.936820  0.317400  0.789200  1.0  -0.1391
  C  C418  1  0.968530  0.285200  0.827900  1.0  0.0111
  C  C419  1  0.935550  0.249200  0.865540  1.0  -0.156
  C  C420  1  0.878420  0.246910  0.862470  1.0  -0.0142
  C  C421  1  0.624300  0.183300  0.288100  1.0  0.0194
  C  C422  1  0.563180  0.182600  0.289200  1.0  -0.1404
  C  C423  1  0.531470  0.214800  0.327900  1.0  0.0093
  C  C424  1  0.564450  0.250800  0.365540  1.0  -0.156
  C  C425  1  0.621580  0.253090  0.362470  1.0  -0.0127
  C  C426  1  0.124300  0.683300  0.788100  1.0  0.0194
  C  C427  1  0.063180  0.682600  0.789200  1.0  -0.1404
  C  C428  1  0.031470  0.714800  0.827900  1.0  0.0093
  C  C429  1  0.064450  0.750800  0.865540  1.0  -0.156
  C  C430  1  0.121580  0.753090  0.862470  1.0  -0.0127
  C  C431  1  0.375700  0.183300  0.711900  1.0  0.0206
  C  C432  1  0.436820  0.182600  0.710800  1.0  -0.1393
  C  C433  1  0.468530  0.214800  0.672100  1.0  0.0115
  C  C434  1  0.435550  0.250800  0.634460  1.0  -0.1562
  C  C435  1  0.378420  0.253090  0.637530  1.0  -0.0137
  C  C436  1  0.875700  0.683300  0.211900  1.0  0.0206
  C  C437  1  0.936820  0.682600  0.210800  1.0  -0.1393
  C  C438  1  0.968530  0.714800  0.172100  1.0  0.0115
  C  C439  1  0.935550  0.750800  0.134460  1.0  -0.1562
  C  C440  1  0.878420  0.753090  0.137530  1.0  -0.0137
  N  N441  1  0.323000  0.349170  0.220390  1.0  0.26
  N  N442  1  0.823000  0.849170  0.720390  1.0  0.26
  N  N443  1  0.677000  0.650830  0.220390  1.0  0.2617
  N  N444  1  0.177000  0.150830  0.720390  1.0  0.2617
  N  N445  1  0.677000  0.349170  0.779610  1.0  0.2608
  N  N446  1  0.177000  0.849170  0.279610  1.0  0.2608
  N  N447  1  0.323000  0.650830  0.779610  1.0  0.2605
  N  N448  1  0.823000  0.150830  0.279610  1.0  0.2605
  N  N449  1  0.220390  0.323000  0.349170  1.0  0.2646
  N  N450  1  0.720390  0.823000  0.849170  1.0  0.2646
  N  N451  1  0.220390  0.677000  0.650830  1.0  0.2644
  N  N452  1  0.720390  0.177000  0.150830  1.0  0.2644
  N  N453  1  0.779610  0.677000  0.349170  1.0  0.264
  N  N454  1  0.279610  0.177000  0.849170  1.0  0.264
  N  N455  1  0.779610  0.323000  0.650830  1.0  0.2649
  N  N456  1  0.279610  0.823000  0.150830  1.0  0.2649
  N  N457  1  0.349170  0.220390  0.323000  1.0  0.2624
  N  N458  1  0.849170  0.720390  0.823000  1.0  0.2624
  N  N459  1  0.650830  0.220390  0.677000  1.0  0.2622
  N  N460  1  0.150830  0.720390  0.177000  1.0  0.2622
  N  N461  1  0.349170  0.779610  0.677000  1.0  0.264
  N  N462  1  0.849170  0.279610  0.177000  1.0  0.264
  N  N463  1  0.650830  0.779610  0.323000  1.0  0.2624
  N  N464  1  0.150830  0.279610  0.823000  1.0  0.2624
  N  N465  1  0.677000  0.650830  0.779610  1.0  0.2614
  N  N466  1  0.177000  0.150830  0.279610  1.0  0.2614
  N  N467  1  0.323000  0.349170  0.779610  1.0  0.2595
  N  N468  1  0.823000  0.849170  0.279610  1.0  0.2595
  N  N469  1  0.323000  0.650830  0.220390  1.0  0.2606
  N  N470  1  0.823000  0.150830  0.720390  1.0  0.2606
  N  N471  1  0.677000  0.349170  0.220390  1.0  0.2608
  N  N472  1  0.177000  0.849170  0.720390  1.0  0.2608
  N  N473  1  0.779610  0.677000  0.650830  1.0  0.2646
  N  N474  1  0.279610  0.177000  0.150830  1.0  0.2646
  N  N475  1  0.779610  0.323000  0.349170  1.0  0.2645
  N  N476  1  0.279610  0.823000  0.849170  1.0  0.2645
  N  N477  1  0.220390  0.323000  0.650830  1.0  0.2654
  N  N478  1  0.720390  0.823000  0.150830  1.0  0.2654
  N  N479  1  0.220390  0.677000  0.349170  1.0  0.2639
  N  N480  1  0.720390  0.177000  0.849170  1.0  0.2639
  N  N481  1  0.650830  0.779610  0.677000  1.0  0.2632
  N  N482  1  0.150830  0.279610  0.177000  1.0  0.2632
  N  N483  1  0.349170  0.779610  0.323000  1.0  0.263
  N  N484  1  0.849170  0.279610  0.823000  1.0  0.263
  N  N485  1  0.650830  0.220390  0.323000  1.0  0.2615
  N  N486  1  0.150830  0.720390  0.823000  1.0  0.2615
  N  N487  1  0.349170  0.220390  0.677000  1.0  0.2633
  N  N488  1  0.849170  0.720390  0.177000  1.0  0.2633
  O  O489  1  0.323560  0.290860  0.223600  1.0  -0.5568
  O  O490  1  0.823560  0.790860  0.723600  1.0  -0.5568
  O  O491  1  0.676440  0.709140  0.223600  1.0  -0.5591
  O  O492  1  0.176440  0.209140  0.723600  1.0  -0.5591
  O  O493  1  0.676440  0.290860  0.776400  1.0  -0.5573
  O  O494  1  0.176440  0.790860  0.276400  1.0  -0.5573
  O  O495  1  0.323560  0.709140  0.776400  1.0  -0.5584
  O  O496  1  0.823560  0.209140  0.276400  1.0  -0.5584
  O  O497  1  0.223600  0.323560  0.290860  1.0  -0.5614
  O  O498  1  0.723600  0.823560  0.790860  1.0  -0.5614
  O  O499  1  0.223600  0.676440  0.709140  1.0  -0.561
  O  O500  1  0.723600  0.176440  0.209140  1.0  -0.561
  O  O501  1  0.776400  0.676440  0.290860  1.0  -0.5609
  O  O502  1  0.276400  0.176440  0.790860  1.0  -0.5609
  O  O503  1  0.776400  0.323560  0.709140  1.0  -0.5605
  O  O504  1  0.276400  0.823560  0.209140  1.0  -0.5605
  O  O505  1  0.290860  0.223600  0.323560  1.0  -0.559
  O  O506  1  0.790860  0.723600  0.823560  1.0  -0.559
  O  O507  1  0.709140  0.223600  0.676440  1.0  -0.56
  O  O508  1  0.209140  0.723600  0.176440  1.0  -0.56
  O  O509  1  0.290860  0.776400  0.676440  1.0  -0.5592
  O  O510  1  0.790860  0.276400  0.176440  1.0  -0.5592
  O  O511  1  0.709140  0.776400  0.323560  1.0  -0.5589
  O  O512  1  0.209140  0.276400  0.823560  1.0  -0.5589
  O  O513  1  0.676440  0.709140  0.776400  1.0  -0.5586
  O  O514  1  0.176440  0.209140  0.276400  1.0  -0.5586
  O  O515  1  0.323560  0.290860  0.776400  1.0  -0.5575
  O  O516  1  0.823560  0.790860  0.276400  1.0  -0.5575
  O  O517  1  0.323560  0.709140  0.223600  1.0  -0.5581
  O  O518  1  0.823560  0.209140  0.723600  1.0  -0.5581
  O  O519  1  0.676440  0.290860  0.223600  1.0  -0.5573
  O  O520  1  0.176440  0.790860  0.723600  1.0  -0.5573
  O  O521  1  0.776400  0.676440  0.709140  1.0  -0.5609
  O  O522  1  0.276400  0.176440  0.209140  1.0  -0.5609
  O  O523  1  0.776400  0.323560  0.290860  1.0  -0.5606
  O  O524  1  0.276400  0.823560  0.790860  1.0  -0.5606
  O  O525  1  0.223600  0.323560  0.709140  1.0  -0.5612
  O  O526  1  0.723600  0.823560  0.209140  1.0  -0.5612
  O  O527  1  0.223600  0.676440  0.290860  1.0  -0.5611
  O  O528  1  0.723600  0.176440  0.790860  1.0  -0.5611
  O  O529  1  0.709140  0.776400  0.676440  1.0  -0.5598
  O  O530  1  0.209140  0.276400  0.176440  1.0  -0.5598
  O  O531  1  0.290860  0.776400  0.323560  1.0  -0.5586
  O  O532  1  0.790860  0.276400  0.823560  1.0  -0.5586
  O  O533  1  0.709140  0.223600  0.323560  1.0  -0.5588
  O  O534  1  0.209140  0.723600  0.823560  1.0  -0.5588
  O  O535  1  0.290860  0.223600  0.676440  1.0  -0.5597
  O  O536  1  0.790860  0.723600  0.176440  1.0  -0.5597
