# generated using pymatgen
data_Co2H7C10NO7
_symmetry_space_group_name_H-M   'P 1'
_cell_length_a   10.08160000
_cell_length_b   12.80860000
_cell_length_c   12.99960000
_cell_angle_alpha   70.94760000
_cell_angle_beta   67.18450000
_cell_angle_gamma   66.82460000
_symmetry_Int_Tables_number   1
_chemical_formula_structural   Co2H7C10NO7
_chemical_formula_sum   'Co8 H28 C40 N4 O28'
_cell_volume   1392.20048142
_cell_formula_units_Z   4
loop_
 _symmetry_equiv_pos_site_id
 _symmetry_equiv_pos_as_xyz
  1  'x, y, z'
loop_
 _atom_site_type_symbol
 _atom_site_label
 _atom_site_symmetry_multiplicity
 _atom_site_fract_x
 _atom_site_fract_y
 _atom_site_fract_z
 _atom_site_occupancy
 _atom_site_charge
  Co  Co1  1  0.966610  0.614810  0.897030  1.0  1.0573
  Co  Co2  1  0.317520  0.666980  0.763720  1.0  1.1103
  Co  Co3  1  0.478450  0.885190  0.602970  1.0  1.0582
  Co  Co4  1  0.748220  0.833020  0.736280  1.0  1.1113
  Co  Co5  1  0.033390  0.385190  0.102970  1.0  1.058
  Co  Co6  1  0.682480  0.333020  0.236280  1.0  1.1111
  Co  Co7  1  0.521550  0.114810  0.397030  1.0  1.0583
  Co  Co8  1  0.251780  0.166980  0.263720  1.0  1.1115
  H  H9  1  0.102400  0.390800  0.650400  1.0  0.1271
  H  H10  1  0.208300  0.255600  0.538400  1.0  0.0726
  H  H11  1  0.612000  0.230100  0.519500  1.0  0.0713
  H  H12  1  0.518400  0.370000  0.624600  1.0  0.1312
  H  H13  1  0.135000  0.957200  0.739000  1.0  0.0867
  H  H14  1  0.139400  0.913200  0.538000  1.0  0.1619
  H  H15  1  0.019600  0.016600  0.594200  1.0  0.1426
  H  H16  1  0.143600  0.109200  0.849600  1.0  0.1259
  H  H17  1  0.002300  0.244400  0.961600  1.0  0.0737
  H  H18  1  0.361600  0.269900  0.980500  1.0  0.0723
  H  H19  1  0.513000  0.130000  0.875400  1.0  0.1332
  H  H20  1  0.831200  0.542800  0.761000  1.0  0.0885
  H  H21  1  0.590600  0.586800  0.962000  1.0  0.1593
  H  H22  1  0.630400  0.483400  0.905800  1.0  0.1434
  H  H23  1  0.897600  0.609200  0.349600  1.0  0.1269
  H  H24  1  0.791700  0.744400  0.461600  1.0  0.073
  H  H25  1  0.388000  0.769900  0.480500  1.0  0.0719
  H  H26  1  0.481600  0.630000  0.375400  1.0  0.1312
  H  H27  1  0.865000  0.042800  0.261000  1.0  0.0857
  H  H28  1  0.860600  0.086800  0.462000  1.0  0.1602
  H  H29  1  0.980400  0.983400  0.405800  1.0  0.1458
  H  H30  1  0.856400  0.890800  0.150400  1.0  0.1257
  H  H31  1  0.997700  0.755600  0.038400  1.0  0.0728
  H  H32  1  0.638400  0.730100  0.019500  1.0  0.0723
  H  H33  1  0.487000  0.870000  0.124600  1.0  0.1336
  H  H34  1  0.168800  0.457200  0.239000  1.0  0.0882
  H  H35  1  0.409400  0.413200  0.038000  1.0  0.1577
  H  H36  1  0.369600  0.516600  0.094200  1.0  0.142
  C  C37  1  0.236600  0.487400  0.721400  1.0  0.671
  C  C38  1  0.299200  0.396600  0.649800  1.0  -0.0287
  C  C39  1  0.206800  0.360800  0.622800  1.0  -0.1628
  C  C40  1  0.272100  0.278700  0.556100  1.0  0.1724
  C  C41  1  0.508000  0.263700  0.545300  1.0  0.1641
  C  C42  1  0.452400  0.347100  0.609300  1.0  -0.151
  C  C43  1  0.032200  0.839600  0.750000  1.0  0.6644
  C  C44  1  0.150800  0.903300  0.693300  1.0  0.1662
  C  C45  1  0.124700  0.969300  0.579700  1.0  -0.4094
  C  C46  1  0.221300  0.048200  0.501600  1.0  0.7543
  C  C47  1  0.445400  0.012600  0.778600  1.0  0.6702
  C  C48  1  0.345600  0.103400  0.850200  1.0  -0.0293
  C  C49  1  0.190400  0.139200  0.877200  1.0  -0.1627
  C  C50  1  0.106900  0.221300  0.943900  1.0  0.1695
  C  C51  1  0.317000  0.236300  0.954700  1.0  0.1639
  C  C52  1  0.408800  0.152900  0.890700  1.0  -0.1516
  C  C53  1  0.621800  0.660400  0.750000  1.0  0.6657
  C  C54  1  0.747400  0.596700  0.806700  1.0  0.1663
  C  C55  1  0.673700  0.530700  0.920300  1.0  -0.4098
  C  C56  1  0.771100  0.451800  0.998400  1.0  0.7568
  C  C57  1  0.763400  0.512600  0.278600  1.0  0.6708
  C  C58  1  0.700800  0.603400  0.350200  1.0  -0.0292
  C  C59  1  0.793200  0.639200  0.377200  1.0  -0.1633
  C  C60  1  0.727900  0.721300  0.443900  1.0  0.1723
  C  C61  1  0.492000  0.736300  0.454700  1.0  0.1637
  C  C62  1  0.547600  0.652900  0.390700  1.0  -0.149
  C  C63  1  0.967800  0.160400  0.250000  1.0  0.6654
  C  C64  1  0.849200  0.096700  0.306700  1.0  0.1675
  C  C65  1  0.875300  0.030700  0.420300  1.0  -0.4096
  C  C66  1  0.778700  0.951800  0.498400  1.0  0.7546
  C  C67  1  0.554600  0.987400  0.221400  1.0  0.6716
  C  C68  1  0.654400  0.896600  0.149800  1.0  -0.0289
  C  C69  1  0.809600  0.860800  0.122800  1.0  -0.1639
  C  C70  1  0.893100  0.778700  0.056100  1.0  0.1708
  C  C71  1  0.683000  0.763700  0.045300  1.0  0.1639
  C  C72  1  0.591200  0.847100  0.109300  1.0  -0.1525
  C  C73  1  0.378200  0.339600  0.250000  1.0  0.6661
  C  C74  1  0.252600  0.403300  0.193300  1.0  0.1664
  C  C75  1  0.326300  0.469300  0.079700  1.0  -0.4097
  C  C76  1  0.228900  0.548200  0.001600  1.0  0.7565
  N  N77  1  0.420370  0.229760  0.515700  1.0  -0.3657
  N  N78  1  0.165830  0.270240  0.984300  1.0  -0.3629
  N  N79  1  0.579630  0.770240  0.484300  1.0  -0.363
  N  N80  1  0.834170  0.729760  0.015700  1.0  -0.3644
  O  O81  1  0.330660  0.530580  0.717500  1.0  -0.6241
  O  O82  1  0.100850  0.507900  0.779000  1.0  -0.5811
  O  O83  1  0.080800  0.734800  0.793800  1.0  -0.6696
  O  O84  1  0.897260  0.892880  0.758400  1.0  -0.5967
  O  O85  1  0.299800  0.824200  0.676200  1.0  -0.7038
  O  O86  1  0.358520  0.023560  0.497000  1.0  -0.6496
  O  O87  1  0.158700  0.127500  0.433100  1.0  -0.615
  O  O88  1  0.578740  0.969420  0.782500  1.0  -0.6227
  O  O89  1  0.387750  0.992100  0.721000  1.0  -0.5809
  O  O90  1  0.609400  0.765200  0.706200  1.0  -0.6692
  O  O91  1  0.548540  0.607120  0.741600  1.0  -0.5984
  O  O92  1  0.800200  0.675800  0.823800  1.0  -0.704
  O  O93  1  0.879080  0.476440  0.003000  1.0  -0.6492
  O  O94  1  0.719300  0.372500  0.066900  1.0  -0.6143
  O  O95  1  0.669340  0.469420  0.282500  1.0  -0.6241
  O  O96  1  0.899150  0.492100  0.221000  1.0  -0.5815
  O  O97  1  0.919200  0.265200  0.206200  1.0  -0.6695
  O  O98  1  0.102740  0.107120  0.241600  1.0  -0.5973
  O  O99  1  0.700200  0.175800  0.323800  1.0  -0.7048
  O  O100  1  0.641480  0.976440  0.503000  1.0  -0.649
  O  O101  1  0.841300  0.872500  0.566900  1.0  -0.6151
  O  O102  1  0.421260  0.030580  0.217500  1.0  -0.6222
  O  O103  1  0.612250  0.007900  0.279000  1.0  -0.5811
  O  O104  1  0.390600  0.234800  0.293800  1.0  -0.6694
  O  O105  1  0.451460  0.392880  0.258400  1.0  -0.5985
  O  O106  1  0.199800  0.324200  0.176200  1.0  -0.7048
  O  O107  1  0.120920  0.523560  0.997000  1.0  -0.6492
  O  O108  1  0.280700  0.627500  0.933100  1.0  -0.6145
