# generated using pymatgen
data_Co2H7C10NO7
_symmetry_space_group_name_H-M   'P 1'
_cell_length_a   10.10690000
_cell_length_b   12.66490000
_cell_length_c   13.04270000
_cell_angle_alpha   70.77350000
_cell_angle_beta   67.20380000
_cell_angle_gamma   66.48350000
_symmetry_Int_Tables_number   1
_chemical_formula_structural   Co2H7C10NO7
_chemical_formula_sum   'Co8 H28 C40 N4 O28'
_cell_volume   1380.79825449
_cell_formula_units_Z   4
loop_
 _symmetry_equiv_pos_site_id
 _symmetry_equiv_pos_as_xyz
  1  'x, y, z'
loop_
 _atom_site_type_symbol
 _atom_site_label
 _atom_site_symmetry_multiplicity
 _atom_site_fract_x
 _atom_site_fract_y
 _atom_site_fract_z
 _atom_site_occupancy
 _atom_site_charge
  Co  Co1  1  0.977730  0.601220  0.884580  1.0  1.0621
  Co  Co2  1  0.185950  0.238560  0.330880  1.0  1.1168
  Co  Co3  1  0.463530  0.898780  0.615420  1.0  1.0622
  Co  Co4  1  0.755390  0.261440  0.169120  1.0  1.117
  Co  Co5  1  0.022270  0.398780  0.115420  1.0  1.0624
  Co  Co6  1  0.814050  0.761440  0.669120  1.0  1.1158
  Co  Co7  1  0.536470  0.101220  0.384580  1.0  1.0622
  Co  Co8  1  0.244610  0.738560  0.830880  1.0  1.1175
  H  H9  1  0.401100  0.349400  0.608400  1.0  0.1226
  H  H10  1  0.294500  0.460600  0.745600  1.0  0.0822
  H  H11  1  0.887300  0.470600  0.777000  1.0  0.0767
  H  H12  1  0.980200  0.369300  0.632700  1.0  0.1384
  H  H13  1  0.328000  0.759400  0.548000  1.0  0.0862
  H  H14  1  0.126000  0.904300  0.485700  1.0  0.1424
  H  H15  1  0.086100  0.970200  0.584200  1.0  0.1502
  H  H16  1  0.358900  0.150600  0.891600  1.0  0.1229
  H  H17  1  0.500700  0.039400  0.754400  1.0  0.0824
  H  H18  1  0.134900  0.029400  0.723000  1.0  0.0776
  H  H19  1  0.982200  0.130700  0.867300  1.0  0.1385
  H  H20  1  0.635400  0.740600  0.952000  1.0  0.0866
  H  H21  1  0.516000  0.595700  0.014300  1.0  0.1342
  H  H22  1  0.640500  0.529800  0.915800  1.0  0.1494
  H  H23  1  0.598900  0.650600  0.391600  1.0  0.1206
  H  H24  1  0.705500  0.539400  0.254400  1.0  0.0817
  H  H25  1  0.112700  0.529400  0.223000  1.0  0.0772
  H  H26  1  0.019800  0.630700  0.367300  1.0  0.1387
  H  H27  1  0.672000  0.240600  0.452000  1.0  0.0862
  H  H28  1  0.874000  0.095700  0.514300  1.0  0.1422
  H  H29  1  0.913900  0.029800  0.415800  1.0  0.148
  H  H30  1  0.641100  0.849400  0.108400  1.0  0.1221
  H  H31  1  0.499300  0.960600  0.245600  1.0  0.0818
  H  H32  1  0.865100  0.970600  0.277000  1.0  0.0771
  H  H33  1  0.017800  0.869300  0.132700  1.0  0.1385
  H  H34  1  0.364600  0.259400  0.048000  1.0  0.0852
  H  H35  1  0.484000  0.404300  0.985700  1.0  0.1438
  H  H36  1  0.359500  0.470200  0.084200  1.0  0.1513
  C  C37  1  0.266100  0.281000  0.509400  1.0  0.6727
  C  C38  1  0.203000  0.348800  0.602400  1.0  -0.0388
  C  C39  1  0.294400  0.375900  0.639900  1.0  -0.1595
  C  C40  1  0.230000  0.440700  0.723100  1.0  0.1674
  C  C41  1  0.993000  0.447900  0.740300  1.0  0.1648
  C  C42  1  0.047300  0.386300  0.655100  1.0  -0.1455
  C  C43  1  0.116800  0.749700  0.663700  1.0  0.6606
  C  C44  1  0.242100  0.809400  0.599800  1.0  0.1497
  C  C45  1  0.170400  0.922100  0.531300  1.0  -0.4083
  C  C46  1  0.273000  0.997000  0.450200  1.0  0.7373
  C  C47  1  0.056500  0.219000  0.990600  1.0  0.6728
  C  C48  1  0.154200  0.151200  0.897600  1.0  -0.0433
  C  C49  1  0.310200  0.124100  0.860100  1.0  -0.1545
  C  C50  1  0.393800  0.059300  0.776900  1.0  0.1633
  C  C51  1  0.181200  0.052100  0.759700  1.0  0.1653
  C  C52  1  0.088700  0.113700  0.844900  1.0  -0.1469
  C  C53  1  0.530200  0.750300  0.836300  1.0  0.6645
  C  C54  1  0.651300  0.690600  0.900200  1.0  0.1492
  C  C55  1  0.623800  0.577900  0.968700  1.0  -0.4099
  C  C56  1  0.720200  0.503000  0.049800  1.0  0.7381
  C  C57  1  0.733900  0.719000  0.490600  1.0  0.6724
  C  C58  1  0.797000  0.651200  0.397600  1.0  -0.0425
  C  C59  1  0.705600  0.624100  0.360100  1.0  -0.158
  C  C60  1  0.770000  0.559300  0.276900  1.0  0.1671
  C  C61  1  0.007000  0.552100  0.259700  1.0  0.1649
  C  C62  1  0.952700  0.613700  0.344900  1.0  -0.1453
  C  C63  1  0.883200  0.250300  0.336300  1.0  0.662
  C  C64  1  0.757900  0.190600  0.400200  1.0  0.1477
  C  C65  1  0.829600  0.077900  0.468700  1.0  -0.4083
  C  C66  1  0.727000  0.003000  0.549800  1.0  0.7383
  C  C67  1  0.943500  0.781000  0.009400  1.0  0.6729
  C  C68  1  0.845800  0.848800  0.102400  1.0  -0.039
  C  C69  1  0.689800  0.875900  0.139900  1.0  -0.1546
  C  C70  1  0.606200  0.940700  0.223100  1.0  0.1626
  C  C71  1  0.818800  0.947900  0.240300  1.0  0.1665
  C  C72  1  0.911300  0.886300  0.155100  1.0  -0.1477
  C  C73  1  0.469800  0.249700  0.163700  1.0  0.6652
  C  C74  1  0.348700  0.309400  0.099800  1.0  0.1493
  C  C75  1  0.376200  0.422100  0.031300  1.0  -0.4106
  C  C76  1  0.279800  0.497000  0.950200  1.0  0.738
  N  N77  1  0.080000  0.477700  0.774300  1.0  -0.3666
  N  N78  1  0.332000  0.022300  0.725700  1.0  -0.3675
  N  N79  1  0.920000  0.522300  0.225700  1.0  -0.3686
  N  N80  1  0.668000  0.977700  0.274300  1.0  -0.3669
  O  O81  1  0.404210  0.226080  0.485300  1.0  -0.5753
  O  O82  1  0.171200  0.285200  0.466000  1.0  -0.6196
  O  O83  1  0.105240  0.707520  0.766000  1.0  -0.6587
  O  O84  1  0.044600  0.737900  0.611300  1.0  -0.6001
  O  O85  1  0.295380  0.827440  0.676600  1.0  -0.702
  O  O86  1  0.223600  0.064100  0.369700  1.0  -0.5991
  O  O87  1  0.378610  0.004280  0.477300  1.0  -0.6556
  O  O88  1  0.115590  0.273920  0.014700  1.0  -0.5745
  O  O89  1  0.922400  0.214800  0.034000  1.0  -0.6207
  O  O90  1  0.578760  0.792480  0.734000  1.0  -0.6591
  O  O91  1  0.393800  0.762100  0.888700  1.0  -0.5966
  O  O92  1  0.799420  0.672560  0.823400  1.0  -0.7006
  O  O93  1  0.657400  0.435900  0.130300  1.0  -0.5997
  O  O94  1  0.860190  0.495720  0.022700  1.0  -0.6548
  O  O95  1  0.595790  0.773920  0.514700  1.0  -0.5742
  O  O96  1  0.828800  0.714800  0.534000  1.0  -0.619
  O  O97  1  0.894760  0.292480  0.234000  1.0  -0.6584
  O  O98  1  0.955400  0.262100  0.388700  1.0  -0.6002
  O  O99  1  0.704620  0.172560  0.323400  1.0  -0.7021
  O  O100  1  0.776400  0.935900  0.630300  1.0  -0.6005
  O  O101  1  0.621390  0.995720  0.522700  1.0  -0.6545
  O  O102  1  0.884410  0.726080  0.985300  1.0  -0.5747
  O  O103  1  0.077600  0.785200  0.966000  1.0  -0.6197
  O  O104  1  0.421240  0.207520  0.266000  1.0  -0.6585
  O  O105  1  0.606200  0.237900  0.111300  1.0  -0.5969
  O  O106  1  0.200580  0.327440  0.176600  1.0  -0.7018
  O  O107  1  0.342600  0.564100  0.869700  1.0  -0.599
  O  O108  1  0.139810  0.504280  0.977300  1.0  -0.6551
