# generated using pymatgen
data_Co2H7C10NO7
_symmetry_space_group_name_H-M   'P 1'
_cell_length_a   10.10400000
_cell_length_b   12.82820000
_cell_length_c   13.04150000
_cell_angle_alpha   71.19830000
_cell_angle_beta   67.20840000
_cell_angle_gamma   66.80760000
_symmetry_Int_Tables_number   1
_chemical_formula_structural   Co2H7C10NO7
_chemical_formula_sum   'Co8 H28 C40 N4 O28'
_cell_volume   1403.43610060
_cell_formula_units_Z   4
loop_
 _symmetry_equiv_pos_site_id
 _symmetry_equiv_pos_as_xyz
  1  'x, y, z'
loop_
 _atom_site_type_symbol
 _atom_site_label
 _atom_site_symmetry_multiplicity
 _atom_site_fract_x
 _atom_site_fract_y
 _atom_site_fract_z
 _atom_site_occupancy
 _atom_site_charge
  Co  Co1  1  0.967560  0.614810  0.897250  1.0  1.0584
  Co  Co2  1  0.249100  0.166620  0.265260  1.0  1.1165
  Co  Co3  1  0.479620  0.885190  0.602750  1.0  1.0587
  Co  Co4  1  0.680980  0.333380  0.234740  1.0  1.1165
  Co  Co5  1  0.032440  0.385190  0.102750  1.0  1.0586
  Co  Co6  1  0.750900  0.833380  0.734740  1.0  1.115
  Co  Co7  1  0.520380  0.114810  0.397250  1.0  1.0588
  Co  Co8  1  0.319020  0.666667  0.765260  1.0  1.1157
  H  H9  1  0.851800  0.882500  0.159700  1.0  0.1194
  H  H10  1  0.995200  0.746000  0.050400  1.0  0.0749
  H  H11  1  0.637900  0.737900  0.010700  1.0  0.0744
  H  H12  1  0.486800  0.876100  0.116100  1.0  0.1318
  H  H13  1  0.137000  0.956900  0.737700  1.0  0.086
  H  H14  1  0.138800  0.912300  0.538700  1.0  0.1532
  H  H15  1  0.020600  0.015900  0.595100  1.0  0.146
  H  H16  1  0.894000  0.617500  0.340300  1.0  0.12
  H  H17  1  0.791600  0.754000  0.449600  1.0  0.0739
  H  H18  1  0.386500  0.762100  0.489300  1.0  0.0742
  H  H19  1  0.479000  0.623900  0.383900  1.0  0.1317
  H  H20  1  0.831600  0.543100  0.762300  1.0  0.087
  H  H21  1  0.589800  0.587700  0.961300  1.0  0.1501
  H  H22  1  0.631600  0.484100  0.904900  1.0  0.1457
  H  H23  1  0.148200  0.117500  0.840300  1.0  0.1187
  H  H24  1  0.004800  0.254000  0.949600  1.0  0.0749
  H  H25  1  0.362100  0.262100  0.989300  1.0  0.0746
  H  H26  1  0.513200  0.123900  0.883900  1.0  0.1321
  H  H27  1  0.863000  0.043100  0.262300  1.0  0.085
  H  H28  1  0.861200  0.087700  0.461300  1.0  0.1508
  H  H29  1  0.979400  0.984100  0.404900  1.0  0.1491
  H  H30  1  0.106000  0.382500  0.659700  1.0  0.12
  H  H31  1  0.208400  0.246000  0.550400  1.0  0.0741
  H  H32  1  0.613500  0.237900  0.510700  1.0  0.0739
  H  H33  1  0.521000  0.376100  0.616100  1.0  0.1316
  H  H34  1  0.168400  0.456900  0.237700  1.0  0.0872
  H  H35  1  0.410200  0.412300  0.038700  1.0  0.1491
  H  H36  1  0.368400  0.515900  0.095100  1.0  0.1445
  C  C37  1  0.552200  0.986900  0.221900  1.0  0.6735
  C  C38  1  0.653100  0.895300  0.150500  1.0  -0.0395
  C  C39  1  0.805600  0.854800  0.129400  1.0  -0.1593
  C  C40  1  0.891400  0.772500  0.063300  1.0  0.1705
  C  C41  1  0.682300  0.768400  0.039800  1.0  0.166
  C  C42  1  0.590400  0.850600  0.104000  1.0  -0.1514
  C  C43  1  0.034200  0.838000  0.752400  1.0  0.6673
  C  C44  1  0.152800  0.902400  0.692800  1.0  0.1593
  C  C45  1  0.125500  0.968200  0.580000  1.0  -0.4164
  C  C46  1  0.221100  0.045300  0.502300  1.0  0.7584
  C  C47  1  0.761000  0.513100  0.278100  1.0  0.6716
  C  C48  1  0.698900  0.604700  0.349500  1.0  -0.0384
  C  C49  1  0.789800  0.645200  0.370600  1.0  -0.159
  C  C50  1  0.727200  0.727500  0.436700  1.0  0.172
  C  C51  1  0.490500  0.731600  0.460200  1.0  0.1658
  C  C52  1  0.545000  0.649400  0.396000  1.0  -0.1501
  C  C53  1  0.624600  0.662000  0.747600  1.0  0.6688
  C  C54  1  0.748000  0.597600  0.807200  1.0  0.1604
  C  C55  1  0.673700  0.531800  0.920000  1.0  -0.4185
  C  C56  1  0.768700  0.454700  0.997700  1.0  0.7613
  C  C57  1  0.447800  0.013100  0.778100  1.0  0.6722
  C  C58  1  0.346900  0.104700  0.849500  1.0  -0.0375
  C  C59  1  0.194400  0.145200  0.870600  1.0  -0.1583
  C  C60  1  0.108600  0.227500  0.936700  1.0  0.1698
  C  C61  1  0.317700  0.231600  0.960200  1.0  0.1663
  C  C62  1  0.409600  0.149400  0.896000  1.0  -0.1514
  C  C63  1  0.965800  0.162000  0.247600  1.0  0.6695
  C  C64  1  0.847200  0.097600  0.307200  1.0  0.161
  C  C65  1  0.874500  0.031800  0.420000  1.0  -0.4168
  C  C66  1  0.778900  0.954700  0.497700  1.0  0.7582
  C  C67  1  0.239000  0.486900  0.721900  1.0  0.6722
  C  C68  1  0.301100  0.395300  0.650500  1.0  -0.0396
  C  C69  1  0.210200  0.354800  0.629400  1.0  -0.1577
  C  C70  1  0.272800  0.272500  0.563300  1.0  0.172
  C  C71  1  0.509500  0.268400  0.539800  1.0  0.1668
  C  C72  1  0.455000  0.350600  0.604000  1.0  -0.1509
  C  C73  1  0.375400  0.338000  0.252400  1.0  0.6693
  C  C74  1  0.252000  0.402400  0.192800  1.0  0.1599
  C  C75  1  0.326300  0.468200  0.080000  1.0  -0.4174
  C  C76  1  0.231300  0.545300  0.002300  1.0  0.7611
  N  N77  1  0.832800  0.729200  0.016600  1.0  -0.3594
  N  N78  1  0.578600  0.770800  0.483400  1.0  -0.3588
  N  N79  1  0.167200  0.270800  0.983400  1.0  -0.3595
  N  N80  1  0.421400  0.229200  0.516600  1.0  -0.3609
  O  O81  1  0.609950  0.006900  0.279600  1.0  -0.5827
  O  O82  1  0.420400  0.032100  0.215900  1.0  -0.6142
  O  O83  1  0.082400  0.734300  0.796300  1.0  -0.6616
  O  O84  1  0.899300  0.892000  0.758800  1.0  -0.5951
  O  O85  1  0.301400  0.823400  0.677400  1.0  -0.7081
  O  O86  1  0.358230  0.022440  0.498700  1.0  -0.6589
  O  O87  1  0.160300  0.121400  0.433000  1.0  -0.6086
  O  O88  1  0.896450  0.493100  0.220400  1.0  -0.5823
  O  O89  1  0.668400  0.467900  0.284100  1.0  -0.6154
  O  O90  1  0.613000  0.765700  0.703700  1.0  -0.6612
  O  O91  1  0.550100  0.608000  0.741200  1.0  -0.5972
  O  O92  1  0.802200  0.676600  0.822600  1.0  -0.7085
  O  O93  1  0.879370  0.477560  0.001300  1.0  -0.6595
  O  O94  1  0.714700  0.378600  0.067000  1.0  -0.6067
  O  O95  1  0.390050  0.993100  0.720400  1.0  -0.5825
  O  O96  1  0.579600  0.967900  0.784100  1.0  -0.6144
  O  O97  1  0.917600  0.265700  0.203700  1.0  -0.6618
  O  O98  1  0.100700  0.108000  0.241200  1.0  -0.5966
  O  O99  1  0.698600  0.176600  0.322600  1.0  -0.7095
  O  O100  1  0.641770  0.977560  0.501300  1.0  -0.6586
  O  O101  1  0.839700  0.878600  0.567000  1.0  -0.6079
  O  O102  1  0.103550  0.506900  0.779600  1.0  -0.5822
  O  O103  1  0.331600  0.532100  0.715900  1.0  -0.616
  O  O104  1  0.387000  0.234300  0.296300  1.0  -0.6614
  O  O105  1  0.449900  0.392000  0.258800  1.0  -0.5972
  O  O106  1  0.197800  0.323400  0.177400  1.0  -0.7091
  O  O107  1  0.120630  0.522440  0.998700  1.0  -0.6599
  O  O108  1  0.285300  0.621400  0.933000  1.0  -0.6077
