# generated using pymatgen
data_Co2H7C10NO7
_symmetry_space_group_name_H-M   'P 1'
_cell_length_a   10.06160000
_cell_length_b   12.87460000
_cell_length_c   12.92200000
_cell_angle_alpha   71.21740000
_cell_angle_beta   67.08770000
_cell_angle_gamma   66.99850000
_symmetry_Int_Tables_number   1
_chemical_formula_structural   Co2H7C10NO7
_chemical_formula_sum   'Co8 H28 C40 N4 O28'
_cell_volume   1390.48305627
_cell_formula_units_Z   4
loop_
 _symmetry_equiv_pos_site_id
 _symmetry_equiv_pos_as_xyz
  1  'x, y, z'
loop_
 _atom_site_type_symbol
 _atom_site_label
 _atom_site_symmetry_multiplicity
 _atom_site_fract_x
 _atom_site_fract_y
 _atom_site_fract_z
 _atom_site_occupancy
 _atom_site_charge
  Co  Co1  1  0.967890  0.613410  0.896990  1.0  1.0664
  Co  Co2  1  0.250420  0.166680  0.262980  1.0  1.1133
  Co  Co3  1  0.478290  0.886590  0.603010  1.0  1.0676
  Co  Co4  1  0.680080  0.333333  0.237020  1.0  1.112
  Co  Co5  1  0.032110  0.386590  0.103010  1.0  1.0668
  Co  Co6  1  0.749580  0.833320  0.737020  1.0  1.1131
  Co  Co7  1  0.521710  0.113410  0.396990  1.0  1.067
  Co  Co8  1  0.319920  0.666667  0.762980  1.0  1.1122
  H  H9  1  0.855100  0.879000  0.161600  1.0  0.1245
  H  H10  1  0.998600  0.745600  0.046800  1.0  0.0769
  H  H11  1  0.635600  0.731800  0.013600  1.0  0.0794
  H  H12  1  0.484400  0.876100  0.115300  1.0  0.131
  H  H13  1  0.136000  0.959200  0.741800  1.0  0.0883
  H  H14  1  0.014800  0.016100  0.596500  1.0  0.1441
  H  H15  1  0.137700  0.911200  0.538200  1.0  0.1593
  H  H16  1  0.895700  0.621000  0.338400  1.0  0.1258
  H  H17  1  0.791000  0.754400  0.453200  1.0  0.0754
  H  H18  1  0.381000  0.768200  0.486400  1.0  0.0785
  H  H19  1  0.475800  0.623900  0.384700  1.0  0.1302
  H  H20  1  0.837000  0.540800  0.758200  1.0  0.0888
  H  H21  1  0.627400  0.483900  0.903500  1.0  0.1447
  H  H22  1  0.587100  0.588800  0.961800  1.0  0.1573
  H  H23  1  0.144900  0.121000  0.838400  1.0  0.1236
  H  H24  1  0.001400  0.254400  0.953200  1.0  0.0762
  H  H25  1  0.364400  0.268200  0.986400  1.0  0.0794
  H  H26  1  0.515600  0.123900  0.884700  1.0  0.131
  H  H27  1  0.864000  0.040800  0.258200  1.0  0.0866
  H  H28  1  0.985200  0.983900  0.403500  1.0  0.1462
  H  H29  1  0.862300  0.088800  0.461800  1.0  0.158
  H  H30  1  0.104300  0.379000  0.661600  1.0  0.1254
  H  H31  1  0.209000  0.245600  0.546800  1.0  0.0756
  H  H32  1  0.619000  0.231800  0.513600  1.0  0.0778
  H  H33  1  0.524200  0.376100  0.615300  1.0  0.1303
  H  H34  1  0.163000  0.459200  0.241800  1.0  0.0889
  H  H35  1  0.372600  0.516100  0.096500  1.0  0.1431
  H  H36  1  0.412900  0.411200  0.038200  1.0  0.156
  C  C37  1  0.552800  0.985400  0.221800  1.0  0.6743
  C  C38  1  0.653300  0.892700  0.150900  1.0  -0.0307
  C  C39  1  0.807200  0.851800  0.129800  1.0  -0.1676
  C  C40  1  0.891800  0.770900  0.062300  1.0  0.169
  C  C41  1  0.681900  0.764400  0.041400  1.0  0.16
  C  C42  1  0.590400  0.848600  0.104200  1.0  -0.1618
  C  C43  1  0.033400  0.837800  0.753200  1.0  0.6497
  C  C44  1  0.152400  0.904400  0.695000  1.0  0.1589
  C  C45  1  0.122600  0.968800  0.580600  1.0  -0.4172
  C  C46  1  0.219400  0.047300  0.502100  1.0  0.7556
  C  C47  1  0.760000  0.514600  0.278200  1.0  0.673
  C  C48  1  0.696900  0.607300  0.349100  1.0  -0.0306
  C  C49  1  0.788800  0.648200  0.370200  1.0  -0.1672
  C  C50  1  0.725000  0.729100  0.437700  1.0  0.1698
  C  C51  1  0.487700  0.735600  0.458600  1.0  0.1597
  C  C52  1  0.543200  0.651400  0.395800  1.0  -0.162
  C  C53  1  0.624400  0.662200  0.746800  1.0  0.6516
  C  C54  1  0.751800  0.595600  0.805000  1.0  0.1592
  C  C55  1  0.672000  0.531200  0.919400  1.0  -0.419
  C  C56  1  0.768800  0.452700  0.997900  1.0  0.757
  C  C57  1  0.447200  0.014600  0.778200  1.0  0.6732
  C  C58  1  0.346700  0.107300  0.849100  1.0  -0.0299
  C  C59  1  0.192800  0.148200  0.870200  1.0  -0.1668
  C  C60  1  0.108200  0.229100  0.937700  1.0  0.1686
  C  C61  1  0.318100  0.235600  0.958600  1.0  0.1604
  C  C62  1  0.409600  0.151400  0.895800  1.0  -0.1627
  C  C63  1  0.966600  0.162200  0.246800  1.0  0.6514
  C  C64  1  0.847600  0.095600  0.305000  1.0  0.1608
  C  C65  1  0.877400  0.031200  0.419400  1.0  -0.4178
  C  C66  1  0.780600  0.952700  0.497900  1.0  0.7557
  C  C67  1  0.240000  0.485400  0.721800  1.0  0.673
  C  C68  1  0.303100  0.392700  0.650900  1.0  -0.0313
  C  C69  1  0.211200  0.351800  0.629800  1.0  -0.1677
  C  C70  1  0.275000  0.270900  0.562300  1.0  0.1705
  C  C71  1  0.512300  0.264400  0.541400  1.0  0.1599
  C  C72  1  0.456800  0.348600  0.604200  1.0  -0.1636
  C  C73  1  0.375600  0.337800  0.253200  1.0  0.6516
  C  C74  1  0.248200  0.404400  0.195000  1.0  0.1593
  C  C75  1  0.328000  0.468800  0.080600  1.0  -0.4179
  C  C76  1  0.231200  0.547300  0.002100  1.0  0.7563
  N  N77  1  0.833500  0.725600  0.017200  1.0  -0.3596
  N  N78  1  0.576300  0.774400  0.482800  1.0  -0.3596
  N  N79  1  0.166500  0.274400  0.982800  1.0  -0.36
  N  N80  1  0.423700  0.225600  0.517200  1.0  -0.3597
  O  O81  1  0.610660  0.006180  0.279500  1.0  -0.5781
  O  O82  1  0.419860  0.030680  0.215200  1.0  -0.6188
  O  O83  1  0.083210  0.732180  0.794000  1.0  -0.6627
  O  O84  1  0.896400  0.891400  0.763800  1.0  -0.5931
  O  O85  1  0.299730  0.824340  0.679200  1.0  -0.6997
  O  O86  1  0.356930  0.023640  0.498100  1.0  -0.6498
  O  O87  1  0.157600  0.123700  0.432700  1.0  -0.6083
  O  O88  1  0.896340  0.493820  0.220500  1.0  -0.5781
  O  O89  1  0.665740  0.469320  0.284800  1.0  -0.6206
  O  O90  1  0.609390  0.767820  0.706000  1.0  -0.6621
  O  O91  1  0.551600  0.608600  0.736200  1.0  -0.5952
  O  O92  1  0.803270  0.675660  0.820800  1.0  -0.6992
  O  O93  1  0.878670  0.476360  0.001900  1.0  -0.6496
  O  O94  1  0.714000  0.376300  0.067300  1.0  -0.6076
  O  O95  1  0.389340  0.993820  0.720500  1.0  -0.578
  O  O96  1  0.580140  0.969320  0.784800  1.0  -0.6194
  O  O97  1  0.916790  0.267820  0.206000  1.0  -0.6626
  O  O98  1  0.103600  0.108600  0.236200  1.0  -0.5935
  O  O99  1  0.700270  0.175660  0.320800  1.0  -0.6995
  O  O100  1  0.643070  0.976360  0.501900  1.0  -0.6498
  O  O101  1  0.842400  0.876300  0.567300  1.0  -0.6079
  O  O102  1  0.103660  0.506180  0.779500  1.0  -0.5772
  O  O103  1  0.334260  0.530680  0.715200  1.0  -0.6204
  O  O104  1  0.390610  0.232180  0.294000  1.0  -0.6624
  O  O105  1  0.448400  0.391400  0.263800  1.0  -0.5949
  O  O106  1  0.196730  0.324340  0.179200  1.0  -0.7001
  O  O107  1  0.121330  0.523640  0.998100  1.0  -0.6504
  O  O108  1  0.286000  0.623700  0.932700  1.0  -0.6075
