# generated using pymatgen
data_Co2H7C10NO7
_symmetry_space_group_name_H-M   'P 1'
_cell_length_a   10.09600000
_cell_length_b   12.84220000
_cell_length_c   12.97310000
_cell_angle_alpha   71.01400000
_cell_angle_beta   67.10080000
_cell_angle_gamma   66.85390000
_symmetry_Int_Tables_number   1
_chemical_formula_structural   Co2H7C10NO7
_chemical_formula_sum   'Co8 H28 C40 N4 O28'
_cell_volume   1394.92521609
_cell_formula_units_Z   4
loop_
 _symmetry_equiv_pos_site_id
 _symmetry_equiv_pos_as_xyz
  1  'x, y, z'
loop_
 _atom_site_type_symbol
 _atom_site_label
 _atom_site_symmetry_multiplicity
 _atom_site_fract_x
 _atom_site_fract_y
 _atom_site_fract_z
 _atom_site_occupancy
 _atom_site_charge
  Co  Co1  1  0.965790  0.615270  0.897170  1.0  1.0421
  Co  Co2  1  0.252400  0.167020  0.263460  1.0  1.1126
  Co  Co3  1  0.478230  0.884730  0.602830  1.0  1.0413
  Co  Co4  1  0.682880  0.332980  0.236540  1.0  1.1131
  Co  Co5  1  0.034210  0.384730  0.102830  1.0  1.0415
  Co  Co6  1  0.747600  0.832980  0.736540  1.0  1.1132
  Co  Co7  1  0.521770  0.115270  0.397170  1.0  1.0425
  Co  Co8  1  0.317120  0.667020  0.763460  1.0  1.1111
  H  H9  1  0.855300  0.889100  0.151500  1.0  0.1222
  H  H10  1  0.997300  0.754600  0.039600  1.0  0.0745
  H  H11  1  0.637900  0.730400  0.019000  1.0  0.0727
  H  H12  1  0.486500  0.870400  0.124200  1.0  0.127
  H  H13  1  0.142600  0.928100  0.755900  1.0  0.0853
  H  H14  1  0.144100  0.911900  0.534900  1.0  0.1612
  H  H15  1  0.020700  0.013800  0.591800  1.0  0.1503
  H  H16  1  0.895900  0.610900  0.348500  1.0  0.1243
  H  H17  1  0.791500  0.745400  0.460400  1.0  0.0739
  H  H18  1  0.387300  0.769600  0.481000  1.0  0.0719
  H  H19  1  0.481100  0.629600  0.375800  1.0  0.1249
  H  H20  1  0.826600  0.571900  0.744100  1.0  0.0866
  H  H21  1  0.590900  0.588100  0.965100  1.0  0.1592
  H  H22  1  0.626300  0.486200  0.908200  1.0  0.1503
  H  H23  1  0.144700  0.110900  0.848500  1.0  0.1224
  H  H24  1  0.002700  0.245400  0.960400  1.0  0.0751
  H  H25  1  0.362100  0.269600  0.981000  1.0  0.0726
  H  H26  1  0.513500  0.129600  0.875800  1.0  0.1272
  H  H27  1  0.857400  0.071900  0.244100  1.0  0.0867
  H  H28  1  0.855900  0.088100  0.465100  1.0  0.16
  H  H29  1  0.979300  0.986200  0.408200  1.0  0.1519
  H  H30  1  0.104100  0.389100  0.651500  1.0  0.1243
  H  H31  1  0.208500  0.254600  0.539600  1.0  0.0735
  H  H32  1  0.612700  0.230400  0.519000  1.0  0.0715
  H  H33  1  0.518900  0.370400  0.624200  1.0  0.1251
  H  H34  1  0.173400  0.428100  0.255900  1.0  0.0855
  H  H35  1  0.409100  0.411900  0.034900  1.0  0.1565
  H  H36  1  0.373700  0.513800  0.091800  1.0  0.1499
  C  C37  1  0.553900  0.988200  0.222000  1.0  0.6778
  C  C38  1  0.653600  0.896000  0.150200  1.0  -0.0227
  C  C39  1  0.808600  0.858900  0.123900  1.0  -0.1632
  C  C40  1  0.892700  0.777600  0.057400  1.0  0.1708
  C  C41  1  0.682500  0.764100  0.044700  1.0  0.1663
  C  C42  1  0.590800  0.847500  0.108900  1.0  -0.1344
  C  C43  1  0.032900  0.839100  0.749900  1.0  0.6675
  C  C44  1  0.151300  0.902800  0.691000  1.0  0.1517
  C  C45  1  0.126300  0.968000  0.577800  1.0  -0.4024
  C  C46  1  0.220900  0.048300  0.502100  1.0  0.7539
  C  C47  1  0.764100  0.511800  0.278000  1.0  0.6763
  C  C48  1  0.699800  0.604000  0.349800  1.0  -0.0236
  C  C49  1  0.791400  0.641100  0.376100  1.0  -0.1618
  C  C50  1  0.727700  0.722400  0.442600  1.0  0.1723
  C  C51  1  0.491300  0.735900  0.455300  1.0  0.1656
  C  C52  1  0.547200  0.652500  0.391100  1.0  -0.1323
  C  C53  1  0.621900  0.660900  0.750100  1.0  0.6706
  C  C54  1  0.745100  0.597200  0.809000  1.0  0.1491
  C  C55  1  0.672100  0.532000  0.922200  1.0  -0.4043
  C  C56  1  0.771300  0.451700  0.997900  1.0  0.755
  C  C57  1  0.446100  0.011800  0.778000  1.0  0.6762
  C  C58  1  0.346400  0.104000  0.849800  1.0  -0.0234
  C  C59  1  0.191400  0.141100  0.876100  1.0  -0.162
  C  C60  1  0.107300  0.222400  0.942600  1.0  0.1695
  C  C61  1  0.317500  0.235900  0.955300  1.0  0.1662
  C  C62  1  0.409200  0.152500  0.891100  1.0  -0.1346
  C  C63  1  0.967100  0.160900  0.250100  1.0  0.6682
  C  C64  1  0.848700  0.097200  0.309000  1.0  0.1496
  C  C65  1  0.873700  0.032000  0.422200  1.0  -0.4029
  C  C66  1  0.779100  0.951700  0.497900  1.0  0.7544
  C  C67  1  0.235900  0.488200  0.722000  1.0  0.6775
  C  C68  1  0.300200  0.396000  0.650200  1.0  -0.0229
  C  C69  1  0.208600  0.358900  0.623900  1.0  -0.1617
  C  C70  1  0.272300  0.277600  0.557400  1.0  0.1722
  C  C71  1  0.508700  0.264100  0.544700  1.0  0.1663
  C  C72  1  0.452800  0.347500  0.608900  1.0  -0.134
  C  C73  1  0.378100  0.339100  0.249900  1.0  0.6704
  C  C74  1  0.254900  0.402800  0.191000  1.0  0.1484
  C  C75  1  0.327900  0.468000  0.077800  1.0  -0.4038
  C  C76  1  0.228700  0.548300  0.002100  1.0  0.7535
  N  N77  1  0.833200  0.729400  0.017000  1.0  -0.3657
  N  N78  1  0.579600  0.770600  0.483000  1.0  -0.3648
  N  N79  1  0.166800  0.270600  0.983000  1.0  -0.3647
  N  N80  1  0.420400  0.229400  0.517000  1.0  -0.3659
  O  O81  1  0.611800  0.008900  0.277500  1.0  -0.5704
  O  O82  1  0.419800  0.030500  0.218500  1.0  -0.6214
  O  O83  1  0.080200  0.734700  0.793700  1.0  -0.666
  O  O84  1  0.897500  0.892300  0.758300  1.0  -0.6005
  O  O85  1  0.300100  0.824100  0.675500  1.0  -0.7157
  O  O86  1  0.359140  0.022720  0.497000  1.0  -0.6554
  O  O87  1  0.159000  0.127400  0.433400  1.0  -0.6141
  O  O88  1  0.898200  0.491100  0.222500  1.0  -0.5701
  O  O89  1  0.668800  0.469500  0.281500  1.0  -0.6243
  O  O90  1  0.608600  0.765300  0.706300  1.0  -0.6655
  O  O91  1  0.548100  0.607700  0.741700  1.0  -0.6015
  O  O92  1  0.799700  0.675900  0.824500  1.0  -0.7164
  O  O93  1  0.878860  0.477280  0.003000  1.0  -0.6563
  O  O94  1  0.719800  0.372600  0.066600  1.0  -0.6136
  O  O95  1  0.388200  0.991100  0.722500  1.0  -0.57
  O  O96  1  0.580200  0.969500  0.781500  1.0  -0.6222
  O  O97  1  0.919800  0.265300  0.206300  1.0  -0.666
  O  O98  1  0.102500  0.107700  0.241700  1.0  -0.6004
  O  O99  1  0.699900  0.175900  0.324500  1.0  -0.7163
  O  O100  1  0.640860  0.977280  0.503000  1.0  -0.6549
  O  O101  1  0.841000  0.872600  0.566600  1.0  -0.614
  O  O102  1  0.101800  0.508900  0.777500  1.0  -0.5695
  O  O103  1  0.331200  0.530500  0.718500  1.0  -0.6236
  O  O104  1  0.391400  0.234700  0.293700  1.0  -0.6658
  O  O105  1  0.451900  0.392300  0.258300  1.0  -0.6008
  O  O106  1  0.200300  0.324100  0.175500  1.0  -0.7167
  O  O107  1  0.121140  0.522720  0.997000  1.0  -0.6566
  O  O108  1  0.280200  0.627400  0.933400  1.0  -0.6138
