# generated using pymatgen
data_La2H18C36O13
_symmetry_space_group_name_H-M   'P 1'
_cell_length_a   12.45610000
_cell_length_b   12.55950000
_cell_length_c   16.59200000
_cell_angle_alpha   83.27530000
_cell_angle_beta   76.34110000
_cell_angle_gamma   60.27190000
_symmetry_Int_Tables_number   1
_chemical_formula_structural   La2H18C36O13
_chemical_formula_sum   'La4 H36 C72 O26'
_cell_volume   2190.32109582
_cell_formula_units_Z   2
loop_
 _symmetry_equiv_pos_site_id
 _symmetry_equiv_pos_as_xyz
  1  'x, y, z'
loop_
 _atom_site_type_symbol
 _atom_site_label
 _atom_site_symmetry_multiplicity
 _atom_site_fract_x
 _atom_site_fract_y
 _atom_site_fract_z
 _atom_site_occupancy
 _atom_site_charge
  La  La1  1  0.576390  0.906180  0.599980  1.0  2.1643
  La  La2  1  0.517430  0.906180  0.900020  1.0  2.1649
  La  La3  1  0.423610  0.093820  0.400020  1.0  2.1647
  La  La4  1  0.482570  0.093820  0.099980  1.0  2.1639
  H  H5  1  0.949100  0.794600  0.605000  1.0  0.1113
  H  H6  1  0.140800  0.785600  0.588300  1.0  0.1173
  H  H7  1  0.910200  0.786200  0.851400  1.0  0.1031
  H  H8  1  0.067900  0.097800  0.542400  1.0  0.1092
  H  H9  1  0.885500  0.100000  0.610500  1.0  0.1157
  H  H10  1  0.161000  0.093600  0.757800  1.0  0.1066
  H  H11  1  0.470000  0.332600  0.441800  1.0  0.1038
  H  H12  1  0.619400  0.274600  0.641700  1.0  0.1063
  H  H13  1  0.402400  0.533800  0.368400  1.0  0.1227
  H  H14  1  0.256300  0.794600  0.895000  1.0  0.1118
  H  H15  1  0.073600  0.785600  0.911700  1.0  0.1164
  H  H16  1  0.303600  0.786200  0.648600  1.0  0.1045
  H  H17  1  0.834300  0.097800  0.957600  1.0  0.1095
  H  H18  1  0.014500  0.100000  0.889500  1.0  0.1152
  H  H19  1  0.745400  0.093600  0.742200  1.0  0.1081
  H  H20  1  0.197400  0.332600  0.058200  1.0  0.1031
  H  H21  1  0.106000  0.274600  0.858300  1.0  0.107
  H  H22  1  0.063800  0.533800  0.131600  1.0  0.1223
  H  H23  1  0.050900  0.205400  0.395000  1.0  0.1119
  H  H24  1  0.859200  0.214400  0.411700  1.0  0.1164
  H  H25  1  0.089800  0.213800  0.148600  1.0  0.1032
  H  H26  1  0.932100  0.902200  0.457600  1.0  0.109
  H  H27  1  0.114500  0.900000  0.389500  1.0  0.1152
  H  H28  1  0.839000  0.906400  0.242200  1.0  0.1071
  H  H29  1  0.530000  0.667400  0.558200  1.0  0.1036
  H  H30  1  0.380600  0.725400  0.358300  1.0  0.1067
  H  H31  1  0.597600  0.466200  0.631600  1.0  0.1222
  H  H32  1  0.743700  0.205400  0.105000  1.0  0.1114
  H  H33  1  0.926400  0.214400  0.088300  1.0  0.1169
  H  H34  1  0.696400  0.213800  0.351400  1.0  0.1033
  H  H35  1  0.165700  0.902200  0.042400  1.0  0.1091
  H  H36  1  0.985500  0.900000  0.110500  1.0  0.1155
  H  H37  1  0.254600  0.906400  0.257800  1.0  0.1079
  H  H38  1  0.802600  0.667400  0.941800  1.0  0.1038
  H  H39  1  0.894000  0.725400  0.141700  1.0  0.1065
  H  H40  1  0.936200  0.466200  0.868400  1.0  0.1228
  C  C41  1  0.783500  0.803200  0.740300  1.0  0.7925
  C  C42  1  0.911100  0.791600  0.731100  1.0  -0.1627
  C  C43  1  0.980700  0.791600  0.651300  1.0  -0.0254
  C  C44  1  0.094000  0.787600  0.641400  1.0  -0.115
  C  C45  1  0.956200  0.787800  0.798600  1.0  -0.0539
  C  C46  1  0.141000  0.786200  0.710500  1.0  0.034
  C  C47  1  0.255800  0.085800  0.597400  1.0  0.7762
  C  C48  1  0.133800  0.094400  0.645000  1.0  -0.134
  C  C49  1  0.048800  0.097200  0.600100  1.0  -0.0449
  C  C50  1  0.940100  0.099200  0.640600  1.0  -0.1172
  C  C51  1  0.104900  0.095600  0.728600  1.0  -0.056
  C  C52  1  0.908800  0.099800  0.727400  1.0  0.0311
  C  C53  1  0.556300  0.159200  0.553800  1.0  0.735
  C  C54  1  0.544200  0.285400  0.542500  1.0  -0.1387
  C  C55  1  0.495300  0.360000  0.479700  1.0  -0.0642
  C  C56  1  0.482100  0.478600  0.471100  1.0  0.0389
  C  C57  1  0.584000  0.326400  0.599400  1.0  -0.0391
  C  C58  1  0.428700  0.559600  0.406600  1.0  -0.1348
  C  C59  1  0.413300  0.803200  0.759700  1.0  0.7912
  C  C60  1  0.297300  0.791600  0.768900  1.0  -0.1602
  C  C61  1  0.227700  0.791600  0.848700  1.0  -0.026
  C  C62  1  0.118400  0.787600  0.858600  1.0  -0.1144
  C  C63  1  0.256000  0.787800  0.701400  1.0  -0.0629
  C  C64  1  0.072800  0.786200  0.789500  1.0  0.0339
  C  C65  1  0.658400  0.085800  0.902600  1.0  0.7759
  C  C66  1  0.771800  0.094400  0.855000  1.0  -0.136
  C  C67  1  0.854000  0.097200  0.899900  1.0  -0.045
  C  C68  1  0.960700  0.099200  0.859400  1.0  -0.1164
  C  C69  1  0.799500  0.095600  0.771400  1.0  -0.0565
  C  C70  1  0.991400  0.099800  0.772600  1.0  0.0303
  C  C71  1  0.284500  0.159200  0.946200  1.0  0.7337
  C  C72  1  0.170400  0.285400  0.957500  1.0  -0.1394
  C  C73  1  0.144700  0.360000  0.020300  1.0  -0.0637
  C  C74  1  0.039300  0.478600  0.028900  1.0  0.0381
  C  C75  1  0.089600  0.326400  0.900600  1.0  -0.0396
  C  C76  1  0.011700  0.559600  0.093400  1.0  -0.1359
  C  C77  1  0.216500  0.196800  0.259700  1.0  0.7928
  C  C78  1  0.088900  0.208400  0.268900  1.0  -0.1599
  C  C79  1  0.019300  0.208400  0.348700  1.0  -0.0247
  C  C80  1  0.906000  0.212400  0.358600  1.0  -0.1143
  C  C81  1  0.043800  0.212200  0.201400  1.0  -0.0573
  C  C82  1  0.859000  0.213800  0.289500  1.0  0.0336
  C  C83  1  0.744200  0.914200  0.402600  1.0  0.7753
  C  C84  1  0.866200  0.905600  0.355000  1.0  -0.1362
  C  C85  1  0.951200  0.902800  0.399900  1.0  -0.045
  C  C86  1  0.059900  0.900800  0.359400  1.0  -0.1159
  C  C87  1  0.895100  0.904400  0.271400  1.0  -0.0566
  C  C88  1  0.091200  0.900200  0.272600  1.0  0.0302
  C  C89  1  0.443700  0.840800  0.446200  1.0  0.7338
  C  C90  1  0.455800  0.714600  0.457500  1.0  -0.1396
  C  C91  1  0.504700  0.640000  0.520300  1.0  -0.0643
  C  C92  1  0.517900  0.521400  0.528900  1.0  0.0381
  C  C93  1  0.416000  0.673600  0.400600  1.0  -0.0401
  C  C94  1  0.571300  0.440400  0.593400  1.0  -0.1361
  C  C95  1  0.586700  0.196800  0.240300  1.0  0.7962
  C  C96  1  0.702700  0.208400  0.231100  1.0  -0.1616
  C  C97  1  0.772300  0.208400  0.151300  1.0  -0.027
  C  C98  1  0.881600  0.212400  0.141400  1.0  -0.1152
  C  C99  1  0.744000  0.212200  0.298600  1.0  -0.0532
  C  C100  1  0.927200  0.213800  0.210500  1.0  0.0338
  C  C101  1  0.341600  0.914200  0.097400  1.0  0.7758
  C  C102  1  0.228200  0.905600  0.145000  1.0  -0.134
  C  C103  1  0.146000  0.902800  0.100100  1.0  -0.0442
  C  C104  1  0.039300  0.900800  0.140600  1.0  -0.1167
  C  C105  1  0.200500  0.904400  0.228600  1.0  -0.056
  C  C106  1  0.008600  0.900200  0.227400  1.0  0.0311
  C  C107  1  0.715500  0.840800  0.053800  1.0  0.7352
  C  C108  1  0.829600  0.714600  0.042500  1.0  -0.139
  C  C109  1  0.855300  0.640000  0.979700  1.0  -0.065
  C  C110  1  0.960700  0.521400  0.971100  1.0  0.0389
  C  C111  1  0.910400  0.673600  0.099400  1.0  -0.039
  C  C112  1  0.988300  0.440400  0.906600  1.0  -0.1353
  O  O113  1  0.741300  0.825600  0.676000  1.0  -0.7355
  O  O114  1  0.727100  0.789200  0.810200  1.0  -0.7285
  O  O115  1  0.344300  0.048400  0.635100  1.0  -0.6792
  O  O116  1  0.262300  0.116400  0.523400  1.0  -0.7205
  O  O117  1  0.609300  0.092000  0.608500  1.0  -0.6128
  O  O118  1  0.511840  0.126120  0.506600  1.0  -0.8129
  O  O119  1  0.433100  0.825600  0.824000  1.0  -0.7352
  O  O120  1  0.483700  0.789200  0.689800  1.0  -0.7293
  O  O121  1  0.607300  0.048400  0.864900  1.0  -0.68
  O  O122  1  0.621300  0.116400  0.976600  1.0  -0.7216
  O  O123  1  0.298700  0.092000  0.891500  1.0  -0.6123
  O  O124  1  0.362040  0.126120  0.993400  1.0  -0.8119
  O  O125  1  0.258700  0.174400  0.324000  1.0  -0.7355
  O  O126  1  0.272900  0.210800  0.189800  1.0  -0.729
  O  O127  1  0.655700  0.951600  0.364900  1.0  -0.6797
  O  O128  1  0.737700  0.883600  0.476600  1.0  -0.721
  O  O129  1  0.390700  0.908000  0.391500  1.0  -0.6128
  O  O130  1  0.488160  0.873880  0.493400  1.0  -0.8117
  O  O131  1  0.566900  0.174400  0.176000  1.0  -0.7364
  O  O132  1  0.516300  0.210800  0.310200  1.0  -0.7294
  O  O133  1  0.392700  0.951600  0.135100  1.0  -0.679
  O  O134  1  0.378700  0.883600  0.023400  1.0  -0.7205
  O  O135  1  0.701300  0.908000  0.108500  1.0  -0.6132
  O  O136  1  0.637960  0.873880  0.006600  1.0  -0.8129
  O  O137  1  0.493200  0.013600  0.750000  1.0  -0.3754
  O  O138  1  0.506800  0.986400  0.250000  1.0  -0.3755
