# generated using pymatgen
data_Cu3H4(C2N3)2
_symmetry_space_group_name_H-M   'P 1'
_cell_length_a   28.67820000
_cell_length_b   28.67820000
_cell_length_c   6.52700000
_cell_angle_alpha   90.00000000
_cell_angle_beta   90.00000000
_cell_angle_gamma   90.00000000
_symmetry_Int_Tables_number   1
_chemical_formula_structural   Cu3H4(C2N3)2
_chemical_formula_sum   'Cu48 H64 C64 N96'
_cell_volume   5368.06036625
_cell_formula_units_Z   16
loop_
 _symmetry_equiv_pos_site_id
 _symmetry_equiv_pos_as_xyz
  1  'x, y, z'
loop_
 _atom_site_type_symbol
 _atom_site_label
 _atom_site_symmetry_multiplicity
 _atom_site_fract_x
 _atom_site_fract_y
 _atom_site_fract_z
 _atom_site_occupancy
 _atom_site_charge
  Cu  Cu1  1  0.052800  0.318450  0.367330  1.0  0.2416
  Cu  Cu2  1  0.552800  0.818450  0.867330  1.0  0.2416
  Cu  Cu3  1  0.447200  0.681550  0.867330  1.0  0.2416
  Cu  Cu4  1  0.947200  0.181550  0.367330  1.0  0.2416
  Cu  Cu5  1  0.447200  0.318450  0.632670  1.0  0.2423
  Cu  Cu6  1  0.947200  0.818450  0.132670  1.0  0.2423
  Cu  Cu7  1  0.052800  0.681550  0.132670  1.0  0.2411
  Cu  Cu8  1  0.552800  0.181550  0.632670  1.0  0.2411
  Cu  Cu9  1  0.068450  0.197200  0.382670  1.0  0.2437
  Cu  Cu10  1  0.568450  0.697200  0.882670  1.0  0.2437
  Cu  Cu11  1  0.431550  0.802800  0.882670  1.0  0.2414
  Cu  Cu12  1  0.931550  0.302800  0.382670  1.0  0.2414
  Cu  Cu13  1  0.431550  0.197200  0.617330  1.0  0.2414
  Cu  Cu14  1  0.931550  0.697200  0.117330  1.0  0.2414
  Cu  Cu15  1  0.068450  0.802800  0.117330  1.0  0.2436
  Cu  Cu16  1  0.568450  0.302800  0.617330  1.0  0.2436
  Cu  Cu17  1  0.968840  0.500000  0.250000  1.0  0.2975
  Cu  Cu18  1  0.468840  0.000000  0.750000  1.0  0.2971
  Cu  Cu19  1  0.531160  0.500000  0.750000  1.0  0.2984
  Cu  Cu20  1  0.031160  0.000000  0.250000  1.0  0.2984
  Cu  Cu21  1  0.250000  0.281160  0.500000  1.0  0.2978
  Cu  Cu22  1  0.750000  0.781160  0.000000  1.0  0.2978
  Cu  Cu23  1  0.250000  0.718840  0.000000  1.0  0.2969
  Cu  Cu24  1  0.750000  0.218840  0.500000  1.0  0.2969
  Cu  Cu25  1  0.931550  0.802800  0.617330  1.0  0.2416
  Cu  Cu26  1  0.431550  0.302800  0.117330  1.0  0.2416
  Cu  Cu27  1  0.568450  0.197200  0.117330  1.0  0.2439
  Cu  Cu28  1  0.068450  0.697200  0.617330  1.0  0.2439
  Cu  Cu29  1  0.568450  0.802800  0.382670  1.0  0.2433
  Cu  Cu30  1  0.068450  0.302800  0.882670  1.0  0.2433
  Cu  Cu31  1  0.931550  0.197200  0.882670  1.0  0.2412
  Cu  Cu32  1  0.431550  0.697200  0.382670  1.0  0.2412
  Cu  Cu33  1  0.947200  0.681550  0.632670  1.0  0.2415
  Cu  Cu34  1  0.447200  0.181550  0.132670  1.0  0.2415
  Cu  Cu35  1  0.552800  0.318450  0.132670  1.0  0.2414
  Cu  Cu36  1  0.052800  0.818450  0.632670  1.0  0.2414
  Cu  Cu37  1  0.552800  0.681550  0.367330  1.0  0.2413
  Cu  Cu38  1  0.052800  0.181550  0.867330  1.0  0.2412
  Cu  Cu39  1  0.947200  0.318450  0.867330  1.0  0.2425
  Cu  Cu40  1  0.447200  0.818450  0.367330  1.0  0.2425
  Cu  Cu41  1  0.750000  0.718840  0.500000  1.0  0.2969
  Cu  Cu42  1  0.250000  0.218840  0.000000  1.0  0.2969
  Cu  Cu43  1  0.750000  0.281160  0.000000  1.0  0.2978
  Cu  Cu44  1  0.250000  0.781160  0.500000  1.0  0.2978
  Cu  Cu45  1  0.031160  0.500000  0.750000  1.0  0.2984
  Cu  Cu46  1  0.531160  0.000000  0.250000  1.0  0.2984
  Cu  Cu47  1  0.468840  0.500000  0.250000  1.0  0.2971
  Cu  Cu48  1  0.968840  0.000000  0.750000  1.0  0.2975
  H  H49  1  0.044600  0.425800  0.299800  1.0  0.0687
  H  H50  1  0.909900  0.407500  0.318500  1.0  0.0844
  H  H51  1  0.544600  0.925800  0.799800  1.0  0.071
  H  H52  1  0.409900  0.907500  0.818500  1.0  0.0844
  H  H53  1  0.455400  0.574200  0.799800  1.0  0.0708
  H  H54  1  0.590100  0.592500  0.818500  1.0  0.0846
  H  H55  1  0.955400  0.074200  0.299800  1.0  0.0708
  H  H56  1  0.090100  0.092500  0.318500  1.0  0.0846
  H  H57  1  0.455400  0.425800  0.700200  1.0  0.0705
  H  H58  1  0.590100  0.407500  0.681500  1.0  0.0852
  H  H59  1  0.955400  0.925800  0.200200  1.0  0.0705
  H  H60  1  0.090100  0.907500  0.181500  1.0  0.0852
  H  H61  1  0.044600  0.574200  0.200200  1.0  0.0706
  H  H62  1  0.909900  0.592500  0.181500  1.0  0.0847
  H  H63  1  0.544600  0.074200  0.700200  1.0  0.0706
  H  H64  1  0.409900  0.092500  0.681500  1.0  0.0847
  H  H65  1  0.175800  0.205400  0.450200  1.0  0.0728
  H  H66  1  0.157500  0.340100  0.431500  1.0  0.0869
  H  H67  1  0.675800  0.705400  0.950200  1.0  0.0728
  H  H68  1  0.657500  0.840100  0.931500  1.0  0.0869
  H  H69  1  0.324200  0.794600  0.950200  1.0  0.0731
  H  H70  1  0.342500  0.659900  0.931500  1.0  0.0885
  H  H71  1  0.824200  0.294600  0.450200  1.0  0.0731
  H  H72  1  0.842500  0.159900  0.431500  1.0  0.0885
  H  H73  1  0.324200  0.205400  0.549800  1.0  0.0729
  H  H74  1  0.342500  0.340100  0.568500  1.0  0.0867
  H  H75  1  0.824200  0.705400  0.049800  1.0  0.0729
  H  H76  1  0.842500  0.840100  0.068500  1.0  0.0867
  H  H77  1  0.175800  0.794600  0.049800  1.0  0.0696
  H  H78  1  0.157500  0.659900  0.068500  1.0  0.088
  H  H79  1  0.675800  0.294600  0.549800  1.0  0.0696
  H  H80  1  0.657500  0.159900  0.568500  1.0  0.088
  H  H81  1  0.824200  0.794600  0.549800  1.0  0.0733
  H  H82  1  0.842500  0.659900  0.568500  1.0  0.0883
  H  H83  1  0.324200  0.294600  0.049800  1.0  0.0733
  H  H84  1  0.342500  0.159900  0.068500  1.0  0.0883
  H  H85  1  0.675800  0.205400  0.049800  1.0  0.0729
  H  H86  1  0.657500  0.340100  0.068500  1.0  0.0868
  H  H87  1  0.175800  0.705400  0.549800  1.0  0.0729
  H  H88  1  0.157500  0.840100  0.568500  1.0  0.0868
  H  H89  1  0.675800  0.794600  0.450200  1.0  0.0693
  H  H90  1  0.657500  0.659900  0.431500  1.0  0.088
  H  H91  1  0.175800  0.294600  0.950200  1.0  0.0699
  H  H92  1  0.157500  0.159900  0.931500  1.0  0.088
  H  H93  1  0.824200  0.205400  0.950200  1.0  0.0727
  H  H94  1  0.842500  0.340100  0.931500  1.0  0.0868
  H  H95  1  0.324200  0.705400  0.450200  1.0  0.0727
  H  H96  1  0.342500  0.840100  0.431500  1.0  0.0868
  H  H97  1  0.955400  0.574200  0.700200  1.0  0.0707
  H  H98  1  0.090100  0.592500  0.681500  1.0  0.0847
  H  H99  1  0.455400  0.074200  0.200200  1.0  0.0707
  H  H100  1  0.590100  0.092500  0.181500  1.0  0.0847
  H  H101  1  0.544600  0.425800  0.200200  1.0  0.0683
  H  H102  1  0.409900  0.407500  0.181500  1.0  0.0846
  H  H103  1  0.044600  0.925800  0.700200  1.0  0.0707
  H  H104  1  0.909900  0.907500  0.681500  1.0  0.0846
  H  H105  1  0.544600  0.574200  0.299800  1.0  0.0708
  H  H106  1  0.409900  0.592500  0.318500  1.0  0.0845
  H  H107  1  0.044600  0.074200  0.799800  1.0  0.0708
  H  H108  1  0.909900  0.092500  0.818500  1.0  0.0845
  H  H109  1  0.955400  0.425800  0.799800  1.0  0.0708
  H  H110  1  0.090100  0.407500  0.818500  1.0  0.085
  H  H111  1  0.455400  0.925800  0.299800  1.0  0.0708
  H  H112  1  0.590100  0.907500  0.318500  1.0  0.085
  C  C113  1  0.014700  0.411700  0.311300  1.0  0.17
  C  C114  1  0.942500  0.401900  0.321500  1.0  0.1374
  C  C115  1  0.514700  0.911700  0.811300  1.0  0.17
  C  C116  1  0.442500  0.901900  0.821500  1.0  0.1371
  C  C117  1  0.485300  0.588300  0.811300  1.0  0.1689
  C  C118  1  0.557500  0.598100  0.821500  1.0  0.1364
  C  C119  1  0.985300  0.088300  0.311300  1.0  0.1654
  C  C120  1  0.057500  0.098100  0.321500  1.0  0.1365
  C  C121  1  0.485300  0.411700  0.688700  1.0  0.1693
  C  C122  1  0.557500  0.401900  0.678500  1.0  0.1384
  C  C123  1  0.985300  0.911700  0.188700  1.0  0.1666
  C  C124  1  0.057500  0.901900  0.178500  1.0  0.1384
  C  C125  1  0.014700  0.588300  0.188700  1.0  0.1704
  C  C126  1  0.942500  0.598100  0.178500  1.0  0.134
  C  C127  1  0.514700  0.088300  0.688700  1.0  0.1704
  C  C128  1  0.442500  0.098100  0.678500  1.0  0.134
  C  C129  1  0.161700  0.235300  0.438700  1.0  0.1676
  C  C130  1  0.151900  0.307500  0.428500  1.0  0.1423
  C  C131  1  0.661700  0.735300  0.938700  1.0  0.1707
  C  C132  1  0.651900  0.807500  0.928500  1.0  0.1423
  C  C133  1  0.338300  0.764700  0.938700  1.0  0.1735
  C  C134  1  0.348100  0.692500  0.928500  1.0  0.1402
  C  C135  1  0.838300  0.264700  0.438700  1.0  0.1742
  C  C136  1  0.848100  0.192500  0.428500  1.0  0.1388
  C  C137  1  0.338300  0.235300  0.561300  1.0  0.1687
  C  C138  1  0.348100  0.307500  0.571500  1.0  0.1405
  C  C139  1  0.838300  0.735300  0.061300  1.0  0.1687
  C  C140  1  0.848100  0.807500  0.071500  1.0  0.1405
  C  C141  1  0.161700  0.764700  0.061300  1.0  0.1708
  C  C142  1  0.151900  0.692500  0.071500  1.0  0.1419
  C  C143  1  0.661700  0.264700  0.561300  1.0  0.1708
  C  C144  1  0.651900  0.192500  0.571500  1.0  0.1419
  C  C145  1  0.838300  0.764700  0.561300  1.0  0.1738
  C  C146  1  0.848100  0.692500  0.571500  1.0  0.1386
  C  C147  1  0.338300  0.264700  0.061300  1.0  0.1738
  C  C148  1  0.348100  0.192500  0.071500  1.0  0.1386
  C  C149  1  0.661700  0.235300  0.061300  1.0  0.1672
  C  C150  1  0.651900  0.307500  0.071500  1.0  0.142
  C  C151  1  0.161700  0.735300  0.561300  1.0  0.1672
  C  C152  1  0.151900  0.807500  0.571500  1.0  0.142
  C  C153  1  0.661700  0.764700  0.438700  1.0  0.1713
  C  C154  1  0.651900  0.692500  0.428500  1.0  0.142
  C  C155  1  0.161700  0.264700  0.938700  1.0  0.1713
  C  C156  1  0.151900  0.192500  0.928500  1.0  0.142
  C  C157  1  0.838300  0.235300  0.938700  1.0  0.1698
  C  C158  1  0.848100  0.307500  0.928500  1.0  0.1436
  C  C159  1  0.338300  0.735300  0.438700  1.0  0.1691
  C  C160  1  0.348100  0.807500  0.428500  1.0  0.1409
  C  C161  1  0.985300  0.588300  0.688700  1.0  0.1658
  C  C162  1  0.057500  0.598100  0.678500  1.0  0.1366
  C  C163  1  0.485300  0.088300  0.188700  1.0  0.1693
  C  C164  1  0.557500  0.098100  0.178500  1.0  0.1366
  C  C165  1  0.514700  0.411700  0.188700  1.0  0.1703
  C  C166  1  0.442500  0.401900  0.178500  1.0  0.1378
  C  C167  1  0.014700  0.911700  0.688700  1.0  0.1703
  C  C168  1  0.942500  0.901900  0.678500  1.0  0.1374
  C  C169  1  0.514700  0.588300  0.311300  1.0  0.1701
  C  C170  1  0.442500  0.598100  0.321500  1.0  0.1337
  C  C171  1  0.014700  0.088300  0.811300  1.0  0.1701
  C  C172  1  0.942500  0.098100  0.821500  1.0  0.1337
  C  C173  1  0.985300  0.411700  0.811300  1.0  0.1655
  C  C174  1  0.057500  0.401900  0.821500  1.0  0.1381
  C  C175  1  0.485300  0.911700  0.311300  1.0  0.1695
  C  C176  1  0.557500  0.901900  0.321500  1.0  0.1381
  N  N177  1  0.009400  0.367330  0.341100  1.0  -0.2663
  N  N178  1  0.960950  0.361110  0.348400  1.0  -0.2
  N  N179  1  0.975340  0.436020  0.297900  1.0  -0.3885
  N  N180  1  0.509400  0.867330  0.841100  1.0  -0.2663
  N  N181  1  0.460950  0.861110  0.848400  1.0  -0.2
  N  N182  1  0.475340  0.936020  0.797900  1.0  -0.3885
  N  N183  1  0.490600  0.632670  0.841100  1.0  -0.2665
  N  N184  1  0.539050  0.638890  0.848400  1.0  -0.1992
  N  N185  1  0.524660  0.563980  0.797900  1.0  -0.3889
  N  N186  1  0.990600  0.132670  0.341100  1.0  -0.2665
  N  N187  1  0.039050  0.138890  0.348400  1.0  -0.1992
  N  N188  1  0.024660  0.063980  0.297900  1.0  -0.3889
  N  N189  1  0.490600  0.367330  0.658900  1.0  -0.2681
  N  N190  1  0.539050  0.361110  0.651600  1.0  -0.198
  N  N191  1  0.524660  0.436020  0.702100  1.0  -0.3893
  N  N192  1  0.990600  0.867330  0.158900  1.0  -0.2681
  N  N193  1  0.039050  0.861110  0.151600  1.0  -0.198
  N  N194  1  0.024660  0.936020  0.202100  1.0  -0.3893
  N  N195  1  0.009400  0.632670  0.158900  1.0  -0.2658
  N  N196  1  0.960950  0.638890  0.151600  1.0  -0.2002
  N  N197  1  0.975340  0.563980  0.202100  1.0  -0.3894
  N  N198  1  0.509400  0.132670  0.658900  1.0  -0.2658
  N  N199  1  0.460950  0.138890  0.651600  1.0  -0.2002
  N  N200  1  0.475340  0.063980  0.702100  1.0  -0.3894
  N  N201  1  0.117330  0.240600  0.408900  1.0  -0.2684
  N  N202  1  0.111110  0.289050  0.401600  1.0  -0.1992
  N  N203  1  0.186020  0.274660  0.452100  1.0  -0.388
  N  N204  1  0.617330  0.740600  0.908900  1.0  -0.2684
  N  N205  1  0.611110  0.789050  0.901600  1.0  -0.1992
  N  N206  1  0.686020  0.774660  0.952100  1.0  -0.388
  N  N207  1  0.382670  0.759400  0.908900  1.0  -0.2682
  N  N208  1  0.388890  0.710950  0.901600  1.0  -0.2022
  N  N209  1  0.313980  0.725340  0.952100  1.0  -0.3909
  N  N210  1  0.882670  0.259400  0.408900  1.0  -0.2682
  N  N211  1  0.888890  0.210950  0.401600  1.0  -0.2022
  N  N212  1  0.813980  0.225340  0.452100  1.0  -0.3909
  N  N213  1  0.382670  0.240600  0.591100  1.0  -0.2674
  N  N214  1  0.388890  0.289050  0.598400  1.0  -0.2025
  N  N215  1  0.313980  0.274660  0.547900  1.0  -0.39
  N  N216  1  0.882670  0.740600  0.091100  1.0  -0.2674
  N  N217  1  0.888890  0.789050  0.098400  1.0  -0.2025
  N  N218  1  0.813980  0.774660  0.047900  1.0  -0.39
  N  N219  1  0.117330  0.759400  0.091100  1.0  -0.2684
  N  N220  1  0.111110  0.710950  0.098400  1.0  -0.2011
  N  N221  1  0.186020  0.725340  0.047900  1.0  -0.3877
  N  N222  1  0.617330  0.259400  0.591100  1.0  -0.2684
  N  N223  1  0.611110  0.210950  0.598400  1.0  -0.2011
  N  N224  1  0.686020  0.225340  0.547900  1.0  -0.3877
  N  N225  1  0.882670  0.759400  0.591100  1.0  -0.2681
  N  N226  1  0.888890  0.710950  0.598400  1.0  -0.2023
  N  N227  1  0.813980  0.725340  0.547900  1.0  -0.3908
  N  N228  1  0.382670  0.259400  0.091100  1.0  -0.2681
  N  N229  1  0.388890  0.210950  0.098400  1.0  -0.2023
  N  N230  1  0.313980  0.225340  0.047900  1.0  -0.3908
  N  N231  1  0.617330  0.240600  0.091100  1.0  -0.2683
  N  N232  1  0.611110  0.289050  0.098400  1.0  -0.2
  N  N233  1  0.686020  0.274660  0.047900  1.0  -0.3879
  N  N234  1  0.117330  0.740600  0.591100  1.0  -0.2683
  N  N235  1  0.111110  0.789050  0.598400  1.0  -0.2
  N  N236  1  0.186020  0.774660  0.547900  1.0  -0.3879
  N  N237  1  0.617330  0.759400  0.408900  1.0  -0.2685
  N  N238  1  0.611110  0.710950  0.401600  1.0  -0.2006
  N  N239  1  0.686020  0.725340  0.452100  1.0  -0.3877
  N  N240  1  0.117330  0.259400  0.908900  1.0  -0.2685
  N  N241  1  0.111110  0.210950  0.901600  1.0  -0.2006
  N  N242  1  0.186020  0.225340  0.952100  1.0  -0.3877
  N  N243  1  0.882670  0.240600  0.908900  1.0  -0.2675
  N  N244  1  0.888890  0.289050  0.901600  1.0  -0.2024
  N  N245  1  0.813980  0.274660  0.952100  1.0  -0.3902
  N  N246  1  0.382670  0.740600  0.408900  1.0  -0.2675
  N  N247  1  0.388890  0.789050  0.401600  1.0  -0.2024
  N  N248  1  0.313980  0.774660  0.452100  1.0  -0.3902
  N  N249  1  0.990600  0.632670  0.658900  1.0  -0.2666
  N  N250  1  0.039050  0.638890  0.651600  1.0  -0.1989
  N  N251  1  0.024660  0.563980  0.702100  1.0  -0.3889
  N  N252  1  0.490600  0.132670  0.158900  1.0  -0.2666
  N  N253  1  0.539050  0.138890  0.151600  1.0  -0.1989
  N  N254  1  0.524660  0.063980  0.202100  1.0  -0.3889
  N  N255  1  0.509400  0.367330  0.158900  1.0  -0.2664
  N  N256  1  0.460950  0.361110  0.151600  1.0  -0.2
  N  N257  1  0.475340  0.436020  0.202100  1.0  -0.3889
  N  N258  1  0.009400  0.867330  0.658900  1.0  -0.2664
  N  N259  1  0.960950  0.861110  0.651600  1.0  -0.2
  N  N260  1  0.975340  0.936020  0.702100  1.0  -0.3889
  N  N261  1  0.509400  0.632670  0.341100  1.0  -0.2657
  N  N262  1  0.460950  0.638890  0.348400  1.0  -0.2005
  N  N263  1  0.475340  0.563980  0.297900  1.0  -0.3894
  N  N264  1  0.009400  0.132670  0.841100  1.0  -0.2657
  N  N265  1  0.960950  0.138890  0.848400  1.0  -0.2005
  N  N266  1  0.975340  0.063980  0.797900  1.0  -0.3894
  N  N267  1  0.990600  0.367330  0.841100  1.0  -0.268
  N  N268  1  0.039050  0.361110  0.848400  1.0  -0.1982
  N  N269  1  0.024660  0.436020  0.797900  1.0  -0.3891
  N  N270  1  0.490600  0.867330  0.341100  1.0  -0.268
  N  N271  1  0.539050  0.861110  0.348400  1.0  -0.1982
  N  N272  1  0.524660  0.936020  0.297900  1.0  -0.3891
