# generated using pymatgen
data_CuH2C2N3
_symmetry_space_group_name_H-M   'P 1'
_cell_length_a   7.40220000
_cell_length_b   11.08530000
_cell_length_c   19.29320000
_cell_angle_alpha   90.00000000
_cell_angle_beta   90.00000000
_cell_angle_gamma   90.00000000
_symmetry_Int_Tables_number   1
_chemical_formula_structural   CuH2C2N3
_chemical_formula_sum   'Cu8 H16 C16 N24'
_cell_volume   1583.11524971
_cell_formula_units_Z   8
loop_
 _symmetry_equiv_pos_site_id
 _symmetry_equiv_pos_as_xyz
  1  'x, y, z'
loop_
 _atom_site_type_symbol
 _atom_site_label
 _atom_site_symmetry_multiplicity
 _atom_site_fract_x
 _atom_site_fract_y
 _atom_site_fract_z
 _atom_site_occupancy
 _atom_site_charge
  Cu  Cu1  1  0.000000  0.000000  0.914730  1.0  0.3758
  Cu  Cu2  1  0.500000  0.500000  0.414730  1.0  0.3758
  Cu  Cu3  1  0.500000  0.000000  0.914730  1.0  0.3758
  Cu  Cu4  1  0.000000  0.500000  0.414730  1.0  0.3758
  Cu  Cu5  1  0.250000  0.244500  0.662730  1.0  0.3586
  Cu  Cu6  1  0.750000  0.744500  0.162730  1.0  0.3586
  Cu  Cu7  1  0.750000  0.755500  0.662730  1.0  0.3586
  Cu  Cu8  1  0.250000  0.255500  0.162730  1.0  0.3586
  H  H9  1  0.983700  0.136800  0.772100  1.0  0.0912
  H  H10  1  0.010000  0.853800  0.056200  1.0  0.0852
  H  H11  1  0.483700  0.636800  0.272100  1.0  0.0912
  H  H12  1  0.510000  0.353800  0.556200  1.0  0.0852
  H  H13  1  0.016300  0.863200  0.772100  1.0  0.0905
  H  H14  1  0.990000  0.146200  0.056200  1.0  0.086
  H  H15  1  0.516300  0.363200  0.272100  1.0  0.0905
  H  H16  1  0.490000  0.646200  0.556200  1.0  0.086
  H  H17  1  0.483700  0.863200  0.772100  1.0  0.0947
  H  H18  1  0.510000  0.146200  0.056200  1.0  0.0857
  H  H19  1  0.983700  0.363200  0.272100  1.0  0.0947
  H  H20  1  0.010000  0.646200  0.556200  1.0  0.0857
  H  H21  1  0.516300  0.136800  0.772100  1.0  0.0907
  H  H22  1  0.490000  0.853800  0.056200  1.0  0.0864
  H  H23  1  0.016300  0.636800  0.272100  1.0  0.0907
  H  H24  1  0.990000  0.353800  0.556200  1.0  0.0864
  C  C25  1  0.104000  0.124800  0.784300  1.0  0.1497
  C  C26  1  0.890600  0.869200  0.044000  1.0  0.23
  C  C27  1  0.604000  0.624800  0.284300  1.0  0.1497
  C  C28  1  0.390600  0.369200  0.544000  1.0  0.23
  C  C29  1  0.896000  0.875200  0.784300  1.0  0.1492
  C  C30  1  0.109400  0.130800  0.044000  1.0  0.2299
  C  C31  1  0.396000  0.375200  0.284300  1.0  0.1492
  C  C32  1  0.609400  0.630800  0.544000  1.0  0.2299
  C  C33  1  0.604000  0.875200  0.784300  1.0  0.1495
  C  C34  1  0.390600  0.130800  0.044000  1.0  0.2315
  C  C35  1  0.104000  0.375200  0.284300  1.0  0.1495
  C  C36  1  0.890600  0.630800  0.544000  1.0  0.2315
  C  C37  1  0.396000  0.124800  0.784300  1.0  0.1508
  C  C38  1  0.609400  0.869200  0.044000  1.0  0.2299
  C  C39  1  0.896000  0.624800  0.284300  1.0  0.1508
  C  C40  1  0.109400  0.369200  0.544000  1.0  0.2299
  N  N41  1  0.159800  0.067000  0.840100  1.0  -0.2277
  N  N42  1  0.845000  0.931100  0.987700  1.0  -0.3173
  N  N43  1  0.659800  0.567000  0.340100  1.0  -0.2277
  N  N44  1  0.345000  0.431100  0.487700  1.0  -0.3173
  N  N45  1  0.840200  0.933000  0.840100  1.0  -0.2265
  N  N46  1  0.155000  0.068900  0.987700  1.0  -0.3179
  N  N47  1  0.340200  0.433000  0.340100  1.0  -0.2265
  N  N48  1  0.655000  0.568900  0.487700  1.0  -0.3179
  N  N49  1  0.659800  0.933000  0.840100  1.0  -0.2273
  N  N50  1  0.345000  0.068900  0.987700  1.0  -0.3177
  N  N51  1  0.159800  0.433000  0.340100  1.0  -0.2273
  N  N52  1  0.845000  0.568900  0.487700  1.0  -0.3177
  N  N53  1  0.340200  0.067000  0.840100  1.0  -0.2267
  N  N54  1  0.655000  0.931100  0.987700  1.0  -0.3178
  N  N55  1  0.840200  0.567000  0.340100  1.0  -0.2267
  N  N56  1  0.155000  0.431100  0.487700  1.0  -0.3178
  N  N57  1  0.250000  0.164600  0.747000  1.0  -0.354
  N  N58  1  0.250000  0.330700  0.581700  1.0  -0.4069
  N  N59  1  0.750000  0.664600  0.247000  1.0  -0.354
  N  N60  1  0.750000  0.830700  0.081700  1.0  -0.4069
  N  N61  1  0.750000  0.835400  0.747000  1.0  -0.3546
  N  N62  1  0.750000  0.669300  0.581700  1.0  -0.4055
  N  N63  1  0.250000  0.335400  0.247000  1.0  -0.3546
  N  N64  1  0.250000  0.169300  0.081700  1.0  -0.4055
