# generated using pymatgen
data_Zn9Ga2P14H14(O21F)2
_symmetry_space_group_name_H-M   'P 1'
_cell_length_a   48.39310000
_cell_length_b   48.39310000
_cell_length_c   9.99980000
_cell_angle_alpha   90.00000000
_cell_angle_beta   90.00000000
_cell_angle_gamma   90.00000000
_symmetry_Int_Tables_number   1
_chemical_formula_structural   Zn9Ga2P14H14(O21F)2
_chemical_formula_sum   'Zn72 Ga16 P112 H112 O336 F16'
_cell_volume   23418.45289767
_cell_formula_units_Z   8
loop_
 _symmetry_equiv_pos_site_id
 _symmetry_equiv_pos_as_xyz
  1  'x, y, z'
loop_
 _atom_site_type_symbol
 _atom_site_label
 _atom_site_symmetry_multiplicity
 _atom_site_fract_x
 _atom_site_fract_y
 _atom_site_fract_z
 _atom_site_occupancy
 _atom_site_charge
  Zn  Zn1  1  0.374920  0.482070  0.327520  1.0  1.1326
  Zn  Zn2  1  0.438710  0.522110  0.170200  1.0  1.1412
  Zn  Zn3  1  0.874920  0.982070  0.827520  1.0  1.1326
  Zn  Zn4  1  0.938710  0.022110  0.670200  1.0  1.1412
  Zn  Zn5  1  0.125080  0.517930  0.827520  1.0  1.1329
  Zn  Zn6  1  0.061290  0.477890  0.670200  1.0  1.1411
  Zn  Zn7  1  0.625080  0.017930  0.327520  1.0  1.1329
  Zn  Zn8  1  0.561290  0.977890  0.170200  1.0  1.1411
  Zn  Zn9  1  0.767930  0.124920  0.577520  1.0  1.1323
  Zn  Zn10  1  0.727890  0.188710  0.420200  1.0  1.1408
  Zn  Zn11  1  0.267930  0.624920  0.077520  1.0  1.1323
  Zn  Zn12  1  0.227890  0.688710  0.920200  1.0  1.1408
  Zn  Zn13  1  0.732070  0.875080  0.077520  1.0  1.1321
  Zn  Zn14  1  0.772110  0.811290  0.920200  1.0  1.1406
  Zn  Zn15  1  0.232070  0.375080  0.577520  1.0  1.1321
  Zn  Zn16  1  0.272110  0.311290  0.420200  1.0  1.1406
  Zn  Zn17  1  0.125080  0.482070  0.172480  1.0  1.1327
  Zn  Zn18  1  0.061290  0.522110  0.329800  1.0  1.1413
  Zn  Zn19  1  0.625080  0.982070  0.672480  1.0  1.1327
  Zn  Zn20  1  0.561290  0.022110  0.829800  1.0  1.1413
  Zn  Zn21  1  0.374920  0.517930  0.672480  1.0  1.1336
  Zn  Zn22  1  0.438710  0.477890  0.829800  1.0  1.1411
  Zn  Zn23  1  0.874920  0.017930  0.172480  1.0  1.1336
  Zn  Zn24  1  0.938710  0.977890  0.329800  1.0  1.1411
  Zn  Zn25  1  0.732070  0.124920  0.922480  1.0  1.1318
  Zn  Zn26  1  0.772110  0.188710  0.079800  1.0  1.1406
  Zn  Zn27  1  0.232070  0.624920  0.422480  1.0  1.1318
  Zn  Zn28  1  0.272110  0.688710  0.579800  1.0  1.1406
  Zn  Zn29  1  0.767930  0.875080  0.422480  1.0  1.1329
  Zn  Zn30  1  0.727890  0.811290  0.579800  1.0  1.1412
  Zn  Zn31  1  0.267930  0.375080  0.922480  1.0  1.1329
  Zn  Zn32  1  0.227890  0.311290  0.079800  1.0  1.1412
  Zn  Zn33  1  0.625080  0.517930  0.672480  1.0  1.1325
  Zn  Zn34  1  0.561290  0.477890  0.829800  1.0  1.1413
  Zn  Zn35  1  0.125080  0.017930  0.172480  1.0  1.1325
  Zn  Zn36  1  0.061290  0.977890  0.329800  1.0  1.1413
  Zn  Zn37  1  0.874920  0.482070  0.172480  1.0  1.1325
  Zn  Zn38  1  0.938710  0.522110  0.329800  1.0  1.1412
  Zn  Zn39  1  0.374920  0.982070  0.672480  1.0  1.1325
  Zn  Zn40  1  0.438710  0.022110  0.829800  1.0  1.1412
  Zn  Zn41  1  0.232070  0.875080  0.422480  1.0  1.1318
  Zn  Zn42  1  0.272110  0.811290  0.579800  1.0  1.1407
  Zn  Zn43  1  0.732070  0.375080  0.922480  1.0  1.1318
  Zn  Zn44  1  0.772110  0.311290  0.079800  1.0  1.1407
  Zn  Zn45  1  0.267930  0.124920  0.922480  1.0  1.1319
  Zn  Zn46  1  0.227890  0.188710  0.079800  1.0  1.1411
  Zn  Zn47  1  0.767930  0.624920  0.422480  1.0  1.1319
  Zn  Zn48  1  0.727890  0.688710  0.579800  1.0  1.1411
  Zn  Zn49  1  0.874920  0.517930  0.827520  1.0  1.1339
  Zn  Zn50  1  0.938710  0.477890  0.670200  1.0  1.141
  Zn  Zn51  1  0.374920  0.017930  0.327520  1.0  1.1339
  Zn  Zn52  1  0.438710  0.977890  0.170200  1.0  1.141
  Zn  Zn53  1  0.625080  0.482070  0.327520  1.0  1.1329
  Zn  Zn54  1  0.561290  0.522110  0.170200  1.0  1.1411
  Zn  Zn55  1  0.125080  0.982070  0.827520  1.0  1.1329
  Zn  Zn56  1  0.061290  0.022110  0.670200  1.0  1.1411
  Zn  Zn57  1  0.267930  0.875080  0.077520  1.0  1.1333
  Zn  Zn58  1  0.227890  0.811290  0.920200  1.0  1.1411
  Zn  Zn59  1  0.767930  0.375080  0.577520  1.0  1.1333
  Zn  Zn60  1  0.727890  0.311290  0.420200  1.0  1.1411
  Zn  Zn61  1  0.232070  0.124920  0.577520  1.0  1.1321
  Zn  Zn62  1  0.272110  0.188710  0.420200  1.0  1.1404
  Zn  Zn63  1  0.732070  0.624920  0.077520  1.0  1.1321
  Zn  Zn64  1  0.772110  0.688710  0.920200  1.0  1.1404
  Zn  Zn65  1  0.500000  0.500000  0.500000  1.0  0.9392
  Zn  Zn66  1  0.000000  0.000000  0.000000  1.0  0.9392
  Zn  Zn67  1  0.000000  0.500000  0.000000  1.0  0.9392
  Zn  Zn68  1  0.500000  0.000000  0.500000  1.0  0.9392
  Zn  Zn69  1  0.750000  0.250000  0.750000  1.0  0.9392
  Zn  Zn70  1  0.750000  0.750000  0.250000  1.0  0.9392
  Zn  Zn71  1  0.250000  0.750000  0.250000  1.0  0.9392
  Zn  Zn72  1  0.250000  0.250000  0.750000  1.0  0.9392
  Ga  Ga73  1  0.250000  0.462900  0.250000  1.0  1.5631
  Ga  Ga74  1  0.750000  0.962900  0.750000  1.0  1.5631
  Ga  Ga75  1  0.250000  0.537100  0.750000  1.0  1.5628
  Ga  Ga76  1  0.750000  0.037100  0.250000  1.0  1.5628
  Ga  Ga77  1  0.787100  0.000000  0.500000  1.0  1.5655
  Ga  Ga78  1  0.287100  0.500000  0.000000  1.0  1.5655
  Ga  Ga79  1  0.712900  0.000000  0.000000  1.0  1.566
  Ga  Ga80  1  0.212900  0.500000  0.500000  1.0  1.566
  Ga  Ga81  1  0.750000  0.537100  0.750000  1.0  1.5628
  Ga  Ga82  1  0.250000  0.037100  0.250000  1.0  1.5628
  Ga  Ga83  1  0.750000  0.462900  0.250000  1.0  1.5631
  Ga  Ga84  1  0.250000  0.962900  0.750000  1.0  1.5631
  Ga  Ga85  1  0.212900  0.000000  0.500000  1.0  1.566
  Ga  Ga86  1  0.712900  0.500000  0.000000  1.0  1.566
  Ga  Ga87  1  0.287100  0.000000  0.000000  1.0  1.5655
  Ga  Ga88  1  0.787100  0.500000  0.500000  1.0  1.5655
  P  P89  1  0.310850  0.484340  0.281860  1.0  1.5352
  P  P90  1  0.400410  0.539110  0.398970  1.0  1.5462
  P  P91  1  0.415960  0.462410  0.109630  1.0  1.4956
  P  P92  1  0.810850  0.984340  0.781860  1.0  1.5352
  P  P93  1  0.900410  0.039110  0.898970  1.0  1.5462
  P  P94  1  0.915960  0.962410  0.609630  1.0  1.4956
  P  P95  1  0.189150  0.515660  0.781860  1.0  1.5356
  P  P96  1  0.099590  0.460890  0.898970  1.0  1.5455
  P  P97  1  0.084040  0.537590  0.609630  1.0  1.4934
  P  P98  1  0.689150  0.015660  0.281860  1.0  1.5356
  P  P99  1  0.599590  0.960890  0.398970  1.0  1.5455
  P  P100  1  0.584040  0.037590  0.109630  1.0  1.4934
  P  P101  1  0.765660  0.060850  0.531860  1.0  1.5373
  P  P102  1  0.710890  0.150410  0.648970  1.0  1.5468
  P  P103  1  0.787590  0.165960  0.359630  1.0  1.4917
  P  P104  1  0.265660  0.560850  0.031860  1.0  1.5373
  P  P105  1  0.210890  0.650410  0.148970  1.0  1.5468
  P  P106  1  0.287590  0.665960  0.859630  1.0  1.4917
  P  P107  1  0.734340  0.939150  0.031860  1.0  1.5363
  P  P108  1  0.789110  0.849590  0.148970  1.0  1.5456
  P  P109  1  0.712410  0.834040  0.859630  1.0  1.492
  P  P110  1  0.234340  0.439150  0.531860  1.0  1.5363
  P  P111  1  0.289110  0.349590  0.648970  1.0  1.5456
  P  P112  1  0.212410  0.334040  0.359630  1.0  1.492
  P  P113  1  0.189150  0.484340  0.218140  1.0  1.5348
  P  P114  1  0.099590  0.539110  0.101030  1.0  1.5456
  P  P115  1  0.084040  0.462410  0.390370  1.0  1.4963
  P  P116  1  0.689150  0.984340  0.718140  1.0  1.5348
  P  P117  1  0.599590  0.039110  0.601030  1.0  1.5456
  P  P118  1  0.584040  0.962410  0.890370  1.0  1.4963
  P  P119  1  0.310850  0.515660  0.718140  1.0  1.5363
  P  P120  1  0.400410  0.460890  0.601030  1.0  1.545
  P  P121  1  0.415960  0.537590  0.890370  1.0  1.494
  P  P122  1  0.810850  0.015660  0.218140  1.0  1.5363
  P  P123  1  0.900410  0.960890  0.101030  1.0  1.545
  P  P124  1  0.915960  0.037590  0.390370  1.0  1.494
  P  P125  1  0.734340  0.060850  0.968140  1.0  1.5379
  P  P126  1  0.789110  0.150410  0.851030  1.0  1.5448
  P  P127  1  0.712410  0.165960  0.140370  1.0  1.493
  P  P128  1  0.234340  0.560850  0.468140  1.0  1.5379
  P  P129  1  0.289110  0.650410  0.351030  1.0  1.5448
  P  P130  1  0.212410  0.665960  0.640370  1.0  1.493
  P  P131  1  0.765660  0.939150  0.468140  1.0  1.5364
  P  P132  1  0.710890  0.849590  0.351030  1.0  1.5464
  P  P133  1  0.787590  0.834040  0.640370  1.0  1.4918
  P  P134  1  0.265660  0.439150  0.968140  1.0  1.5364
  P  P135  1  0.210890  0.349590  0.851030  1.0  1.5464
  P  P136  1  0.287590  0.334040  0.140370  1.0  1.4918
  P  P137  1  0.689150  0.515660  0.718140  1.0  1.5359
  P  P138  1  0.599590  0.460890  0.601030  1.0  1.5448
  P  P139  1  0.584040  0.537590  0.890370  1.0  1.4939
  P  P140  1  0.189150  0.015660  0.218140  1.0  1.5359
  P  P141  1  0.099590  0.960890  0.101030  1.0  1.5448
  P  P142  1  0.084040  0.037590  0.390370  1.0  1.4939
  P  P143  1  0.810850  0.484340  0.218140  1.0  1.5355
  P  P144  1  0.900410  0.539110  0.101030  1.0  1.5456
  P  P145  1  0.915960  0.462410  0.390370  1.0  1.4965
  P  P146  1  0.310850  0.984340  0.718140  1.0  1.5355
  P  P147  1  0.400410  0.039110  0.601030  1.0  1.5456
  P  P148  1  0.415960  0.962410  0.890370  1.0  1.4965
  P  P149  1  0.234340  0.939150  0.468140  1.0  1.5366
  P  P150  1  0.289110  0.849590  0.351030  1.0  1.545
  P  P151  1  0.212410  0.834040  0.640370  1.0  1.4929
  P  P152  1  0.734340  0.439150  0.968140  1.0  1.5366
  P  P153  1  0.789110  0.349590  0.851030  1.0  1.545
  P  P154  1  0.712410  0.334040  0.140370  1.0  1.4929
  P  P155  1  0.265660  0.060850  0.968140  1.0  1.5376
  P  P156  1  0.210890  0.150410  0.851030  1.0  1.5463
  P  P157  1  0.287590  0.165960  0.140370  1.0  1.4918
  P  P158  1  0.765660  0.560850  0.468140  1.0  1.5376
  P  P159  1  0.710890  0.650410  0.351030  1.0  1.5463
  P  P160  1  0.787590  0.665960  0.640370  1.0  1.4918
  P  P161  1  0.810850  0.515660  0.781860  1.0  1.5359
  P  P162  1  0.900410  0.460890  0.898970  1.0  1.5457
  P  P163  1  0.915960  0.537590  0.609630  1.0  1.4936
  P  P164  1  0.310850  0.015660  0.281860  1.0  1.5359
  P  P165  1  0.400410  0.960890  0.398970  1.0  1.5457
  P  P166  1  0.415960  0.037590  0.109630  1.0  1.4936
  P  P167  1  0.689150  0.484340  0.281860  1.0  1.5346
  P  P168  1  0.599590  0.539110  0.398970  1.0  1.5462
  P  P169  1  0.584040  0.462410  0.109630  1.0  1.4954
  P  P170  1  0.189150  0.984340  0.781860  1.0  1.5346
  P  P171  1  0.099590  0.039110  0.898970  1.0  1.5462
  P  P172  1  0.084040  0.962410  0.609630  1.0  1.4954
  P  P173  1  0.265660  0.939150  0.031860  1.0  1.5361
  P  P174  1  0.210890  0.849590  0.148970  1.0  1.547
  P  P175  1  0.287590  0.834040  0.859630  1.0  1.4915
  P  P176  1  0.765660  0.439150  0.531860  1.0  1.5361
  P  P177  1  0.710890  0.349590  0.648970  1.0  1.547
  P  P178  1  0.787590  0.334040  0.359630  1.0  1.4915
  P  P179  1  0.234340  0.060850  0.531860  1.0  1.5376
  P  P180  1  0.289110  0.150410  0.648970  1.0  1.5454
  P  P181  1  0.212410  0.165960  0.359630  1.0  1.4922
  P  P182  1  0.734340  0.560850  0.031860  1.0  1.5376
  P  P183  1  0.789110  0.650410  0.148970  1.0  1.5454
  P  P184  1  0.712410  0.665960  0.859630  1.0  1.4922
  P  P185  1  0.500000  0.534800  0.215090  1.0  1.4677
  P  P186  1  0.000000  0.034800  0.715090  1.0  1.4677
  P  P187  1  0.000000  0.465200  0.715090  1.0  1.471
  P  P188  1  0.500000  0.965200  0.215090  1.0  1.471
  P  P189  1  0.715200  0.250000  0.465090  1.0  1.4588
  P  P190  1  0.784800  0.750000  0.965090  1.0  1.4648
  P  P191  1  0.000000  0.534800  0.284910  1.0  1.4691
  P  P192  1  0.500000  0.034800  0.784910  1.0  1.4691
  P  P193  1  0.500000  0.465200  0.784910  1.0  1.4725
  P  P194  1  0.000000  0.965200  0.284910  1.0  1.4725
  P  P195  1  0.784800  0.250000  0.034910  1.0  1.4664
  P  P196  1  0.715200  0.750000  0.534910  1.0  1.4602
  P  P197  1  0.284800  0.750000  0.534910  1.0  1.4664
  P  P198  1  0.215200  0.250000  0.034910  1.0  1.4602
  P  P199  1  0.215200  0.750000  0.965090  1.0  1.4588
  P  P200  1  0.284800  0.250000  0.465090  1.0  1.4648
  H  H201  1  0.299900  0.509600  0.373200  1.0  -0.0685
  H  H202  1  0.391900  0.567900  0.374700  1.0  -0.0286
  H  H203  1  0.421300  0.438900  0.178700  1.0  -0.0392
  H  H204  1  0.799900  0.009600  0.873200  1.0  -0.0685
  H  H205  1  0.891900  0.067900  0.874700  1.0  -0.0286
  H  H206  1  0.921300  0.938900  0.678700  1.0  -0.0392
  H  H207  1  0.200100  0.490400  0.873200  1.0  -0.0676
  H  H208  1  0.108100  0.432100  0.874700  1.0  -0.0292
  H  H209  1  0.078700  0.561100  0.678700  1.0  -0.0407
  H  H210  1  0.700100  0.990400  0.373200  1.0  -0.0676
  H  H211  1  0.608100  0.932100  0.374700  1.0  -0.0292
  H  H212  1  0.578700  0.061100  0.178700  1.0  -0.0407
  H  H213  1  0.740400  0.049900  0.623200  1.0  -0.0662
  H  H214  1  0.682100  0.141900  0.624700  1.0  -0.0265
  H  H215  1  0.811100  0.171300  0.428700  1.0  -0.0385
  H  H216  1  0.240400  0.549900  0.123200  1.0  -0.0662
  H  H217  1  0.182100  0.641900  0.124700  1.0  -0.0265
  H  H218  1  0.311100  0.671300  0.928700  1.0  -0.0385
  H  H219  1  0.759600  0.950100  0.123200  1.0  -0.0657
  H  H220  1  0.817900  0.858100  0.124700  1.0  -0.0283
  H  H221  1  0.688900  0.828700  0.928700  1.0  -0.0389
  H  H222  1  0.259600  0.450100  0.623200  1.0  -0.0657
  H  H223  1  0.317900  0.358100  0.624700  1.0  -0.0283
  H  H224  1  0.188900  0.328700  0.428700  1.0  -0.0389
  H  H225  1  0.200100  0.509600  0.126800  1.0  -0.0669
  H  H226  1  0.108100  0.567900  0.125300  1.0  -0.0293
  H  H227  1  0.078700  0.438900  0.321300  1.0  -0.0398
  H  H228  1  0.700100  0.009600  0.626800  1.0  -0.0669
  H  H229  1  0.608100  0.067900  0.625300  1.0  -0.0293
  H  H230  1  0.578700  0.938900  0.821300  1.0  -0.0398
  H  H231  1  0.299900  0.490400  0.626800  1.0  -0.0681
  H  H232  1  0.391900  0.432100  0.625300  1.0  -0.0302
  H  H233  1  0.421300  0.561100  0.821300  1.0  -0.0416
  H  H234  1  0.799900  0.990400  0.126800  1.0  -0.0681
  H  H235  1  0.891900  0.932100  0.125300  1.0  -0.0302
  H  H236  1  0.921300  0.061100  0.321300  1.0  -0.0416
  H  H237  1  0.759600  0.049900  0.876800  1.0  -0.0648
  H  H238  1  0.817900  0.141900  0.875300  1.0  -0.0292
  H  H239  1  0.688900  0.171300  0.071300  1.0  -0.0393
  H  H240  1  0.259600  0.549900  0.376800  1.0  -0.0648
  H  H241  1  0.317900  0.641900  0.375300  1.0  -0.0292
  H  H242  1  0.188900  0.671300  0.571300  1.0  -0.0393
  H  H243  1  0.740400  0.950100  0.376800  1.0  -0.0646
  H  H244  1  0.682100  0.858100  0.375300  1.0  -0.0269
  H  H245  1  0.811100  0.828700  0.571300  1.0  -0.0388
  H  H246  1  0.240400  0.450100  0.876800  1.0  -0.0646
  H  H247  1  0.182100  0.358100  0.875300  1.0  -0.0269
  H  H248  1  0.311100  0.328700  0.071300  1.0  -0.0388
  H  H249  1  0.700100  0.490400  0.626800  1.0  -0.0664
  H  H250  1  0.608100  0.432100  0.625300  1.0  -0.03
  H  H251  1  0.578700  0.561100  0.821300  1.0  -0.0421
  H  H252  1  0.200100  0.990400  0.126800  1.0  -0.0664
  H  H253  1  0.108100  0.932100  0.125300  1.0  -0.03
  H  H254  1  0.078700  0.061100  0.321300  1.0  -0.0421
  H  H255  1  0.799900  0.509600  0.126800  1.0  -0.0679
  H  H256  1  0.891900  0.567900  0.125300  1.0  -0.0293
  H  H257  1  0.921300  0.438900  0.321300  1.0  -0.039
  H  H258  1  0.299900  0.009600  0.626800  1.0  -0.0679
  H  H259  1  0.391900  0.067900  0.625300  1.0  -0.0293
  H  H260  1  0.421300  0.938900  0.821300  1.0  -0.039
  H  H261  1  0.259600  0.950100  0.376800  1.0  -0.0652
  H  H262  1  0.317900  0.858100  0.375300  1.0  -0.0287
  H  H263  1  0.188900  0.828700  0.571300  1.0  -0.0397
  H  H264  1  0.759600  0.450100  0.876800  1.0  -0.0652
  H  H265  1  0.817900  0.358100  0.875300  1.0  -0.0287
  H  H266  1  0.688900  0.328700  0.071300  1.0  -0.0397
  H  H267  1  0.240400  0.049900  0.876800  1.0  -0.0652
  H  H268  1  0.182100  0.141900  0.875300  1.0  -0.0269
  H  H269  1  0.311100  0.171300  0.071300  1.0  -0.0384
  H  H270  1  0.740400  0.549900  0.376800  1.0  -0.0652
  H  H271  1  0.682100  0.641900  0.375300  1.0  -0.0269
  H  H272  1  0.811100  0.671300  0.571300  1.0  -0.0384
  H  H273  1  0.799900  0.490400  0.873200  1.0  -0.0689
  H  H274  1  0.891900  0.432100  0.874700  1.0  -0.0294
  H  H275  1  0.921300  0.561100  0.678700  1.0  -0.0404
  H  H276  1  0.299900  0.990400  0.373200  1.0  -0.0689
  H  H277  1  0.391900  0.932100  0.374700  1.0  -0.0294
  H  H278  1  0.421300  0.061100  0.178700  1.0  -0.0404
  H  H279  1  0.700100  0.509600  0.373200  1.0  -0.0682
  H  H280  1  0.608100  0.567900  0.374700  1.0  -0.0285
  H  H281  1  0.578700  0.438900  0.178700  1.0  -0.04
  H  H282  1  0.200100  0.009600  0.873200  1.0  -0.0682
  H  H283  1  0.108100  0.067900  0.874700  1.0  -0.0285
  H  H284  1  0.078700  0.938900  0.678700  1.0  -0.04
  H  H285  1  0.240400  0.950100  0.123200  1.0  -0.0658
  H  H286  1  0.182100  0.858100  0.124700  1.0  -0.0265
  H  H287  1  0.311100  0.828700  0.928700  1.0  -0.0388
  H  H288  1  0.740400  0.450100  0.623200  1.0  -0.0658
  H  H289  1  0.682100  0.358100  0.624700  1.0  -0.0265
  H  H290  1  0.811100  0.328700  0.428700  1.0  -0.0388
  H  H291  1  0.259600  0.049900  0.623200  1.0  -0.0658
  H  H292  1  0.317900  0.141900  0.624700  1.0  -0.0288
  H  H293  1  0.188900  0.171300  0.428700  1.0  -0.0389
  H  H294  1  0.759600  0.549900  0.123200  1.0  -0.0658
  H  H295  1  0.817900  0.641900  0.124700  1.0  -0.0288
  H  H296  1  0.688900  0.671300  0.928700  1.0  -0.0389
  H  H297  1  0.500000  0.557700  0.288100  1.0  -0.0528
  H  H298  1  0.000000  0.057700  0.788100  1.0  -0.0525
  H  H299  1  0.000000  0.442300  0.788100  1.0  -0.0495
  H  H300  1  0.500000  0.942300  0.288100  1.0  -0.0503
  H  H301  1  0.692300  0.250000  0.538100  1.0  -0.0519
  H  H302  1  0.807700  0.750000  0.038100  1.0  -0.0434
  H  H303  1  0.000000  0.557700  0.211900  1.0  -0.0539
  H  H304  1  0.500000  0.057700  0.711900  1.0  -0.0543
  H  H305  1  0.500000  0.442300  0.711900  1.0  -0.0532
  H  H306  1  0.000000  0.942300  0.211900  1.0  -0.0526
  H  H307  1  0.807700  0.250000  0.961900  1.0  -0.0447
  H  H308  1  0.692300  0.750000  0.461900  1.0  -0.0544
  H  H309  1  0.307700  0.750000  0.461900  1.0  -0.0521
  H  H310  1  0.192300  0.250000  0.961900  1.0  -0.0471
  H  H311  1  0.192300  0.750000  0.038100  1.0  -0.0447
  H  H312  1  0.307700  0.250000  0.538100  1.0  -0.0507
  O  O313  1  0.288350  0.462690  0.298100  1.0  -0.7859
  O  O314  1  0.315340  0.493240  0.136500  1.0  -0.7919
  O  O315  1  0.336960  0.473350  0.343500  1.0  -0.7942
  O  O316  1  0.429730  0.534390  0.349300  1.0  -0.7783
  O  O317  1  0.379400  0.522430  0.321400  1.0  -0.7613
  O  O318  1  0.399350  0.535640  0.548100  1.0  -0.8251
  O  O319  1  0.475220  0.535460  0.126700  1.0  -0.7262
  O  O320  1  0.386920  0.468470  0.155000  1.0  -0.7699
  O  O321  1  0.415860  0.460420  0.960000  1.0  -0.7685
  O  O322  1  0.437900  0.481780  0.167000  1.0  -0.7726
  O  O323  1  0.788350  0.962690  0.798100  1.0  -0.7859
  O  O324  1  0.815340  0.993240  0.636500  1.0  -0.7919
  O  O325  1  0.836960  0.973350  0.843500  1.0  -0.7942
  O  O326  1  0.929730  0.034390  0.849300  1.0  -0.7783
  O  O327  1  0.879400  0.022430  0.821400  1.0  -0.7613
  O  O328  1  0.899350  0.035640  0.048100  1.0  -0.8251
  O  O329  1  0.975220  0.035460  0.626700  1.0  -0.7262
  O  O330  1  0.886920  0.968470  0.655000  1.0  -0.7699
  O  O331  1  0.915860  0.960420  0.460000  1.0  -0.7685
  O  O332  1  0.937900  0.981780  0.667000  1.0  -0.7726
  O  O333  1  0.211650  0.537310  0.798100  1.0  -0.786
  O  O334  1  0.184660  0.506760  0.636500  1.0  -0.7919
  O  O335  1  0.163040  0.526650  0.843500  1.0  -0.7958
  O  O336  1  0.070270  0.465610  0.849300  1.0  -0.7777
  O  O337  1  0.120600  0.477570  0.821400  1.0  -0.7606
  O  O338  1  0.100650  0.464360  0.048100  1.0  -0.8271
  O  O339  1  0.024780  0.464540  0.626700  1.0  -0.7277
  O  O340  1  0.113080  0.531530  0.655000  1.0  -0.7696
  O  O341  1  0.084140  0.539580  0.460000  1.0  -0.7675
  O  O342  1  0.062100  0.518220  0.667000  1.0  -0.773
  O  O343  1  0.711650  0.037310  0.298100  1.0  -0.786
  O  O344  1  0.684660  0.006760  0.136500  1.0  -0.7919
  O  O345  1  0.663040  0.026650  0.343500  1.0  -0.7958
  O  O346  1  0.570270  0.965610  0.349300  1.0  -0.7777
  O  O347  1  0.620600  0.977570  0.321400  1.0  -0.7606
  O  O348  1  0.600650  0.964360  0.548100  1.0  -0.8271
  O  O349  1  0.524780  0.964540  0.126700  1.0  -0.7277
  O  O350  1  0.613080  0.031530  0.155000  1.0  -0.7696
  O  O351  1  0.584140  0.039580  0.960000  1.0  -0.7675
  O  O352  1  0.562100  0.018220  0.167000  1.0  -0.773
  O  O353  1  0.787310  0.038350  0.548100  1.0  -0.7875
  O  O354  1  0.756760  0.065340  0.386500  1.0  -0.7952
  O  O355  1  0.776650  0.086960  0.593500  1.0  -0.7944
  O  O356  1  0.715610  0.179730  0.599300  1.0  -0.7805
  O  O357  1  0.727570  0.129400  0.571400  1.0  -0.7631
  O  O358  1  0.714360  0.149350  0.798100  1.0  -0.8224
  O  O359  1  0.714540  0.225220  0.376700  1.0  -0.7285
  O  O360  1  0.781530  0.136920  0.405000  1.0  -0.7702
  O  O361  1  0.789580  0.165860  0.210000  1.0  -0.7656
  O  O362  1  0.768220  0.187900  0.417000  1.0  -0.7742
  O  O363  1  0.287310  0.538350  0.048100  1.0  -0.7875
  O  O364  1  0.256760  0.565340  0.886500  1.0  -0.7952
  O  O365  1  0.276650  0.586960  0.093500  1.0  -0.7944
  O  O366  1  0.215610  0.679730  0.099300  1.0  -0.7805
  O  O367  1  0.227570  0.629400  0.071400  1.0  -0.7631
  O  O368  1  0.214360  0.649350  0.298100  1.0  -0.8224
  O  O369  1  0.214540  0.725220  0.876700  1.0  -0.7285
  O  O370  1  0.281530  0.636920  0.905000  1.0  -0.7702
  O  O371  1  0.289580  0.665860  0.710000  1.0  -0.7656
  O  O372  1  0.268220  0.687900  0.917000  1.0  -0.7742
  O  O373  1  0.712690  0.961650  0.048100  1.0  -0.7848
  O  O374  1  0.743240  0.934660  0.886500  1.0  -0.7946
  O  O375  1  0.723350  0.913040  0.093500  1.0  -0.7939
  O  O376  1  0.784390  0.820270  0.099300  1.0  -0.7799
  O  O377  1  0.772430  0.870600  0.071400  1.0  -0.7631
  O  O378  1  0.785640  0.850650  0.298100  1.0  -0.8214
  O  O379  1  0.785460  0.774780  0.876700  1.0  -0.7279
  O  O380  1  0.718470  0.863080  0.905000  1.0  -0.7733
  O  O381  1  0.710420  0.834140  0.710000  1.0  -0.7674
  O  O382  1  0.731780  0.812100  0.917000  1.0  -0.7757
  O  O383  1  0.212690  0.461650  0.548100  1.0  -0.7848
  O  O384  1  0.243240  0.434660  0.386500  1.0  -0.7946
  O  O385  1  0.223350  0.413040  0.593500  1.0  -0.7939
  O  O386  1  0.284390  0.320270  0.599300  1.0  -0.7799
  O  O387  1  0.272430  0.370600  0.571400  1.0  -0.7631
  O  O388  1  0.285640  0.350650  0.798100  1.0  -0.8214
  O  O389  1  0.285460  0.274780  0.376700  1.0  -0.7279
  O  O390  1  0.218470  0.363080  0.405000  1.0  -0.7733
  O  O391  1  0.210420  0.334140  0.210000  1.0  -0.7674
  O  O392  1  0.231780  0.312100  0.417000  1.0  -0.7757
  O  O393  1  0.211650  0.462690  0.201900  1.0  -0.7861
  O  O394  1  0.184660  0.493240  0.363500  1.0  -0.7906
  O  O395  1  0.163040  0.473350  0.156500  1.0  -0.7943
  O  O396  1  0.070270  0.534390  0.150700  1.0  -0.7795
  O  O397  1  0.120600  0.522430  0.178600  1.0  -0.7621
  O  O398  1  0.100650  0.535640  0.951900  1.0  -0.8251
  O  O399  1  0.024780  0.535460  0.373300  1.0  -0.7266
  O  O400  1  0.113080  0.468470  0.345000  1.0  -0.7694
  O  O401  1  0.084140  0.460420  0.540000  1.0  -0.7681
  O  O402  1  0.062100  0.481780  0.333000  1.0  -0.7728
  O  O403  1  0.711650  0.962690  0.701900  1.0  -0.7861
  O  O404  1  0.684660  0.993240  0.863500  1.0  -0.7906
  O  O405  1  0.663040  0.973350  0.656500  1.0  -0.7943
  O  O406  1  0.570270  0.034390  0.650700  1.0  -0.7795
  O  O407  1  0.620600  0.022430  0.678600  1.0  -0.7621
  O  O408  1  0.600650  0.035640  0.451900  1.0  -0.8251
  O  O409  1  0.524780  0.035460  0.873300  1.0  -0.7266
  O  O410  1  0.613080  0.968470  0.845000  1.0  -0.7694
  O  O411  1  0.584140  0.960420  0.040000  1.0  -0.7681
  O  O412  1  0.562100  0.981780  0.833000  1.0  -0.7728
  O  O413  1  0.288350  0.537310  0.701900  1.0  -0.7855
  O  O414  1  0.315340  0.506760  0.863500  1.0  -0.7915
  O  O415  1  0.336960  0.526650  0.656500  1.0  -0.7939
  O  O416  1  0.429730  0.465610  0.650700  1.0  -0.7789
  O  O417  1  0.379400  0.477570  0.678600  1.0  -0.7604
  O  O418  1  0.399350  0.464360  0.451900  1.0  -0.827
  O  O419  1  0.475220  0.464540  0.873300  1.0  -0.7277
  O  O420  1  0.386920  0.531530  0.845000  1.0  -0.7693
  O  O421  1  0.415860  0.539580  0.040000  1.0  -0.7675
  O  O422  1  0.437900  0.518220  0.833000  1.0  -0.7742
  O  O423  1  0.788350  0.037310  0.201900  1.0  -0.7855
  O  O424  1  0.815340  0.006760  0.363500  1.0  -0.7915
  O  O425  1  0.836960  0.026650  0.156500  1.0  -0.7939
  O  O426  1  0.929730  0.965610  0.150700  1.0  -0.7789
  O  O427  1  0.879400  0.977570  0.178600  1.0  -0.7604
  O  O428  1  0.899350  0.964360  0.951900  1.0  -0.827
  O  O429  1  0.975220  0.964540  0.373300  1.0  -0.7277
  O  O430  1  0.886920  0.031530  0.345000  1.0  -0.7693
  O  O431  1  0.915860  0.039580  0.540000  1.0  -0.7675
  O  O432  1  0.937900  0.018220  0.333000  1.0  -0.7742
  O  O433  1  0.712690  0.038350  0.951900  1.0  -0.7857
  O  O434  1  0.743240  0.065340  0.113500  1.0  -0.7925
  O  O435  1  0.723350  0.086960  0.906500  1.0  -0.7936
  O  O436  1  0.784390  0.179730  0.900700  1.0  -0.7802
  O  O437  1  0.772430  0.129400  0.928600  1.0  -0.7628
  O  O438  1  0.785640  0.149350  0.701900  1.0  -0.8199
  O  O439  1  0.785460  0.225220  0.123300  1.0  -0.7278
  O  O440  1  0.718470  0.136920  0.095000  1.0  -0.7702
  O  O441  1  0.710420  0.165860  0.290000  1.0  -0.767
  O  O442  1  0.731780  0.187900  0.083000  1.0  -0.7767
  O  O443  1  0.212690  0.538350  0.451900  1.0  -0.7857
  O  O444  1  0.243240  0.565340  0.613500  1.0  -0.7925
  O  O445  1  0.223350  0.586960  0.406500  1.0  -0.7936
  O  O446  1  0.284390  0.679730  0.400700  1.0  -0.7802
  O  O447  1  0.272430  0.629400  0.428600  1.0  -0.7628
  O  O448  1  0.285640  0.649350  0.201900  1.0  -0.8199
  O  O449  1  0.285460  0.725220  0.623300  1.0  -0.7278
  O  O450  1  0.218470  0.636920  0.595000  1.0  -0.7702
  O  O451  1  0.210420  0.665860  0.790000  1.0  -0.767
  O  O452  1  0.231780  0.687900  0.583000  1.0  -0.7767
  O  O453  1  0.787310  0.961650  0.451900  1.0  -0.7869
  O  O454  1  0.756760  0.934660  0.613500  1.0  -0.7946
  O  O455  1  0.776650  0.913040  0.406500  1.0  -0.794
  O  O456  1  0.715610  0.820270  0.400700  1.0  -0.7821
  O  O457  1  0.727570  0.870600  0.428600  1.0  -0.7634
  O  O458  1  0.714360  0.850650  0.201900  1.0  -0.8227
  O  O459  1  0.714540  0.774780  0.623300  1.0  -0.728
  O  O460  1  0.781530  0.863080  0.595000  1.0  -0.7714
  O  O461  1  0.789580  0.834140  0.790000  1.0  -0.7655
  O  O462  1  0.768220  0.812100  0.583000  1.0  -0.7755
  O  O463  1  0.287310  0.461650  0.951900  1.0  -0.7869
  O  O464  1  0.256760  0.434660  0.113500  1.0  -0.7946
  O  O465  1  0.276650  0.413040  0.906500  1.0  -0.794
  O  O466  1  0.215610  0.320270  0.900700  1.0  -0.7821
  O  O467  1  0.227570  0.370600  0.928600  1.0  -0.7634
  O  O468  1  0.214360  0.350650  0.701900  1.0  -0.8227
  O  O469  1  0.214540  0.274780  0.123300  1.0  -0.728
  O  O470  1  0.281530  0.363080  0.095000  1.0  -0.7714
  O  O471  1  0.289580  0.334140  0.290000  1.0  -0.7655
  O  O472  1  0.268220  0.312100  0.083000  1.0  -0.7755
  O  O473  1  0.711650  0.537310  0.701900  1.0  -0.786
  O  O474  1  0.684660  0.506760  0.863500  1.0  -0.791
  O  O475  1  0.663040  0.526650  0.656500  1.0  -0.7957
  O  O476  1  0.570270  0.465610  0.650700  1.0  -0.7792
  O  O477  1  0.620600  0.477570  0.678600  1.0  -0.7607
  O  O478  1  0.600650  0.464360  0.451900  1.0  -0.8273
  O  O479  1  0.524780  0.464540  0.873300  1.0  -0.7278
  O  O480  1  0.613080  0.531530  0.845000  1.0  -0.7695
  O  O481  1  0.584140  0.539580  0.040000  1.0  -0.7674
  O  O482  1  0.562100  0.518220  0.833000  1.0  -0.7734
  O  O483  1  0.211650  0.037310  0.201900  1.0  -0.786
  O  O484  1  0.184660  0.006760  0.363500  1.0  -0.791
  O  O485  1  0.163040  0.026650  0.156500  1.0  -0.7957
  O  O486  1  0.070270  0.965610  0.150700  1.0  -0.7792
  O  O487  1  0.120600  0.977570  0.178600  1.0  -0.7607
  O  O488  1  0.100650  0.964360  0.951900  1.0  -0.8273
  O  O489  1  0.024780  0.964540  0.373300  1.0  -0.7278
  O  O490  1  0.113080  0.031530  0.345000  1.0  -0.7695
  O  O491  1  0.084140  0.039580  0.540000  1.0  -0.7674
  O  O492  1  0.062100  0.018220  0.333000  1.0  -0.7734
  O  O493  1  0.788350  0.462690  0.201900  1.0  -0.7857
  O  O494  1  0.815340  0.493240  0.363500  1.0  -0.7913
  O  O495  1  0.836960  0.473350  0.156500  1.0  -0.7942
  O  O496  1  0.929730  0.534390  0.150700  1.0  -0.7794
  O  O497  1  0.879400  0.522430  0.178600  1.0  -0.7618
  O  O498  1  0.899350  0.535640  0.951900  1.0  -0.8249
  O  O499  1  0.975220  0.535460  0.373300  1.0  -0.7263
  O  O500  1  0.886920  0.468470  0.345000  1.0  -0.7696
  O  O501  1  0.915860  0.460420  0.540000  1.0  -0.7686
  O  O502  1  0.937900  0.481780  0.333000  1.0  -0.7735
  O  O503  1  0.288350  0.962690  0.701900  1.0  -0.7857
  O  O504  1  0.315340  0.993240  0.863500  1.0  -0.7913
  O  O505  1  0.336960  0.973350  0.656500  1.0  -0.7942
  O  O506  1  0.429730  0.034390  0.650700  1.0  -0.7794
  O  O507  1  0.379400  0.022430  0.678600  1.0  -0.7618
  O  O508  1  0.399350  0.035640  0.451900  1.0  -0.8249
  O  O509  1  0.475220  0.035460  0.873300  1.0  -0.7263
  O  O510  1  0.386920  0.968470  0.845000  1.0  -0.7696
  O  O511  1  0.415860  0.960420  0.040000  1.0  -0.7686
  O  O512  1  0.437900  0.981780  0.833000  1.0  -0.7735
  O  O513  1  0.212690  0.961650  0.451900  1.0  -0.7851
  O  O514  1  0.243240  0.934660  0.613500  1.0  -0.7941
  O  O515  1  0.223350  0.913040  0.406500  1.0  -0.7941
  O  O516  1  0.284390  0.820270  0.400700  1.0  -0.7814
  O  O517  1  0.272430  0.870600  0.428600  1.0  -0.7632
  O  O518  1  0.285640  0.850650  0.201900  1.0  -0.8209
  O  O519  1  0.285460  0.774780  0.623300  1.0  -0.7277
  O  O520  1  0.218470  0.863080  0.595000  1.0  -0.7726
  O  O521  1  0.210420  0.834140  0.790000  1.0  -0.7672
  O  O522  1  0.231780  0.812100  0.583000  1.0  -0.7767
  O  O523  1  0.712690  0.461650  0.951900  1.0  -0.7851
  O  O524  1  0.743240  0.434660  0.113500  1.0  -0.7941
  O  O525  1  0.723350  0.413040  0.906500  1.0  -0.7941
  O  O526  1  0.784390  0.320270  0.900700  1.0  -0.7814
  O  O527  1  0.772430  0.370600  0.928600  1.0  -0.7632
  O  O528  1  0.785640  0.350650  0.701900  1.0  -0.8209
  O  O529  1  0.785460  0.274780  0.123300  1.0  -0.7277
  O  O530  1  0.718470  0.363080  0.095000  1.0  -0.7726
  O  O531  1  0.710420  0.334140  0.290000  1.0  -0.7672
  O  O532  1  0.731780  0.312100  0.083000  1.0  -0.7767
  O  O533  1  0.287310  0.038350  0.951900  1.0  -0.7869
  O  O534  1  0.256760  0.065340  0.113500  1.0  -0.7928
  O  O535  1  0.276650  0.086960  0.906500  1.0  -0.794
  O  O536  1  0.215610  0.179730  0.900700  1.0  -0.7815
  O  O537  1  0.227570  0.129400  0.928600  1.0  -0.7628
  O  O538  1  0.214360  0.149350  0.701900  1.0  -0.8218
  O  O539  1  0.214540  0.225220  0.123300  1.0  -0.728
  O  O540  1  0.281530  0.136920  0.095000  1.0  -0.7695
  O  O541  1  0.289580  0.165860  0.290000  1.0  -0.7656
  O  O542  1  0.268220  0.187900  0.083000  1.0  -0.7755
  O  O543  1  0.787310  0.538350  0.451900  1.0  -0.7869
  O  O544  1  0.756760  0.565340  0.613500  1.0  -0.7928
  O  O545  1  0.776650  0.586960  0.406500  1.0  -0.794
  O  O546  1  0.715610  0.679730  0.400700  1.0  -0.7815
  O  O547  1  0.727570  0.629400  0.428600  1.0  -0.7628
  O  O548  1  0.714360  0.649350  0.201900  1.0  -0.8218
  O  O549  1  0.714540  0.725220  0.623300  1.0  -0.728
  O  O550  1  0.781530  0.636920  0.595000  1.0  -0.7695
  O  O551  1  0.789580  0.665860  0.790000  1.0  -0.7656
  O  O552  1  0.768220  0.687900  0.583000  1.0  -0.7755
  O  O553  1  0.788350  0.537310  0.798100  1.0  -0.7859
  O  O554  1  0.815340  0.506760  0.636500  1.0  -0.7923
  O  O555  1  0.836960  0.526650  0.843500  1.0  -0.7939
  O  O556  1  0.929730  0.465610  0.849300  1.0  -0.778
  O  O557  1  0.879400  0.477570  0.821400  1.0  -0.7606
  O  O558  1  0.899350  0.464360  0.048100  1.0  -0.8268
  O  O559  1  0.975220  0.464540  0.626700  1.0  -0.7278
  O  O560  1  0.886920  0.531530  0.655000  1.0  -0.7694
  O  O561  1  0.915860  0.539580  0.460000  1.0  -0.768
  O  O562  1  0.937900  0.518220  0.667000  1.0  -0.774
  O  O563  1  0.288350  0.037310  0.298100  1.0  -0.7859
  O  O564  1  0.315340  0.006760  0.136500  1.0  -0.7923
  O  O565  1  0.336960  0.026650  0.343500  1.0  -0.7939
  O  O566  1  0.429730  0.965610  0.349300  1.0  -0.778
  O  O567  1  0.379400  0.977570  0.321400  1.0  -0.7606
  O  O568  1  0.399350  0.964360  0.548100  1.0  -0.8268
  O  O569  1  0.475220  0.964540  0.126700  1.0  -0.7278
  O  O570  1  0.386920  0.031530  0.155000  1.0  -0.7694
  O  O571  1  0.415860  0.039580  0.960000  1.0  -0.768
  O  O572  1  0.437900  0.018220  0.167000  1.0  -0.774
  O  O573  1  0.711650  0.462690  0.298100  1.0  -0.786
  O  O574  1  0.684660  0.493240  0.136500  1.0  -0.7914
  O  O575  1  0.663040  0.473350  0.343500  1.0  -0.7943
  O  O576  1  0.570270  0.534390  0.349300  1.0  -0.778
  O  O577  1  0.620600  0.522430  0.321400  1.0  -0.7613
  O  O578  1  0.600650  0.535640  0.548100  1.0  -0.8253
  O  O579  1  0.524780  0.535460  0.126700  1.0  -0.7262
  O  O580  1  0.613080  0.468470  0.155000  1.0  -0.7697
  O  O581  1  0.584140  0.460420  0.960000  1.0  -0.7679
  O  O582  1  0.562100  0.481780  0.167000  1.0  -0.772
  O  O583  1  0.211650  0.962690  0.798100  1.0  -0.786
  O  O584  1  0.184660  0.993240  0.636500  1.0  -0.7914
  O  O585  1  0.163040  0.973350  0.843500  1.0  -0.7943
  O  O586  1  0.070270  0.034390  0.849300  1.0  -0.778
  O  O587  1  0.120600  0.022430  0.821400  1.0  -0.7613
  O  O588  1  0.100650  0.035640  0.048100  1.0  -0.8253
  O  O589  1  0.024780  0.035460  0.626700  1.0  -0.7262
  O  O590  1  0.113080  0.968470  0.655000  1.0  -0.7697
  O  O591  1  0.084140  0.960420  0.460000  1.0  -0.7679
  O  O592  1  0.062100  0.981780  0.667000  1.0  -0.772
  O  O593  1  0.287310  0.961650  0.048100  1.0  -0.7872
  O  O594  1  0.256760  0.934660  0.886500  1.0  -0.7951
  O  O595  1  0.276650  0.913040  0.093500  1.0  -0.7937
  O  O596  1  0.215610  0.820270  0.099300  1.0  -0.7803
  O  O597  1  0.227570  0.870600  0.071400  1.0  -0.763
  O  O598  1  0.214360  0.850650  0.298100  1.0  -0.8225
  O  O599  1  0.214540  0.774780  0.876700  1.0  -0.7284
  O  O600  1  0.281530  0.863080  0.905000  1.0  -0.772
  O  O601  1  0.289580  0.834140  0.710000  1.0  -0.7656
  O  O602  1  0.268220  0.812100  0.917000  1.0  -0.7743
  O  O603  1  0.787310  0.461650  0.548100  1.0  -0.7872
  O  O604  1  0.756760  0.434660  0.386500  1.0  -0.7951
  O  O605  1  0.776650  0.413040  0.593500  1.0  -0.7937
  O  O606  1  0.715610  0.320270  0.599300  1.0  -0.7803
  O  O607  1  0.727570  0.370600  0.571400  1.0  -0.763
  O  O608  1  0.714360  0.350650  0.798100  1.0  -0.8225
  O  O609  1  0.714540  0.274780  0.376700  1.0  -0.7284
  O  O610  1  0.781530  0.363080  0.405000  1.0  -0.772
  O  O611  1  0.789580  0.334140  0.210000  1.0  -0.7656
  O  O612  1  0.768220  0.312100  0.417000  1.0  -0.7743
  O  O613  1  0.212690  0.038350  0.548100  1.0  -0.7857
  O  O614  1  0.243240  0.065340  0.386500  1.0  -0.7949
  O  O615  1  0.223350  0.086960  0.593500  1.0  -0.7939
  O  O616  1  0.284390  0.179730  0.599300  1.0  -0.7794
  O  O617  1  0.272430  0.129400  0.571400  1.0  -0.7631
  O  O618  1  0.285640  0.149350  0.798100  1.0  -0.8207
  O  O619  1  0.285460  0.225220  0.376700  1.0  -0.7279
  O  O620  1  0.218470  0.136920  0.405000  1.0  -0.7709
  O  O621  1  0.210420  0.165860  0.210000  1.0  -0.7673
  O  O622  1  0.231780  0.187900  0.417000  1.0  -0.7756
  O  O623  1  0.712690  0.538350  0.048100  1.0  -0.7857
  O  O624  1  0.743240  0.565340  0.886500  1.0  -0.7949
  O  O625  1  0.723350  0.586960  0.093500  1.0  -0.7939
  O  O626  1  0.784390  0.679730  0.099300  1.0  -0.7794
  O  O627  1  0.772430  0.629400  0.071400  1.0  -0.7631
  O  O628  1  0.785640  0.649350  0.298100  1.0  -0.8207
  O  O629  1  0.785460  0.725220  0.876700  1.0  -0.7279
  O  O630  1  0.718470  0.636920  0.905000  1.0  -0.7709
  O  O631  1  0.710420  0.665860  0.710000  1.0  -0.7673
  O  O632  1  0.731780  0.687900  0.917000  1.0  -0.7756
  O  O633  1  0.500000  0.510430  0.308900  1.0  -0.7458
  O  O634  1  0.000000  0.010430  0.808900  1.0  -0.7458
  O  O635  1  0.000000  0.489570  0.808900  1.0  -0.7442
  O  O636  1  0.500000  0.989570  0.308900  1.0  -0.7442
  O  O637  1  0.739570  0.250000  0.558900  1.0  -0.7417
  O  O638  1  0.760430  0.750000  0.058900  1.0  -0.7411
  O  O639  1  0.000000  0.510430  0.191100  1.0  -0.7463
  O  O640  1  0.500000  0.010430  0.691100  1.0  -0.7463
  O  O641  1  0.500000  0.489570  0.691100  1.0  -0.7444
  O  O642  1  0.000000  0.989570  0.191100  1.0  -0.7444
  O  O643  1  0.760430  0.250000  0.941100  1.0  -0.7408
  O  O644  1  0.739570  0.750000  0.441100  1.0  -0.7417
  O  O645  1  0.260430  0.750000  0.441100  1.0  -0.7408
  O  O646  1  0.239570  0.250000  0.941100  1.0  -0.7417
  O  O647  1  0.239570  0.750000  0.058900  1.0  -0.7417
  O  O648  1  0.260430  0.250000  0.558900  1.0  -0.7411
  F  F649  1  0.242650  0.492650  0.375000  1.0  -0.5788
  F  F650  1  0.257350  0.507350  0.875000  1.0  -0.5787
  F  F651  1  0.757350  0.992650  0.625000  1.0  -0.5783
  F  F652  1  0.742650  0.007350  0.125000  1.0  -0.5793
  F  F653  1  0.257350  0.492650  0.125000  1.0  -0.5783
  F  F654  1  0.242650  0.507350  0.625000  1.0  -0.5793
  F  F655  1  0.742650  0.992650  0.875000  1.0  -0.5788
  F  F656  1  0.757350  0.007350  0.375000  1.0  -0.5787
  F  F657  1  0.757350  0.507350  0.625000  1.0  -0.5787
  F  F658  1  0.742650  0.492650  0.125000  1.0  -0.5788
  F  F659  1  0.242650  0.992650  0.625000  1.0  -0.5788
  F  F660  1  0.242650  0.007350  0.375000  1.0  -0.5793
  F  F661  1  0.257350  0.992650  0.875000  1.0  -0.5783
  F  F662  1  0.742650  0.507350  0.875000  1.0  -0.5793
  F  F663  1  0.757350  0.492650  0.375000  1.0  -0.5783
  F  F664  1  0.257350  0.007350  0.125000  1.0  -0.5787
