# generated using pymatgen
data_Zn9Ga2P14H14(O21F)2
_symmetry_space_group_name_H-M   'P 1'
_cell_length_a   48.39310000
_cell_length_b   48.39310000
_cell_length_c   9.99980000
_cell_angle_alpha   90.00000000
_cell_angle_beta   90.00000000
_cell_angle_gamma   90.00000000
_symmetry_Int_Tables_number   1
_chemical_formula_structural   Zn9Ga2P14H14(O21F)2
_chemical_formula_sum   'Zn72 Ga16 P112 H112 O336 F16'
_cell_volume   23418.45289767
_cell_formula_units_Z   8
loop_
 _symmetry_equiv_pos_site_id
 _symmetry_equiv_pos_as_xyz
  1  'x, y, z'
loop_
 _atom_site_type_symbol
 _atom_site_label
 _atom_site_symmetry_multiplicity
 _atom_site_fract_x
 _atom_site_fract_y
 _atom_site_fract_z
 _atom_site_occupancy
 _atom_site_charge
  Zn  Zn1  1  0.374910  0.482060  0.327510  1.0  1.124
  Zn  Zn2  1  0.438700  0.522120  0.170140  1.0  1.1408
  Zn  Zn3  1  0.874910  0.982060  0.827510  1.0  1.124
  Zn  Zn4  1  0.938700  0.022120  0.670140  1.0  1.1408
  Zn  Zn5  1  0.125090  0.517940  0.827510  1.0  1.1234
  Zn  Zn6  1  0.061300  0.477880  0.670140  1.0  1.141
  Zn  Zn7  1  0.625090  0.017940  0.327510  1.0  1.1234
  Zn  Zn8  1  0.561300  0.977880  0.170140  1.0  1.141
  Zn  Zn9  1  0.767940  0.124910  0.577510  1.0  1.1236
  Zn  Zn10  1  0.727880  0.188700  0.420140  1.0  1.1404
  Zn  Zn11  1  0.267940  0.624910  0.077510  1.0  1.1236
  Zn  Zn12  1  0.227880  0.688700  0.920140  1.0  1.1404
  Zn  Zn13  1  0.732060  0.875090  0.077510  1.0  1.1233
  Zn  Zn14  1  0.772120  0.811300  0.920140  1.0  1.1401
  Zn  Zn15  1  0.232060  0.375090  0.577510  1.0  1.1233
  Zn  Zn16  1  0.272120  0.311300  0.420140  1.0  1.1401
  Zn  Zn17  1  0.125090  0.482060  0.172490  1.0  1.1244
  Zn  Zn18  1  0.061300  0.522120  0.329860  1.0  1.1411
  Zn  Zn19  1  0.625090  0.982060  0.672490  1.0  1.1244
  Zn  Zn20  1  0.561300  0.022120  0.829860  1.0  1.1411
  Zn  Zn21  1  0.374910  0.517940  0.672490  1.0  1.1249
  Zn  Zn22  1  0.438700  0.477880  0.829860  1.0  1.1409
  Zn  Zn23  1  0.874910  0.017940  0.172490  1.0  1.1249
  Zn  Zn24  1  0.938700  0.977880  0.329860  1.0  1.1409
  Zn  Zn25  1  0.732060  0.124910  0.922490  1.0  1.1237
  Zn  Zn26  1  0.772120  0.188700  0.079860  1.0  1.1402
  Zn  Zn27  1  0.232060  0.624910  0.422490  1.0  1.1237
  Zn  Zn28  1  0.272120  0.688700  0.579860  1.0  1.1402
  Zn  Zn29  1  0.767940  0.875090  0.422490  1.0  1.124
  Zn  Zn30  1  0.727880  0.811300  0.579860  1.0  1.1407
  Zn  Zn31  1  0.267940  0.375090  0.922490  1.0  1.124
  Zn  Zn32  1  0.227880  0.311300  0.079860  1.0  1.1407
  Zn  Zn33  1  0.625090  0.517940  0.672490  1.0  1.1231
  Zn  Zn34  1  0.561300  0.477880  0.829860  1.0  1.1411
  Zn  Zn35  1  0.125090  0.017940  0.172490  1.0  1.1231
  Zn  Zn36  1  0.061300  0.977880  0.329860  1.0  1.1411
  Zn  Zn37  1  0.874910  0.482060  0.172490  1.0  1.1239
  Zn  Zn38  1  0.938700  0.522120  0.329860  1.0  1.1409
  Zn  Zn39  1  0.374910  0.982060  0.672490  1.0  1.1239
  Zn  Zn40  1  0.438700  0.022120  0.829860  1.0  1.1409
  Zn  Zn41  1  0.232060  0.875090  0.422490  1.0  1.1231
  Zn  Zn42  1  0.272120  0.811300  0.579860  1.0  1.1402
  Zn  Zn43  1  0.732060  0.375090  0.922490  1.0  1.1231
  Zn  Zn44  1  0.772120  0.311300  0.079860  1.0  1.1402
  Zn  Zn45  1  0.267940  0.124910  0.922490  1.0  1.1233
  Zn  Zn46  1  0.227880  0.188700  0.079860  1.0  1.1407
  Zn  Zn47  1  0.767940  0.624910  0.422490  1.0  1.1233
  Zn  Zn48  1  0.727880  0.688700  0.579860  1.0  1.1407
  Zn  Zn49  1  0.874910  0.517940  0.827510  1.0  1.1252
  Zn  Zn50  1  0.938700  0.477880  0.670140  1.0  1.1408
  Zn  Zn51  1  0.374910  0.017940  0.327510  1.0  1.1252
  Zn  Zn52  1  0.438700  0.977880  0.170140  1.0  1.1408
  Zn  Zn53  1  0.625090  0.482060  0.327510  1.0  1.1245
  Zn  Zn54  1  0.561300  0.522120  0.170140  1.0  1.1408
  Zn  Zn55  1  0.125090  0.982060  0.827510  1.0  1.1245
  Zn  Zn56  1  0.061300  0.022120  0.670140  1.0  1.1408
  Zn  Zn57  1  0.267940  0.875090  0.077510  1.0  1.1244
  Zn  Zn58  1  0.227880  0.811300  0.920140  1.0  1.1406
  Zn  Zn59  1  0.767940  0.375090  0.577510  1.0  1.1244
  Zn  Zn60  1  0.727880  0.311300  0.420140  1.0  1.1406
  Zn  Zn61  1  0.232060  0.124910  0.577510  1.0  1.1238
  Zn  Zn62  1  0.272120  0.188700  0.420140  1.0  1.1399
  Zn  Zn63  1  0.732060  0.624910  0.077510  1.0  1.1238
  Zn  Zn64  1  0.772120  0.688700  0.920140  1.0  1.1399
  Zn  Zn65  1  0.500000  0.500000  0.500000  1.0  0.9385
  Zn  Zn66  1  0.000000  0.000000  0.000000  1.0  0.9385
  Zn  Zn67  1  0.000000  0.500000  0.000000  1.0  0.9385
  Zn  Zn68  1  0.500000  0.000000  0.500000  1.0  0.9385
  Zn  Zn69  1  0.750000  0.250000  0.750000  1.0  0.9385
  Zn  Zn70  1  0.750000  0.750000  0.250000  1.0  0.9385
  Zn  Zn71  1  0.250000  0.750000  0.250000  1.0  0.9385
  Zn  Zn72  1  0.250000  0.250000  0.750000  1.0  0.9385
  Ga  Ga73  1  0.250000  0.462900  0.250000  1.0  1.5604
  Ga  Ga74  1  0.750000  0.962900  0.750000  1.0  1.5604
  Ga  Ga75  1  0.250000  0.537100  0.750000  1.0  1.5602
  Ga  Ga76  1  0.750000  0.037100  0.250000  1.0  1.5602
  Ga  Ga77  1  0.787100  0.000000  0.500000  1.0  1.5628
  Ga  Ga78  1  0.287100  0.500000  0.000000  1.0  1.5628
  Ga  Ga79  1  0.712900  0.000000  0.000000  1.0  1.5632
  Ga  Ga80  1  0.212900  0.500000  0.500000  1.0  1.5632
  Ga  Ga81  1  0.750000  0.537100  0.750000  1.0  1.5602
  Ga  Ga82  1  0.250000  0.037100  0.250000  1.0  1.5602
  Ga  Ga83  1  0.750000  0.462900  0.250000  1.0  1.5604
  Ga  Ga84  1  0.250000  0.962900  0.750000  1.0  1.5604
  Ga  Ga85  1  0.212900  0.000000  0.500000  1.0  1.5632
  Ga  Ga86  1  0.712900  0.500000  0.000000  1.0  1.5632
  Ga  Ga87  1  0.287100  0.000000  0.000000  1.0  1.5628
  Ga  Ga88  1  0.787100  0.500000  0.500000  1.0  1.5628
  P  P89  1  0.310860  0.484330  0.281880  1.0  1.5262
  P  P90  1  0.400390  0.539130  0.398990  1.0  1.5455
  P  P91  1  0.415950  0.537550  0.890330  1.0  1.4953
  P  P92  1  0.810860  0.984330  0.781880  1.0  1.5262
  P  P93  1  0.900390  0.039130  0.898990  1.0  1.5455
  P  P94  1  0.915950  0.037550  0.390330  1.0  1.4953
  P  P95  1  0.189140  0.515670  0.781880  1.0  1.5265
  P  P96  1  0.099610  0.460870  0.898990  1.0  1.5447
  P  P97  1  0.084050  0.462450  0.390330  1.0  1.4975
  P  P98  1  0.689140  0.015670  0.281880  1.0  1.5265
  P  P99  1  0.599610  0.960870  0.398990  1.0  1.5447
  P  P100  1  0.584050  0.962450  0.890330  1.0  1.4975
  P  P101  1  0.765670  0.060860  0.531880  1.0  1.5282
  P  P102  1  0.710870  0.150390  0.648990  1.0  1.5459
  P  P103  1  0.712450  0.165950  0.140330  1.0  1.4936
  P  P104  1  0.265670  0.560860  0.031880  1.0  1.5282
  P  P105  1  0.210870  0.650390  0.148990  1.0  1.5459
  P  P106  1  0.212450  0.665950  0.640330  1.0  1.4936
  P  P107  1  0.734330  0.939140  0.031880  1.0  1.5275
  P  P108  1  0.789130  0.849610  0.148990  1.0  1.5444
  P  P109  1  0.787550  0.834050  0.640330  1.0  1.4922
  P  P110  1  0.234330  0.439140  0.531880  1.0  1.5275
  P  P111  1  0.289130  0.349610  0.648990  1.0  1.5444
  P  P112  1  0.287550  0.334050  0.140330  1.0  1.4922
  P  P113  1  0.189140  0.484330  0.218120  1.0  1.5258
  P  P114  1  0.099610  0.539130  0.101010  1.0  1.5449
  P  P115  1  0.084050  0.537550  0.609670  1.0  1.4942
  P  P116  1  0.689140  0.984330  0.718120  1.0  1.5258
  P  P117  1  0.599610  0.039130  0.601010  1.0  1.5449
  P  P118  1  0.584050  0.037550  0.109670  1.0  1.4942
  P  P119  1  0.310860  0.515670  0.718120  1.0  1.5273
  P  P120  1  0.400390  0.460870  0.601010  1.0  1.5441
  P  P121  1  0.415950  0.462450  0.109670  1.0  1.4959
  P  P122  1  0.810860  0.015670  0.218120  1.0  1.5273
  P  P123  1  0.900390  0.960870  0.101010  1.0  1.5441
  P  P124  1  0.915950  0.962450  0.609670  1.0  1.4959
  P  P125  1  0.734330  0.060860  0.968120  1.0  1.5289
  P  P126  1  0.789130  0.150390  0.851010  1.0  1.5438
  P  P127  1  0.787550  0.165950  0.359670  1.0  1.4915
  P  P128  1  0.234330  0.560860  0.468120  1.0  1.5289
  P  P129  1  0.289130  0.650390  0.351010  1.0  1.5438
  P  P130  1  0.287550  0.665950  0.859670  1.0  1.4915
  P  P131  1  0.765670  0.939140  0.468120  1.0  1.5273
  P  P132  1  0.710870  0.849610  0.351010  1.0  1.5452
  P  P133  1  0.712450  0.834050  0.859670  1.0  1.4921
  P  P134  1  0.265670  0.439140  0.968120  1.0  1.5273
  P  P135  1  0.210870  0.349610  0.851010  1.0  1.5452
  P  P136  1  0.212450  0.334050  0.359670  1.0  1.4921
  P  P137  1  0.689140  0.515670  0.718120  1.0  1.5268
  P  P138  1  0.599610  0.460870  0.601010  1.0  1.544
  P  P139  1  0.584050  0.462450  0.109670  1.0  1.4964
  P  P140  1  0.189140  0.015670  0.218120  1.0  1.5268
  P  P141  1  0.099610  0.960870  0.101010  1.0  1.544
  P  P142  1  0.084050  0.962450  0.609670  1.0  1.4964
  P  P143  1  0.810860  0.484330  0.218120  1.0  1.5266
  P  P144  1  0.900390  0.539130  0.101010  1.0  1.545
  P  P145  1  0.915950  0.537550  0.609670  1.0  1.4948
  P  P146  1  0.310860  0.984330  0.718120  1.0  1.5266
  P  P147  1  0.400390  0.039130  0.601010  1.0  1.545
  P  P148  1  0.415950  0.037550  0.109670  1.0  1.4948
  P  P149  1  0.234330  0.939140  0.468120  1.0  1.5276
  P  P150  1  0.289130  0.849610  0.351010  1.0  1.5438
  P  P151  1  0.287550  0.834050  0.859670  1.0  1.4918
  P  P152  1  0.734330  0.439140  0.968120  1.0  1.5276
  P  P153  1  0.789130  0.349610  0.851010  1.0  1.5438
  P  P154  1  0.787550  0.334050  0.359670  1.0  1.4918
  P  P155  1  0.265670  0.060860  0.968120  1.0  1.5285
  P  P156  1  0.210870  0.150390  0.851010  1.0  1.5453
  P  P157  1  0.212450  0.165950  0.359670  1.0  1.4927
  P  P158  1  0.765670  0.560860  0.468120  1.0  1.5285
  P  P159  1  0.710870  0.650390  0.351010  1.0  1.5453
  P  P160  1  0.712450  0.665950  0.859670  1.0  1.4927
  P  P161  1  0.810860  0.515670  0.781880  1.0  1.5269
  P  P162  1  0.900390  0.460870  0.898990  1.0  1.5448
  P  P163  1  0.915950  0.462450  0.390330  1.0  1.497
  P  P164  1  0.310860  0.015670  0.281880  1.0  1.5269
  P  P165  1  0.400390  0.960870  0.398990  1.0  1.5448
  P  P166  1  0.415950  0.962450  0.890330  1.0  1.497
  P  P167  1  0.689140  0.484330  0.281880  1.0  1.5256
  P  P168  1  0.599610  0.539130  0.398990  1.0  1.5455
  P  P169  1  0.584050  0.537550  0.890330  1.0  1.4947
  P  P170  1  0.189140  0.984330  0.781880  1.0  1.5256
  P  P171  1  0.099610  0.039130  0.898990  1.0  1.5455
  P  P172  1  0.084050  0.037550  0.390330  1.0  1.4947
  P  P173  1  0.265670  0.939140  0.031880  1.0  1.5271
  P  P174  1  0.210870  0.849610  0.148990  1.0  1.5458
  P  P175  1  0.212450  0.834050  0.640330  1.0  1.4931
  P  P176  1  0.765670  0.439140  0.531880  1.0  1.5271
  P  P177  1  0.710870  0.349610  0.648990  1.0  1.5458
  P  P178  1  0.712450  0.334050  0.140330  1.0  1.4931
  P  P179  1  0.234330  0.060860  0.531880  1.0  1.5286
  P  P180  1  0.289130  0.150390  0.648990  1.0  1.5445
  P  P181  1  0.287550  0.165950  0.140330  1.0  1.4917
  P  P182  1  0.734330  0.560860  0.031880  1.0  1.5286
  P  P183  1  0.789130  0.650390  0.148990  1.0  1.5445
  P  P184  1  0.787550  0.665950  0.640330  1.0  1.4917
  P  P185  1  0.500000  0.534790  0.215150  1.0  1.4654
  P  P186  1  0.000000  0.034790  0.715150  1.0  1.4654
  P  P187  1  0.000000  0.465210  0.715150  1.0  1.4687
  P  P188  1  0.500000  0.965210  0.215150  1.0  1.4687
  P  P189  1  0.715210  0.250000  0.465150  1.0  1.4661
  P  P190  1  0.784790  0.750000  0.965150  1.0  1.4653
  P  P191  1  0.000000  0.534790  0.284850  1.0  1.4667
  P  P192  1  0.500000  0.034790  0.784850  1.0  1.4667
  P  P193  1  0.500000  0.465210  0.784850  1.0  1.47
  P  P194  1  0.000000  0.965210  0.284850  1.0  1.47
  P  P195  1  0.784790  0.250000  0.034850  1.0  1.4668
  P  P196  1  0.715210  0.750000  0.534850  1.0  1.4674
  P  P197  1  0.284790  0.750000  0.534850  1.0  1.4668
  P  P198  1  0.215210  0.250000  0.034850  1.0  1.4674
  P  P199  1  0.215210  0.750000  0.965150  1.0  1.4661
  P  P200  1  0.284790  0.250000  0.465150  1.0  1.4653
  H  H201  1  0.299900  0.509600  0.373200  1.0  -0.0706
  H  H202  1  0.391900  0.567900  0.374700  1.0  -0.026
  H  H203  1  0.421300  0.561100  0.821300  1.0  -0.0431
  H  H204  1  0.799900  0.009600  0.873200  1.0  -0.0706
  H  H205  1  0.891900  0.067900  0.874700  1.0  -0.026
  H  H206  1  0.921300  0.061100  0.321300  1.0  -0.0431
  H  H207  1  0.200100  0.490400  0.873200  1.0  -0.0696
  H  H208  1  0.108100  0.432100  0.874700  1.0  -0.0268
  H  H209  1  0.078700  0.438900  0.321300  1.0  -0.0421
  H  H210  1  0.700100  0.990400  0.373200  1.0  -0.0696
  H  H211  1  0.608100  0.932100  0.374700  1.0  -0.0268
  H  H212  1  0.578700  0.938900  0.821300  1.0  -0.0421
  H  H213  1  0.740400  0.049900  0.623200  1.0  -0.0682
  H  H214  1  0.682100  0.141900  0.624700  1.0  -0.024
  H  H215  1  0.688900  0.171300  0.071300  1.0  -0.0409
  H  H216  1  0.240400  0.549900  0.123200  1.0  -0.0682
  H  H217  1  0.182100  0.641900  0.124700  1.0  -0.024
  H  H218  1  0.188900  0.671300  0.571300  1.0  -0.0409
  H  H219  1  0.759600  0.950100  0.123200  1.0  -0.0679
  H  H220  1  0.817900  0.858100  0.124700  1.0  -0.0259
  H  H221  1  0.811100  0.828700  0.571300  1.0  -0.04
  H  H222  1  0.259600  0.450100  0.623200  1.0  -0.0679
  H  H223  1  0.317900  0.358100  0.624700  1.0  -0.0259
  H  H224  1  0.311100  0.328700  0.071300  1.0  -0.04
  H  H225  1  0.200100  0.509600  0.126800  1.0  -0.0688
  H  H226  1  0.108100  0.567900  0.125300  1.0  -0.0268
  H  H227  1  0.078700  0.561100  0.678700  1.0  -0.0432
  H  H228  1  0.700100  0.009600  0.626800  1.0  -0.0688
  H  H229  1  0.608100  0.067900  0.625300  1.0  -0.0268
  H  H230  1  0.578700  0.061100  0.178700  1.0  -0.0432
  H  H231  1  0.299900  0.490400  0.626800  1.0  -0.0701
  H  H232  1  0.391900  0.432100  0.625300  1.0  -0.0279
  H  H233  1  0.421300  0.438900  0.178700  1.0  -0.0422
  H  H234  1  0.799900  0.990400  0.126800  1.0  -0.0701
  H  H235  1  0.891900  0.932100  0.125300  1.0  -0.0279
  H  H236  1  0.921300  0.938900  0.678700  1.0  -0.0422
  H  H237  1  0.759600  0.049900  0.876800  1.0  -0.0669
  H  H238  1  0.817900  0.141900  0.875300  1.0  -0.027
  H  H239  1  0.811100  0.171300  0.428700  1.0  -0.0404
  H  H240  1  0.259600  0.549900  0.376800  1.0  -0.0669
  H  H241  1  0.317900  0.641900  0.375300  1.0  -0.027
  H  H242  1  0.311100  0.671300  0.928700  1.0  -0.0404
  H  H243  1  0.740400  0.950100  0.376800  1.0  -0.0666
  H  H244  1  0.682100  0.858100  0.375300  1.0  -0.0244
  H  H245  1  0.688900  0.828700  0.928700  1.0  -0.0413
  H  H246  1  0.240400  0.450100  0.876800  1.0  -0.0666
  H  H247  1  0.182100  0.358100  0.875300  1.0  -0.0244
  H  H248  1  0.188900  0.328700  0.428700  1.0  -0.0413
  H  H249  1  0.700100  0.490400  0.626800  1.0  -0.0684
  H  H250  1  0.608100  0.432100  0.625300  1.0  -0.0277
  H  H251  1  0.578700  0.438900  0.178700  1.0  -0.0432
  H  H252  1  0.200100  0.990400  0.126800  1.0  -0.0684
  H  H253  1  0.108100  0.932100  0.125300  1.0  -0.0277
  H  H254  1  0.078700  0.938900  0.678700  1.0  -0.0432
  H  H255  1  0.799900  0.509600  0.126800  1.0  -0.0699
  H  H256  1  0.891900  0.567900  0.125300  1.0  -0.0268
  H  H257  1  0.921300  0.561100  0.678700  1.0  -0.0428
  H  H258  1  0.299900  0.009600  0.626800  1.0  -0.0699
  H  H259  1  0.391900  0.067900  0.625300  1.0  -0.0268
  H  H260  1  0.421300  0.061100  0.178700  1.0  -0.0428
  H  H261  1  0.259600  0.950100  0.376800  1.0  -0.0672
  H  H262  1  0.317900  0.858100  0.375300  1.0  -0.0264
  H  H263  1  0.311100  0.828700  0.928700  1.0  -0.0407
  H  H264  1  0.759600  0.450100  0.876800  1.0  -0.0672
  H  H265  1  0.817900  0.358100  0.875300  1.0  -0.0264
  H  H266  1  0.811100  0.328700  0.428700  1.0  -0.0407
  H  H267  1  0.240400  0.049900  0.876800  1.0  -0.0671
  H  H268  1  0.182100  0.141900  0.875300  1.0  -0.0245
  H  H269  1  0.188900  0.171300  0.428700  1.0  -0.0411
  H  H270  1  0.740400  0.549900  0.376800  1.0  -0.0671
  H  H271  1  0.682100  0.641900  0.375300  1.0  -0.0245
  H  H272  1  0.688900  0.671300  0.928700  1.0  -0.0411
  H  H273  1  0.799900  0.490400  0.873200  1.0  -0.0711
  H  H274  1  0.891900  0.432100  0.874700  1.0  -0.027
  H  H275  1  0.921300  0.438900  0.321300  1.0  -0.0411
  H  H276  1  0.299900  0.990400  0.373200  1.0  -0.0711
  H  H277  1  0.391900  0.932100  0.374700  1.0  -0.027
  H  H278  1  0.421300  0.938900  0.821300  1.0  -0.0411
  H  H279  1  0.700100  0.509600  0.373200  1.0  -0.0701
  H  H280  1  0.608100  0.567900  0.374700  1.0  -0.0258
  H  H281  1  0.578700  0.561100  0.821300  1.0  -0.0438
  H  H282  1  0.200100  0.009600  0.873200  1.0  -0.0701
  H  H283  1  0.108100  0.067900  0.874700  1.0  -0.0258
  H  H284  1  0.078700  0.061100  0.321300  1.0  -0.0438
  H  H285  1  0.240400  0.950100  0.123200  1.0  -0.0678
  H  H286  1  0.182100  0.858100  0.124700  1.0  -0.0239
  H  H287  1  0.188900  0.828700  0.571300  1.0  -0.0415
  H  H288  1  0.740400  0.450100  0.623200  1.0  -0.0678
  H  H289  1  0.682100  0.358100  0.624700  1.0  -0.0239
  H  H290  1  0.688900  0.328700  0.071300  1.0  -0.0415
  H  H291  1  0.259600  0.049900  0.623200  1.0  -0.068
  H  H292  1  0.317900  0.141900  0.624700  1.0  -0.0264
  H  H293  1  0.311100  0.171300  0.071300  1.0  -0.0394
  H  H294  1  0.759600  0.549900  0.123200  1.0  -0.068
  H  H295  1  0.817900  0.641900  0.124700  1.0  -0.0264
  H  H296  1  0.811100  0.671300  0.571300  1.0  -0.0394
  H  H297  1  0.500000  0.557700  0.288100  1.0  -0.0557
  H  H298  1  0.000000  0.057700  0.788100  1.0  -0.0553
  H  H299  1  0.000000  0.442300  0.788100  1.0  -0.0525
  H  H300  1  0.500000  0.942300  0.288100  1.0  -0.0534
  H  H301  1  0.692300  0.250000  0.538100  1.0  -0.0549
  H  H302  1  0.807700  0.750000  0.038100  1.0  -0.0462
  H  H303  1  0.000000  0.557700  0.211900  1.0  -0.0565
  H  H304  1  0.500000  0.057700  0.711900  1.0  -0.0569
  H  H305  1  0.500000  0.442300  0.711900  1.0  -0.0559
  H  H306  1  0.000000  0.942300  0.211900  1.0  -0.0552
  H  H307  1  0.807700  0.250000  0.961900  1.0  -0.0472
  H  H308  1  0.692300  0.750000  0.461900  1.0  -0.0571
  H  H309  1  0.307700  0.750000  0.461900  1.0  -0.0547
  H  H310  1  0.192300  0.250000  0.961900  1.0  -0.0496
  H  H311  1  0.192300  0.750000  0.038100  1.0  -0.0476
  H  H312  1  0.307700  0.250000  0.538100  1.0  -0.0536
  O  O313  1  0.288320  0.462710  0.298300  1.0  -0.7875
  O  O314  1  0.315350  0.493290  0.136300  1.0  -0.7813
  O  O315  1  0.336960  0.473370  0.344100  1.0  -0.7929
  O  O316  1  0.429740  0.534560  0.349400  1.0  -0.7773
  O  O317  1  0.379410  0.522210  0.321400  1.0  -0.7617
  O  O318  1  0.399280  0.535490  0.547800  1.0  -0.8248
  O  O319  1  0.475140  0.535220  0.126500  1.0  -0.7314
  O  O320  1  0.386970  0.531560  0.844800  1.0  -0.763
  O  O321  1  0.415890  0.539490  0.039700  1.0  -0.7604
  O  O322  1  0.437870  0.518280  0.833200  1.0  -0.7685
  O  O323  1  0.788320  0.962710  0.798300  1.0  -0.7875
  O  O324  1  0.815350  0.993290  0.636300  1.0  -0.7813
  O  O325  1  0.836960  0.973370  0.844100  1.0  -0.7929
  O  O326  1  0.929740  0.034560  0.849400  1.0  -0.7773
  O  O327  1  0.879410  0.022210  0.821400  1.0  -0.7617
  O  O328  1  0.899280  0.035490  0.047800  1.0  -0.8248
  O  O329  1  0.975140  0.035220  0.626500  1.0  -0.7314
  O  O330  1  0.886970  0.031560  0.344800  1.0  -0.763
  O  O331  1  0.915890  0.039490  0.539700  1.0  -0.7604
  O  O332  1  0.937870  0.018280  0.333200  1.0  -0.7685
  O  O333  1  0.211680  0.537290  0.798300  1.0  -0.7875
  O  O334  1  0.184650  0.506710  0.636300  1.0  -0.7818
  O  O335  1  0.163040  0.526630  0.844100  1.0  -0.7946
  O  O336  1  0.070260  0.465440  0.849400  1.0  -0.7767
  O  O337  1  0.120590  0.477790  0.821400  1.0  -0.7611
  O  O338  1  0.100720  0.464510  0.047800  1.0  -0.8263
  O  O339  1  0.024860  0.464780  0.626500  1.0  -0.7336
  O  O340  1  0.113030  0.468440  0.344800  1.0  -0.763
  O  O341  1  0.084110  0.460510  0.539700  1.0  -0.7612
  O  O342  1  0.062130  0.481720  0.333200  1.0  -0.7679
  O  O343  1  0.711680  0.037290  0.298300  1.0  -0.7875
  O  O344  1  0.684650  0.006710  0.136300  1.0  -0.7818
  O  O345  1  0.663040  0.026630  0.344100  1.0  -0.7946
  O  O346  1  0.570260  0.965440  0.349400  1.0  -0.7767
  O  O347  1  0.620590  0.977790  0.321400  1.0  -0.7611
  O  O348  1  0.600720  0.964510  0.547800  1.0  -0.8263
  O  O349  1  0.524860  0.964780  0.126500  1.0  -0.7336
  O  O350  1  0.613030  0.968440  0.844800  1.0  -0.763
  O  O351  1  0.584110  0.960510  0.039700  1.0  -0.7612
  O  O352  1  0.562130  0.981720  0.833200  1.0  -0.7679
  O  O353  1  0.787290  0.038320  0.548300  1.0  -0.789
  O  O354  1  0.756710  0.065350  0.386300  1.0  -0.7849
  O  O355  1  0.776630  0.086960  0.594100  1.0  -0.7931
  O  O356  1  0.715440  0.179740  0.599400  1.0  -0.7791
  O  O357  1  0.727790  0.129410  0.571400  1.0  -0.7635
  O  O358  1  0.714510  0.149280  0.797800  1.0  -0.8224
  O  O359  1  0.714780  0.225140  0.376500  1.0  -0.734
  O  O360  1  0.718440  0.136970  0.094800  1.0  -0.764
  O  O361  1  0.710510  0.165890  0.289700  1.0  -0.7596
  O  O362  1  0.731720  0.187870  0.083200  1.0  -0.7711
  O  O363  1  0.287290  0.538320  0.048300  1.0  -0.789
  O  O364  1  0.256710  0.565350  0.886300  1.0  -0.7849
  O  O365  1  0.276630  0.586960  0.094100  1.0  -0.7931
  O  O366  1  0.215440  0.679740  0.099400  1.0  -0.7791
  O  O367  1  0.227790  0.629410  0.071400  1.0  -0.7635
  O  O368  1  0.214510  0.649280  0.297800  1.0  -0.8224
  O  O369  1  0.214780  0.725140  0.876500  1.0  -0.734
  O  O370  1  0.218440  0.636970  0.594800  1.0  -0.764
  O  O371  1  0.210510  0.665890  0.789700  1.0  -0.7596
  O  O372  1  0.231720  0.687870  0.583200  1.0  -0.7711
  O  O373  1  0.712710  0.961680  0.048300  1.0  -0.7862
  O  O374  1  0.743290  0.934650  0.886300  1.0  -0.7841
  O  O375  1  0.723370  0.913040  0.094100  1.0  -0.7922
  O  O376  1  0.784560  0.820260  0.099400  1.0  -0.7788
  O  O377  1  0.772210  0.870590  0.071400  1.0  -0.7631
  O  O378  1  0.785490  0.850720  0.297800  1.0  -0.8218
  O  O379  1  0.785220  0.774860  0.876500  1.0  -0.7331
  O  O380  1  0.781560  0.863030  0.594800  1.0  -0.7652
  O  O381  1  0.789490  0.834110  0.789700  1.0  -0.7586
  O  O382  1  0.768280  0.812130  0.583200  1.0  -0.7698
  O  O383  1  0.212710  0.461680  0.548300  1.0  -0.7862
  O  O384  1  0.243290  0.434650  0.386300  1.0  -0.7841
  O  O385  1  0.223370  0.413040  0.594100  1.0  -0.7922
  O  O386  1  0.284560  0.320260  0.599400  1.0  -0.7788
  O  O387  1  0.272210  0.370590  0.571400  1.0  -0.7631
  O  O388  1  0.285490  0.350720  0.797800  1.0  -0.8218
  O  O389  1  0.285220  0.274860  0.376500  1.0  -0.7331
  O  O390  1  0.281560  0.363030  0.094800  1.0  -0.7652
  O  O391  1  0.289490  0.334110  0.289700  1.0  -0.7586
  O  O392  1  0.268280  0.312130  0.083200  1.0  -0.7698
  O  O393  1  0.211680  0.462710  0.201700  1.0  -0.7876
  O  O394  1  0.184650  0.493290  0.363700  1.0  -0.7805
  O  O395  1  0.163040  0.473370  0.155900  1.0  -0.7931
  O  O396  1  0.070260  0.534560  0.150600  1.0  -0.7783
  O  O397  1  0.120590  0.522210  0.178600  1.0  -0.7624
  O  O398  1  0.100720  0.535490  0.952200  1.0  -0.8247
  O  O399  1  0.024860  0.535220  0.373500  1.0  -0.7327
  O  O400  1  0.113030  0.531560  0.655200  1.0  -0.763
  O  O401  1  0.084110  0.539490  0.460300  1.0  -0.76
  O  O402  1  0.062130  0.518280  0.666800  1.0  -0.7666
  O  O403  1  0.711680  0.962710  0.701700  1.0  -0.7876
  O  O404  1  0.684650  0.993290  0.863700  1.0  -0.7805
  O  O405  1  0.663040  0.973370  0.655900  1.0  -0.7931
  O  O406  1  0.570260  0.034560  0.650600  1.0  -0.7783
  O  O407  1  0.620590  0.022210  0.678600  1.0  -0.7624
  O  O408  1  0.600720  0.035490  0.452200  1.0  -0.8247
  O  O409  1  0.524860  0.035220  0.873500  1.0  -0.7327
  O  O410  1  0.613030  0.031560  0.155200  1.0  -0.763
  O  O411  1  0.584110  0.039490  0.960300  1.0  -0.76
  O  O412  1  0.562130  0.018280  0.166800  1.0  -0.7666
  O  O413  1  0.288320  0.537290  0.701700  1.0  -0.7872
  O  O414  1  0.315350  0.506710  0.863700  1.0  -0.7809
  O  O415  1  0.336960  0.526630  0.655900  1.0  -0.7929
  O  O416  1  0.429740  0.465440  0.650600  1.0  -0.7779
  O  O417  1  0.379410  0.477790  0.678600  1.0  -0.76
  O  O418  1  0.399280  0.464510  0.452200  1.0  -0.8262
  O  O419  1  0.475140  0.464780  0.873500  1.0  -0.7333
  O  O420  1  0.386970  0.468440  0.155200  1.0  -0.7634
  O  O421  1  0.415890  0.460510  0.960300  1.0  -0.7608
  O  O422  1  0.437870  0.481720  0.166800  1.0  -0.7676
  O  O423  1  0.788320  0.037290  0.201700  1.0  -0.7872
  O  O424  1  0.815350  0.006710  0.363700  1.0  -0.7809
  O  O425  1  0.836960  0.026630  0.155900  1.0  -0.7929
  O  O426  1  0.929740  0.965440  0.150600  1.0  -0.7779
  O  O427  1  0.879410  0.977790  0.178600  1.0  -0.76
  O  O428  1  0.899280  0.964510  0.952200  1.0  -0.8262
  O  O429  1  0.975140  0.964780  0.373500  1.0  -0.7333
  O  O430  1  0.886970  0.968440  0.655200  1.0  -0.7634
  O  O431  1  0.915890  0.960510  0.460300  1.0  -0.7608
  O  O432  1  0.937870  0.981720  0.666800  1.0  -0.7676
  O  O433  1  0.712710  0.038320  0.951700  1.0  -0.7873
  O  O434  1  0.743290  0.065350  0.113700  1.0  -0.7821
  O  O435  1  0.723370  0.086960  0.905900  1.0  -0.7925
  O  O436  1  0.784560  0.179740  0.900600  1.0  -0.7788
  O  O437  1  0.772210  0.129410  0.928600  1.0  -0.7626
  O  O438  1  0.785490  0.149280  0.702200  1.0  -0.8201
  O  O439  1  0.785220  0.225140  0.123500  1.0  -0.7338
  O  O440  1  0.781560  0.136970  0.405200  1.0  -0.7638
  O  O441  1  0.789490  0.165890  0.210300  1.0  -0.7582
  O  O442  1  0.768280  0.187870  0.416800  1.0  -0.7681
  O  O443  1  0.212710  0.538320  0.451700  1.0  -0.7873
  O  O444  1  0.243290  0.565350  0.613700  1.0  -0.7821
  O  O445  1  0.223370  0.586960  0.405900  1.0  -0.7925
  O  O446  1  0.284560  0.679740  0.400600  1.0  -0.7788
  O  O447  1  0.272210  0.629410  0.428600  1.0  -0.7626
  O  O448  1  0.285490  0.649280  0.202200  1.0  -0.8201
  O  O449  1  0.285220  0.725140  0.623500  1.0  -0.7338
  O  O450  1  0.281560  0.636970  0.905200  1.0  -0.7638
  O  O451  1  0.289490  0.665890  0.710300  1.0  -0.7582
  O  O452  1  0.268280  0.687870  0.916800  1.0  -0.7681
  O  O453  1  0.787290  0.961680  0.451700  1.0  -0.7886
  O  O454  1  0.756710  0.934650  0.613700  1.0  -0.7842
  O  O455  1  0.776630  0.913040  0.405900  1.0  -0.793
  O  O456  1  0.715440  0.820260  0.400600  1.0  -0.7809
  O  O457  1  0.727790  0.870590  0.428600  1.0  -0.7634
  O  O458  1  0.714510  0.850720  0.202200  1.0  -0.823
  O  O459  1  0.714780  0.774860  0.623500  1.0  -0.7339
  O  O460  1  0.718440  0.863030  0.905200  1.0  -0.7668
  O  O461  1  0.710510  0.834110  0.710300  1.0  -0.7597
  O  O462  1  0.731720  0.812130  0.916800  1.0  -0.7698
  O  O463  1  0.287290  0.461680  0.951700  1.0  -0.7886
  O  O464  1  0.256710  0.434650  0.113700  1.0  -0.7842
  O  O465  1  0.276630  0.413040  0.905900  1.0  -0.793
  O  O466  1  0.215440  0.320260  0.900600  1.0  -0.7809
  O  O467  1  0.227790  0.370590  0.928600  1.0  -0.7634
  O  O468  1  0.214510  0.350720  0.702200  1.0  -0.823
  O  O469  1  0.214780  0.274860  0.123500  1.0  -0.7339
  O  O470  1  0.218440  0.363030  0.405200  1.0  -0.7668
  O  O471  1  0.210510  0.334110  0.210300  1.0  -0.7597
  O  O472  1  0.231720  0.312130  0.416800  1.0  -0.7698
  O  O473  1  0.711680  0.537290  0.701700  1.0  -0.7875
  O  O474  1  0.684650  0.506710  0.863700  1.0  -0.7808
  O  O475  1  0.663040  0.526630  0.655900  1.0  -0.7944
  O  O476  1  0.570260  0.465440  0.650600  1.0  -0.7781
  O  O477  1  0.620590  0.477790  0.678600  1.0  -0.7607
  O  O478  1  0.600720  0.464510  0.452200  1.0  -0.8264
  O  O479  1  0.524860  0.464780  0.873500  1.0  -0.7338
  O  O480  1  0.613030  0.468440  0.155200  1.0  -0.7629
  O  O481  1  0.584110  0.460510  0.960300  1.0  -0.7609
  O  O482  1  0.562130  0.481720  0.166800  1.0  -0.7665
  O  O483  1  0.211680  0.037290  0.201700  1.0  -0.7875
  O  O484  1  0.184650  0.006710  0.363700  1.0  -0.7808
  O  O485  1  0.163040  0.026630  0.155900  1.0  -0.7944
  O  O486  1  0.070260  0.965440  0.150600  1.0  -0.7781
  O  O487  1  0.120590  0.977790  0.178600  1.0  -0.7607
  O  O488  1  0.100720  0.964510  0.952200  1.0  -0.8264
  O  O489  1  0.024860  0.964780  0.373500  1.0  -0.7338
  O  O490  1  0.113030  0.968440  0.655200  1.0  -0.7629
  O  O491  1  0.084110  0.960510  0.460300  1.0  -0.7609
  O  O492  1  0.062130  0.981720  0.666800  1.0  -0.7665
  O  O493  1  0.788320  0.462710  0.201700  1.0  -0.7873
  O  O494  1  0.815350  0.493290  0.363700  1.0  -0.7807
  O  O495  1  0.836960  0.473370  0.155900  1.0  -0.7928
  O  O496  1  0.929740  0.534560  0.150600  1.0  -0.7782
  O  O497  1  0.879410  0.522210  0.178600  1.0  -0.7618
  O  O498  1  0.899280  0.535490  0.952200  1.0  -0.8246
  O  O499  1  0.975140  0.535220  0.373500  1.0  -0.7319
  O  O500  1  0.886970  0.531560  0.655200  1.0  -0.763
  O  O501  1  0.915890  0.539490  0.460300  1.0  -0.7608
  O  O502  1  0.937870  0.518280  0.666800  1.0  -0.7682
  O  O503  1  0.288320  0.962710  0.701700  1.0  -0.7873
  O  O504  1  0.315350  0.993290  0.863700  1.0  -0.7807
  O  O505  1  0.336960  0.973370  0.655900  1.0  -0.7928
  O  O506  1  0.429740  0.034560  0.650600  1.0  -0.7782
  O  O507  1  0.379410  0.022210  0.678600  1.0  -0.7618
  O  O508  1  0.399280  0.035490  0.452200  1.0  -0.8246
  O  O509  1  0.475140  0.035220  0.873500  1.0  -0.7319
  O  O510  1  0.386970  0.031560  0.155200  1.0  -0.763
  O  O511  1  0.415890  0.039490  0.960300  1.0  -0.7608
  O  O512  1  0.437870  0.018280  0.166800  1.0  -0.7682
  O  O513  1  0.212710  0.961680  0.451700  1.0  -0.7868
  O  O514  1  0.243290  0.934650  0.613700  1.0  -0.7836
  O  O515  1  0.223370  0.913040  0.405900  1.0  -0.7924
  O  O516  1  0.284560  0.820260  0.400600  1.0  -0.7803
  O  O517  1  0.272210  0.870590  0.428600  1.0  -0.7631
  O  O518  1  0.285490  0.850720  0.202200  1.0  -0.8213
  O  O519  1  0.285220  0.774860  0.623500  1.0  -0.7337
  O  O520  1  0.281560  0.863030  0.905200  1.0  -0.7654
  O  O521  1  0.289490  0.834110  0.710300  1.0  -0.7587
  O  O522  1  0.268280  0.812130  0.916800  1.0  -0.7683
  O  O523  1  0.712710  0.461680  0.951700  1.0  -0.7868
  O  O524  1  0.743290  0.434650  0.113700  1.0  -0.7836
  O  O525  1  0.723370  0.413040  0.905900  1.0  -0.7924
  O  O526  1  0.784560  0.320260  0.900600  1.0  -0.7803
  O  O527  1  0.772210  0.370590  0.928600  1.0  -0.7631
  O  O528  1  0.785490  0.350720  0.702200  1.0  -0.8213
  O  O529  1  0.785220  0.274860  0.123500  1.0  -0.7337
  O  O530  1  0.781560  0.363030  0.405200  1.0  -0.7654
  O  O531  1  0.789490  0.334110  0.210300  1.0  -0.7587
  O  O532  1  0.768280  0.312130  0.416800  1.0  -0.7683
  O  O533  1  0.287290  0.038320  0.951700  1.0  -0.7886
  O  O534  1  0.256710  0.065350  0.113700  1.0  -0.7825
  O  O535  1  0.276630  0.086960  0.905900  1.0  -0.7926
  O  O536  1  0.215440  0.179740  0.900600  1.0  -0.7801
  O  O537  1  0.227790  0.129410  0.928600  1.0  -0.7626
  O  O538  1  0.214510  0.149280  0.702200  1.0  -0.822
  O  O539  1  0.214780  0.225140  0.123500  1.0  -0.7339
  O  O540  1  0.218440  0.136970  0.405200  1.0  -0.7646
  O  O541  1  0.210510  0.165890  0.210300  1.0  -0.7602
  O  O542  1  0.231720  0.187870  0.416800  1.0  -0.7697
  O  O543  1  0.787290  0.538320  0.451700  1.0  -0.7886
  O  O544  1  0.756710  0.565350  0.613700  1.0  -0.7825
  O  O545  1  0.776630  0.586960  0.405900  1.0  -0.7926
  O  O546  1  0.715440  0.679740  0.400600  1.0  -0.7801
  O  O547  1  0.727790  0.629410  0.428600  1.0  -0.7626
  O  O548  1  0.714510  0.649280  0.202200  1.0  -0.822
  O  O549  1  0.714780  0.725140  0.623500  1.0  -0.7339
  O  O550  1  0.718440  0.636970  0.905200  1.0  -0.7646
  O  O551  1  0.710510  0.665890  0.710300  1.0  -0.7602
  O  O552  1  0.731720  0.687870  0.916800  1.0  -0.7697
  O  O553  1  0.788320  0.537290  0.798300  1.0  -0.7875
  O  O554  1  0.815350  0.506710  0.636300  1.0  -0.7817
  O  O555  1  0.836960  0.526630  0.844100  1.0  -0.793
  O  O556  1  0.929740  0.465440  0.849400  1.0  -0.777
  O  O557  1  0.879410  0.477790  0.821400  1.0  -0.7607
  O  O558  1  0.899280  0.464510  0.047800  1.0  -0.8262
  O  O559  1  0.975140  0.464780  0.626500  1.0  -0.7329
  O  O560  1  0.886970  0.468440  0.344800  1.0  -0.7632
  O  O561  1  0.915890  0.460510  0.539700  1.0  -0.7609
  O  O562  1  0.937870  0.481720  0.333200  1.0  -0.7687
  O  O563  1  0.288320  0.037290  0.298300  1.0  -0.7875
  O  O564  1  0.315350  0.006710  0.136300  1.0  -0.7817
  O  O565  1  0.336960  0.026630  0.344100  1.0  -0.793
  O  O566  1  0.429740  0.965440  0.349400  1.0  -0.777
  O  O567  1  0.379410  0.977790  0.321400  1.0  -0.7607
  O  O568  1  0.399280  0.964510  0.547800  1.0  -0.8262
  O  O569  1  0.475140  0.964780  0.126500  1.0  -0.7329
  O  O570  1  0.386970  0.968440  0.844800  1.0  -0.7632
  O  O571  1  0.415890  0.960510  0.039700  1.0  -0.7609
  O  O572  1  0.437870  0.981720  0.833200  1.0  -0.7687
  O  O573  1  0.711680  0.462710  0.298300  1.0  -0.7875
  O  O574  1  0.684650  0.493290  0.136300  1.0  -0.7813
  O  O575  1  0.663040  0.473370  0.344100  1.0  -0.7932
  O  O576  1  0.570260  0.534560  0.349400  1.0  -0.7769
  O  O577  1  0.620590  0.522210  0.321400  1.0  -0.7619
  O  O578  1  0.600720  0.535490  0.547800  1.0  -0.8248
  O  O579  1  0.524860  0.535220  0.126500  1.0  -0.7323
  O  O580  1  0.613030  0.531560  0.844800  1.0  -0.7632
  O  O581  1  0.584110  0.539490  0.039700  1.0  -0.7599
  O  O582  1  0.562130  0.518280  0.833200  1.0  -0.7672
  O  O583  1  0.211680  0.962710  0.798300  1.0  -0.7875
  O  O584  1  0.184650  0.993290  0.636300  1.0  -0.7813
  O  O585  1  0.163040  0.973370  0.844100  1.0  -0.7932
  O  O586  1  0.070260  0.034560  0.849400  1.0  -0.7769
  O  O587  1  0.120590  0.022210  0.821400  1.0  -0.7619
  O  O588  1  0.100720  0.035490  0.047800  1.0  -0.8248
  O  O589  1  0.024860  0.035220  0.626500  1.0  -0.7323
  O  O590  1  0.113030  0.031560  0.344800  1.0  -0.7632
  O  O591  1  0.084110  0.039490  0.539700  1.0  -0.7599
  O  O592  1  0.062130  0.018280  0.333200  1.0  -0.7672
  O  O593  1  0.287290  0.961680  0.048300  1.0  -0.7887
  O  O594  1  0.256710  0.934650  0.886300  1.0  -0.7848
  O  O595  1  0.276630  0.913040  0.094100  1.0  -0.7927
  O  O596  1  0.215440  0.820260  0.099400  1.0  -0.7793
  O  O597  1  0.227790  0.870590  0.071400  1.0  -0.7631
  O  O598  1  0.214510  0.850720  0.297800  1.0  -0.8227
  O  O599  1  0.214780  0.774860  0.876500  1.0  -0.7339
  O  O600  1  0.218440  0.863030  0.594800  1.0  -0.7665
  O  O601  1  0.210510  0.834110  0.789700  1.0  -0.7594
  O  O602  1  0.231720  0.812130  0.583200  1.0  -0.7714
  O  O603  1  0.787290  0.461680  0.548300  1.0  -0.7887
  O  O604  1  0.756710  0.434650  0.386300  1.0  -0.7848
  O  O605  1  0.776630  0.413040  0.594100  1.0  -0.7927
  O  O606  1  0.715440  0.320260  0.599400  1.0  -0.7793
  O  O607  1  0.727790  0.370590  0.571400  1.0  -0.7631
  O  O608  1  0.714510  0.350720  0.797800  1.0  -0.8227
  O  O609  1  0.714780  0.274860  0.376500  1.0  -0.7339
  O  O610  1  0.718440  0.363030  0.094800  1.0  -0.7665
  O  O611  1  0.710510  0.334110  0.289700  1.0  -0.7594
  O  O612  1  0.731720  0.312130  0.083200  1.0  -0.7714
  O  O613  1  0.212710  0.038320  0.548300  1.0  -0.7872
  O  O614  1  0.243290  0.065350  0.386300  1.0  -0.7845
  O  O615  1  0.223370  0.086960  0.594100  1.0  -0.7929
  O  O616  1  0.284560  0.179740  0.599400  1.0  -0.7781
  O  O617  1  0.272210  0.129410  0.571400  1.0  -0.7633
  O  O618  1  0.285490  0.149280  0.797800  1.0  -0.8209
  O  O619  1  0.285220  0.225140  0.376500  1.0  -0.7331
  O  O620  1  0.281560  0.136970  0.094800  1.0  -0.7633
  O  O621  1  0.289490  0.165890  0.289700  1.0  -0.7581
  O  O622  1  0.268280  0.187870  0.083200  1.0  -0.7695
  O  O623  1  0.712710  0.538320  0.048300  1.0  -0.7872
  O  O624  1  0.743290  0.565350  0.886300  1.0  -0.7845
  O  O625  1  0.723370  0.586960  0.094100  1.0  -0.7929
  O  O626  1  0.784560  0.679740  0.099400  1.0  -0.7781
  O  O627  1  0.772210  0.629410  0.071400  1.0  -0.7633
  O  O628  1  0.785490  0.649280  0.297800  1.0  -0.8209
  O  O629  1  0.785220  0.725140  0.876500  1.0  -0.7331
  O  O630  1  0.781560  0.636970  0.594800  1.0  -0.7633
  O  O631  1  0.789490  0.665890  0.789700  1.0  -0.7581
  O  O632  1  0.768280  0.687870  0.583200  1.0  -0.7695
  O  O633  1  0.500000  0.510500  0.308400  1.0  -0.7498
  O  O634  1  0.000000  0.010500  0.808400  1.0  -0.7498
  O  O635  1  0.000000  0.489500  0.808400  1.0  -0.7486
  O  O636  1  0.500000  0.989500  0.308400  1.0  -0.7486
  O  O637  1  0.739500  0.250000  0.558400  1.0  -0.7463
  O  O638  1  0.760500  0.750000  0.058400  1.0  -0.7451
  O  O639  1  0.000000  0.510500  0.191600  1.0  -0.7501
  O  O640  1  0.500000  0.010500  0.691600  1.0  -0.7501
  O  O641  1  0.500000  0.489500  0.691600  1.0  -0.7486
  O  O642  1  0.000000  0.989500  0.191600  1.0  -0.7486
  O  O643  1  0.760500  0.250000  0.941600  1.0  -0.7446
  O  O644  1  0.739500  0.750000  0.441600  1.0  -0.7461
  O  O645  1  0.260500  0.750000  0.441600  1.0  -0.7446
  O  O646  1  0.239500  0.250000  0.941600  1.0  -0.7461
  O  O647  1  0.239500  0.750000  0.058400  1.0  -0.7463
  O  O648  1  0.260500  0.250000  0.558400  1.0  -0.7451
  F  F649  1  0.242630  0.492630  0.375000  1.0  -0.5793
  F  F650  1  0.257370  0.507370  0.875000  1.0  -0.5793
  F  F651  1  0.757370  0.992630  0.625000  1.0  -0.5789
  F  F652  1  0.742630  0.007370  0.125000  1.0  -0.5798
  F  F653  1  0.257370  0.492630  0.125000  1.0  -0.5789
  F  F654  1  0.242630  0.507370  0.625000  1.0  -0.5798
  F  F655  1  0.742630  0.992630  0.875000  1.0  -0.5793
  F  F656  1  0.757370  0.007370  0.375000  1.0  -0.5793
  F  F657  1  0.757370  0.507370  0.625000  1.0  -0.5793
  F  F658  1  0.742630  0.492630  0.125000  1.0  -0.5793
  F  F659  1  0.242630  0.992630  0.625000  1.0  -0.5793
  F  F660  1  0.242630  0.007370  0.375000  1.0  -0.5798
  F  F661  1  0.257370  0.992630  0.875000  1.0  -0.5789
  F  F662  1  0.742630  0.507370  0.875000  1.0  -0.5798
  F  F663  1  0.757370  0.492630  0.375000  1.0  -0.5789
  F  F664  1  0.257370  0.007370  0.125000  1.0  -0.5793
