# generated using pymatgen
data_CuH16(C5N)4
_symmetry_space_group_name_H-M   'P 1'
_cell_length_a   12.32510000
_cell_length_b   12.32510000
_cell_length_c   6.98100000
_cell_angle_alpha   90.00000000
_cell_angle_beta   90.00000000
_cell_angle_gamma   90.00000000
_symmetry_Int_Tables_number   1
_chemical_formula_structural   CuH16(C5N)4
_chemical_formula_sum   'Cu2 H32 C40 N8'
_cell_volume   1060.47037636
_cell_formula_units_Z   2
loop_
 _symmetry_equiv_pos_site_id
 _symmetry_equiv_pos_as_xyz
  1  'x, y, z'
loop_
 _atom_site_type_symbol
 _atom_site_label
 _atom_site_symmetry_multiplicity
 _atom_site_fract_x
 _atom_site_fract_y
 _atom_site_fract_z
 _atom_site_occupancy
 _atom_site_charge
  Cu  Cu1  1  0.750000  0.250000  0.000000  1.0  0.4287
  Cu  Cu2  1  0.250000  0.750000  0.000000  1.0  0.4287
  H  H3  1  0.596000  0.214000  0.326000  1.0  0.0349
  H  H4  1  0.475000  0.319000  0.529000  1.0  0.1185
  H  H5  1  0.593000  0.601000  0.279000  1.0  0.1144
  H  H6  1  0.706000  0.493000  0.069000  1.0  0.0608
  H  H7  1  0.904000  0.286000  0.326000  1.0  0.0348
  H  H8  1  0.025000  0.181000  0.529000  1.0  0.1191
  H  H9  1  0.907000  0.899000  0.279000  1.0  0.1158
  H  H10  1  0.794000  0.007000  0.069000  1.0  0.0613
  H  H11  1  0.286000  0.596000  0.326000  1.0  0.0337
  H  H12  1  0.181000  0.475000  0.529000  1.0  0.1196
  H  H13  1  0.899000  0.593000  0.279000  1.0  0.1128
  H  H14  1  0.007000  0.706000  0.069000  1.0  0.0611
  H  H15  1  0.214000  0.904000  0.326000  1.0  0.035
  H  H16  1  0.319000  0.025000  0.529000  1.0  0.1188
  H  H17  1  0.601000  0.907000  0.279000  1.0  0.1124
  H  H18  1  0.493000  0.794000  0.069000  1.0  0.0611
  H  H19  1  0.404000  0.786000  0.674000  1.0  0.0346
  H  H20  1  0.525000  0.681000  0.471000  1.0  0.1186
  H  H21  1  0.407000  0.399000  0.721000  1.0  0.1198
  H  H22  1  0.294000  0.507000  0.931000  1.0  0.0631
  H  H23  1  0.096000  0.714000  0.674000  1.0  0.0351
  H  H24  1  0.975000  0.819000  0.471000  1.0  0.1177
  H  H25  1  0.093000  0.101000  0.721000  1.0  0.1177
  H  H26  1  0.206000  0.993000  0.931000  1.0  0.0619
  H  H27  1  0.714000  0.404000  0.674000  1.0  0.035
  H  H28  1  0.819000  0.525000  0.471000  1.0  0.1182
  H  H29  1  0.101000  0.407000  0.721000  1.0  0.1155
  H  H30  1  0.993000  0.294000  0.931000  1.0  0.0607
  H  H31  1  0.786000  0.096000  0.674000  1.0  0.0337
  H  H32  1  0.681000  0.975000  0.471000  1.0  0.1187
  H  H33  1  0.399000  0.093000  0.721000  1.0  0.116
  H  H34  1  0.507000  0.206000  0.931000  1.0  0.0608
  C  C35  1  0.594400  0.300700  0.302000  1.0  0.1389
  C  C36  1  0.530000  0.357900  0.430000  1.0  -0.1448
  C  C37  1  0.533500  0.469100  0.432000  1.0  -0.0104
  C  C38  1  0.594400  0.513800  0.294000  1.0  -0.1812
  C  C39  1  0.655000  0.451200  0.171000  1.0  0.1337
  C  C40  1  0.905600  0.199300  0.302000  1.0  0.1405
  C  C41  1  0.970000  0.142100  0.430000  1.0  -0.1428
  C  C42  1  0.966500  0.030900  0.432000  1.0  -0.0113
  C  C43  1  0.905600  0.986200  0.294000  1.0  -0.1804
  C  C44  1  0.845000  0.048800  0.171000  1.0  0.1328
  C  C45  1  0.199300  0.594400  0.302000  1.0  0.1398
  C  C46  1  0.142100  0.530000  0.430000  1.0  -0.1431
  C  C47  1  0.030900  0.533500  0.432000  1.0  -0.0102
  C  C48  1  0.986200  0.594400  0.294000  1.0  -0.183
  C  C49  1  0.048800  0.655000  0.171000  1.0  0.1335
  C  C50  1  0.300700  0.905600  0.302000  1.0  0.1398
  C  C51  1  0.357900  0.970000  0.430000  1.0  -0.1465
  C  C52  1  0.469100  0.966500  0.432000  1.0  -0.0112
  C  C53  1  0.513800  0.905600  0.294000  1.0  -0.1813
  C  C54  1  0.451200  0.845000  0.171000  1.0  0.1338
  C  C55  1  0.405600  0.699300  0.698000  1.0  0.1407
  C  C56  1  0.470000  0.642100  0.570000  1.0  -0.1426
  C  C57  1  0.466500  0.530900  0.568000  1.0  -0.0104
  C  C58  1  0.405600  0.486200  0.706000  1.0  -0.1801
  C  C59  1  0.345000  0.548800  0.829000  1.0  0.1317
  C  C60  1  0.094400  0.800700  0.698000  1.0  0.1394
  C  C61  1  0.030000  0.857900  0.570000  1.0  -0.1443
  C  C62  1  0.033500  0.969100  0.568000  1.0  -0.0099
  C  C63  1  0.094400  0.013800  0.706000  1.0  -0.1812
  C  C64  1  0.155000  0.951200  0.829000  1.0  0.1332
  C  C65  1  0.800700  0.405600  0.698000  1.0  0.1396
  C  C66  1  0.857900  0.470000  0.570000  1.0  -0.1458
  C  C67  1  0.969100  0.466500  0.568000  1.0  -0.0105
  C  C68  1  0.013800  0.405600  0.706000  1.0  -0.1812
  C  C69  1  0.951200  0.345000  0.829000  1.0  0.1338
  C  C70  1  0.699300  0.094400  0.698000  1.0  0.1403
  C  C71  1  0.642100  0.030000  0.570000  1.0  -0.1429
  C  C72  1  0.530900  0.033500  0.568000  1.0  -0.0096
  C  C73  1  0.486200  0.094400  0.706000  1.0  -0.1822
  C  C74  1  0.548800  0.155000  0.829000  1.0  0.1324
  N  N75  1  0.652700  0.342400  0.169500  1.0  -0.3762
  N  N76  1  0.847300  0.157600  0.169500  1.0  -0.3744
  N  N77  1  0.157600  0.652700  0.169500  1.0  -0.3727
  N  N78  1  0.342400  0.847300  0.169500  1.0  -0.3738
  N  N79  1  0.347300  0.657600  0.830500  1.0  -0.3751
  N  N80  1  0.152700  0.842400  0.830500  1.0  -0.376
  N  N81  1  0.842400  0.347300  0.830500  1.0  -0.3741
  N  N82  1  0.657600  0.152700  0.830500  1.0  -0.3727
