# generated using pymatgen
data_In9P14H18O56F3
_symmetry_space_group_name_H-M   'P 1'
_cell_length_a   13.93060000
_cell_length_b   13.93060000
_cell_length_c   24.04350000
_cell_angle_alpha   90.00000000
_cell_angle_beta   90.00000000
_cell_angle_gamma   120.00000000
_symmetry_Int_Tables_number   1
_chemical_formula_structural   In9P14H18O56F3
_chemical_formula_sum   'In18 P28 H36 O112 F6'
_cell_volume   4040.80566161
_cell_formula_units_Z   2
loop_
 _symmetry_equiv_pos_site_id
 _symmetry_equiv_pos_as_xyz
  1  'x, y, z'
loop_
 _atom_site_type_symbol
 _atom_site_label
 _atom_site_symmetry_multiplicity
 _atom_site_fract_x
 _atom_site_fract_y
 _atom_site_fract_z
 _atom_site_occupancy
 _atom_site_charge
  In  In1  1  0.293040  0.441400  0.471280  1.0  1.657
  In  In2  1  0.558600  0.851640  0.471280  1.0  1.6567
  In  In3  1  0.148360  0.706960  0.471280  1.0  1.6568
  In  In4  1  0.558600  0.706960  0.028720  1.0  1.6584
  In  In5  1  0.148360  0.441400  0.028720  1.0  1.6577
  In  In6  1  0.293040  0.851640  0.028720  1.0  1.6569
  In  In7  1  0.706960  0.558600  0.528720  1.0  1.6567
  In  In8  1  0.441400  0.148360  0.528720  1.0  1.6573
  In  In9  1  0.851640  0.293040  0.528720  1.0  1.6591
  In  In10  1  0.441400  0.293040  0.971280  1.0  1.6573
  In  In11  1  0.851640  0.558600  0.971280  1.0  1.6564
  In  In12  1  0.706960  0.148360  0.971280  1.0  1.6569
  In  In13  1  0.000000  0.000000  0.500000  1.0  1.5936
  In  In14  1  0.000000  0.000000  0.000000  1.0  1.5936
  In  In15  1  0.000000  0.000000  0.315070  1.0  1.589
  In  In16  1  0.000000  0.000000  0.184930  1.0  1.5885
  In  In17  1  0.000000  0.000000  0.684930  1.0  1.5885
  In  In18  1  0.000000  0.000000  0.815070  1.0  1.589
  P  P19  1  0.120050  0.492200  0.544390  1.0  1.6655
  P  P20  1  0.166570  0.191160  0.401180  1.0  1.8157
  P  P21  1  0.507800  0.627850  0.544390  1.0  1.6663
  P  P22  1  0.808840  0.975410  0.401180  1.0  1.8144
  P  P23  1  0.372150  0.879950  0.544390  1.0  1.6644
  P  P24  1  0.024590  0.833430  0.401180  1.0  1.812
  P  P25  1  0.507800  0.879950  0.955610  1.0  1.6649
  P  P26  1  0.808840  0.833430  0.098820  1.0  1.8138
  P  P27  1  0.372150  0.492200  0.955610  1.0  1.6647
  P  P28  1  0.024590  0.191160  0.098820  1.0  1.813
  P  P29  1  0.120050  0.627850  0.955610  1.0  1.667
  P  P30  1  0.166570  0.975410  0.098820  1.0  1.8135
  P  P31  1  0.879950  0.507800  0.455610  1.0  1.6654
  P  P32  1  0.833430  0.808840  0.598820  1.0  1.814
  P  P33  1  0.492200  0.372150  0.455610  1.0  1.6662
  P  P34  1  0.191160  0.024590  0.598820  1.0  1.7991
  P  P35  1  0.627850  0.120050  0.455610  1.0  1.6648
  P  P36  1  0.975410  0.166570  0.598820  1.0  1.8002
  P  P37  1  0.492200  0.120050  0.044390  1.0  1.6642
  P  P38  1  0.191160  0.166570  0.901180  1.0  1.8147
  P  P39  1  0.627850  0.507800  0.044390  1.0  1.6661
  P  P40  1  0.975410  0.808840  0.901180  1.0  1.8006
  P  P41  1  0.879950  0.372150  0.044390  1.0  1.6658
  P  P42  1  0.833430  0.024590  0.901180  1.0  1.8005
  P  P43  1  0.333333  0.666667  0.393150  1.0  1.7526
  P  P44  1  0.333333  0.666667  0.106850  1.0  1.7519
  P  P45  1  0.666667  0.333333  0.606850  1.0  1.7519
  P  P46  1  0.666667  0.333333  0.893150  1.0  1.7526
  H  H47  1  0.146600  0.413500  0.607400  1.0  0.3251
  H  H48  1  0.384500  0.658900  0.316600  1.0  0.3041
  H  H49  1  0.321400  0.223800  0.388700  1.0  0.3471
  H  H50  1  0.586500  0.733100  0.607400  1.0  0.3234
  H  H51  1  0.341100  0.725600  0.316600  1.0  0.3113
  H  H52  1  0.776200  0.097600  0.388700  1.0  0.3462
  H  H53  1  0.266900  0.853400  0.607400  1.0  0.3234
  H  H54  1  0.274400  0.615500  0.316600  1.0  0.3089
  H  H55  1  0.902400  0.678600  0.388700  1.0  0.3477
  H  H56  1  0.586500  0.853400  0.892600  1.0  0.3231
  H  H57  1  0.341100  0.615500  0.183400  1.0  0.3073
  H  H58  1  0.776200  0.678600  0.111300  1.0  0.3476
  H  H59  1  0.266900  0.413500  0.892600  1.0  0.3235
  H  H60  1  0.274400  0.658900  0.183400  1.0  0.3052
  H  H61  1  0.902400  0.223800  0.111300  1.0  0.3481
  H  H62  1  0.146600  0.733100  0.892600  1.0  0.3226
  H  H63  1  0.384500  0.725600  0.183400  1.0  0.312
  H  H64  1  0.321400  0.097600  0.111300  1.0  0.3451
  H  H65  1  0.853400  0.586500  0.392600  1.0  0.3218
  H  H66  1  0.615500  0.341100  0.683400  1.0  0.3059
  H  H67  1  0.678600  0.776200  0.611300  1.0  0.3475
  H  H68  1  0.413500  0.266900  0.392600  1.0  0.3227
  H  H69  1  0.658900  0.274400  0.683400  1.0  0.3089
  H  H70  1  0.223800  0.902400  0.611300  1.0  0.3454
  H  H71  1  0.733100  0.146600  0.392600  1.0  0.3205
  H  H72  1  0.725600  0.384500  0.683400  1.0  0.3107
  H  H73  1  0.097600  0.321400  0.611300  1.0  0.3489
  H  H74  1  0.413500  0.146600  0.107400  1.0  0.3223
  H  H75  1  0.658900  0.384500  0.816600  1.0  0.3122
  H  H76  1  0.223800  0.321400  0.888700  1.0  0.3486
  H  H77  1  0.733100  0.586500  0.107400  1.0  0.3238
  H  H78  1  0.725600  0.341100  0.816600  1.0  0.3049
  H  H79  1  0.097600  0.776200  0.888700  1.0  0.3472
  H  H80  1  0.853400  0.266900  0.107400  1.0  0.3231
  H  H81  1  0.615500  0.274400  0.816600  1.0  0.3087
  H  H82  1  0.678600  0.902400  0.888700  1.0  0.3466
  O  O83  1  0.144000  0.431300  0.498400  1.0  -0.8166
  O  O84  1  0.189400  0.305500  0.417940  1.0  -0.8442
  O  O85  1  0.172500  0.479500  0.600300  1.0  -0.6547
  O  O86  1  0.318500  0.555500  0.408800  1.0  -0.8664
  O  O87  1  0.997400  0.436800  0.555000  1.0  -0.8323
  O  O88  1  0.140200  0.112900  0.451010  1.0  -0.8485
  O  O89  1  0.071500  0.147200  0.358400  1.0  -0.7499
  O  O90  1  0.266100  0.195600  0.368880  1.0  -0.6189
  O  O91  1  0.173100  0.615600  0.534090  1.0  -0.817
  O  O92  1  0.568700  0.712700  0.498400  1.0  -0.8169
  O  O93  1  0.694500  0.883900  0.417940  1.0  -0.8461
  O  O94  1  0.520500  0.693000  0.600300  1.0  -0.6581
  O  O95  1  0.444500  0.763000  0.408800  1.0  -0.8666
  O  O96  1  0.563200  0.560600  0.555000  1.0  -0.8344
  O  O97  1  0.887100  0.027300  0.451010  1.0  -0.8494
  O  O98  1  0.852800  0.924300  0.358400  1.0  -0.7513
  O  O99  1  0.804400  0.070500  0.368880  1.0  -0.6199
  O  O100  1  0.384400  0.557500  0.534090  1.0  -0.8183
  O  O101  1  0.287300  0.856000  0.498400  1.0  -0.8159
  O  O102  1  0.116100  0.810600  0.417940  1.0  -0.845
  O  O103  1  0.307000  0.827500  0.600300  1.0  -0.6556
  O  O104  1  0.237000  0.681500  0.408800  1.0  -0.8653
  O  O105  1  0.439400  0.002600  0.555000  1.0  -0.831
  O  O106  1  0.972700  0.859800  0.451010  1.0  -0.8478
  O  O107  1  0.075700  0.928500  0.358400  1.0  -0.7502
  O  O108  1  0.929500  0.733900  0.368880  1.0  -0.6212
  O  O109  1  0.442500  0.826900  0.534090  1.0  -0.8183
  O  O110  1  0.568700  0.856000  0.001600  1.0  -0.8183
  O  O111  1  0.694500  0.810600  0.082060  1.0  -0.8445
  O  O112  1  0.520500  0.827500  0.899700  1.0  -0.6555
  O  O113  1  0.444500  0.681500  0.091200  1.0  -0.8647
  O  O114  1  0.563200  0.002600  0.945000  1.0  -0.8315
  O  O115  1  0.887100  0.859800  0.048990  1.0  -0.8472
  O  O116  1  0.852800  0.928500  0.141600  1.0  -0.7508
  O  O117  1  0.804400  0.733900  0.131120  1.0  -0.6187
  O  O118  1  0.384400  0.826900  0.965910  1.0  -0.818
  O  O119  1  0.287300  0.431300  0.001600  1.0  -0.8183
  O  O120  1  0.116100  0.305500  0.082060  1.0  -0.8426
  O  O121  1  0.307000  0.479500  0.899700  1.0  -0.6552
  O  O122  1  0.237000  0.555500  0.091200  1.0  -0.8661
  O  O123  1  0.439400  0.436800  0.945000  1.0  -0.8316
  O  O124  1  0.972700  0.112900  0.048990  1.0  -0.8485
  O  O125  1  0.075700  0.147200  0.141600  1.0  -0.7503
  O  O126  1  0.929500  0.195600  0.131120  1.0  -0.6198
  O  O127  1  0.442500  0.615600  0.965910  1.0  -0.8173
  O  O128  1  0.144000  0.712700  0.001600  1.0  -0.818
  O  O129  1  0.189400  0.883900  0.082060  1.0  -0.846
  O  O130  1  0.172500  0.693000  0.899700  1.0  -0.6541
  O  O131  1  0.318500  0.763000  0.091200  1.0  -0.8655
  O  O132  1  0.997400  0.560600  0.945000  1.0  -0.8348
  O  O133  1  0.140200  0.027300  0.048990  1.0  -0.8477
  O  O134  1  0.071500  0.924300  0.141600  1.0  -0.7515
  O  O135  1  0.266100  0.070500  0.131120  1.0  -0.6203
  O  O136  1  0.173100  0.557500  0.965910  1.0  -0.8191
  O  O137  1  0.856000  0.568700  0.501600  1.0  -0.8193
  O  O138  1  0.810600  0.694500  0.582060  1.0  -0.8424
  O  O139  1  0.827500  0.520500  0.399700  1.0  -0.6564
  O  O140  1  0.681500  0.444500  0.591200  1.0  -0.8668
  O  O141  1  0.002600  0.563200  0.445000  1.0  -0.8316
  O  O142  1  0.859800  0.887100  0.548990  1.0  -0.8483
  O  O143  1  0.928500  0.852800  0.641600  1.0  -0.7511
  O  O144  1  0.733900  0.804400  0.631120  1.0  -0.6207
  O  O145  1  0.826900  0.384400  0.465910  1.0  -0.817
  O  O146  1  0.431300  0.287300  0.501600  1.0  -0.8181
  O  O147  1  0.305500  0.116100  0.582060  1.0  -0.8452
  O  O148  1  0.479500  0.307000  0.399700  1.0  -0.6553
  O  O149  1  0.555500  0.237000  0.591200  1.0  -0.8644
  O  O150  1  0.436800  0.439400  0.445000  1.0  -0.8334
  O  O151  1  0.112900  0.972700  0.548990  1.0  -0.8485
  O  O152  1  0.147200  0.075700  0.641600  1.0  -0.7511
  O  O153  1  0.195600  0.929500  0.631120  1.0  -0.6204
  O  O154  1  0.615600  0.442500  0.465910  1.0  -0.819
  O  O155  1  0.712700  0.144000  0.501600  1.0  -0.8185
  O  O156  1  0.883900  0.189400  0.582060  1.0  -0.8439
  O  O157  1  0.693000  0.172500  0.399700  1.0  -0.6549
  O  O158  1  0.763000  0.318500  0.591200  1.0  -0.8647
  O  O159  1  0.560600  0.997400  0.445000  1.0  -0.8312
  O  O160  1  0.027300  0.140200  0.548990  1.0  -0.8478
  O  O161  1  0.924300  0.071500  0.641600  1.0  -0.7511
  O  O162  1  0.070500  0.266100  0.631120  1.0  -0.6195
  O  O163  1  0.557500  0.173100  0.465910  1.0  -0.8181
  O  O164  1  0.431300  0.144000  0.998400  1.0  -0.8162
  O  O165  1  0.305500  0.189400  0.917940  1.0  -0.8445
  O  O166  1  0.479500  0.172500  0.100300  1.0  -0.6558
  O  O167  1  0.555500  0.318500  0.908800  1.0  -0.8652
  O  O168  1  0.436800  0.997400  0.055000  1.0  -0.8312
  O  O169  1  0.112900  0.140200  0.951010  1.0  -0.8487
  O  O170  1  0.147200  0.071500  0.858400  1.0  -0.7512
  O  O171  1  0.195600  0.266100  0.868880  1.0  -0.621
  O  O172  1  0.615600  0.173100  0.034090  1.0  -0.8184
  O  O173  1  0.712700  0.568700  0.998400  1.0  -0.8177
  O  O174  1  0.883900  0.694500  0.917940  1.0  -0.8436
  O  O175  1  0.693000  0.520500  0.100300  1.0  -0.6563
  O  O176  1  0.763000  0.444500  0.908800  1.0  -0.8677
  O  O177  1  0.560600  0.563200  0.055000  1.0  -0.8322
  O  O178  1  0.027300  0.887100  0.951010  1.0  -0.8487
  O  O179  1  0.924300  0.852800  0.858400  1.0  -0.7504
  O  O180  1  0.070500  0.804400  0.868880  1.0  -0.6196
  O  O181  1  0.557500  0.384400  0.034090  1.0  -0.8171
  O  O182  1  0.856000  0.287300  0.998400  1.0  -0.817
  O  O183  1  0.810600  0.116100  0.917940  1.0  -0.847
  O  O184  1  0.827500  0.307000  0.100300  1.0  -0.6561
  O  O185  1  0.681500  0.237000  0.908800  1.0  -0.8658
  O  O186  1  0.002600  0.439400  0.055000  1.0  -0.8332
  O  O187  1  0.859800  0.972700  0.951010  1.0  -0.8504
  O  O188  1  0.928500  0.075700  0.858400  1.0  -0.7506
  O  O189  1  0.733900  0.929500  0.868880  1.0  -0.6205
  O  O190  1  0.826900  0.442500  0.034090  1.0  -0.8187
  O  O191  1  0.333333  0.666667  0.328000  1.0  -0.5154
  O  O192  1  0.333333  0.666667  0.172000  1.0  -0.5172
  O  O193  1  0.666667  0.333333  0.672000  1.0  -0.5172
  O  O194  1  0.666667  0.333333  0.828000  1.0  -0.5154
  F  F195  1  0.123400  0.061700  0.250000  1.0  -0.529
  F  F196  1  0.938300  0.061700  0.250000  1.0  -0.5285
  F  F197  1  0.938300  0.876600  0.250000  1.0  -0.5295
  F  F198  1  0.876600  0.938300  0.750000  1.0  -0.5288
  F  F199  1  0.061700  0.938300  0.750000  1.0  -0.5302
  F  F200  1  0.061700  0.123400  0.750000  1.0  -0.5274
