# generated using pymatgen
data_CuH7C18ClO5
_symmetry_space_group_name_H-M   'P 1'
_cell_length_a   18.56760000
_cell_length_b   18.56760000
_cell_length_c   20.43860000
_cell_angle_alpha   62.98470000
_cell_angle_beta   62.98470000
_cell_angle_gamma   60.00000000
_symmetry_Int_Tables_number   1
_chemical_formula_structural   CuH7C18ClO5
_chemical_formula_sum   'Cu6 H42 C108 Cl6 O30'
_cell_volume   5195.56745002
_cell_formula_units_Z   6
loop_
 _symmetry_equiv_pos_site_id
 _symmetry_equiv_pos_as_xyz
  1  'x, y, z'
loop_
 _atom_site_type_symbol
 _atom_site_label
 _atom_site_symmetry_multiplicity
 _atom_site_fract_x
 _atom_site_fract_y
 _atom_site_fract_z
 _atom_site_occupancy
 _atom_site_charge
  Cu  Cu1  1  0.497230  0.068450  0.937780  1.0  0.9188
  Cu  Cu2  1  0.068450  0.496540  0.937780  1.0  0.9194
  Cu  Cu3  1  0.496540  0.497230  0.937780  1.0  0.9167
  Cu  Cu4  1  0.502770  0.503460  0.062220  1.0  0.9179
  Cu  Cu5  1  0.931550  0.502770  0.062220  1.0  0.9173
  Cu  Cu6  1  0.503460  0.931550  0.062220  1.0  0.9219
  H  H7  1  0.772500  0.772000  0.990700  1.0  0.1234
  H  H8  1  0.764900  0.976100  0.797500  1.0  0.1244
  H  H9  1  0.979500  0.761600  0.801700  1.0  0.1256
  H  H10  1  0.938200  0.813200  0.671200  1.0  0.1347
  H  H11  1  0.891500  0.008500  0.777100  1.0  0.1238
  H  H12  1  0.958400  0.201100  0.598300  1.0  0.1251
  H  H13  1  0.993500  0.128800  0.514300  1.0  0.1223
  H  H14  1  0.772000  0.464800  0.990700  1.0  0.1238
  H  H15  1  0.976100  0.461500  0.797500  1.0  0.1236
  H  H16  1  0.761600  0.457200  0.801700  1.0  0.1251
  H  H17  1  0.813200  0.577400  0.671200  1.0  0.1341
  H  H18  1  0.008500  0.322900  0.777100  1.0  0.1249
  H  H19  1  0.201100  0.242200  0.598300  1.0  0.1223
  H  H20  1  0.128800  0.363400  0.514300  1.0  0.1236
  H  H21  1  0.464800  0.772500  0.990700  1.0  0.1213
  H  H22  1  0.461500  0.764900  0.797500  1.0  0.1256
  H  H23  1  0.457200  0.979500  0.801700  1.0  0.1249
  H  H24  1  0.577400  0.938200  0.671200  1.0  0.1331
  H  H25  1  0.322900  0.891500  0.777100  1.0  0.1257
  H  H26  1  0.242200  0.958400  0.598300  1.0  0.1233
  H  H27  1  0.363400  0.993500  0.514300  1.0  0.1217
  H  H28  1  0.227500  0.535200  0.009300  1.0  0.1217
  H  H29  1  0.235100  0.538500  0.202500  1.0  0.1256
  H  H30  1  0.020500  0.542800  0.198300  1.0  0.126
  H  H31  1  0.061800  0.422600  0.328800  1.0  0.134
  H  H32  1  0.108500  0.677100  0.222900  1.0  0.1245
  H  H33  1  0.041600  0.757800  0.401700  1.0  0.1234
  H  H34  1  0.006500  0.636600  0.485700  1.0  0.1224
  H  H35  1  0.228000  0.227500  0.009300  1.0  0.1233
  H  H36  1  0.023900  0.235100  0.202500  1.0  0.1237
  H  H37  1  0.238400  0.020500  0.198300  1.0  0.126
  H  H38  1  0.186800  0.061800  0.328800  1.0  0.1332
  H  H39  1  0.991500  0.108500  0.222900  1.0  0.1247
  H  H40  1  0.798900  0.041600  0.401700  1.0  0.1245
  H  H41  1  0.871200  0.006500  0.485700  1.0  0.1217
  H  H42  1  0.535200  0.228000  0.009300  1.0  0.1238
  H  H43  1  0.538500  0.023900  0.202500  1.0  0.1246
  H  H44  1  0.542800  0.238400  0.198300  1.0  0.125
  H  H45  1  0.422600  0.186800  0.328800  1.0  0.134
  H  H46  1  0.677100  0.991500  0.222900  1.0  0.1247
  H  H47  1  0.757800  0.798900  0.401700  1.0  0.1235
  H  H48  1  0.636600  0.871200  0.485700  1.0  0.1238
  C  C49  1  0.931390  0.656890  0.937930  1.0  0.7102
  C  C50  1  0.884110  0.752610  0.900070  1.0  -0.1234
  C  C51  1  0.797340  0.798440  0.939580  1.0  -0.0111
  C  C52  1  0.751380  0.878680  0.904060  1.0  -0.1142
  C  C53  1  0.660850  0.921950  0.941950  1.0  0.6936
  C  C54  1  0.794690  0.919290  0.822730  1.0  -0.0025
  C  C55  1  0.876830  0.875130  0.784510  1.0  0.0849
  C  C56  1  0.922220  0.791320  0.825640  1.0  -0.0198
  C  C57  1  0.923440  0.909740  0.702580  1.0  0.0355
  C  C58  1  0.944520  0.866420  0.652240  1.0  -0.0853
  C  C59  1  0.975070  0.902470  0.573490  1.0  0.1391
  C  C60  1  0.984540  0.981840  0.545080  1.0  0.0103
  C  C61  1  0.963560  0.025160  0.595420  1.0  0.0525
  C  C62  1  0.933010  0.989110  0.674170  1.0  0.042
  C  C63  1  0.911920  0.032520  0.724540  1.0  -0.0141
  C  C64  1  0.921500  0.111900  0.696100  1.0  0.0258
  C  C65  1  0.951900  0.148000  0.617500  1.0  -0.0577
  C  C66  1  0.973020  0.104620  0.567040  1.0  -0.1261
  C  C67  1  0.656890  0.473790  0.937930  1.0  0.7102
  C  C68  1  0.752610  0.463210  0.900070  1.0  -0.1245
  C  C69  1  0.798440  0.464640  0.939580  1.0  -0.0162
  C  C70  1  0.878680  0.465880  0.904060  1.0  -0.114
  C  C71  1  0.921950  0.475250  0.941950  1.0  0.6978
  C  C72  1  0.919290  0.463290  0.822730  1.0  -0.0067
  C  C73  1  0.875130  0.463530  0.784510  1.0  0.084
  C  C74  1  0.791320  0.460820  0.825640  1.0  -0.0204
  C  C75  1  0.909740  0.464240  0.702580  1.0  0.034
  C  C76  1  0.866420  0.536820  0.652240  1.0  -0.0868
  C  C77  1  0.902470  0.548970  0.573490  1.0  0.1375
  C  C78  1  0.981840  0.488540  0.545080  1.0  0.0093
  C  C79  1  0.025160  0.415860  0.595420  1.0  0.0519
  C  C80  1  0.989110  0.403710  0.674170  1.0  0.0419
  C  C81  1  0.032520  0.331020  0.724540  1.0  -0.0133
  C  C82  1  0.111900  0.270500  0.696100  1.0  0.0308
  C  C83  1  0.148000  0.282600  0.617500  1.0  -0.0591
  C  C84  1  0.104620  0.355320  0.567040  1.0  -0.1237
  C  C85  1  0.473790  0.931390  0.937930  1.0  0.7102
  C  C86  1  0.463210  0.884110  0.900070  1.0  -0.126
  C  C87  1  0.464640  0.797340  0.939580  1.0  -0.0101
  C  C88  1  0.465880  0.751380  0.904060  1.0  -0.1144
  C  C89  1  0.475250  0.660850  0.941950  1.0  0.6974
  C  C90  1  0.463290  0.794690  0.822730  1.0  -0.0056
  C  C91  1  0.463530  0.876830  0.784510  1.0  0.0836
  C  C92  1  0.460820  0.922220  0.825640  1.0  -0.0189
  C  C93  1  0.464240  0.923440  0.702580  1.0  0.0347
  C  C94  1  0.536820  0.944520  0.652240  1.0  -0.0837
  C  C95  1  0.548970  0.975070  0.573490  1.0  0.136
  C  C96  1  0.488540  0.984540  0.545080  1.0  0.0087
  C  C97  1  0.415860  0.963560  0.595420  1.0  0.0516
  C  C98  1  0.403710  0.933010  0.674170  1.0  0.0426
  C  C99  1  0.331020  0.911920  0.724540  1.0  -0.0145
  C  C100  1  0.270500  0.921500  0.696100  1.0  0.0227
  C  C101  1  0.282600  0.951900  0.617500  1.0  -0.0593
  C  C102  1  0.355320  0.973020  0.567040  1.0  -0.1236
  C  C103  1  0.068610  0.526210  0.062070  1.0  0.7097
  C  C104  1  0.115890  0.536790  0.099930  1.0  -0.1246
  C  C105  1  0.202660  0.535360  0.060420  1.0  -0.0105
  C  C106  1  0.248620  0.534120  0.095940  1.0  -0.1148
  C  C107  1  0.339150  0.524750  0.058050  1.0  0.6961
  C  C108  1  0.205310  0.536710  0.177270  1.0  -0.0044
  C  C109  1  0.123170  0.536470  0.215490  1.0  0.0833
  C  C110  1  0.077780  0.539180  0.174360  1.0  -0.0218
  C  C111  1  0.076560  0.535760  0.297420  1.0  0.0343
  C  C112  1  0.055480  0.463180  0.347760  1.0  -0.0854
  C  C113  1  0.024930  0.451030  0.426510  1.0  0.1399
  C  C114  1  0.015460  0.511460  0.454920  1.0  0.0097
  C  C115  1  0.036440  0.584140  0.404580  1.0  0.0522
  C  C116  1  0.066990  0.596290  0.325830  1.0  0.0428
  C  C117  1  0.088080  0.668980  0.275460  1.0  -0.013
  C  C118  1  0.078500  0.729500  0.303900  1.0  0.0295
  C  C119  1  0.048100  0.717400  0.382500  1.0  -0.0594
  C  C120  1  0.026980  0.644680  0.432960  1.0  -0.1254
  C  C121  1  0.343110  0.068610  0.062070  1.0  0.7087
  C  C122  1  0.247390  0.115890  0.099930  1.0  -0.1254
  C  C123  1  0.201560  0.202660  0.060420  1.0  -0.0115
  C  C124  1  0.121320  0.248620  0.095940  1.0  -0.1132
  C  C125  1  0.078050  0.339150  0.058050  1.0  0.6969
  C  C126  1  0.080710  0.205310  0.177270  1.0  -0.0058
  C  C127  1  0.124870  0.123170  0.215490  1.0  0.0834
  C  C128  1  0.208680  0.077780  0.174360  1.0  -0.0183
  C  C129  1  0.090260  0.076560  0.297420  1.0  0.0332
  C  C130  1  0.133580  0.055480  0.347760  1.0  -0.0836
  C  C131  1  0.097530  0.024930  0.426510  1.0  0.1388
  C  C132  1  0.018160  0.015460  0.454920  1.0  0.0093
  C  C133  1  0.974840  0.036440  0.404580  1.0  0.0516
  C  C134  1  0.010890  0.066990  0.325830  1.0  0.0418
  C  C135  1  0.967480  0.088080  0.275460  1.0  -0.0135
  C  C136  1  0.888100  0.078500  0.303900  1.0  0.0279
  C  C137  1  0.852000  0.048100  0.382500  1.0  -0.0602
  C  C138  1  0.895380  0.026980  0.432960  1.0  -0.1235
  C  C139  1  0.526210  0.343110  0.062070  1.0  0.7104
  C  C140  1  0.536790  0.247390  0.099930  1.0  -0.1247
  C  C141  1  0.535360  0.201560  0.060420  1.0  -0.0157
  C  C142  1  0.534120  0.121320  0.095940  1.0  -0.1148
  C  C143  1  0.524750  0.078050  0.058050  1.0  0.6965
  C  C144  1  0.536710  0.080710  0.177270  1.0  -0.0052
  C  C145  1  0.536470  0.124870  0.215490  1.0  0.0843
  C  C146  1  0.539180  0.208680  0.174360  1.0  -0.02
  C  C147  1  0.535760  0.090260  0.297420  1.0  0.0347
  C  C148  1  0.463180  0.133580  0.347760  1.0  -0.0864
  C  C149  1  0.451030  0.097530  0.426510  1.0  0.1427
  C  C150  1  0.511460  0.018160  0.454920  1.0  0.0109
  C  C151  1  0.584140  0.974840  0.404580  1.0  0.0521
  C  C152  1  0.596290  0.010890  0.325830  1.0  0.0425
  C  C153  1  0.668980  0.967480  0.275460  1.0  -0.0132
  C  C154  1  0.729500  0.888100  0.303900  1.0  0.0299
  C  C155  1  0.717400  0.852000  0.382500  1.0  -0.0587
  C  C156  1  0.644680  0.895380  0.432960  1.0  -0.1263
  Cl  Cl157  1  0.926300  0.171700  0.749800  1.0  -0.216
  Cl  Cl158  1  0.171700  0.152200  0.749800  1.0  -0.211
  Cl  Cl159  1  0.152200  0.926300  0.749800  1.0  -0.2229
  Cl  Cl160  1  0.073700  0.847800  0.250200  1.0  -0.2218
  Cl  Cl161  1  0.828300  0.073700  0.250200  1.0  -0.2135
  Cl  Cl162  1  0.847800  0.828300  0.250200  1.0  -0.2128
  O  O163  1  0.003680  0.619080  0.899560  1.0  -0.5435
  O  O164  1  0.886820  0.626620  0.005340  1.0  -0.5542
  O  O165  1  0.627560  0.886760  0.004620  1.0  -0.5322
  O  O166  1  0.622900  0.002200  0.901600  1.0  -0.5817
  O  O167  1  0.021600  0.848100  0.519700  1.0  -0.6059
  O  O168  1  0.619080  0.477680  0.899560  1.0  -0.542
  O  O169  1  0.626620  0.481220  0.005340  1.0  -0.5536
  O  O170  1  0.886760  0.481060  0.004620  1.0  -0.5326
  O  O171  1  0.002200  0.473300  0.901600  1.0  -0.5822
  O  O172  1  0.848100  0.610600  0.519700  1.0  -0.6016
  O  O173  1  0.477680  0.003680  0.899560  1.0  -0.5433
  O  O174  1  0.481220  0.886820  0.005340  1.0  -0.5541
  O  O175  1  0.481060  0.627560  0.004620  1.0  -0.5324
  O  O176  1  0.473300  0.622900  0.901600  1.0  -0.5857
  O  O177  1  0.610600  0.021600  0.519700  1.0  -0.6034
  O  O178  1  0.996320  0.522320  0.100440  1.0  -0.5425
  O  O179  1  0.113180  0.518780  0.994660  1.0  -0.5548
  O  O180  1  0.372440  0.518940  0.995380  1.0  -0.5307
  O  O181  1  0.377100  0.526700  0.098400  1.0  -0.5828
  O  O182  1  0.978400  0.389400  0.480300  1.0  -0.6009
  O  O183  1  0.380920  0.996320  0.100440  1.0  -0.5427
  O  O184  1  0.373380  0.113180  0.994660  1.0  -0.554
  O  O185  1  0.113240  0.372440  0.995380  1.0  -0.5328
  O  O186  1  0.997800  0.377100  0.098400  1.0  -0.5831
  O  O187  1  0.151900  0.978400  0.480300  1.0  -0.6093
  O  O188  1  0.522320  0.380920  0.100440  1.0  -0.5442
  O  O189  1  0.518780  0.373380  0.994660  1.0  -0.5541
  O  O190  1  0.518940  0.113240  0.995380  1.0  -0.5327
  O  O191  1  0.526700  0.997800  0.098400  1.0  -0.5833
  O  O192  1  0.389400  0.151900  0.480300  1.0  -0.6024
