# generated using pymatgen
data_MgH6(C3O)4
_symmetry_space_group_name_H-M   'P 1'
_cell_length_a   11.09420000
_cell_length_b   11.09420000
_cell_length_c   21.04400000
_cell_angle_alpha   95.89300000
_cell_angle_beta   95.89300000
_cell_angle_gamma   107.21500000
_symmetry_Int_Tables_number   1
_chemical_formula_structural   MgH6(C3O)4
_chemical_formula_sum   'Mg6 H36 C72 O24'
_cell_volume   2436.76214258
_cell_formula_units_Z   6
loop_
 _symmetry_equiv_pos_site_id
 _symmetry_equiv_pos_as_xyz
  1  'x, y, z'
loop_
 _atom_site_type_symbol
 _atom_site_label
 _atom_site_symmetry_multiplicity
 _atom_site_fract_x
 _atom_site_fract_y
 _atom_site_fract_z
 _atom_site_occupancy
 _atom_site_charge
  Mg  Mg1  1  0.982160  0.498980  0.194290  1.0  1.5879
  Mg  Mg2  1  0.501020  0.017840  0.305710  1.0  1.5875
  Mg  Mg3  1  0.017840  0.501020  0.805710  1.0  1.5884
  Mg  Mg4  1  0.498980  0.982160  0.694290  1.0  1.5872
  Mg  Mg5  1  0.752660  0.247340  0.250000  1.0  1.5645
  Mg  Mg6  1  0.247340  0.752660  0.750000  1.0  1.565
  H  H7  1  0.898600  0.979600  0.149300  1.0  0.1095
  H  H8  1  0.012600  0.242400  0.030400  1.0  0.1123
  H  H9  1  0.934600  0.824200  0.078000  1.0  0.1154
  H  H10  1  0.719800  0.606400  0.077000  1.0  0.1088
  H  H11  1  0.476700  0.264300  0.097500  1.0  0.0915
  H  H12  1  0.663500  0.724900  0.989400  1.0  0.1106
  H  H13  1  0.005500  0.722300  0.396000  1.0  0.108
  H  H14  1  0.949900  0.343500  0.389200  1.0  0.1022
  H  H15  1  0.031400  0.748200  0.507100  1.0  0.0839
  H  H16  1  0.020400  0.101400  0.350700  1.0  0.1104
  H  H17  1  0.757600  0.987400  0.469600  1.0  0.1076
  H  H18  1  0.175800  0.065400  0.422000  1.0  0.1154
  H  H19  1  0.393600  0.280200  0.423000  1.0  0.1072
  H  H20  1  0.735700  0.523300  0.402500  1.0  0.0891
  H  H21  1  0.275100  0.336500  0.510600  1.0  0.1113
  H  H22  1  0.277700  0.994500  0.104000  1.0  0.1078
  H  H23  1  0.656500  0.050100  0.110800  1.0  0.1023
  H  H24  1  0.251800  0.968600  0.992900  1.0  0.0839
  H  H25  1  0.101400  0.020400  0.850700  1.0  0.1098
  H  H26  1  0.987400  0.757600  0.969600  1.0  0.1134
  H  H27  1  0.065400  0.175800  0.922000  1.0  0.1153
  H  H28  1  0.280200  0.393600  0.923000  1.0  0.1061
  H  H29  1  0.523300  0.735700  0.902500  1.0  0.0907
  H  H30  1  0.336500  0.275100  0.010600  1.0  0.1112
  H  H31  1  0.994500  0.277700  0.604000  1.0  0.1077
  H  H32  1  0.050100  0.656500  0.610800  1.0  0.1021
  H  H33  1  0.968600  0.251800  0.492900  1.0  0.0837
  H  H34  1  0.979600  0.898600  0.649300  1.0  0.11
  H  H35  1  0.242400  0.012600  0.530400  1.0  0.1111
  H  H36  1  0.824200  0.934600  0.578000  1.0  0.1155
  H  H37  1  0.606400  0.719800  0.577000  1.0  0.1086
  H  H38  1  0.264300  0.476700  0.597500  1.0  0.0896
  H  H39  1  0.724900  0.663500  0.489400  1.0  0.1111
  H  H40  1  0.722300  0.005500  0.896000  1.0  0.1078
  H  H41  1  0.343500  0.949900  0.889200  1.0  0.1019
  H  H42  1  0.748200  0.031400  0.007100  1.0  0.0833
  C  C43  1  0.918500  0.224500  0.141080  1.0  0.7566
  C  C44  1  0.950400  0.127000  0.095590  1.0  -0.1384
  C  C45  1  0.927900  0.000500  0.109790  1.0  -0.0435
  C  C46  1  0.994000  0.157000  0.039100  1.0  -0.0938
  C  C47  1  0.012400  0.063200  0.992680  1.0  0.047
  C  C48  1  0.947800  0.907800  0.067160  1.0  -0.1498
  C  C49  1  0.706380  0.424820  0.150200  1.0  0.7555
  C  C50  1  0.612820  0.435580  0.095280  1.0  -0.1429
  C  C51  1  0.641990  0.539810  0.063290  1.0  -0.0891
  C  C52  1  0.557700  0.549700  0.010020  1.0  0.045
  C  C53  1  0.497100  0.336300  0.075160  1.0  -0.0298
  C  C54  1  0.586200  0.657200  0.976230  1.0  -0.1389
  C  C55  1  0.962140  0.515860  0.310650  1.0  0.7473
  C  C56  1  0.974280  0.528320  0.382420  1.0  -0.127
  C  C57  1  0.999950  0.650650  0.418020  1.0  -0.0556
  C  C58  1  0.967770  0.425230  0.413560  1.0  -0.0549
  C  C59  1  0.987570  0.438630  0.482240  1.0  0.0422
  C  C60  1  0.016700  0.666100  0.483730  1.0  -0.1141
  C  C61  1  0.775500  0.081500  0.358920  1.0  0.7512
  C  C62  1  0.873000  0.049600  0.404410  1.0  -0.1381
  C  C63  1  0.999500  0.072100  0.390210  1.0  -0.0428
  C  C64  1  0.843000  0.006000  0.460900  1.0  -0.096
  C  C65  1  0.936800  0.987600  0.507320  1.0  0.0452
  C  C66  1  0.092200  0.052200  0.432840  1.0  -0.1518
  C  C67  1  0.575180  0.293620  0.349800  1.0  0.7645
  C  C68  1  0.564420  0.387180  0.404720  1.0  -0.1463
  C  C69  1  0.460190  0.358010  0.436710  1.0  -0.0881
  C  C70  1  0.450300  0.442300  0.489980  1.0  0.0449
  C  C71  1  0.663700  0.502900  0.424840  1.0  -0.03
  C  C72  1  0.342800  0.413800  0.523770  1.0  -0.1416
  C  C73  1  0.484140  0.037860  0.189350  1.0  0.7483
  C  C74  1  0.471680  0.025720  0.117580  1.0  -0.1228
  C  C75  1  0.349350  0.000050  0.081980  1.0  -0.0548
  C  C76  1  0.574770  0.032230  0.086440  1.0  -0.0601
  C  C77  1  0.561370  0.012430  0.017760  1.0  0.0424
  C  C78  1  0.333900  0.983300  0.016270  1.0  -0.1129
  C  C79  1  0.081500  0.775500  0.858920  1.0  0.7528
  C  C80  1  0.049600  0.873000  0.904410  1.0  -0.1378
  C  C81  1  0.072100  0.999500  0.890210  1.0  -0.0415
  C  C82  1  0.006000  0.843000  0.960900  1.0  -0.0935
  C  C83  1  0.987600  0.936800  0.007320  1.0  0.0464
  C  C84  1  0.052200  0.092200  0.932840  1.0  -0.1506
  C  C85  1  0.293620  0.575180  0.849800  1.0  0.7576
  C  C86  1  0.387180  0.564420  0.904720  1.0  -0.1445
  C  C87  1  0.358010  0.460190  0.936710  1.0  -0.0884
  C  C88  1  0.442300  0.450300  0.989980  1.0  0.0446
  C  C89  1  0.502900  0.663700  0.924840  1.0  -0.0315
  C  C90  1  0.413800  0.342800  0.023770  1.0  -0.1441
  C  C91  1  0.037860  0.484140  0.689350  1.0  0.7498
  C  C92  1  0.025720  0.471680  0.617580  1.0  -0.1254
  C  C93  1  0.000050  0.349350  0.581980  1.0  -0.0561
  C  C94  1  0.032230  0.574770  0.586440  1.0  -0.0562
  C  C95  1  0.012430  0.561370  0.517760  1.0  0.0424
  C  C96  1  0.983300  0.333900  0.516270  1.0  -0.1094
  C  C97  1  0.224500  0.918500  0.641080  1.0  0.7556
  C  C98  1  0.127000  0.950400  0.595590  1.0  -0.1384
  C  C99  1  0.000500  0.927900  0.609790  1.0  -0.0447
  C  C100  1  0.157000  0.994000  0.539100  1.0  -0.0941
  C  C101  1  0.063200  0.012400  0.492680  1.0  0.0461
  C  C102  1  0.907800  0.947800  0.567160  1.0  -0.1502
  C  C103  1  0.424820  0.706380  0.650200  1.0  0.7595
  C  C104  1  0.435580  0.612820  0.595280  1.0  -0.1449
  C  C105  1  0.539810  0.641990  0.563290  1.0  -0.0904
  C  C106  1  0.549700  0.557700  0.510020  1.0  0.0449
  C  C107  1  0.336300  0.497100  0.575160  1.0  -0.0286
  C  C108  1  0.657200  0.586200  0.476230  1.0  -0.1378
  C  C109  1  0.515860  0.962140  0.810650  1.0  0.7454
  C  C110  1  0.528320  0.974280  0.882420  1.0  -0.1259
  C  C111  1  0.650650  0.999950  0.918020  1.0  -0.0537
  C  C112  1  0.425230  0.967770  0.913560  1.0  -0.0546
  C  C113  1  0.438630  0.987570  0.982240  1.0  0.0425
  C  C114  1  0.666100  0.016700  0.983730  1.0  -0.1149
  O  O115  1  0.957150  0.338250  0.132170  1.0  -0.7999
  O  O116  1  0.855330  0.181210  0.184910  1.0  -0.6798
  O  O117  1  0.812070  0.510450  0.160870  1.0  -0.7929
  O  O118  1  0.672670  0.329950  0.179890  1.0  -0.7014
  O  O119  1  0.005570  0.612930  0.284510  1.0  -0.7152
  O  O120  1  0.916050  0.406330  0.276330  1.0  -0.8359
  O  O121  1  0.661750  0.042850  0.367830  1.0  -0.8017
  O  O122  1  0.818790  0.144670  0.315090  1.0  -0.6757
  O  O123  1  0.489550  0.187930  0.339130  1.0  -0.796
  O  O124  1  0.670050  0.327330  0.320110  1.0  -0.7008
  O  O125  1  0.387070  0.994430  0.215490  1.0  -0.7084
  O  O126  1  0.593670  0.083950  0.223670  1.0  -0.8366
  O  O127  1  0.042850  0.661750  0.867830  1.0  -0.8033
  O  O128  1  0.144670  0.818790  0.815090  1.0  -0.6779
  O  O129  1  0.187930  0.489550  0.839130  1.0  -0.7924
  O  O130  1  0.327330  0.670050  0.820110  1.0  -0.6994
  O  O131  1  0.994430  0.387070  0.715490  1.0  -0.7088
  O  O132  1  0.083950  0.593670  0.723670  1.0  -0.8368
  O  O133  1  0.338250  0.957150  0.632170  1.0  -0.7995
  O  O134  1  0.181210  0.855330  0.684910  1.0  -0.6797
  O  O135  1  0.510450  0.812070  0.660870  1.0  -0.7977
  O  O136  1  0.329950  0.672670  0.679890  1.0  -0.7014
  O  O137  1  0.612930  0.005570  0.784510  1.0  -0.7152
  O  O138  1  0.406330  0.916050  0.776330  1.0  -0.8375
