# generated using pymatgen
data_MgH6(C3O)4
_symmetry_space_group_name_H-M   'P 1'
_cell_length_a   11.25770000
_cell_length_b   11.25770000
_cell_length_c   20.94600000
_cell_angle_alpha   95.88220000
_cell_angle_beta   95.88220000
_cell_angle_gamma   106.47800000
_symmetry_Int_Tables_number   1
_chemical_formula_structural   MgH6(C3O)4
_chemical_formula_sum   'Mg6 H36 C72 O24'
_cell_volume   2507.98016474
_cell_formula_units_Z   6
loop_
 _symmetry_equiv_pos_site_id
 _symmetry_equiv_pos_as_xyz
  1  'x, y, z'
loop_
 _atom_site_type_symbol
 _atom_site_label
 _atom_site_symmetry_multiplicity
 _atom_site_fract_x
 _atom_site_fract_y
 _atom_site_fract_z
 _atom_site_occupancy
 _atom_site_charge
  Mg  Mg1  1  0.507080  0.022340  0.307860  1.0  1.5867
  Mg  Mg2  1  0.977660  0.492920  0.192140  1.0  1.5863
  Mg  Mg3  1  0.492920  0.977660  0.692140  1.0  1.5852
  Mg  Mg4  1  0.022340  0.507080  0.807860  1.0  1.5868
  Mg  Mg5  1  0.752390  0.247610  0.250000  1.0  1.5552
  Mg  Mg6  1  0.247610  0.752390  0.750000  1.0  1.5555
  H  H7  1  0.652700  0.047300  0.109200  1.0  0.102
  H  H8  1  0.286700  0.003500  0.105400  1.0  0.1133
  H  H9  1  0.740000  0.022800  0.005000  1.0  0.08
  H  H10  1  0.761500  0.989300  0.469600  1.0  0.1072
  H  H11  1  0.017900  0.104900  0.353300  1.0  0.1026
  H  H12  1  0.829000  0.932400  0.576400  1.0  0.1194
  H  H13  1  0.721700  0.652300  0.491000  1.0  0.1036
  H  H14  1  0.730800  0.515400  0.404100  1.0  0.0791
  H  H15  1  0.396900  0.287700  0.422300  1.0  0.1009
  H  H16  1  0.952700  0.347300  0.390800  1.0  0.1024
  H  H17  1  0.996500  0.713300  0.394600  1.0  0.1129
  H  H18  1  0.977200  0.260000  0.495000  1.0  0.0801
  H  H19  1  0.010700  0.238500  0.030400  1.0  0.109
  H  H20  1  0.895100  0.982100  0.146700  1.0  0.1015
  H  H21  1  0.067600  0.171000  0.923600  1.0  0.1181
  H  H22  1  0.347700  0.278300  0.009000  1.0  0.103
  H  H23  1  0.484600  0.269200  0.095900  1.0  0.0806
  H  H24  1  0.712300  0.603100  0.077700  1.0  0.1006
  H  H25  1  0.347300  0.952700  0.890800  1.0  0.1019
  H  H26  1  0.713300  0.996500  0.894600  1.0  0.1132
  H  H27  1  0.260000  0.977200  0.995000  1.0  0.0806
  H  H28  1  0.238500  0.010700  0.530400  1.0  0.1075
  H  H29  1  0.982100  0.895100  0.646700  1.0  0.1022
  H  H30  1  0.171000  0.067600  0.423600  1.0  0.1183
  H  H31  1  0.278300  0.347700  0.509000  1.0  0.1037
  H  H32  1  0.269200  0.484600  0.595900  1.0  0.0794
  H  H33  1  0.603100  0.712300  0.577700  1.0  0.1015
  H  H34  1  0.047300  0.652700  0.609200  1.0  0.1024
  H  H35  1  0.003500  0.286700  0.605400  1.0  0.1134
  H  H36  1  0.022800  0.740000  0.505000  1.0  0.0806
  H  H37  1  0.989300  0.761500  0.969600  1.0  0.1093
  H  H38  1  0.104900  0.017900  0.853300  1.0  0.1016
  H  H39  1  0.932400  0.829000  0.076400  1.0  0.1183
  H  H40  1  0.652300  0.721700  0.991000  1.0  0.1028
  H  H41  1  0.515400  0.730800  0.904100  1.0  0.0799
  H  H42  1  0.287700  0.396900  0.922300  1.0  0.1001
  C  C43  1  0.560300  0.011500  0.017900  1.0  0.0321
  C  C44  1  0.573800  0.031400  0.085700  1.0  -0.0535
  C  C45  1  0.474400  0.027800  0.117700  1.0  -0.1176
  C  C46  1  0.354700  0.006100  0.083300  1.0  -0.0545
  C  C47  1  0.661000  0.011000  0.982500  1.0  -0.1004
  C  C48  1  0.488900  0.041900  0.190900  1.0  0.7334
  C  C49  1  0.938100  0.987500  0.507800  1.0  0.0405
  C  C50  1  0.843800  0.007800  0.461200  1.0  -0.0745
  C  C51  1  0.873700  0.053100  0.405600  1.0  -0.1526
  C  C52  1  0.997700  0.075300  0.391900  1.0  -0.0459
  C  C53  1  0.909600  0.946000  0.565800  1.0  -0.1327
  C  C54  1  0.778900  0.085100  0.359500  1.0  0.7592
  C  C55  1  0.655500  0.579900  0.477600  1.0  -0.142
  C  C56  1  0.661100  0.497100  0.425800  1.0  -0.0337
  C  C57  1  0.564800  0.386200  0.405000  1.0  -0.1605
  C  C58  1  0.461700  0.361100  0.436200  1.0  -0.0766
  C  C59  1  0.549000  0.555400  0.510600  1.0  0.0368
  C  C60  1  0.576500  0.293100  0.350400  1.0  0.7703
  C  C61  1  0.988500  0.439700  0.482100  1.0  0.032
  C  C62  1  0.968600  0.426200  0.414300  1.0  -0.0546
  C  C63  1  0.972200  0.525600  0.382300  1.0  -0.1193
  C  C64  1  0.993900  0.645300  0.416700  1.0  -0.0561
  C  C65  1  0.989000  0.339000  0.517500  1.0  -0.1001
  C  C66  1  0.958100  0.511100  0.309100  1.0  0.7347
  C  C67  1  0.012500  0.061900  0.992200  1.0  0.0426
  C  C68  1  0.992200  0.156200  0.038800  1.0  -0.0729
  C  C69  1  0.946900  0.126300  0.094400  1.0  -0.152
  C  C70  1  0.924700  0.002300  0.108100  1.0  -0.0446
  C  C71  1  0.054000  0.090400  0.934200  1.0  -0.1319
  C  C72  1  0.914900  0.221100  0.140500  1.0  0.754
  C  C73  1  0.420100  0.344500  0.022400  1.0  -0.1428
  C  C74  1  0.502900  0.338900  0.074200  1.0  -0.0367
  C  C75  1  0.613800  0.435200  0.095000  1.0  -0.1587
  C  C76  1  0.638900  0.538300  0.063800  1.0  -0.0759
  C  C77  1  0.444600  0.451000  0.989400  1.0  0.0366
  C  C78  1  0.706900  0.423500  0.149600  1.0  0.7693
  C  C79  1  0.439700  0.988500  0.982100  1.0  0.0323
  C  C80  1  0.426200  0.968600  0.914300  1.0  -0.0543
  C  C81  1  0.525600  0.972200  0.882300  1.0  -0.1183
  C  C82  1  0.645300  0.993900  0.916700  1.0  -0.0629
  C  C83  1  0.339000  0.989000  0.017500  1.0  -0.111
  C  C84  1  0.511100  0.958100  0.809100  1.0  0.7345
  C  C85  1  0.061900  0.012500  0.492200  1.0  0.0404
  C  C86  1  0.156200  0.992200  0.538800  1.0  -0.0727
  C  C87  1  0.126300  0.946900  0.594400  1.0  -0.1534
  C  C88  1  0.002300  0.924700  0.608100  1.0  -0.0457
  C  C89  1  0.090400  0.054000  0.434200  1.0  -0.1293
  C  C90  1  0.221100  0.914900  0.640500  1.0  0.7543
  C  C91  1  0.344500  0.420100  0.522400  1.0  -0.1429
  C  C92  1  0.338900  0.502900  0.574200  1.0  -0.0343
  C  C93  1  0.435200  0.613800  0.595000  1.0  -0.161
  C  C94  1  0.538300  0.638900  0.563800  1.0  -0.0785
  C  C95  1  0.451000  0.444600  0.489400  1.0  0.0361
  C  C96  1  0.423500  0.706900  0.649600  1.0  0.772
  C  C97  1  0.011500  0.560300  0.517900  1.0  0.0322
  C  C98  1  0.031400  0.573800  0.585700  1.0  -0.0538
  C  C99  1  0.027800  0.474400  0.617700  1.0  -0.1189
  C  C100  1  0.006100  0.354700  0.583300  1.0  -0.0633
  C  C101  1  0.011000  0.661000  0.482500  1.0  -0.1095
  C  C102  1  0.041900  0.488900  0.690900  1.0  0.734
  C  C103  1  0.987500  0.938100  0.007800  1.0  0.0423
  C  C104  1  0.007800  0.843800  0.961200  1.0  -0.0681
  C  C105  1  0.053100  0.873700  0.905600  1.0  -0.1521
  C  C106  1  0.075300  0.997700  0.891900  1.0  -0.0447
  C  C107  1  0.946000  0.909600  0.065800  1.0  -0.1318
  C  C108  1  0.085100  0.778900  0.859500  1.0  0.7579
  C  C109  1  0.579900  0.655500  0.977600  1.0  -0.1461
  C  C110  1  0.497100  0.661100  0.925800  1.0  -0.0361
  C  C111  1  0.386200  0.564800  0.905000  1.0  -0.1596
  C  C112  1  0.361100  0.461700  0.936200  1.0  -0.0773
  C  C113  1  0.555400  0.549000  0.010600  1.0  0.0365
  C  C114  1  0.293100  0.576500  0.850400  1.0  0.7652
  O  O115  1  0.666200  0.047400  0.369000  1.0  -0.8196
  O  O116  1  0.820000  0.146800  0.315900  1.0  -0.6596
  O  O117  1  0.596400  0.086800  0.223570  1.0  -0.7975
  O  O118  1  0.393500  0.999700  0.217570  1.0  -0.7258
  O  O119  1  0.668600  0.326000  0.320660  1.0  -0.6975
  O  O120  1  0.492400  0.190200  0.340400  1.0  -0.7868
  O  O121  1  0.952600  0.333800  0.131000  1.0  -0.8179
  O  O122  1  0.853200  0.180000  0.184100  1.0  -0.6676
  O  O123  1  0.913200  0.403600  0.276430  1.0  -0.8004
  O  O124  1  0.000300  0.606500  0.282430  1.0  -0.721
  O  O125  1  0.674000  0.331400  0.179340  1.0  -0.6996
  O  O126  1  0.809800  0.507600  0.159600  1.0  -0.7784
  O  O127  1  0.333800  0.952600  0.631000  1.0  -0.8153
  O  O128  1  0.180000  0.853200  0.684100  1.0  -0.6683
  O  O129  1  0.403600  0.913200  0.776430  1.0  -0.7983
  O  O130  1  0.606500  0.000300  0.782430  1.0  -0.7253
  O  O131  1  0.331400  0.674000  0.679340  1.0  -0.7008
  O  O132  1  0.507600  0.809800  0.659600  1.0  -0.785
  O  O133  1  0.047400  0.666200  0.869000  1.0  -0.8204
  O  O134  1  0.146800  0.820000  0.815900  1.0  -0.6638
  O  O135  1  0.086800  0.596400  0.723570  1.0  -0.7984
  O  O136  1  0.999700  0.393500  0.717570  1.0  -0.7234
  O  O137  1  0.326000  0.668600  0.820660  1.0  -0.697
  O  O138  1  0.190200  0.492400  0.840400  1.0  -0.7846
