# generated using pymatgen
data_ZnH11C14NO3
_symmetry_space_group_name_H-M   'P 1'
_cell_length_a   31.86400000
_cell_length_b   31.86400000
_cell_length_c   12.84600000
_cell_angle_alpha   90.00000000
_cell_angle_beta   90.00000000
_cell_angle_gamma   120.00000000
_symmetry_Int_Tables_number   1
_chemical_formula_structural   ZnH11C14NO3
_chemical_formula_sum   'Zn18 H198 C252 N18 O54'
_cell_volume   11295.33552823
_cell_formula_units_Z   18
loop_
 _symmetry_equiv_pos_site_id
 _symmetry_equiv_pos_as_xyz
  1  'x, y, z'
loop_
 _atom_site_type_symbol
 _atom_site_label
 _atom_site_symmetry_multiplicity
 _atom_site_fract_x
 _atom_site_fract_y
 _atom_site_fract_z
 _atom_site_occupancy
 _atom_site_charge
  Zn  Zn1  1  0.016730  0.309260  0.802860  1.0  0.6873
  Zn  Zn2  1  0.683390  0.642600  0.136190  1.0  0.6922
  Zn  Zn3  1  0.350060  0.975930  0.469530  1.0  0.6934
  Zn  Zn4  1  0.690740  0.707460  0.802860  1.0  0.6896
  Zn  Zn5  1  0.357400  0.040800  0.136190  1.0  0.6886
  Zn  Zn6  1  0.024070  0.374130  0.469530  1.0  0.6868
  Zn  Zn7  1  0.292540  0.983270  0.802860  1.0  0.6947
  Zn  Zn8  1  0.959200  0.316610  0.136190  1.0  0.6944
  Zn  Zn9  1  0.625870  0.649940  0.469530  1.0  0.6943
  Zn  Zn10  1  0.983270  0.690740  0.197140  1.0  0.6868
  Zn  Zn11  1  0.649940  0.024070  0.530470  1.0  0.6926
  Zn  Zn12  1  0.316610  0.357400  0.863810  1.0  0.6917
  Zn  Zn13  1  0.309260  0.292540  0.197140  1.0  0.6915
  Zn  Zn14  1  0.975930  0.625870  0.530470  1.0  0.6886
  Zn  Zn15  1  0.642600  0.959200  0.863810  1.0  0.6902
  Zn  Zn16  1  0.707460  0.016730  0.197140  1.0  0.6929
  Zn  Zn17  1  0.374130  0.350060  0.530470  1.0  0.6925
  Zn  Zn18  1  0.040800  0.683390  0.863810  1.0  0.6927
  H  H19  1  0.069200  0.276500  0.958100  1.0  0.0746
  H  H20  1  0.050100  0.254900  0.164600  1.0  0.0845
  H  H21  1  0.185500  0.227300  0.996300  1.0  0.0882
  H  H22  1  0.190700  0.198600  0.158600  1.0  0.0852
  H  H23  1  0.138100  0.191400  0.289300  1.0  0.1014
  H  H24  1  0.082600  0.216200  0.260900  1.0  0.0955
  H  H25  1  0.915500  0.250800  0.883500  1.0  0.0637
  H  H26  1  0.840600  0.190200  0.833800  1.0  0.1033
  H  H27  1  0.893200  0.199700  0.546000  1.0  0.1089
  H  H28  1  0.966600  0.259400  0.604600  1.0  0.0598
  H  H29  1  0.155500  0.271400  0.911200  1.0  0.4373
  H  H30  1  0.735870  0.609830  0.291430  1.0  0.0746
  H  H31  1  0.716770  0.588230  0.497930  1.0  0.0845
  H  H32  1  0.852170  0.560630  0.329630  1.0  0.0881
  H  H33  1  0.857370  0.531930  0.491930  1.0  0.0852
  H  H34  1  0.804770  0.524730  0.622630  1.0  0.1014
  H  H35  1  0.749270  0.549530  0.594230  1.0  0.0955
  H  H36  1  0.582170  0.584130  0.216830  1.0  0.0637
  H  H37  1  0.507270  0.523530  0.167130  1.0  0.1033
  H  H38  1  0.559870  0.533030  0.879330  1.0  0.1088
  H  H39  1  0.633270  0.592730  0.937930  1.0  0.0598
  H  H40  1  0.822170  0.604730  0.244530  1.0  0.4373
  H  H41  1  0.402530  0.943170  0.624770  1.0  0.0746
  H  H42  1  0.383430  0.921570  0.831270  1.0  0.0846
  H  H43  1  0.518830  0.893970  0.662970  1.0  0.0882
  H  H44  1  0.524030  0.865270  0.825270  1.0  0.0853
  H  H45  1  0.471430  0.858070  0.955970  1.0  0.1014
  H  H46  1  0.415930  0.882870  0.927570  1.0  0.0955
  H  H47  1  0.248830  0.917470  0.550170  1.0  0.0637
  H  H48  1  0.173930  0.856870  0.500470  1.0  0.1033
  H  H49  1  0.226530  0.866370  0.212670  1.0  0.1089
  H  H50  1  0.299930  0.926070  0.271270  1.0  0.0598
  H  H51  1  0.488830  0.938070  0.577870  1.0  0.4373
  H  H52  1  0.723500  0.792700  0.958100  1.0  0.0751
  H  H53  1  0.745100  0.795200  0.164600  1.0  0.0842
  H  H54  1  0.772700  0.958200  0.996300  1.0  0.0881
  H  H55  1  0.801400  0.992100  0.158600  1.0  0.0828
  H  H56  1  0.808600  0.946700  0.289300  1.0  0.0992
  H  H57  1  0.783800  0.866400  0.260900  1.0  0.0935
  H  H58  1  0.749200  0.664700  0.883500  1.0  0.0646
  H  H59  1  0.809800  0.650400  0.833800  1.0  0.1065
  H  H60  1  0.800300  0.693500  0.546000  1.0  0.1088
  H  H61  1  0.740600  0.707200  0.604600  1.0  0.0597
  H  H62  1  0.728600  0.884100  0.911200  1.0  0.439
  H  H63  1  0.390170  0.126030  0.291430  1.0  0.0751
  H  H64  1  0.411770  0.128530  0.497930  1.0  0.0842
  H  H65  1  0.439370  0.291530  0.329630  1.0  0.0883
  H  H66  1  0.468070  0.325430  0.491930  1.0  0.0828
  H  H67  1  0.475270  0.280030  0.622630  1.0  0.0992
  H  H68  1  0.450470  0.199730  0.594230  1.0  0.0935
  H  H69  1  0.415870  0.998030  0.216830  1.0  0.0646
  H  H70  1  0.476470  0.983730  0.167130  1.0  0.1064
  H  H71  1  0.466970  0.026830  0.879330  1.0  0.1088
  H  H72  1  0.407270  0.040530  0.937930  1.0  0.0597
  H  H73  1  0.395270  0.217430  0.244530  1.0  0.439
  H  H74  1  0.056830  0.459370  0.624770  1.0  0.0751
  H  H75  1  0.078430  0.461870  0.831270  1.0  0.0841
  H  H76  1  0.106030  0.624870  0.662970  1.0  0.0881
  H  H77  1  0.134730  0.658770  0.825270  1.0  0.0828
  H  H78  1  0.141930  0.613370  0.955970  1.0  0.0992
  H  H79  1  0.117130  0.533070  0.927570  1.0  0.0935
  H  H80  1  0.082530  0.331370  0.550170  1.0  0.0646
  H  H81  1  0.143130  0.317070  0.500470  1.0  0.1065
  H  H82  1  0.133630  0.360170  0.212670  1.0  0.1088
  H  H83  1  0.073930  0.373870  0.271270  1.0  0.0597
  H  H84  1  0.061930  0.550770  0.577870  1.0  0.4391
  H  H85  1  0.207300  0.930800  0.958100  1.0  0.0754
  H  H86  1  0.204800  0.949900  0.164600  1.0  0.0848
  H  H87  1  0.041800  0.814500  0.996300  1.0  0.0882
  H  H88  1  0.007900  0.809300  0.158600  1.0  0.0848
  H  H89  1  0.053300  0.861900  0.289300  1.0  0.0999
  H  H90  1  0.133600  0.917400  0.260900  1.0  0.0931
  H  H91  1  0.335300  0.084500  0.883500  1.0  0.0635
  H  H92  1  0.349600  0.159400  0.833800  1.0  0.1029
  H  H93  1  0.306500  0.106800  0.546000  1.0  0.1085
  H  H94  1  0.292800  0.033400  0.604600  1.0  0.0601
  H  H95  1  0.115900  0.844500  0.911200  1.0  0.433
  H  H96  1  0.873970  0.264130  0.291430  1.0  0.0754
  H  H97  1  0.871470  0.283230  0.497930  1.0  0.0848
  H  H98  1  0.708470  0.147830  0.329630  1.0  0.0881
  H  H99  1  0.674570  0.142630  0.491930  1.0  0.0848
  H  H100  1  0.719970  0.195230  0.622630  1.0  0.0999
  H  H101  1  0.800270  0.250730  0.594230  1.0  0.0931
  H  H102  1  0.001970  0.417830  0.216830  1.0  0.0635
  H  H103  1  0.016270  0.492730  0.167130  1.0  0.1028
  H  H104  1  0.973170  0.440130  0.879330  1.0  0.1086
  H  H105  1  0.959470  0.366730  0.937930  1.0  0.0601
  H  H106  1  0.782570  0.177830  0.244530  1.0  0.433
  H  H107  1  0.540630  0.597470  0.624770  1.0  0.0754
  H  H108  1  0.538130  0.616570  0.831270  1.0  0.0847
  H  H109  1  0.375130  0.481170  0.662970  1.0  0.0883
  H  H110  1  0.341230  0.475970  0.825270  1.0  0.0847
  H  H111  1  0.386630  0.528570  0.955970  1.0  0.0999
  H  H112  1  0.466930  0.584070  0.927570  1.0  0.0931
  H  H113  1  0.668630  0.751170  0.550170  1.0  0.0635
  H  H114  1  0.682930  0.826070  0.500470  1.0  0.1029
  H  H115  1  0.639830  0.773470  0.212670  1.0  0.1087
  H  H116  1  0.626130  0.700070  0.271270  1.0  0.0601
  H  H117  1  0.449230  0.511170  0.577870  1.0  0.4326
  H  H118  1  0.930800  0.723500  0.041900  1.0  0.0759
  H  H119  1  0.949900  0.745100  0.835400  1.0  0.0844
  H  H120  1  0.814500  0.772700  0.003700  1.0  0.0881
  H  H121  1  0.809300  0.801400  0.841400  1.0  0.0868
  H  H122  1  0.861900  0.808600  0.710700  1.0  0.1009
  H  H123  1  0.917400  0.783800  0.739100  1.0  0.0934
  H  H124  1  0.084500  0.749200  0.116500  1.0  0.0639
  H  H125  1  0.159400  0.809800  0.166200  1.0  0.1033
  H  H126  1  0.106800  0.800300  0.454000  1.0  0.108
  H  H127  1  0.033400  0.740600  0.395400  1.0  0.06
  H  H128  1  0.844500  0.728600  0.088800  1.0  0.4387
  H  H129  1  0.597470  0.056830  0.375230  1.0  0.0759
  H  H130  1  0.616570  0.078430  0.168730  1.0  0.0845
  H  H131  1  0.481170  0.106030  0.337030  1.0  0.0881
  H  H132  1  0.475970  0.134730  0.174730  1.0  0.0868
  H  H133  1  0.528570  0.141930  0.044030  1.0  0.1009
  H  H134  1  0.584070  0.117130  0.072430  1.0  0.0934
  H  H135  1  0.751170  0.082530  0.449830  1.0  0.0639
  H  H136  1  0.826070  0.143130  0.499530  1.0  0.1033
  H  H137  1  0.773470  0.133630  0.787330  1.0  0.108
  H  H138  1  0.700070  0.073930  0.728730  1.0  0.06
  H  H139  1  0.511170  0.061930  0.422130  1.0  0.4387
  H  H140  1  0.264130  0.390170  0.708570  1.0  0.0759
  H  H141  1  0.283230  0.411770  0.502070  1.0  0.0844
  H  H142  1  0.147830  0.439370  0.670370  1.0  0.088
  H  H143  1  0.142630  0.468070  0.508070  1.0  0.0868
  H  H144  1  0.195230  0.475270  0.377370  1.0  0.1009
  H  H145  1  0.250730  0.450470  0.405770  1.0  0.0934
  H  H146  1  0.417830  0.415870  0.783170  1.0  0.0639
  H  H147  1  0.492730  0.476470  0.832870  1.0  0.1033
  H  H148  1  0.440130  0.466970  0.120670  1.0  0.1079
  H  H149  1  0.366730  0.407270  0.062070  1.0  0.06
  H  H150  1  0.177830  0.395270  0.755470  1.0  0.4387
  H  H151  1  0.276500  0.207300  0.041900  1.0  0.0756
  H  H152  1  0.254900  0.204800  0.835400  1.0  0.086
  H  H153  1  0.227300  0.041800  0.003700  1.0  0.0888
  H  H154  1  0.198600  0.007900  0.841400  1.0  0.083
  H  H155  1  0.191400  0.053300  0.710700  1.0  0.0991
  H  H156  1  0.216200  0.133600  0.739100  1.0  0.0938
  H  H157  1  0.250800  0.335300  0.116500  1.0  0.0644
  H  H158  1  0.190200  0.349600  0.166200  1.0  0.1053
  H  H159  1  0.199700  0.306500  0.454000  1.0  0.1077
  H  H160  1  0.259400  0.292800  0.395400  1.0  0.0596
  H  H161  1  0.271400  0.115900  0.088800  1.0  0.438
  H  H162  1  0.943170  0.540630  0.375230  1.0  0.0755
  H  H163  1  0.921570  0.538130  0.168730  1.0  0.0859
  H  H164  1  0.893970  0.375130  0.337030  1.0  0.0888
  H  H165  1  0.865270  0.341230  0.174730  1.0  0.083
  H  H166  1  0.858070  0.386630  0.044030  1.0  0.0991
  H  H167  1  0.882870  0.466930  0.072430  1.0  0.0938
  H  H168  1  0.917470  0.668630  0.449830  1.0  0.0644
  H  H169  1  0.856870  0.682930  0.499530  1.0  0.1053
  H  H170  1  0.866370  0.639830  0.787330  1.0  0.1077
  H  H171  1  0.926070  0.626130  0.728730  1.0  0.0596
  H  H172  1  0.938070  0.449230  0.422130  1.0  0.438
  H  H173  1  0.609830  0.873970  0.708570  1.0  0.0756
  H  H174  1  0.588230  0.871470  0.502070  1.0  0.086
  H  H175  1  0.560630  0.708470  0.670370  1.0  0.089
  H  H176  1  0.531930  0.674570  0.508070  1.0  0.0829
  H  H177  1  0.524730  0.719970  0.377370  1.0  0.0991
  H  H178  1  0.549530  0.800270  0.405770  1.0  0.0938
  H  H179  1  0.584130  0.001970  0.783170  1.0  0.0644
  H  H180  1  0.523530  0.016270  0.832870  1.0  0.1052
  H  H181  1  0.533030  0.973170  0.120670  1.0  0.1077
  H  H182  1  0.592730  0.959470  0.062070  1.0  0.0596
  H  H183  1  0.604730  0.782570  0.755470  1.0  0.438
  H  H184  1  0.792700  0.069200  0.041900  1.0  0.0748
  H  H185  1  0.795200  0.050100  0.835400  1.0  0.0847
  H  H186  1  0.958200  0.185500  0.003700  1.0  0.0883
  H  H187  1  0.992100  0.190700  0.841400  1.0  0.0846
  H  H188  1  0.946700  0.138100  0.710700  1.0  0.0981
  H  H189  1  0.866400  0.082600  0.739100  1.0  0.0928
  H  H190  1  0.664700  0.915500  0.116500  1.0  0.0647
  H  H191  1  0.650400  0.840600  0.166200  1.0  0.1032
  H  H192  1  0.693500  0.893200  0.454000  1.0  0.1076
  H  H193  1  0.707200  0.966600  0.395400  1.0  0.0599
  H  H194  1  0.884100  0.155500  0.088800  1.0  0.4366
  H  H195  1  0.459370  0.402530  0.375230  1.0  0.0749
  H  H196  1  0.461870  0.383430  0.168730  1.0  0.0847
  H  H197  1  0.624870  0.518830  0.337030  1.0  0.0883
  H  H198  1  0.658770  0.524030  0.174730  1.0  0.0845
  H  H199  1  0.613370  0.471430  0.044030  1.0  0.0981
  H  H200  1  0.533070  0.415930  0.072430  1.0  0.0928
  H  H201  1  0.331370  0.248830  0.449830  1.0  0.0647
  H  H202  1  0.317070  0.173930  0.499530  1.0  0.1032
  H  H203  1  0.360170  0.226530  0.787330  1.0  0.1076
  H  H204  1  0.373870  0.299930  0.728730  1.0  0.0599
  H  H205  1  0.550770  0.488830  0.422130  1.0  0.4366
  H  H206  1  0.126030  0.735870  0.708570  1.0  0.0748
  H  H207  1  0.128530  0.716770  0.502070  1.0  0.0847
  H  H208  1  0.291530  0.852170  0.670370  1.0  0.0881
  H  H209  1  0.325430  0.857370  0.508070  1.0  0.0846
  H  H210  1  0.280030  0.804770  0.377370  1.0  0.0981
  H  H211  1  0.199730  0.749270  0.405770  1.0  0.0928
  H  H212  1  0.998030  0.582170  0.783170  1.0  0.0647
  H  H213  1  0.983730  0.507270  0.832870  1.0  0.1032
  H  H214  1  0.026830  0.559870  0.120670  1.0  0.1076
  H  H215  1  0.040530  0.633270  0.062070  1.0  0.0599
  H  H216  1  0.217430  0.822170  0.755470  1.0  0.4366
  C  C217  1  0.021590  0.294120  0.034000  1.0  0.6893
  C  C218  1  0.055460  0.275270  0.022700  1.0  -0.1165
  C  C219  1  0.066430  0.256640  0.103300  1.0  -0.1119
  C  C220  1  0.100120  0.238430  0.110800  1.0  0.0198
  C  C221  1  0.131110  0.240460  0.032000  1.0  0.2425
  C  C222  1  0.164870  0.225500  0.049600  1.0  -0.1872
  C  C223  1  0.167700  0.207930  0.146700  1.0  -0.0871
  C  C224  1  0.136800  0.204000  0.224900  1.0  -0.1194
  C  C225  1  0.103530  0.219040  0.207300  1.0  -0.1572
  C  C226  1  0.910980  0.240130  0.814900  1.0  0.1475
  C  C227  1  0.865660  0.203580  0.785300  1.0  -0.2169
  C  C228  1  0.857320  0.186710  0.683600  1.0  0.0785
  C  C229  1  0.896770  0.209160  0.615500  1.0  -0.2036
  C  C230  1  0.940850  0.245190  0.651200  1.0  0.1524
  C  C231  1  0.688260  0.627450  0.367330  1.0  0.6893
  C  C232  1  0.722130  0.608600  0.356030  1.0  -0.1165
  C  C233  1  0.733100  0.589970  0.436630  1.0  -0.1119
  C  C234  1  0.766790  0.571760  0.444130  1.0  0.0198
  C  C235  1  0.797780  0.573790  0.365330  1.0  0.2425
  C  C236  1  0.831540  0.558830  0.382930  1.0  -0.1872
  C  C237  1  0.834370  0.541260  0.480030  1.0  -0.0871
  C  C238  1  0.803470  0.537330  0.558230  1.0  -0.1194
  C  C239  1  0.770200  0.552370  0.540630  1.0  -0.1572
  C  C240  1  0.577650  0.573460  0.148230  1.0  0.1474
  C  C241  1  0.532330  0.536910  0.118630  1.0  -0.2169
  C  C242  1  0.523990  0.520040  0.016930  1.0  0.087
  C  C243  1  0.563440  0.542490  0.948830  1.0  -0.2013
  C  C244  1  0.607520  0.578520  0.984530  1.0  0.1525
  C  C245  1  0.354920  0.960790  0.700670  1.0  0.6893
  C  C246  1  0.388790  0.941940  0.689370  1.0  -0.1165
  C  C247  1  0.399760  0.923310  0.769970  1.0  -0.112
  C  C248  1  0.433450  0.905100  0.777470  1.0  0.0198
  C  C249  1  0.464440  0.907130  0.698670  1.0  0.2426
  C  C250  1  0.498200  0.892170  0.716270  1.0  -0.1872
  C  C251  1  0.501030  0.874600  0.813370  1.0  -0.0872
  C  C252  1  0.470130  0.870670  0.891570  1.0  -0.1194
  C  C253  1  0.436860  0.885710  0.873970  1.0  -0.1572
  C  C254  1  0.244310  0.906800  0.481570  1.0  0.1474
  C  C255  1  0.198990  0.870250  0.451970  1.0  -0.2169
  C  C256  1  0.190650  0.853380  0.350270  1.0  0.0785
  C  C257  1  0.230100  0.875830  0.282170  1.0  -0.2036
  C  C258  1  0.274180  0.911860  0.317870  1.0  0.1524
  C  C259  1  0.705880  0.727470  0.034000  1.0  0.6896
  C  C260  1  0.724730  0.780190  0.022700  1.0  -0.1199
  C  C261  1  0.743360  0.809790  0.103300  1.0  -0.1108
  C  C262  1  0.761570  0.861690  0.110800  1.0  0.0212
  C  C263  1  0.759540  0.890650  0.032000  1.0  0.2413
  C  C264  1  0.774500  0.939370  0.049600  1.0  -0.1882
  C  C265  1  0.792070  0.959770  0.146700  1.0  -0.0872
  C  C266  1  0.796000  0.932800  0.224900  1.0  -0.121
  C  C267  1  0.780960  0.884490  0.207300  1.0  -0.1511
  C  C268  1  0.759870  0.670850  0.814900  1.0  0.1468
  C  C269  1  0.796420  0.662080  0.785300  1.0  -0.2173
  C  C270  1  0.813290  0.670610  0.683600  1.0  0.0766
  C  C271  1  0.790840  0.687610  0.615500  1.0  -0.204
  C  C272  1  0.754810  0.695660  0.651200  1.0  0.1535
  C  C273  1  0.372550  0.060800  0.367330  1.0  0.6896
  C  C274  1  0.391400  0.113520  0.356030  1.0  -0.1199
  C  C275  1  0.410030  0.143120  0.436630  1.0  -0.1108
  C  C276  1  0.428240  0.195020  0.444130  1.0  0.0212
  C  C277  1  0.426210  0.223980  0.365330  1.0  0.2413
  C  C278  1  0.441170  0.272700  0.382930  1.0  -0.1882
  C  C279  1  0.458740  0.293100  0.480030  1.0  -0.0877
  C  C280  1  0.462670  0.266130  0.558230  1.0  -0.121
  C  C281  1  0.447630  0.217820  0.540630  1.0  -0.1511
  C  C282  1  0.426540  0.004180  0.148230  1.0  0.1469
  C  C283  1  0.463090  0.995410  0.118630  1.0  -0.2173
  C  C284  1  0.479960  0.003940  0.016930  1.0  0.0853
  C  C285  1  0.457510  0.020940  0.948830  1.0  -0.2065
  C  C286  1  0.421480  0.028990  0.984530  1.0  0.1534
  C  C287  1  0.039210  0.394140  0.700670  1.0  0.6896
  C  C288  1  0.058060  0.446860  0.689370  1.0  -0.1199
  C  C289  1  0.076690  0.476460  0.769970  1.0  -0.1108
  C  C290  1  0.094900  0.528360  0.777470  1.0  0.0212
  C  C291  1  0.092870  0.557320  0.698670  1.0  0.2412
  C  C292  1  0.107830  0.606040  0.716270  1.0  -0.1882
  C  C293  1  0.125400  0.626440  0.813370  1.0  -0.0877
  C  C294  1  0.129330  0.599470  0.891570  1.0  -0.121
  C  C295  1  0.114290  0.551160  0.873970  1.0  -0.151
  C  C296  1  0.093200  0.337520  0.481570  1.0  0.1468
  C  C297  1  0.129750  0.328750  0.451970  1.0  -0.2173
  C  C298  1  0.146620  0.337280  0.350270  1.0  0.0766
  C  C299  1  0.124170  0.354280  0.282170  1.0  -0.204
  C  C300  1  0.088140  0.362330  0.317870  1.0  0.1535
  C  C301  1  0.272530  0.978410  0.034000  1.0  0.6892
  C  C302  1  0.219810  0.944540  0.022700  1.0  -0.1197
  C  C303  1  0.190210  0.933570  0.103300  1.0  -0.111
  C  C304  1  0.138310  0.899880  0.110800  1.0  0.0203
  C  C305  1  0.109350  0.868890  0.032000  1.0  0.2422
  C  C306  1  0.060630  0.835130  0.049600  1.0  -0.1909
  C  C307  1  0.040230  0.832300  0.146700  1.0  -0.0923
  C  C308  1  0.067200  0.863200  0.224900  1.0  -0.1205
  C  C309  1  0.115510  0.896470  0.207300  1.0  -0.1527
  C  C310  1  0.329150  0.089020  0.814900  1.0  0.15
  C  C311  1  0.337920  0.134340  0.785300  1.0  -0.2127
  C  C312  1  0.329390  0.142680  0.683600  1.0  0.0832
  C  C313  1  0.312390  0.103230  0.615500  1.0  -0.2026
  C  C314  1  0.304340  0.059150  0.651200  1.0  0.1512
  C  C315  1  0.939200  0.311740  0.367330  1.0  0.6892
  C  C316  1  0.886480  0.277870  0.356030  1.0  -0.1197
  C  C317  1  0.856880  0.266900  0.436630  1.0  -0.111
  C  C318  1  0.804980  0.233210  0.444130  1.0  0.0203
  C  C319  1  0.776020  0.202220  0.365330  1.0  0.2422
  C  C320  1  0.727300  0.168460  0.382930  1.0  -0.1909
  C  C321  1  0.706900  0.165630  0.480030  1.0  -0.0932
  C  C322  1  0.733870  0.196530  0.558230  1.0  -0.1205
  C  C323  1  0.782180  0.229800  0.540630  1.0  -0.1527
  C  C324  1  0.995820  0.422350  0.148230  1.0  0.1499
  C  C325  1  0.004590  0.467670  0.118630  1.0  -0.2127
  C  C326  1  0.996060  0.476010  0.016930  1.0  0.0759
  C  C327  1  0.979060  0.436560  0.948830  1.0  -0.2051
  C  C328  1  0.971010  0.392480  0.984530  1.0  0.1512
  C  C329  1  0.605860  0.645080  0.700670  1.0  0.6892
  C  C330  1  0.553140  0.611210  0.689370  1.0  -0.1197
  C  C331  1  0.523540  0.600240  0.769970  1.0  -0.1095
  C  C332  1  0.471640  0.566550  0.777470  1.0  0.0203
  C  C333  1  0.442680  0.535560  0.698670  1.0  0.2421
  C  C334  1  0.393960  0.501800  0.716270  1.0  -0.1909
  C  C335  1  0.373560  0.498970  0.813370  1.0  -0.0932
  C  C336  1  0.400530  0.529870  0.891570  1.0  -0.1205
  C  C337  1  0.448840  0.563140  0.873970  1.0  -0.1527
  C  C338  1  0.662480  0.755690  0.481570  1.0  0.15
  C  C339  1  0.671250  0.801010  0.451970  1.0  -0.2127
  C  C340  1  0.662720  0.809350  0.350270  1.0  0.0832
  C  C341  1  0.645720  0.769900  0.282170  1.0  -0.2026
  C  C342  1  0.637670  0.725820  0.317870  1.0  0.1513
  C  C343  1  0.978410  0.705880  0.966000  1.0  0.6901
  C  C344  1  0.944540  0.724730  0.977300  1.0  -0.1182
  C  C345  1  0.933570  0.743360  0.896700  1.0  -0.109
  C  C346  1  0.899880  0.761570  0.889200  1.0  0.0188
  C  C347  1  0.868890  0.759540  0.968000  1.0  0.2459
  C  C348  1  0.835130  0.774500  0.950400  1.0  -0.1888
  C  C349  1  0.832300  0.792070  0.853300  1.0  -0.0907
  C  C350  1  0.863200  0.796000  0.775100  1.0  -0.1196
  C  C351  1  0.896470  0.780960  0.792700  1.0  -0.1547
  C  C352  1  0.089020  0.759870  0.185100  1.0  0.147
  C  C353  1  0.134340  0.796420  0.214700  1.0  -0.2148
  C  C354  1  0.142680  0.813290  0.316400  1.0  0.078
  C  C355  1  0.103230  0.790840  0.384500  1.0  -0.2055
  C  C356  1  0.059150  0.754810  0.348800  1.0  0.1542
  C  C357  1  0.645080  0.039210  0.299330  1.0  0.6901
  C  C358  1  0.611210  0.058060  0.310630  1.0  -0.1182
  C  C359  1  0.600240  0.076690  0.230030  1.0  -0.109
  C  C360  1  0.566550  0.094900  0.222530  1.0  0.0188
  C  C361  1  0.535560  0.092870  0.301330  1.0  0.2461
  C  C362  1  0.501800  0.107830  0.283730  1.0  -0.1888
  C  C363  1  0.498970  0.125400  0.186630  1.0  -0.0907
  C  C364  1  0.529870  0.129330  0.108430  1.0  -0.1196
  C  C365  1  0.563140  0.114290  0.126030  1.0  -0.1548
  C  C366  1  0.755690  0.093200  0.518430  1.0  0.1469
  C  C367  1  0.801010  0.129750  0.548030  1.0  -0.2148
  C  C368  1  0.809350  0.146620  0.649730  1.0  0.078
  C  C369  1  0.769900  0.124170  0.717830  1.0  -0.2055
  C  C370  1  0.725820  0.088140  0.682130  1.0  0.1542
  C  C371  1  0.311740  0.372550  0.632670  1.0  0.6901
  C  C372  1  0.277870  0.391400  0.643970  1.0  -0.1182
  C  C373  1  0.266900  0.410030  0.563370  1.0  -0.109
  C  C374  1  0.233210  0.428240  0.555870  1.0  0.0188
  C  C375  1  0.202220  0.426210  0.634670  1.0  0.2459
  C  C376  1  0.168460  0.441170  0.617070  1.0  -0.1888
  C  C377  1  0.165630  0.458740  0.519970  1.0  -0.0907
  C  C378  1  0.196530  0.462670  0.441770  1.0  -0.1196
  C  C379  1  0.229800  0.447630  0.459370  1.0  -0.1547
  C  C380  1  0.422350  0.426540  0.851770  1.0  0.1469
  C  C381  1  0.467670  0.463090  0.881370  1.0  -0.2148
  C  C382  1  0.476010  0.479960  0.983070  1.0  0.087
  C  C383  1  0.436560  0.457510  0.051170  1.0  -0.202
  C  C384  1  0.392480  0.421480  0.015470  1.0  0.1542
  C  C385  1  0.294120  0.272530  0.966000  1.0  0.69
  C  C386  1  0.275270  0.219810  0.977300  1.0  -0.1199
  C  C387  1  0.256640  0.190210  0.896700  1.0  -0.1139
  C  C388  1  0.238430  0.138310  0.889200  1.0  0.0238
  C  C389  1  0.240460  0.109350  0.968000  1.0  0.2448
  C  C390  1  0.225500  0.060630  0.950400  1.0  -0.1899
  C  C391  1  0.207930  0.040230  0.853300  1.0  -0.0872
  C  C392  1  0.204000  0.067200  0.775100  1.0  -0.1213
  C  C393  1  0.219040  0.115510  0.792700  1.0  -0.1507
  C  C394  1  0.240130  0.329150  0.185100  1.0  0.1477
  C  C395  1  0.203580  0.337920  0.214700  1.0  -0.2166
  C  C396  1  0.186710  0.329390  0.316400  1.0  0.0769
  C  C397  1  0.209160  0.312390  0.384500  1.0  -0.2025
  C  C398  1  0.245190  0.304340  0.348800  1.0  0.1537
  C  C399  1  0.960790  0.605860  0.299330  1.0  0.69
  C  C400  1  0.941940  0.553140  0.310630  1.0  -0.1199
  C  C401  1  0.923310  0.523540  0.230030  1.0  -0.1139
  C  C402  1  0.905100  0.471640  0.222530  1.0  0.0238
  C  C403  1  0.907130  0.442680  0.301330  1.0  0.2448
  C  C404  1  0.892170  0.393960  0.283730  1.0  -0.1899
  C  C405  1  0.874600  0.373560  0.186630  1.0  -0.088
  C  C406  1  0.870670  0.400530  0.108430  1.0  -0.1213
  C  C407  1  0.885710  0.448840  0.126030  1.0  -0.1506
  C  C408  1  0.906800  0.662480  0.518430  1.0  0.1477
  C  C409  1  0.870250  0.671250  0.548030  1.0  -0.2166
  C  C410  1  0.853380  0.662720  0.649730  1.0  0.0769
  C  C411  1  0.875830  0.645720  0.717830  1.0  -0.2025
  C  C412  1  0.911860  0.637670  0.682130  1.0  0.1536
  C  C413  1  0.627450  0.939200  0.632670  1.0  0.69
  C  C414  1  0.608600  0.886480  0.643970  1.0  -0.1199
  C  C415  1  0.589970  0.856880  0.563370  1.0  -0.1139
  C  C416  1  0.571760  0.804980  0.555870  1.0  0.0238
  C  C417  1  0.573790  0.776020  0.634670  1.0  0.2448
  C  C418  1  0.558830  0.727300  0.617070  1.0  -0.1899
  C  C419  1  0.541260  0.706900  0.519970  1.0  -0.0881
  C  C420  1  0.537330  0.733870  0.441770  1.0  -0.1213
  C  C421  1  0.552370  0.782180  0.459370  1.0  -0.1507
  C  C422  1  0.573460  0.995820  0.851770  1.0  0.1477
  C  C423  1  0.536910  0.004590  0.881370  1.0  -0.2166
  C  C424  1  0.520040  0.996060  0.983070  1.0  0.0854
  C  C425  1  0.542490  0.979060  0.051170  1.0  -0.2065
  C  C426  1  0.578520  0.971010  0.015470  1.0  0.1536
  C  C427  1  0.727470  0.021590  0.966000  1.0  0.6874
  C  C428  1  0.780190  0.055460  0.977300  1.0  -0.1188
  C  C429  1  0.809790  0.066430  0.896700  1.0  -0.1122
  C  C430  1  0.861690  0.100120  0.889200  1.0  0.0202
  C  C431  1  0.890650  0.131110  0.968000  1.0  0.2457
  C  C432  1  0.939370  0.164870  0.950400  1.0  -0.1902
  C  C433  1  0.959770  0.167700  0.853300  1.0  -0.0866
  C  C434  1  0.932800  0.136800  0.775100  1.0  -0.1191
  C  C435  1  0.884490  0.103530  0.792700  1.0  -0.1521
  C  C436  1  0.670850  0.910980  0.185100  1.0  0.1495
  C  C437  1  0.662080  0.865660  0.214700  1.0  -0.2127
  C  C438  1  0.670610  0.857320  0.316400  1.0  0.0842
  C  C439  1  0.687610  0.896770  0.384500  1.0  -0.2003
  C  C440  1  0.695660  0.940850  0.348800  1.0  0.1533
  C  C441  1  0.394140  0.354920  0.299330  1.0  0.6874
  C  C442  1  0.446860  0.388790  0.310630  1.0  -0.1188
  C  C443  1  0.476460  0.399760  0.230030  1.0  -0.1107
  C  C444  1  0.528360  0.433450  0.222530  1.0  0.0203
  C  C445  1  0.557320  0.464440  0.301330  1.0  0.2457
  C  C446  1  0.606040  0.498200  0.283730  1.0  -0.1902
  C  C447  1  0.626440  0.501030  0.186630  1.0  -0.0879
  C  C448  1  0.599470  0.470130  0.108430  1.0  -0.1191
  C  C449  1  0.551160  0.436860  0.126030  1.0  -0.1521
  C  C450  1  0.337520  0.244310  0.518430  1.0  0.1495
  C  C451  1  0.328750  0.198990  0.548030  1.0  -0.2127
  C  C452  1  0.337280  0.190650  0.649730  1.0  0.0842
  C  C453  1  0.354280  0.230100  0.717830  1.0  -0.2004
  C  C454  1  0.362330  0.274180  0.682130  1.0  0.1533
  C  C455  1  0.060800  0.688260  0.632670  1.0  0.6874
  C  C456  1  0.113520  0.722130  0.643970  1.0  -0.1189
  C  C457  1  0.143120  0.733100  0.563370  1.0  -0.1122
  C  C458  1  0.195020  0.766790  0.555870  1.0  0.0202
  C  C459  1  0.223980  0.797780  0.634670  1.0  0.2457
  C  C460  1  0.272700  0.831540  0.617070  1.0  -0.1902
  C  C461  1  0.293100  0.834370  0.519970  1.0  -0.088
  C  C462  1  0.266130  0.803470  0.441770  1.0  -0.1191
  C  C463  1  0.217820  0.770200  0.459370  1.0  -0.1521
  C  C464  1  0.004180  0.577650  0.851770  1.0  0.1494
  C  C465  1  0.995410  0.532330  0.881370  1.0  -0.2127
  C  C466  1  0.003940  0.523990  0.983070  1.0  0.0768
  C  C467  1  0.020940  0.563440  0.051170  1.0  -0.2042
  C  C468  1  0.028990  0.607520  0.015470  1.0  0.1533
  N  N469  1  0.948520  0.260860  0.750100  1.0  -0.3362
  N  N470  1  0.615190  0.594190  0.083430  1.0  -0.3362
  N  N471  1  0.281850  0.927530  0.416770  1.0  -0.3362
  N  N472  1  0.739140  0.687660  0.750100  1.0  -0.3388
  N  N473  1  0.405810  0.020990  0.083430  1.0  -0.3388
  N  N474  1  0.072470  0.354330  0.416770  1.0  -0.3388
  N  N475  1  0.312340  0.051480  0.750100  1.0  -0.3389
  N  N476  1  0.979010  0.384810  0.083430  1.0  -0.3389
  N  N477  1  0.645670  0.718150  0.416770  1.0  -0.3389
  N  N478  1  0.051480  0.739140  0.249900  1.0  -0.3387
  N  N479  1  0.718150  0.072470  0.583230  1.0  -0.3387
  N  N480  1  0.384810  0.405810  0.916570  1.0  -0.3387
  N  N481  1  0.260860  0.312340  0.249900  1.0  -0.3382
  N  N482  1  0.927530  0.645670  0.583230  1.0  -0.3381
  N  N483  1  0.594190  0.979010  0.916570  1.0  -0.3381
  N  N484  1  0.687660  0.948520  0.249900  1.0  -0.3372
  N  N485  1  0.354330  0.281850  0.583230  1.0  -0.3372
  N  N486  1  0.020990  0.615190  0.916570  1.0  -0.3372
  O  O487  1  0.010440  0.300350  0.124500  1.0  -0.6021
  O  O488  1  0.004540  0.303760  0.954700  1.0  -0.6285
  O  O489  1  0.128570  0.257860  0.938200  1.0  -0.5563
  O  O490  1  0.677110  0.633680  0.457830  1.0  -0.6021
  O  O491  1  0.671210  0.637090  0.288030  1.0  -0.629
  O  O492  1  0.795240  0.591190  0.271530  1.0  -0.5563
  O  O493  1  0.343770  0.967020  0.791170  1.0  -0.602
  O  O494  1  0.337870  0.970430  0.621370  1.0  -0.6285
  O  O495  1  0.461900  0.924530  0.604870  1.0  -0.5563
  O  O496  1  0.699650  0.710090  0.124500  1.0  -0.6023
  O  O497  1  0.696240  0.700780  0.954700  1.0  -0.6296
  O  O498  1  0.742140  0.870710  0.938200  1.0  -0.557
  O  O499  1  0.366320  0.043420  0.457830  1.0  -0.6023
  O  O500  1  0.362910  0.034110  0.288030  1.0  -0.6293
  O  O501  1  0.408810  0.204040  0.271530  1.0  -0.557
  O  O502  1  0.032980  0.376760  0.791170  1.0  -0.6023
  O  O503  1  0.029570  0.367450  0.621370  1.0  -0.6296
  O  O504  1  0.075470  0.537380  0.604870  1.0  -0.557
  O  O505  1  0.289910  0.989560  0.124500  1.0  -0.6
  O  O506  1  0.299220  0.995460  0.954700  1.0  -0.628
  O  O507  1  0.129290  0.871430  0.938200  1.0  -0.5562
  O  O508  1  0.956580  0.322890  0.457830  1.0  -0.6
  O  O509  1  0.965890  0.328790  0.288030  1.0  -0.6277
  O  O510  1  0.795960  0.204760  0.271530  1.0  -0.5562
  O  O511  1  0.623240  0.656230  0.791170  1.0  -0.6
  O  O512  1  0.632550  0.662130  0.621370  1.0  -0.6282
  O  O513  1  0.462620  0.538100  0.604870  1.0  -0.5562
  O  O514  1  0.989560  0.699650  0.875500  1.0  -0.6036
  O  O515  1  0.995460  0.696240  0.045300  1.0  -0.63
  O  O516  1  0.871430  0.742140  0.061800  1.0  -0.5566
  O  O517  1  0.656230  0.032980  0.208830  1.0  -0.6036
  O  O518  1  0.662130  0.029570  0.378630  1.0  -0.63
  O  O519  1  0.538100  0.075470  0.395130  1.0  -0.5566
  O  O520  1  0.322890  0.366320  0.542170  1.0  -0.6036
  O  O521  1  0.328790  0.362910  0.711970  1.0  -0.6305
  O  O522  1  0.204760  0.408810  0.728470  1.0  -0.5566
  O  O523  1  0.300350  0.289910  0.875500  1.0  -0.6029
  O  O524  1  0.303760  0.299220  0.045300  1.0  -0.6309
  O  O525  1  0.257860  0.129290  0.061800  1.0  -0.5574
  O  O526  1  0.967020  0.623240  0.208830  1.0  -0.603
  O  O527  1  0.970430  0.632550  0.378630  1.0  -0.6309
  O  O528  1  0.924530  0.462620  0.395130  1.0  -0.5574
  O  O529  1  0.633680  0.956580  0.542170  1.0  -0.6029
  O  O530  1  0.637090  0.965890  0.711970  1.0  -0.6306
  O  O531  1  0.591190  0.795960  0.728470  1.0  -0.5574
  O  O532  1  0.710090  0.010440  0.875500  1.0  -0.6011
  O  O533  1  0.700780  0.004540  0.045300  1.0  -0.6294
  O  O534  1  0.870710  0.128570  0.061800  1.0  -0.5563
  O  O535  1  0.376760  0.343770  0.208830  1.0  -0.601
  O  O536  1  0.367450  0.337870  0.378630  1.0  -0.6295
  O  O537  1  0.537380  0.461900  0.395130  1.0  -0.5563
  O  O538  1  0.043420  0.677110  0.542170  1.0  -0.6011
  O  O539  1  0.034110  0.671210  0.711970  1.0  -0.629
  O  O540  1  0.204040  0.795240  0.728470  1.0  -0.5563
