# generated using pymatgen
data_Co3H9C10SN5O9
_symmetry_space_group_name_H-M   'P 1'
_cell_length_a   8.01730000
_cell_length_b   15.50520000
_cell_length_c   18.32320000
_cell_angle_alpha   74.63110000
_cell_angle_beta   77.36290000
_cell_angle_gamma   75.01680000
_symmetry_Int_Tables_number   1
_chemical_formula_structural   Co3H9C10SN5O9
_chemical_formula_sum   'Co12 H36 C40 S4 N20 O36'
_cell_volume   2093.84387322
_cell_formula_units_Z   4
loop_
 _symmetry_equiv_pos_site_id
 _symmetry_equiv_pos_as_xyz
  1  'x, y, z'
loop_
 _atom_site_type_symbol
 _atom_site_label
 _atom_site_symmetry_multiplicity
 _atom_site_fract_x
 _atom_site_fract_y
 _atom_site_fract_z
 _atom_site_occupancy
 _atom_site_charge
  Co  Co1  1  0.145220  0.873240  0.897600  1.0  1.0134
  Co  Co2  1  0.822030  0.978060  0.993540  1.0  1.0577
  Co  Co3  1  0.882740  0.748850  0.986830  1.0  1.1262
  Co  Co4  1  0.916060  0.626760  0.602400  1.0  1.0131
  Co  Co5  1  0.793630  0.521940  0.506460  1.0  1.0581
  Co  Co6  1  0.618420  0.751150  0.513170  1.0  1.1236
  Co  Co7  1  0.854780  0.126760  0.102400  1.0  1.0114
  Co  Co8  1  0.177970  0.021940  0.006460  1.0  1.0609
  Co  Co9  1  0.117260  0.251150  0.013170  1.0  1.1252
  Co  Co10  1  0.083940  0.373240  0.397600  1.0  1.0152
  Co  Co11  1  0.206370  0.478060  0.493540  1.0  1.0608
  Co  Co12  1  0.381580  0.248850  0.486830  1.0  1.1284
  H  H13  1  0.042400  0.821800  0.047600  1.0  0.4411
  H  H14  1  0.045200  0.055000  0.878600  1.0  0.4343
  H  H15  1  0.501900  0.725000  0.865800  1.0  0.3489
  H  H16  1  0.671900  0.691600  0.895000  1.0  0.3659
  H  H17  1  0.514700  0.944000  0.085200  1.0  0.3306
  H  H18  1  0.642600  0.858400  0.100200  1.0  0.3479
  H  H19  1  0.595900  0.325100  0.249300  1.0  0.1023
  H  H20  1  0.888800  0.489400  0.099400  1.0  0.1108
  H  H21  1  0.565100  0.576300  0.278900  1.0  0.1084
  H  H22  1  0.911800  0.678200  0.452400  1.0  0.4388
  H  H23  1  0.978800  0.445000  0.621400  1.0  0.4307
  H  H24  1  0.092700  0.775000  0.634200  1.0  0.3501
  H  H25  1  0.258500  0.808400  0.605000  1.0  0.3634
  H  H26  1  0.543900  0.556000  0.414800  1.0  0.3303
  H  H27  1  0.601200  0.641600  0.399800  1.0  0.3441
  H  H28  1  0.170300  0.174900  0.250700  1.0  0.1024
  H  H29  1  0.477600  0.010600  0.400600  1.0  0.112
  H  H30  1  0.420300  0.923700  0.221100  1.0  0.1081
  H  H31  1  0.957600  0.178200  0.952400  1.0  0.4419
  H  H32  1  0.954800  0.945000  0.121400  1.0  0.4334
  H  H33  1  0.498100  0.275000  0.134200  1.0  0.3481
  H  H34  1  0.328100  0.308400  0.105000  1.0  0.3651
  H  H35  1  0.485300  0.056000  0.914800  1.0  0.3294
  H  H36  1  0.357400  0.141600  0.899800  1.0  0.3439
  H  H37  1  0.404100  0.674900  0.750700  1.0  0.1026
  H  H38  1  0.111200  0.510600  0.900600  1.0  0.1112
  H  H39  1  0.434900  0.423700  0.721100  1.0  0.1085
  H  H40  1  0.088200  0.321800  0.547600  1.0  0.4399
  H  H41  1  0.021200  0.555000  0.378600  1.0  0.4315
  H  H42  1  0.907300  0.225000  0.365800  1.0  0.3507
  H  H43  1  0.741500  0.191600  0.395000  1.0  0.3651
  H  H44  1  0.456100  0.444000  0.585200  1.0  0.3311
  H  H45  1  0.398800  0.358400  0.600200  1.0  0.346
  H  H46  1  0.829700  0.825100  0.749300  1.0  0.1018
  H  H47  1  0.522400  0.989400  0.599400  1.0  0.112
  H  H48  1  0.579700  0.076300  0.778900  1.0  0.1075
  C  C49  1  0.519480  0.790540  0.939700  1.0  0.6774
  C  C50  1  0.528870  0.868560  0.017100  1.0  0.6547
  C  C51  1  0.560480  0.448240  0.275600  1.0  -0.1528
  C  C52  1  0.631360  0.380580  0.233500  1.0  -0.0009
  C  C53  1  0.755290  0.396220  0.167800  1.0  -0.1669
  C  C54  1  0.806670  0.478860  0.143400  1.0  0.0288
  C  C55  1  0.734600  0.546200  0.185200  1.0  -0.2339
  C  C56  1  0.612160  0.530880  0.251200  1.0  0.0132
  C  C57  1  0.428810  0.431180  0.347000  1.0  0.6897
  C  C58  1  0.840760  0.322280  0.124200  1.0  0.7087
  C  C59  1  0.249720  0.709460  0.560300  1.0  0.679
  C  C60  1  0.414530  0.631440  0.482900  1.0  0.6559
  C  C61  1  0.284320  0.051760  0.224400  1.0  -0.1519
  C  C62  1  0.245440  0.119420  0.266500  1.0  -0.003
  C  C63  1  0.319310  0.103780  0.332200  1.0  -0.1698
  C  C64  1  0.428930  0.021140  0.356600  1.0  0.0282
  C  C65  1  0.466000  0.953800  0.314800  1.0  -0.2338
  C  C66  1  0.394240  0.969120  0.248800  1.0  0.0148
  C  C67  1  0.206990  0.068820  0.153000  1.0  0.6912
  C  C68  1  0.287240  0.177720  0.375800  1.0  0.7085
  C  C69  1  0.480520  0.209460  0.060300  1.0  0.6776
  C  C70  1  0.471130  0.131440  0.982900  1.0  0.6541
  C  C71  1  0.439520  0.551760  0.724400  1.0  -0.1532
  C  C72  1  0.368640  0.619420  0.766500  1.0  -0.0015
  C  C73  1  0.244710  0.603780  0.832200  1.0  -0.1673
  C  C74  1  0.193330  0.521140  0.856600  1.0  0.0286
  C  C75  1  0.265400  0.453800  0.814800  1.0  -0.2337
  C  C76  1  0.387840  0.469120  0.748800  1.0  0.0149
  C  C77  1  0.571190  0.568820  0.653000  1.0  0.6898
  C  C78  1  0.159240  0.677720  0.875800  1.0  0.7091
  C  C79  1  0.750280  0.290540  0.439700  1.0  0.6754
  C  C80  1  0.585470  0.368560  0.517100  1.0  0.6552
  C  C81  1  0.715680  0.948240  0.775600  1.0  -0.1523
  C  C82  1  0.754560  0.880580  0.733500  1.0  -0.0021
  C  C83  1  0.680690  0.896220  0.667800  1.0  -0.1688
  C  C84  1  0.571070  0.978860  0.643400  1.0  0.0294
  C  C85  1  0.534000  0.046200  0.685200  1.0  -0.2342
  C  C86  1  0.605760  0.030880  0.751200  1.0  0.0131
  C  C87  1  0.793010  0.931180  0.847000  1.0  0.6911
  C  C88  1  0.712760  0.822280  0.624200  1.0  0.7098
  S  S89  1  0.819600  0.645700  0.162540  1.0  1.3652
  S  S90  1  0.627840  0.854300  0.337460  1.0  1.3643
  S  S91  1  0.180400  0.354300  0.837460  1.0  1.3645
  S  S92  1  0.372160  0.145700  0.662540  1.0  1.3631
  N  N93  1  0.373550  0.900850  0.996050  1.0  -0.4038
  N  N94  1  0.367450  0.849760  0.943740  1.0  -0.4277
  N  N95  1  0.626350  0.798850  0.984450  1.0  -0.5657
  N  N96  1  0.570670  0.728060  0.894600  1.0  -0.7559
  N  N97  1  0.600000  0.904210  0.062790  1.0  -0.7601
  N  N98  1  0.270450  0.599150  0.503950  1.0  -0.4029
  N  N99  1  0.160950  0.650240  0.556260  1.0  -0.4262
  N  N100  1  0.409650  0.701150  0.515550  1.0  -0.6086
  N  N101  1  0.193330  0.771940  0.605400  1.0  -0.7565
  N  N102  1  0.567000  0.595790  0.437210  1.0  -0.7615
  N  N103  1  0.626450  0.099150  0.003950  1.0  -0.4034
  N  N104  1  0.632550  0.150240  0.056260  1.0  -0.4187
  N  N105  1  0.373650  0.201150  0.015550  1.0  -0.6396
  N  N106  1  0.429330  0.271940  0.105400  1.0  -0.7574
  N  N107  1  0.400000  0.095790  0.937210  1.0  -0.7578
  N  N108  1  0.729550  0.400850  0.496050  1.0  -0.404
  N  N109  1  0.839050  0.349760  0.443740  1.0  -0.4255
  N  N110  1  0.590350  0.298850  0.484450  1.0  -0.5775
  N  N111  1  0.806670  0.228060  0.394600  1.0  -0.7565
  N  N112  1  0.433000  0.404210  0.562790  1.0  -0.7605
  O  O113  1  0.396900  0.483780  0.392220  1.0  -0.6094
  O  O114  1  0.360920  0.363250  0.358110  1.0  -0.6593
  O  O115  1  0.767980  0.256790  0.133850  1.0  -0.6135
  O  O116  1  0.984170  0.332310  0.080550  1.0  -0.6018
  O  O117  1  0.934960  0.627930  0.217550  1.0  -0.6549
  O  O118  1  0.916950  0.649600  0.084100  1.0  -0.7221
  O  O119  1  0.677190  0.722540  0.167680  1.0  -0.63
  O  O120  1  0.980790  0.842030  0.003390  1.0  -0.9706
  O  O121  1  0.058140  0.003650  0.923070  1.0  -0.9662
  O  O122  1  0.272900  0.016220  0.107780  1.0  -0.6088
  O  O123  1  0.082280  0.136750  0.141890  1.0  -0.6595
  O  O124  1  0.158620  0.243210  0.366150  1.0  -0.6164
  O  O125  1  0.397030  0.167690  0.419450  1.0  -0.6009
  O  O126  1  0.780440  0.872070  0.282450  1.0  -0.6504
  O  O127  1  0.650650  0.850400  0.415900  1.0  -0.7218
  O  O128  1  0.567410  0.777460  0.332320  1.0  -0.6277
  O  O129  1  0.826210  0.657970  0.496610  1.0  -0.9685
  O  O130  1  0.984860  0.496350  0.576930  1.0  -0.9683
  O  O131  1  0.603100  0.516220  0.607780  1.0  -0.6088
  O  O132  1  0.639080  0.636750  0.641890  1.0  -0.6591
  O  O133  1  0.232020  0.743210  0.866150  1.0  -0.6162
  O  O134  1  0.015830  0.667690  0.919450  1.0  -0.6007
  O  O135  1  0.065040  0.372070  0.782450  1.0  -0.6523
  O  O136  1  0.083050  0.350400  0.915900  1.0  -0.7222
  O  O137  1  0.322810  0.277460  0.832320  1.0  -0.628
  O  O138  1  0.019210  0.157970  0.996610  1.0  -0.9688
  O  O139  1  0.941860  0.996350  0.076930  1.0  -0.9669
  O  O140  1  0.727100  0.983780  0.892220  1.0  -0.6088
  O  O141  1  0.917720  0.863250  0.858110  1.0  -0.6581
  O  O142  1  0.841380  0.756790  0.633850  1.0  -0.6133
  O  O143  1  0.602970  0.832310  0.580550  1.0  -0.6022
  O  O144  1  0.219560  0.127930  0.717550  1.0  -0.6487
  O  O145  1  0.349350  0.149600  0.584100  1.0  -0.7214
  O  O146  1  0.432590  0.222540  0.667680  1.0  -0.6302
  O  O147  1  0.173790  0.342030  0.503390  1.0  -0.9696
  O  O148  1  0.015140  0.503650  0.423070  1.0  -0.9673
