# generated using pymatgen
data_Cd2SiH16(C7O2)4
_symmetry_space_group_name_H-M   'P 1'
_cell_length_a   12.98790000
_cell_length_b   12.98790000
_cell_length_c   25.02500000
_cell_angle_alpha   90.00000000
_cell_angle_beta   90.00000000
_cell_angle_gamma   90.00000000
_symmetry_Int_Tables_number   1
_chemical_formula_structural   Cd2SiH16(C7O2)4
_chemical_formula_sum   'Cd8 Si4 H64 C112 O32'
_cell_volume   4221.35579891
_cell_formula_units_Z   4
loop_
 _symmetry_equiv_pos_site_id
 _symmetry_equiv_pos_as_xyz
  1  'x, y, z'
loop_
 _atom_site_type_symbol
 _atom_site_label
 _atom_site_symmetry_multiplicity
 _atom_site_fract_x
 _atom_site_fract_y
 _atom_site_fract_z
 _atom_site_occupancy
 _atom_site_charge
  Cd  Cd1  1  0.174970  0.884110  0.500000  1.0  1.0535
  Cd  Cd2  1  0.674970  0.384110  0.000000  1.0  1.0543
  Cd  Cd3  1  0.825030  0.115890  0.500000  1.0  1.053
  Cd  Cd4  1  0.325030  0.615890  0.000000  1.0  1.053
  Cd  Cd5  1  0.115890  0.174970  0.500000  1.0  1.0554
  Cd  Cd6  1  0.615890  0.674970  0.000000  1.0  1.0554
  Cd  Cd7  1  0.884110  0.825030  0.500000  1.0  1.0533
  Cd  Cd8  1  0.384110  0.325030  0.000000  1.0  1.0535
  Si  Si9  1  0.500000  0.000000  0.750000  1.0  0.959
  Si  Si10  1  0.000000  0.500000  0.750000  1.0  0.959
  Si  Si11  1  0.500000  0.000000  0.250000  1.0  0.959
  Si  Si12  1  0.000000  0.500000  0.250000  1.0  0.959
  H  H13  1  0.405800  0.206700  0.743400  1.0  0.0985
  H  H14  1  0.279600  0.284500  0.691600  1.0  0.1093
  H  H15  1  0.210000  0.197900  0.619600  1.0  0.1004
  H  H16  1  0.385400  0.953600  0.652500  1.0  0.1038
  H  H17  1  0.905800  0.706700  0.243400  1.0  0.0985
  H  H18  1  0.779600  0.784500  0.191600  1.0  0.1093
  H  H19  1  0.710000  0.697900  0.119600  1.0  0.1004
  H  H20  1  0.885400  0.453600  0.152500  1.0  0.1038
  H  H21  1  0.594200  0.793300  0.743400  1.0  0.0985
  H  H22  1  0.720400  0.715500  0.691600  1.0  0.1093
  H  H23  1  0.790000  0.802100  0.619600  1.0  0.1004
  H  H24  1  0.614600  0.046400  0.652500  1.0  0.1039
  H  H25  1  0.094200  0.293300  0.243400  1.0  0.0985
  H  H26  1  0.220400  0.215500  0.191600  1.0  0.1093
  H  H27  1  0.290000  0.302100  0.119600  1.0  0.1005
  H  H28  1  0.114600  0.546400  0.152500  1.0  0.1039
  H  H29  1  0.793300  0.405800  0.743400  1.0  0.0984
  H  H30  1  0.715500  0.279600  0.691600  1.0  0.1082
  H  H31  1  0.802100  0.210000  0.619600  1.0  0.1001
  H  H32  1  0.046400  0.385400  0.652500  1.0  0.1026
  H  H33  1  0.293300  0.905800  0.243400  1.0  0.0984
  H  H34  1  0.215500  0.779600  0.191600  1.0  0.1082
  H  H35  1  0.302100  0.710000  0.119600  1.0  0.1001
  H  H36  1  0.546400  0.885400  0.152500  1.0  0.1026
  H  H37  1  0.206700  0.594200  0.743400  1.0  0.0985
  H  H38  1  0.284500  0.720400  0.691600  1.0  0.1093
  H  H39  1  0.197900  0.790000  0.619600  1.0  0.0999
  H  H40  1  0.953600  0.614600  0.652500  1.0  0.103
  H  H41  1  0.706700  0.094200  0.243400  1.0  0.0985
  H  H42  1  0.784500  0.220400  0.191600  1.0  0.1093
  H  H43  1  0.697900  0.290000  0.119600  1.0  0.0999
  H  H44  1  0.453600  0.114600  0.152500  1.0  0.103
  H  H45  1  0.594200  0.793300  0.256600  1.0  0.0985
  H  H46  1  0.720400  0.715500  0.308400  1.0  0.1098
  H  H47  1  0.790000  0.802100  0.380400  1.0  0.1007
  H  H48  1  0.614600  0.046400  0.347500  1.0  0.1037
  H  H49  1  0.094200  0.293300  0.756600  1.0  0.0985
  H  H50  1  0.220400  0.215500  0.808400  1.0  0.1098
  H  H51  1  0.290000  0.302100  0.880400  1.0  0.1007
  H  H52  1  0.114600  0.546400  0.847500  1.0  0.1037
  H  H53  1  0.405800  0.206700  0.256600  1.0  0.0986
  H  H54  1  0.279600  0.284500  0.308400  1.0  0.1094
  H  H55  1  0.210000  0.197900  0.380400  1.0  0.1003
  H  H56  1  0.385400  0.953600  0.347500  1.0  0.103
  H  H57  1  0.905800  0.706700  0.756600  1.0  0.0986
  H  H58  1  0.779600  0.784500  0.808400  1.0  0.1094
  H  H59  1  0.710000  0.697900  0.880400  1.0  0.1003
  H  H60  1  0.885400  0.453600  0.847500  1.0  0.1038
  H  H61  1  0.206700  0.594200  0.256600  1.0  0.0986
  H  H62  1  0.284500  0.720400  0.308400  1.0  0.1098
  H  H63  1  0.197900  0.790000  0.380400  1.0  0.1
  H  H64  1  0.953600  0.614600  0.347500  1.0  0.1028
  H  H65  1  0.706700  0.094200  0.756600  1.0  0.0986
  H  H66  1  0.784500  0.220400  0.808400  1.0  0.1098
  H  H67  1  0.697900  0.290000  0.880400  1.0  0.1
  H  H68  1  0.453600  0.114600  0.847500  1.0  0.1028
  H  H69  1  0.793300  0.405800  0.256600  1.0  0.0988
  H  H70  1  0.715500  0.279600  0.308400  1.0  0.1081
  H  H71  1  0.802100  0.210000  0.380400  1.0  0.1004
  H  H72  1  0.046400  0.385400  0.347500  1.0  0.1027
  H  H73  1  0.293300  0.905800  0.756600  1.0  0.0988
  H  H74  1  0.215500  0.779600  0.808400  1.0  0.1081
  H  H75  1  0.302100  0.710000  0.880400  1.0  0.1004
  H  H76  1  0.546400  0.885400  0.847500  1.0  0.1027
  C  C77  1  0.406200  0.069100  0.706020  1.0  -0.2962
  C  C78  1  0.375800  0.170200  0.715400  1.0  -0.0362
  C  C79  1  0.301100  0.217900  0.683800  1.0  -0.1128
  C  C80  1  0.259300  0.165800  0.640800  1.0  -0.0219
  C  C81  1  0.290000  0.067100  0.629200  1.0  -0.1503
  C  C82  1  0.363600  0.019800  0.661050  1.0  0.0048
  C  C83  1  0.245100  0.010200  0.581650  1.0  0.7063
  C  C84  1  0.906200  0.569100  0.206020  1.0  -0.2962
  C  C85  1  0.875800  0.670200  0.215400  1.0  -0.0362
  C  C86  1  0.801100  0.717900  0.183800  1.0  -0.1128
  C  C87  1  0.759300  0.665800  0.140800  1.0  -0.0219
  C  C88  1  0.790000  0.567100  0.129200  1.0  -0.1503
  C  C89  1  0.863600  0.519800  0.161050  1.0  0.0055
  C  C90  1  0.745100  0.510200  0.081650  1.0  0.7063
  C  C91  1  0.593800  0.930900  0.706020  1.0  -0.288
  C  C92  1  0.624200  0.829800  0.715400  1.0  -0.0357
  C  C93  1  0.698900  0.782100  0.683800  1.0  -0.1125
  C  C94  1  0.740700  0.834200  0.640800  1.0  -0.0206
  C  C95  1  0.710000  0.932900  0.629200  1.0  -0.1495
  C  C96  1  0.636400  0.980200  0.661050  1.0  0.0036
  C  C97  1  0.754900  0.989800  0.581650  1.0  0.7065
  C  C98  1  0.093800  0.430900  0.206020  1.0  -0.284
  C  C99  1  0.124200  0.329800  0.215400  1.0  -0.0357
  C  C100  1  0.198900  0.282100  0.183800  1.0  -0.1125
  C  C101  1  0.240700  0.334200  0.140800  1.0  -0.0206
  C  C102  1  0.210000  0.432900  0.129200  1.0  -0.1495
  C  C103  1  0.136400  0.480200  0.161050  1.0  0.0036
  C  C104  1  0.254900  0.489800  0.081650  1.0  0.7065
  C  C105  1  0.930900  0.406200  0.706020  1.0  -0.2989
  C  C106  1  0.829800  0.375800  0.715400  1.0  -0.0332
  C  C107  1  0.782100  0.301100  0.683800  1.0  -0.1172
  C  C108  1  0.834200  0.259300  0.640800  1.0  -0.0249
  C  C109  1  0.932900  0.290000  0.629200  1.0  -0.1504
  C  C110  1  0.980200  0.363600  0.661050  1.0  0.0031
  C  C111  1  0.989800  0.245100  0.581650  1.0  0.7042
  C  C112  1  0.430900  0.906200  0.206020  1.0  -0.2908
  C  C113  1  0.329800  0.875800  0.215400  1.0  -0.0332
  C  C114  1  0.282100  0.801100  0.183800  1.0  -0.1172
  C  C115  1  0.334200  0.759300  0.140800  1.0  -0.0249
  C  C116  1  0.432900  0.790000  0.129200  1.0  -0.1504
  C  C117  1  0.480200  0.863600  0.161050  1.0  0.0031
  C  C118  1  0.489800  0.745100  0.081650  1.0  0.7042
  C  C119  1  0.069100  0.593800  0.706020  1.0  -0.2887
  C  C120  1  0.170200  0.624200  0.715400  1.0  -0.0334
  C  C121  1  0.217900  0.698900  0.683800  1.0  -0.1122
  C  C122  1  0.165800  0.740700  0.640800  1.0  -0.0246
  C  C123  1  0.067100  0.710000  0.629200  1.0  -0.1515
  C  C124  1  0.019800  0.636400  0.661050  1.0  0.0095
  C  C125  1  0.010200  0.754900  0.581650  1.0  0.7062
  C  C126  1  0.569100  0.093800  0.206020  1.0  -0.2887
  C  C127  1  0.670200  0.124200  0.215400  1.0  -0.0334
  C  C128  1  0.717900  0.198900  0.183800  1.0  -0.1122
  C  C129  1  0.665800  0.240700  0.140800  1.0  -0.0246
  C  C130  1  0.567100  0.210000  0.129200  1.0  -0.1515
  C  C131  1  0.519800  0.136400  0.161050  1.0  0.0075
  C  C132  1  0.510200  0.254900  0.081650  1.0  0.7062
  C  C133  1  0.593800  0.930900  0.293980  1.0  -0.2946
  C  C134  1  0.624200  0.829800  0.284600  1.0  -0.0361
  C  C135  1  0.698900  0.782100  0.316200  1.0  -0.1138
  C  C136  1  0.740700  0.834200  0.359200  1.0  -0.0209
  C  C137  1  0.710000  0.932900  0.370800  1.0  -0.15
  C  C138  1  0.636400  0.980200  0.338950  1.0  0.0092
  C  C139  1  0.754900  0.989800  0.418350  1.0  0.7057
  C  C140  1  0.093800  0.430900  0.793980  1.0  -0.2896
  C  C141  1  0.124200  0.329800  0.784600  1.0  -0.0361
  C  C142  1  0.198900  0.282100  0.816200  1.0  -0.1138
  C  C143  1  0.240700  0.334200  0.859200  1.0  -0.0209
  C  C144  1  0.210000  0.432900  0.870800  1.0  -0.15
  C  C145  1  0.136400  0.480200  0.838950  1.0  0.0092
  C  C146  1  0.254900  0.489800  0.918350  1.0  0.7057
  C  C147  1  0.406200  0.069100  0.293980  1.0  -0.2997
  C  C148  1  0.375800  0.170200  0.284600  1.0  -0.0357
  C  C149  1  0.301100  0.217900  0.316200  1.0  -0.1124
  C  C150  1  0.259300  0.165800  0.359200  1.0  -0.0252
  C  C151  1  0.290000  0.067100  0.370800  1.0  -0.1496
  C  C152  1  0.363600  0.019800  0.338950  1.0  0.0073
  C  C153  1  0.245100  0.010200  0.418350  1.0  0.7052
  C  C154  1  0.906200  0.569100  0.793980  1.0  -0.2997
  C  C155  1  0.875800  0.670200  0.784600  1.0  -0.0357
  C  C156  1  0.801100  0.717900  0.816200  1.0  -0.1124
  C  C157  1  0.759300  0.665800  0.859200  1.0  -0.0252
  C  C158  1  0.790000  0.567100  0.870800  1.0  -0.1496
  C  C159  1  0.863600  0.519800  0.838950  1.0  0.0104
  C  C160  1  0.745100  0.510200  0.918350  1.0  0.7052
  C  C161  1  0.069100  0.593800  0.293980  1.0  -0.2936
  C  C162  1  0.170200  0.624200  0.284600  1.0  -0.0337
  C  C163  1  0.217900  0.698900  0.316200  1.0  -0.1122
  C  C164  1  0.165800  0.740700  0.359200  1.0  -0.0223
  C  C165  1  0.067100  0.710000  0.370800  1.0  -0.1512
  C  C166  1  0.019800  0.636400  0.338950  1.0  0.0083
  C  C167  1  0.010200  0.754900  0.418350  1.0  0.7056
  C  C168  1  0.569100  0.093800  0.793980  1.0  -0.2936
  C  C169  1  0.670200  0.124200  0.784600  1.0  -0.0337
  C  C170  1  0.717900  0.198900  0.816200  1.0  -0.1122
  C  C171  1  0.665800  0.240700  0.859200  1.0  -0.0223
  C  C172  1  0.567100  0.210000  0.870800  1.0  -0.1512
  C  C173  1  0.519800  0.136400  0.838950  1.0  0.0086
  C  C174  1  0.510200  0.254900  0.918350  1.0  0.7056
  C  C175  1  0.930900  0.406200  0.293980  1.0  -0.3005
  C  C176  1  0.829800  0.375800  0.284600  1.0  -0.0331
  C  C177  1  0.782100  0.301100  0.316200  1.0  -0.1142
  C  C178  1  0.834200  0.259300  0.359200  1.0  -0.0254
  C  C179  1  0.932900  0.290000  0.370800  1.0  -0.1501
  C  C180  1  0.980200  0.363600  0.338950  1.0  0.0055
  C  C181  1  0.989800  0.245100  0.418350  1.0  0.7033
  C  C182  1  0.430900  0.906200  0.793980  1.0  -0.3005
  C  C183  1  0.329800  0.875800  0.784600  1.0  -0.0331
  C  C184  1  0.282100  0.801100  0.816200  1.0  -0.1142
  C  C185  1  0.334200  0.759300  0.859200  1.0  -0.0254
  C  C186  1  0.432900  0.790000  0.870800  1.0  -0.1501
  C  C187  1  0.480200  0.863600  0.838950  1.0  0.0055
  C  C188  1  0.489800  0.745100  0.918350  1.0  0.7033
  O  O189  1  0.284800  0.925500  0.568460  1.0  -0.5743
  O  O190  1  0.167200  0.046100  0.558010  1.0  -0.7004
  O  O191  1  0.784800  0.425500  0.068460  1.0  -0.5743
  O  O192  1  0.667200  0.546100  0.058010  1.0  -0.7004
  O  O193  1  0.715200  0.074500  0.568460  1.0  -0.5735
  O  O194  1  0.832800  0.953900  0.558010  1.0  -0.701
  O  O195  1  0.215200  0.574500  0.068460  1.0  -0.5723
  O  O196  1  0.332800  0.453900  0.058010  1.0  -0.701
  O  O197  1  0.074500  0.284800  0.568460  1.0  -0.575
  O  O198  1  0.953900  0.167200  0.558010  1.0  -0.7012
  O  O199  1  0.574500  0.784800  0.068460  1.0  -0.575
  O  O200  1  0.453900  0.667200  0.058010  1.0  -0.7012
  O  O201  1  0.925500  0.715200  0.568460  1.0  -0.5716
  O  O202  1  0.046100  0.832800  0.558010  1.0  -0.7014
  O  O203  1  0.425500  0.215200  0.068460  1.0  -0.5716
  O  O204  1  0.546100  0.332800  0.058010  1.0  -0.7014
  O  O205  1  0.715200  0.074500  0.431540  1.0  -0.5742
  O  O206  1  0.832800  0.953900  0.441990  1.0  -0.7004
  O  O207  1  0.215200  0.574500  0.931540  1.0  -0.5724
  O  O208  1  0.332800  0.453900  0.941990  1.0  -0.7004
  O  O209  1  0.284800  0.925500  0.431540  1.0  -0.5745
  O  O210  1  0.167200  0.046100  0.441990  1.0  -0.7004
  O  O211  1  0.784800  0.425500  0.931540  1.0  -0.5745
  O  O212  1  0.667200  0.546100  0.941990  1.0  -0.7004
  O  O213  1  0.925500  0.715200  0.431540  1.0  -0.571
  O  O214  1  0.046100  0.832800  0.441990  1.0  -0.7011
  O  O215  1  0.425500  0.215200  0.931540  1.0  -0.571
  O  O216  1  0.546100  0.332800  0.941990  1.0  -0.7011
  O  O217  1  0.074500  0.284800  0.431540  1.0  -0.5752
  O  O218  1  0.953900  0.167200  0.441990  1.0  -0.7009
  O  O219  1  0.574500  0.784800  0.931540  1.0  -0.5751
  O  O220  1  0.453900  0.667200  0.941990  1.0  -0.7009
