# generated using pymatgen
data_Co2H7C10NO7
_symmetry_space_group_name_H-M   'P 1'
_cell_length_a   10.02760000
_cell_length_b   12.78480000
_cell_length_c   12.96220000
_cell_angle_alpha   71.18060000
_cell_angle_beta   67.24450000
_cell_angle_gamma   66.91060000
_symmetry_Int_Tables_number   1
_chemical_formula_structural   Co2H7C10NO7
_chemical_formula_sum   'Co8 H28 C40 N4 O28'
_cell_volume   1380.76146364
_cell_formula_units_Z   4
loop_
 _symmetry_equiv_pos_site_id
 _symmetry_equiv_pos_as_xyz
  1  'x, y, z'
loop_
 _atom_site_type_symbol
 _atom_site_label
 _atom_site_symmetry_multiplicity
 _atom_site_fract_x
 _atom_site_fract_y
 _atom_site_fract_z
 _atom_site_occupancy
 _atom_site_charge
  Co  Co1  1  0.966670  0.613520  0.897780  1.0  1.0601
  Co  Co2  1  0.250580  0.167210  0.263750  1.0  1.1152
  Co  Co3  1  0.477970  0.886480  0.602220  1.0  1.0612
  Co  Co4  1  0.681540  0.332790  0.236250  1.0  1.1146
  Co  Co5  1  0.033330  0.386480  0.102220  1.0  1.0609
  Co  Co6  1  0.749420  0.832790  0.736250  1.0  1.1156
  Co  Co7  1  0.522030  0.113520  0.397780  1.0  1.061
  Co  Co8  1  0.318460  0.667210  0.763750  1.0  1.1148
  H  H9  1  0.859200  0.885000  0.155400  1.0  0.1169
  H  H10  1  0.003600  0.750900  0.039500  1.0  0.0831
  H  H11  1  0.636800  0.725200  0.020800  1.0  0.0807
  H  H12  1  0.483700  0.866200  0.128200  1.0  0.1311
  H  H13  1  0.137800  0.958300  0.741900  1.0  0.0851
  H  H14  1  0.126100  0.916700  0.541100  1.0  0.14
  H  H15  1  0.011300  0.023300  0.600700  1.0  0.1502
  H  H16  1  0.899600  0.615000  0.344600  1.0  0.1167
  H  H17  1  0.794000  0.749100  0.460500  1.0  0.0816
  H  H18  1  0.382800  0.774800  0.479200  1.0  0.0802
  H  H19  1  0.478100  0.633800  0.371800  1.0  0.1305
  H  H20  1  0.838000  0.541700  0.758100  1.0  0.0867
  H  H21  1  0.583900  0.583300  0.958900  1.0  0.1373
  H  H22  1  0.635300  0.476700  0.899300  1.0  0.1517
  H  H23  1  0.140800  0.115000  0.844600  1.0  0.1158
  H  H24  1  0.996400  0.249100  0.960500  1.0  0.0816
  H  H25  1  0.363200  0.274800  0.979200  1.0  0.081
  H  H26  1  0.516300  0.133800  0.871800  1.0  0.1312
  H  H27  1  0.862200  0.041700  0.258100  1.0  0.0845
  H  H28  1  0.873900  0.083300  0.458900  1.0  0.1399
  H  H29  1  0.988700  0.976700  0.399300  1.0  0.1514
  H  H30  1  0.100400  0.385000  0.655400  1.0  0.1164
  H  H31  1  0.206000  0.250900  0.539500  1.0  0.0812
  H  H32  1  0.617200  0.225200  0.520800  1.0  0.0802
  H  H33  1  0.521900  0.366200  0.628200  1.0  0.1303
  H  H34  1  0.162000  0.458300  0.241900  1.0  0.0866
  H  H35  1  0.416100  0.416700  0.041100  1.0  0.1359
  H  H36  1  0.364700  0.523300  0.100700  1.0  0.1509
  C  C37  1  0.555500  0.985500  0.222700  1.0  0.6738
  C  C38  1  0.654800  0.893500  0.152300  1.0  -0.038
  C  C39  1  0.810600  0.855200  0.126400  1.0  -0.1568
  C  C40  1  0.896100  0.774000  0.058400  1.0  0.1584
  C  C41  1  0.683100  0.760200  0.046400  1.0  0.1601
  C  C42  1  0.590800  0.843500  0.111500  1.0  -0.1457
  C  C43  1  0.031000  0.838800  0.754200  1.0  0.6568
  C  C44  1  0.151000  0.904700  0.694700  1.0  0.1632
  C  C45  1  0.118100  0.972800  0.582600  1.0  -0.4095
  C  C46  1  0.218000  0.048500  0.501300  1.0  0.7502
  C  C47  1  0.763700  0.514500  0.277300  1.0  0.6721
  C  C48  1  0.700600  0.606500  0.347700  1.0  -0.0387
  C  C49  1  0.792200  0.644800  0.373600  1.0  -0.1573
  C  C50  1  0.728500  0.726000  0.441600  1.0  0.1582
  C  C51  1  0.489700  0.739800  0.453600  1.0  0.159
  C  C52  1  0.545800  0.656500  0.388500  1.0  -0.146
  C  C53  1  0.624000  0.661200  0.745800  1.0  0.6582
  C  C54  1  0.750400  0.595300  0.805300  1.0  0.1623
  C  C55  1  0.673500  0.527200  0.917400  1.0  -0.4126
  C  C56  1  0.767800  0.451500  0.998700  1.0  0.752
  C  C57  1  0.444500  0.014500  0.777300  1.0  0.6722
  C  C58  1  0.345200  0.106500  0.847700  1.0  -0.038
  C  C59  1  0.189400  0.144800  0.873600  1.0  -0.1565
  C  C60  1  0.103900  0.226000  0.941600  1.0  0.1585
  C  C61  1  0.316900  0.239800  0.953600  1.0  0.1605
  C  C62  1  0.409200  0.156500  0.888500  1.0  -0.1458
  C  C63  1  0.969000  0.161200  0.245800  1.0  0.6577
  C  C64  1  0.849000  0.095300  0.305300  1.0  0.1643
  C  C65  1  0.881900  0.027200  0.417400  1.0  -0.4104
  C  C66  1  0.782000  0.951500  0.498700  1.0  0.7503
  C  C67  1  0.236300  0.485500  0.722700  1.0  0.6728
  C  C68  1  0.299400  0.393500  0.652300  1.0  -0.0392
  C  C69  1  0.207800  0.355200  0.626400  1.0  -0.1566
  C  C70  1  0.271500  0.274000  0.558400  1.0  0.1596
  C  C71  1  0.510300  0.260200  0.546400  1.0  0.1596
  C  C72  1  0.454200  0.343500  0.611500  1.0  -0.1448
  C  C73  1  0.376000  0.338800  0.254200  1.0  0.6586
  C  C74  1  0.249600  0.404700  0.194700  1.0  0.1633
  C  C75  1  0.326500  0.472800  0.082600  1.0  -0.4109
  C  C76  1  0.232200  0.548500  0.001300  1.0  0.7516
  N  N77  1  0.834300  0.726100  0.017900  1.0  -0.3621
  N  N78  1  0.578300  0.773900  0.482100  1.0  -0.3613
  N  N79  1  0.165700  0.273900  0.982100  1.0  -0.3611
  N  N80  1  0.421700  0.226100  0.517900  1.0  -0.3631
  O  O81  1  0.614240  0.006820  0.279700  1.0  -0.582
  O  O82  1  0.422870  0.031160  0.215500  1.0  -0.6202
  O  O83  1  0.080260  0.734280  0.795800  1.0  -0.6598
  O  O84  1  0.894500  0.893300  0.764300  1.0  -0.5921
  O  O85  1  0.299650  0.824200  0.674900  1.0  -0.7015
  O  O86  1  0.356850  0.023400  0.496700  1.0  -0.6537
  O  O87  1  0.154900  0.126000  0.431800  1.0  -0.6006
  O  O88  1  0.900760  0.493180  0.220300  1.0  -0.5816
  O  O89  1  0.669530  0.468840  0.284500  1.0  -0.6211
  O  O90  1  0.610340  0.765720  0.704200  1.0  -0.6597
  O  O91  1  0.552100  0.606700  0.735700  1.0  -0.5933
  O  O92  1  0.798750  0.675800  0.825100  1.0  -0.7017
  O  O93  1  0.876950  0.476600  0.003300  1.0  -0.6532
  O  O94  1  0.712700  0.374000  0.068200  1.0  -0.5997
  O  O95  1  0.385760  0.993180  0.720300  1.0  -0.5815
  O  O96  1  0.577130  0.968840  0.784500  1.0  -0.6211
  O  O97  1  0.919740  0.265720  0.204200  1.0  -0.6599
  O  O98  1  0.105500  0.106700  0.235700  1.0  -0.5919
  O  O99  1  0.700350  0.175800  0.325100  1.0  -0.7026
  O  O100  1  0.643150  0.976600  0.503300  1.0  -0.653
  O  O101  1  0.845100  0.874000  0.568200  1.0  -0.6005
  O  O102  1  0.099240  0.506820  0.779700  1.0  -0.5803
  O  O103  1  0.330470  0.531160  0.715500  1.0  -0.6218
  O  O104  1  0.389660  0.234280  0.295800  1.0  -0.6594
  O  O105  1  0.447900  0.393300  0.264300  1.0  -0.5937
  O  O106  1  0.201250  0.324200  0.174900  1.0  -0.7019
  O  O107  1  0.123050  0.523400  0.996700  1.0  -0.6536
  O  O108  1  0.287300  0.626000  0.931800  1.0  -0.5998
