# generated using pymatgen
data_Co2H7C10NO7
_symmetry_space_group_name_H-M   'P 1'
_cell_length_a   10.09400000
_cell_length_b   12.76970000
_cell_length_c   13.07260000
_cell_angle_alpha   71.19220000
_cell_angle_beta   67.28960000
_cell_angle_gamma   66.71950000
_symmetry_Int_Tables_number   1
_chemical_formula_structural   Co2H7C10NO7
_chemical_formula_sum   'Co8 H28 C40 N4 O28'
_cell_volume   1398.86148307
_cell_formula_units_Z   4
loop_
 _symmetry_equiv_pos_site_id
 _symmetry_equiv_pos_as_xyz
  1  'x, y, z'
loop_
 _atom_site_type_symbol
 _atom_site_label
 _atom_site_symmetry_multiplicity
 _atom_site_fract_x
 _atom_site_fract_y
 _atom_site_fract_z
 _atom_site_occupancy
 _atom_site_charge
  Co  Co1  1  0.966780  0.614740  0.897300  1.0  1.0551
  Co  Co2  1  0.249440  0.166960  0.265460  1.0  1.122
  Co  Co3  1  0.478820  0.885260  0.602700  1.0  1.056
  Co  Co4  1  0.681860  0.333040  0.234540  1.0  1.1229
  Co  Co5  1  0.033220  0.385260  0.102700  1.0  1.0558
  Co  Co6  1  0.750560  0.833040  0.734540  1.0  1.1215
  Co  Co7  1  0.521180  0.114740  0.397300  1.0  1.0562
  Co  Co8  1  0.318140  0.666960  0.765460  1.0  1.1198
  H  H9  1  0.854900  0.889500  0.151700  1.0  0.1183
  H  H10  1  0.998200  0.750800  0.042400  1.0  0.0765
  H  H11  1  0.637700  0.730600  0.018400  1.0  0.0783
  H  H12  1  0.486300  0.871300  0.124900  1.0  0.1265
  H  H13  1  0.146200  0.928600  0.744400  1.0  0.0836
  H  H14  1  0.023500  0.017200  0.600800  1.0  0.1349
  H  H15  1  0.088800  0.063300  0.661300  1.0  0.1514
  H  H16  1  0.896100  0.610500  0.348300  1.0  0.1185
  H  H17  1  0.791400  0.749200  0.457600  1.0  0.0758
  H  H18  1  0.386700  0.769400  0.481600  1.0  0.0787
  H  H19  1  0.482500  0.628700  0.375100  1.0  0.1234
  H  H20  1  0.819200  0.571400  0.755600  1.0  0.09
  H  H21  1  0.641500  0.482800  0.899200  1.0  0.1344
  H  H22  1  0.813400  0.436700  0.838700  1.0  0.151
  H  H23  1  0.145100  0.110500  0.848300  1.0  0.1182
  H  H24  1  0.001800  0.249200  0.957600  1.0  0.0766
  H  H25  1  0.362300  0.269400  0.981600  1.0  0.0784
  H  H26  1  0.513700  0.128700  0.875100  1.0  0.1254
  H  H27  1  0.853800  0.071400  0.255600  1.0  0.0861
  H  H28  1  0.976500  0.982800  0.399200  1.0  0.1345
  H  H29  1  0.911200  0.936700  0.338700  1.0  0.1513
  H  H30  1  0.103900  0.389500  0.651700  1.0  0.1181
  H  H31  1  0.208600  0.250800  0.542400  1.0  0.0753
  H  H32  1  0.613300  0.230600  0.518400  1.0  0.0785
  H  H33  1  0.517500  0.371300  0.624900  1.0  0.1242
  H  H34  1  0.180800  0.428600  0.244400  1.0  0.0843
  H  H35  1  0.358500  0.517200  0.100800  1.0  0.1354
  H  H36  1  0.186600  0.563300  0.161300  1.0  0.1499
  C  C37  1  0.554400  0.986800  0.222200  1.0  0.6765
  C  C38  1  0.654200  0.895400  0.150800  1.0  -0.0358
  C  C39  1  0.808000  0.858700  0.124900  1.0  -0.1488
  C  C40  1  0.893600  0.775400  0.058400  1.0  0.1665
  C  C41  1  0.683000  0.763800  0.044000  1.0  0.1688
  C  C42  1  0.590600  0.847700  0.109500  1.0  -0.1447
  C  C43  1  0.032400  0.839100  0.751900  1.0  0.6418
  C  C44  1  0.154500  0.898500  0.681300  1.0  0.1826
  C  C45  1  0.115600  0.008000  0.614800  1.0  -0.3884
  C  C46  1  0.219200  0.047300  0.502900  1.0  0.7496
  C  C47  1  0.763400  0.513200  0.277800  1.0  0.6743
  C  C48  1  0.700400  0.604600  0.349200  1.0  -0.0386
  C  C49  1  0.791600  0.641300  0.375100  1.0  -0.152
  C  C50  1  0.727400  0.724600  0.441600  1.0  0.1685
  C  C51  1  0.490800  0.736200  0.456000  1.0  0.1672
  C  C52  1  0.547800  0.652300  0.390500  1.0  -0.1445
  C  C53  1  0.623400  0.660900  0.748100  1.0  0.6449
  C  C54  1  0.734300  0.601500  0.818700  1.0  0.1766
  C  C55  1  0.738400  0.492000  0.885200  1.0  -0.3933
  C  C56  1  0.769400  0.452700  0.997100  1.0  0.7483
  C  C57  1  0.445600  0.013200  0.777800  1.0  0.6765
  C  C58  1  0.345800  0.104600  0.849200  1.0  -0.0355
  C  C59  1  0.192000  0.141300  0.875100  1.0  -0.1483
  C  C60  1  0.106400  0.224600  0.941600  1.0  0.1663
  C  C61  1  0.317000  0.236200  0.956000  1.0  0.1693
  C  C62  1  0.409400  0.152300  0.890500  1.0  -0.1451
  C  C63  1  0.967600  0.160900  0.248100  1.0  0.6451
  C  C64  1  0.845500  0.101500  0.318700  1.0  0.168
  C  C65  1  0.884400  0.992000  0.385200  1.0  -0.3873
  C  C66  1  0.780800  0.952700  0.497100  1.0  0.7497
  C  C67  1  0.236600  0.486800  0.722200  1.0  0.6748
  C  C68  1  0.299600  0.395400  0.650800  1.0  -0.0389
  C  C69  1  0.208400  0.358700  0.624900  1.0  -0.1514
  C  C70  1  0.272600  0.275400  0.558400  1.0  0.1685
  C  C71  1  0.509200  0.263800  0.544000  1.0  0.1686
  C  C72  1  0.452200  0.347700  0.609500  1.0  -0.1448
  C  C73  1  0.376600  0.339100  0.251900  1.0  0.647
  C  C74  1  0.265700  0.398500  0.181300  1.0  0.1825
  C  C75  1  0.261600  0.508000  0.114800  1.0  -0.3947
  C  C76  1  0.230600  0.547300  0.002900  1.0  0.7485
  N  N77  1  0.834000  0.728400  0.016000  1.0  -0.3659
  N  N78  1  0.578400  0.771600  0.484000  1.0  -0.3646
  N  N79  1  0.166000  0.271600  0.984000  1.0  -0.3644
  N  N80  1  0.421600  0.228400  0.516000  1.0  -0.3669
  O  O81  1  0.611500  0.007100  0.279900  1.0  -0.5817
  O  O82  1  0.421300  0.032100  0.216900  1.0  -0.6192
  O  O83  1  0.081650  0.734300  0.796200  1.0  -0.665
  O  O84  1  0.897000  0.893100  0.760300  1.0  -0.6001
  O  O85  1  0.301290  0.822920  0.675700  1.0  -0.7017
  O  O86  1  0.158600  0.124600  0.433000  1.0  -0.6021
  O  O87  1  0.358140  0.023520  0.497200  1.0  -0.6709
  O  O88  1  0.898500  0.492900  0.220100  1.0  -0.5803
  O  O89  1  0.670300  0.467900  0.283100  1.0  -0.6187
  O  O90  1  0.612150  0.765700  0.703800  1.0  -0.665
  O  O91  1  0.550400  0.606900  0.739700  1.0  -0.6012
  O  O92  1  0.799910  0.677080  0.824300  1.0  -0.7039
  O  O93  1  0.716200  0.375400  0.067000  1.0  -0.6025
  O  O94  1  0.878860  0.476480  0.002800  1.0  -0.6714
  O  O95  1  0.388500  0.992900  0.720100  1.0  -0.5809
  O  O96  1  0.578700  0.967900  0.783100  1.0  -0.6195
  O  O97  1  0.918350  0.265700  0.203800  1.0  -0.6652
  O  O98  1  0.103000  0.106900  0.239700  1.0  -0.6011
  O  O99  1  0.698710  0.177080  0.324300  1.0  -0.7015
  O  O100  1  0.841400  0.875400  0.567000  1.0  -0.6025
  O  O101  1  0.641860  0.976480  0.502800  1.0  -0.6702
  O  O102  1  0.101500  0.507100  0.779900  1.0  -0.5801
  O  O103  1  0.329700  0.532100  0.716900  1.0  -0.6201
  O  O104  1  0.387850  0.234300  0.296200  1.0  -0.6648
  O  O105  1  0.449600  0.393100  0.260300  1.0  -0.5999
  O  O106  1  0.200090  0.322920  0.175700  1.0  -0.7014
  O  O107  1  0.283800  0.624600  0.933000  1.0  -0.6013
  O  O108  1  0.121140  0.523520  0.997200  1.0  -0.6711
