# generated using pymatgen
data_Co2H7C10NO7
_symmetry_space_group_name_H-M   'P 1'
_cell_length_a   10.05970000
_cell_length_b   12.77300000
_cell_length_c   12.99480000
_cell_angle_alpha   70.91780000
_cell_angle_beta   67.22810000
_cell_angle_gamma   66.80970000
_symmetry_Int_Tables_number   1
_chemical_formula_structural   Co2H7C10NO7
_chemical_formula_sum   'Co8 H28 C40 N4 O28'
_cell_volume   1384.86829042
_cell_formula_units_Z   4
loop_
 _symmetry_equiv_pos_site_id
 _symmetry_equiv_pos_as_xyz
  1  'x, y, z'
loop_
 _atom_site_type_symbol
 _atom_site_label
 _atom_site_symmetry_multiplicity
 _atom_site_fract_x
 _atom_site_fract_y
 _atom_site_fract_z
 _atom_site_occupancy
 _atom_site_charge
  Co  Co1  1  0.966650  0.614680  0.896880  1.0  1.0515
  Co  Co2  1  0.317650  0.666810  0.764030  1.0  1.1081
  Co  Co3  1  0.478210  0.885320  0.603120  1.0  1.0524
  Co  Co4  1  0.748490  0.833190  0.735970  1.0  1.1094
  Co  Co5  1  0.033350  0.385320  0.103120  1.0  1.0522
  Co  Co6  1  0.682350  0.333190  0.235970  1.0  1.1092
  Co  Co7  1  0.521790  0.114680  0.396880  1.0  1.0524
  Co  Co8  1  0.251510  0.166810  0.264030  1.0  1.1095
  H  H9  1  0.102700  0.389900  0.650100  1.0  0.1283
  H  H10  1  0.208500  0.256600  0.536800  1.0  0.0736
  H  H11  1  0.612200  0.230100  0.518500  1.0  0.0725
  H  H12  1  0.517600  0.370900  0.625100  1.0  0.1265
  H  H13  1  0.136800  0.956300  0.739300  1.0  0.0866
  H  H14  1  0.019200  0.019200  0.594400  1.0  0.1453
  H  H15  1  0.137800  0.915800  0.537000  1.0  0.1509
  H  H16  1  0.142700  0.110100  0.849900  1.0  0.1269
  H  H17  1  0.001900  0.243400  0.963200  1.0  0.0747
  H  H18  1  0.360800  0.269900  0.981500  1.0  0.0727
  H  H19  1  0.513600  0.129100  0.874900  1.0  0.1289
  H  H20  1  0.832400  0.543700  0.760700  1.0  0.0877
  H  H21  1  0.632800  0.480800  0.905600  1.0  0.1448
  H  H22  1  0.590600  0.584200  0.963000  1.0  0.1482
  H  H23  1  0.897300  0.610100  0.349900  1.0  0.128
  H  H24  1  0.791500  0.743400  0.463200  1.0  0.0737
  H  H25  1  0.387800  0.769900  0.481500  1.0  0.0726
  H  H26  1  0.482400  0.629100  0.374900  1.0  0.1262
  H  H27  1  0.863200  0.043700  0.260700  1.0  0.0853
  H  H28  1  0.980800  0.980800  0.405600  1.0  0.148
  H  H29  1  0.862200  0.084200  0.463000  1.0  0.149
  H  H30  1  0.857300  0.889900  0.150100  1.0  0.1269
  H  H31  1  0.998100  0.756600  0.036800  1.0  0.0737
  H  H32  1  0.639200  0.730100  0.018500  1.0  0.0727
  H  H33  1  0.486400  0.870900  0.125100  1.0  0.1298
  H  H34  1  0.167600  0.456300  0.239300  1.0  0.0879
  H  H35  1  0.367200  0.519200  0.094400  1.0  0.1438
  H  H36  1  0.409400  0.415800  0.037000  1.0  0.1473
  C  C37  1  0.236100  0.486900  0.721700  1.0  0.6738
  C  C38  1  0.300100  0.396200  0.649800  1.0  -0.0353
  C  C39  1  0.207100  0.359900  0.622500  1.0  -0.1458
  C  C40  1  0.272300  0.279700  0.554500  1.0  0.174
  C  C41  1  0.508200  0.263800  0.544200  1.0  0.1659
  C  C42  1  0.451500  0.348100  0.609700  1.0  -0.1306
  C  C43  1  0.033300  0.838900  0.749900  1.0  0.6621
  C  C44  1  0.152200  0.902900  0.693100  1.0  0.1614
  C  C45  1  0.124400  0.971300  0.579100  1.0  -0.4201
  C  C46  1  0.220200  0.049000  0.502400  1.0  0.7512
  C  C47  1  0.444700  0.013100  0.778300  1.0  0.6723
  C  C48  1  0.346100  0.103800  0.850200  1.0  -0.0355
  C  C49  1  0.189500  0.140100  0.877500  1.0  -0.1449
  C  C50  1  0.106500  0.220300  0.945500  1.0  0.171
  C  C51  1  0.316200  0.236200  0.955800  1.0  0.1666
  C  C52  1  0.409300  0.151900  0.890300  1.0  -0.1327
  C  C53  1  0.622100  0.661100  0.750100  1.0  0.663
  C  C54  1  0.748200  0.597100  0.806900  1.0  0.1612
  C  C55  1  0.674800  0.528700  0.920900  1.0  -0.4223
  C  C56  1  0.771600  0.451000  0.997600  1.0  0.7542
  C  C57  1  0.763900  0.513100  0.278300  1.0  0.6729
  C  C58  1  0.699900  0.603800  0.350200  1.0  -0.0352
  C  C59  1  0.792900  0.640100  0.377500  1.0  -0.1451
  C  C60  1  0.727700  0.720300  0.445500  1.0  0.1736
  C  C61  1  0.491800  0.736200  0.455800  1.0  0.1659
  C  C62  1  0.548500  0.651900  0.390300  1.0  -0.1306
  C  C63  1  0.966700  0.161100  0.250100  1.0  0.6632
  C  C64  1  0.847800  0.097100  0.306900  1.0  0.1625
  C  C65  1  0.875600  0.028700  0.420900  1.0  -0.4212
  C  C66  1  0.779800  0.951000  0.497600  1.0  0.7518
  C  C67  1  0.555300  0.986900  0.221700  1.0  0.6737
  C  C68  1  0.653900  0.896200  0.149800  1.0  -0.0353
  C  C69  1  0.810500  0.859900  0.122500  1.0  -0.1458
  C  C70  1  0.893500  0.779700  0.054500  1.0  0.1715
  C  C71  1  0.683800  0.763800  0.044200  1.0  0.1667
  C  C72  1  0.590700  0.848100  0.109700  1.0  -0.1328
  C  C73  1  0.377900  0.338900  0.249900  1.0  0.6637
  C  C74  1  0.251800  0.402900  0.193100  1.0  0.1616
  C  C75  1  0.325200  0.471300  0.079100  1.0  -0.4214
  C  C76  1  0.228400  0.549000  0.002400  1.0  0.7527
  N  N77  1  0.420760  0.230080  0.515400  1.0  -0.3593
  N  N78  1  0.166240  0.269920  0.984600  1.0  -0.3566
  N  N79  1  0.579240  0.769920  0.484600  1.0  -0.3565
  N  N80  1  0.833760  0.730080  0.015400  1.0  -0.3582
  O  O81  1  0.330670  0.530460  0.717800  1.0  -0.6247
  O  O82  1  0.101130  0.507140  0.779200  1.0  -0.5803
  O  O83  1  0.080730  0.734440  0.793900  1.0  -0.6614
  O  O84  1  0.896680  0.893740  0.758500  1.0  -0.5987
  O  O85  1  0.299730  0.824340  0.676000  1.0  -0.7066
  O  O86  1  0.358730  0.023640  0.496700  1.0  -0.6579
  O  O87  1  0.158710  0.128280  0.433100  1.0  -0.6133
  O  O88  1  0.578930  0.969540  0.782200  1.0  -0.6229
  O  O89  1  0.387470  0.992860  0.720800  1.0  -0.5803
  O  O90  1  0.609070  0.765560  0.706100  1.0  -0.661
  O  O91  1  0.548920  0.606260  0.741500  1.0  -0.6002
  O  O92  1  0.800070  0.675660  0.824000  1.0  -0.7072
  O  O93  1  0.879070  0.476360  0.003300  1.0  -0.6581
  O  O94  1  0.720090  0.371720  0.066900  1.0  -0.6118
  O  O95  1  0.669330  0.469540  0.282200  1.0  -0.6245
  O  O96  1  0.898870  0.492860  0.220800  1.0  -0.5804
  O  O97  1  0.919270  0.265560  0.206100  1.0  -0.6615
  O  O98  1  0.103320  0.106260  0.241500  1.0  -0.5989
  O  O99  1  0.700270  0.175660  0.324000  1.0  -0.708
  O  O100  1  0.641270  0.976360  0.503300  1.0  -0.657
  O  O101  1  0.841290  0.871720  0.566900  1.0  -0.6125
  O  O102  1  0.421070  0.030460  0.217800  1.0  -0.6226
  O  O103  1  0.612530  0.007140  0.279200  1.0  -0.5802
  O  O104  1  0.390930  0.234440  0.293900  1.0  -0.6606
  O  O105  1  0.451080  0.393740  0.258500  1.0  -0.6001
  O  O106  1  0.199930  0.324340  0.176000  1.0  -0.7074
  O  O107  1  0.120930  0.523640  0.996700  1.0  -0.6578
  O  O108  1  0.279910  0.628280  0.933100  1.0  -0.6121
