# generated using pymatgen
data_Tm3H9W12C21N3O43
_symmetry_space_group_name_H-M   'P 1'
_cell_length_a   16.65020000
_cell_length_b   16.65020000
_cell_length_c   51.31300000
_cell_angle_alpha   90.00000000
_cell_angle_beta   90.00000000
_cell_angle_gamma   120.00000000
_symmetry_Int_Tables_number   1
_chemical_formula_structural   Tm3H9W12C21N3O43
_chemical_formula_sum   'Tm18 H54 W72 C126 N18 O258'
_cell_volume   12319.60964451
_cell_formula_units_Z   6
loop_
 _symmetry_equiv_pos_site_id
 _symmetry_equiv_pos_as_xyz
  1  'x, y, z'
loop_
 _atom_site_type_symbol
 _atom_site_label
 _atom_site_symmetry_multiplicity
 _atom_site_fract_x
 _atom_site_fract_y
 _atom_site_fract_z
 _atom_site_occupancy
 _atom_site_charge
  Tm  Tm1  1  0.322290  0.217180  0.168690  1.0  1.9283
  Tm  Tm2  1  0.988960  0.550510  0.502020  1.0  1.9257
  Tm  Tm3  1  0.655620  0.883850  0.835350  1.0  1.9283
  Tm  Tm4  1  0.782820  0.105110  0.168690  1.0  1.928
  Tm  Tm5  1  0.449490  0.438440  0.502020  1.0  1.9262
  Tm  Tm6  1  0.116150  0.771780  0.835350  1.0  1.928
  Tm  Tm7  1  0.894890  0.677710  0.168690  1.0  1.9231
  Tm  Tm8  1  0.561560  0.011040  0.502020  1.0  1.9268
  Tm  Tm9  1  0.228220  0.344380  0.835350  1.0  1.9231
  Tm  Tm10  1  0.782820  0.677710  0.668690  1.0  1.927
  Tm  Tm11  1  0.449490  0.011040  0.002020  1.0  1.923
  Tm  Tm12  1  0.116150  0.344380  0.335350  1.0  1.927
  Tm  Tm13  1  0.894890  0.217180  0.668690  1.0  1.9252
  Tm  Tm14  1  0.561560  0.550510  0.002020  1.0  1.923
  Tm  Tm15  1  0.228220  0.883850  0.335350  1.0  1.9252
  Tm  Tm16  1  0.322290  0.105110  0.668690  1.0  1.9264
  Tm  Tm17  1  0.988960  0.438440  0.002020  1.0  1.9306
  Tm  Tm18  1  0.655620  0.771780  0.335350  1.0  1.9265
  H  H19  1  0.495800  0.432900  0.225800  1.0  0.1254
  H  H20  1  0.499000  0.564200  0.292100  1.0  0.1309
  H  H21  1  0.275800  0.315200  0.274300  1.0  0.127
  H  H22  1  0.162470  0.766230  0.559130  1.0  0.1254
  H  H23  1  0.165670  0.897530  0.625430  1.0  0.1309
  H  H24  1  0.942470  0.648530  0.607630  1.0  0.127
  H  H25  1  0.829130  0.099570  0.892470  1.0  0.1249
  H  H26  1  0.832330  0.230870  0.958770  1.0  0.1309
  H  H27  1  0.609130  0.981870  0.940970  1.0  0.1275
  H  H28  1  0.567100  0.062900  0.225800  1.0  0.1238
  H  H29  1  0.435800  0.934800  0.292100  1.0  0.1289
  H  H30  1  0.684800  0.960600  0.274300  1.0  0.1273
  H  H31  1  0.233770  0.396230  0.559130  1.0  0.1238
  H  H32  1  0.102470  0.268130  0.625430  1.0  0.1289
  H  H33  1  0.351470  0.293930  0.607630  1.0  0.1273
  H  H34  1  0.900430  0.729570  0.892470  1.0  0.1247
  H  H35  1  0.769130  0.601470  0.958770  1.0  0.1289
  H  H36  1  0.018130  0.627270  0.940970  1.0  0.1276
  H  H37  1  0.937100  0.504200  0.225800  1.0  0.1253
  H  H38  1  0.065200  0.501000  0.292100  1.0  0.1294
  H  H39  1  0.039400  0.724200  0.274300  1.0  0.1267
  H  H40  1  0.603770  0.837530  0.559130  1.0  0.1253
  H  H41  1  0.731870  0.834330  0.625430  1.0  0.1294
  H  H42  1  0.706070  0.057530  0.607630  1.0  0.1267
  H  H43  1  0.270430  0.170870  0.892470  1.0  0.1248
  H  H44  1  0.398530  0.167670  0.958770  1.0  0.1294
  H  H45  1  0.372730  0.390870  0.940970  1.0  0.126
  H  H46  1  0.567100  0.504200  0.725800  1.0  0.1254
  H  H47  1  0.435800  0.501000  0.792100  1.0  0.1291
  H  H48  1  0.684800  0.724200  0.774300  1.0  0.1258
  H  H49  1  0.233770  0.837530  0.059130  1.0  0.1254
  H  H50  1  0.102470  0.834330  0.125430  1.0  0.1291
  H  H51  1  0.351470  0.057530  0.107630  1.0  0.1258
  H  H52  1  0.900430  0.170870  0.392470  1.0  0.1248
  H  H53  1  0.769130  0.167670  0.458770  1.0  0.1291
  H  H54  1  0.018130  0.390870  0.440970  1.0  0.1265
  H  H55  1  0.937100  0.432900  0.725800  1.0  0.1248
  H  H56  1  0.065200  0.564200  0.792100  1.0  0.1308
  H  H57  1  0.039400  0.315200  0.774300  1.0  0.127
  H  H58  1  0.603770  0.766230  0.059130  1.0  0.1248
  H  H59  1  0.731870  0.897530  0.125430  1.0  0.1308
  H  H60  1  0.706070  0.648530  0.107630  1.0  0.127
  H  H61  1  0.270430  0.099570  0.392470  1.0  0.1257
  H  H62  1  0.398530  0.230870  0.458770  1.0  0.1308
  H  H63  1  0.372730  0.981870  0.440970  1.0  0.1272
  H  H64  1  0.495800  0.062900  0.725800  1.0  0.1248
  H  H65  1  0.499000  0.934800  0.792100  1.0  0.1291
  H  H66  1  0.275800  0.960600  0.774300  1.0  0.1267
  H  H67  1  0.162470  0.396230  0.059130  1.0  0.1248
  H  H68  1  0.165670  0.268130  0.125430  1.0  0.1291
  H  H69  1  0.942470  0.293930  0.107630  1.0  0.1267
  H  H70  1  0.829130  0.729570  0.392470  1.0  0.1239
  H  H71  1  0.832330  0.601470  0.458770  1.0  0.129
  H  H72  1  0.609130  0.627270  0.440970  1.0  0.1259
  W  W73  1  0.518160  0.624300  0.173200  1.0  1.3625
  W  W74  1  0.305450  0.447620  0.169100  1.0  2.2464
  W  W75  1  0.258350  0.532900  0.229640  1.0  1.5876
  W  W76  1  0.397980  0.585090  0.118850  1.0  1.3708
  W  W77  1  0.184830  0.957630  0.506530  1.0  1.3623
  W  W78  1  0.972120  0.780950  0.502430  1.0  2.2464
  W  W79  1  0.925020  0.866230  0.562980  1.0  1.5341
  W  W80  1  0.064650  0.918420  0.452190  1.0  1.3716
  W  W81  1  0.851490  0.290970  0.839870  1.0  1.3625
  W  W82  1  0.638780  0.114290  0.835770  1.0  2.2464
  W  W83  1  0.591680  0.199570  0.896310  1.0  1.5876
  W  W84  1  0.731310  0.251760  0.785520  1.0  1.3708
  W  W85  1  0.375700  0.893860  0.173200  1.0  1.3759
  W  W86  1  0.552380  0.857830  0.169100  1.0  2.2477
  W  W87  1  0.467100  0.725450  0.229640  1.0  1.5889
  W  W88  1  0.414910  0.812890  0.118850  1.0  1.3714
  W  W89  1  0.042370  0.227190  0.506530  1.0  1.3756
  W  W90  1  0.219050  0.191160  0.502430  1.0  2.2477
  W  W91  1  0.133770  0.058780  0.562980  1.0  1.5338
  W  W92  1  0.081580  0.146220  0.452190  1.0  1.3718
  W  W93  1  0.709030  0.560530  0.839870  1.0  1.3759
  W  W94  1  0.885710  0.524500  0.835770  1.0  2.2477
  W  W95  1  0.800430  0.392120  0.896310  1.0  1.5889
  W  W96  1  0.748240  0.479560  0.785520  1.0  1.3714
  W  W97  1  0.106140  0.481840  0.173200  1.0  1.3689
  W  W98  1  0.142170  0.694550  0.169100  1.0  2.2488
  W  W99  1  0.274550  0.741650  0.229640  1.0  1.5879
  W  W100  1  0.187110  0.602020  0.118850  1.0  1.3721
  W  W101  1  0.772810  0.815170  0.506530  1.0  1.3689
  W  W102  1  0.808840  0.027880  0.502430  1.0  2.2488
  W  W103  1  0.941220  0.074980  0.562980  1.0  1.5344
  W  W104  1  0.853780  0.935350  0.452190  1.0  1.3723
  W  W105  1  0.439470  0.148510  0.839870  1.0  1.3689
  W  W106  1  0.475500  0.361220  0.835770  1.0  2.2488
  W  W107  1  0.607880  0.408320  0.896310  1.0  1.5879
  W  W108  1  0.520440  0.268690  0.785520  1.0  1.3721
  W  W109  1  0.375700  0.481840  0.673200  1.0  1.3663
  W  W110  1  0.552380  0.694550  0.669100  1.0  2.2468
  W  W111  1  0.467100  0.741650  0.729640  1.0  1.5892
  W  W112  1  0.414910  0.602020  0.618850  1.0  1.3698
  W  W113  1  0.042370  0.815170  0.006530  1.0  1.3662
  W  W114  1  0.219050  0.027880  0.002430  1.0  2.2468
  W  W115  1  0.133770  0.074980  0.062980  1.0  1.5355
  W  W116  1  0.081580  0.935350  0.952190  1.0  1.3706
  W  W117  1  0.709030  0.148510  0.339870  1.0  1.3663
  W  W118  1  0.885710  0.361220  0.335770  1.0  2.2468
  W  W119  1  0.800430  0.408320  0.396310  1.0  1.5892
  W  W120  1  0.748240  0.268690  0.285520  1.0  1.3698
  W  W121  1  0.106140  0.624300  0.673200  1.0  1.3636
  W  W122  1  0.142170  0.447620  0.669100  1.0  2.248
  W  W123  1  0.274550  0.532900  0.729640  1.0  1.5872
  W  W124  1  0.187110  0.585090  0.618850  1.0  1.3725
  W  W125  1  0.772810  0.957630  0.006530  1.0  1.3635
  W  W126  1  0.808840  0.780950  0.002430  1.0  2.248
  W  W127  1  0.941220  0.866230  0.062980  1.0  1.5338
  W  W128  1  0.853780  0.918420  0.952190  1.0  1.3728
  W  W129  1  0.439470  0.290970  0.339870  1.0  1.3636
  W  W130  1  0.475500  0.114290  0.335770  1.0  2.248
  W  W131  1  0.607880  0.199570  0.396310  1.0  1.5872
  W  W132  1  0.520440  0.251760  0.285520  1.0  1.3725
  W  W133  1  0.518160  0.893860  0.673200  1.0  1.3759
  W  W134  1  0.305450  0.857830  0.669100  1.0  2.2491
  W  W135  1  0.258350  0.725450  0.729640  1.0  1.5869
  W  W136  1  0.397980  0.812890  0.618850  1.0  1.3721
  W  W137  1  0.184830  0.227190  0.006530  1.0  1.3758
  W  W138  1  0.972120  0.191160  0.002430  1.0  2.2491
  W  W139  1  0.925020  0.058780  0.062980  1.0  1.5327
  W  W140  1  0.064650  0.146220  0.952190  1.0  1.3724
  W  W141  1  0.851490  0.560530  0.339870  1.0  1.3759
  W  W142  1  0.638780  0.524500  0.335770  1.0  2.2491
  W  W143  1  0.591680  0.392120  0.396310  1.0  1.5869
  W  W144  1  0.731310  0.479560  0.285520  1.0  1.3721
  C  C145  1  0.379300  0.363600  0.247000  1.0  -0.1309
  C  C146  1  0.464200  0.435300  0.241200  1.0  0.1728
  C  C147  1  0.379300  0.440800  0.286300  1.0  -0.1163
  C  C148  1  0.466600  0.513300  0.280300  1.0  0.1544
  C  C149  1  0.336100  0.365900  0.270000  1.0  -0.0674
  C  C150  1  0.330300  0.445200  0.310100  1.0  0.6747
  C  C151  1  0.332900  0.280200  0.229500  1.0  0.647
  C  C152  1  0.045970  0.696930  0.580330  1.0  -0.1309
  C  C153  1  0.130870  0.768630  0.574530  1.0  0.1728
  C  C154  1  0.045970  0.774130  0.619630  1.0  -0.1163
  C  C155  1  0.133270  0.846630  0.613630  1.0  0.1544
  C  C156  1  0.002770  0.699230  0.603330  1.0  -0.0675
  C  C157  1  0.996970  0.778530  0.643430  1.0  0.6747
  C  C158  1  0.999570  0.613530  0.562830  1.0  0.647
  C  C159  1  0.712630  0.030270  0.913670  1.0  -0.131
  C  C160  1  0.797530  0.101970  0.907870  1.0  0.1728
  C  C161  1  0.712630  0.107470  0.952970  1.0  -0.1163
  C  C162  1  0.799930  0.179970  0.946970  1.0  0.1544
  C  C163  1  0.669430  0.032570  0.936670  1.0  -0.0674
  C  C164  1  0.663630  0.111870  0.976770  1.0  0.6747
  C  C165  1  0.666230  0.946870  0.896170  1.0  0.647
  C  C166  1  0.636400  0.015700  0.247000  1.0  -0.1357
  C  C167  1  0.564700  0.028900  0.241200  1.0  0.173
  C  C168  1  0.559200  0.938500  0.286300  1.0  -0.1167
  C  C169  1  0.486700  0.953300  0.280300  1.0  0.1552
  C  C170  1  0.634100  0.970200  0.270000  1.0  -0.0645
  C  C171  1  0.554800  0.885100  0.310100  1.0  0.6743
  C  C172  1  0.719800  0.052700  0.229500  1.0  0.6455
  C  C173  1  0.303070  0.349030  0.580330  1.0  -0.1357
  C  C174  1  0.231370  0.362230  0.574530  1.0  0.173
  C  C175  1  0.225870  0.271830  0.619630  1.0  -0.1167
  C  C176  1  0.153370  0.286630  0.613630  1.0  0.1552
  C  C177  1  0.300770  0.303530  0.603330  1.0  -0.0646
  C  C178  1  0.221470  0.218430  0.643430  1.0  0.6743
  C  C179  1  0.386470  0.386030  0.562830  1.0  0.6455
  C  C180  1  0.969730  0.682370  0.913670  1.0  -0.1359
  C  C181  1  0.898030  0.695570  0.907870  1.0  0.173
  C  C182  1  0.892530  0.605170  0.952970  1.0  -0.1167
  C  C183  1  0.820030  0.619970  0.946970  1.0  0.1552
  C  C184  1  0.967430  0.636870  0.936670  1.0  -0.0646
  C  C185  1  0.888130  0.551770  0.976770  1.0  0.6743
  C  C186  1  0.053130  0.719370  0.896170  1.0  0.6455
  C  C187  1  0.984300  0.620700  0.247000  1.0  -0.1351
  C  C188  1  0.971100  0.535800  0.241200  1.0  0.1713
  C  C189  1  0.061500  0.620700  0.286300  1.0  -0.1189
  C  C190  1  0.046700  0.533400  0.280300  1.0  0.1539
  C  C191  1  0.029800  0.663900  0.270000  1.0  -0.0693
  C  C192  1  0.114900  0.669700  0.310100  1.0  0.6758
  C  C193  1  0.947300  0.667100  0.229500  1.0  0.648
  C  C194  1  0.650970  0.954030  0.580330  1.0  -0.1351
  C  C195  1  0.637770  0.869130  0.574530  1.0  0.1713
  C  C196  1  0.728170  0.954030  0.619630  1.0  -0.1189
  C  C197  1  0.713370  0.866730  0.613630  1.0  0.1539
  C  C198  1  0.696470  0.997230  0.603330  1.0  -0.0694
  C  C199  1  0.781570  0.003030  0.643430  1.0  0.6758
  C  C200  1  0.613970  0.000430  0.562830  1.0  0.648
  C  C201  1  0.317630  0.287370  0.913670  1.0  -0.1351
  C  C202  1  0.304430  0.202470  0.907870  1.0  0.1713
  C  C203  1  0.394830  0.287370  0.952970  1.0  -0.1189
  C  C204  1  0.380030  0.200070  0.946970  1.0  0.1539
  C  C205  1  0.363130  0.330570  0.936670  1.0  -0.0693
  C  C206  1  0.448230  0.336370  0.976770  1.0  0.6758
  C  C207  1  0.280630  0.333770  0.896170  1.0  0.648
  C  C208  1  0.636400  0.620700  0.747000  1.0  -0.136
  C  C209  1  0.564700  0.535800  0.741200  1.0  0.1701
  C  C210  1  0.559200  0.620700  0.786300  1.0  -0.1169
  C  C211  1  0.486700  0.533400  0.780300  1.0  0.1537
  C  C212  1  0.634100  0.663900  0.770000  1.0  -0.0673
  C  C213  1  0.554800  0.669700  0.810100  1.0  0.6727
  C  C214  1  0.719800  0.667100  0.729500  1.0  0.6441
  C  C215  1  0.303070  0.954030  0.080330  1.0  -0.136
  C  C216  1  0.231370  0.869130  0.074530  1.0  0.1701
  C  C217  1  0.225870  0.954030  0.119630  1.0  -0.1169
  C  C218  1  0.153370  0.866730  0.113630  1.0  0.1537
  C  C219  1  0.300770  0.997230  0.103330  1.0  -0.0674
  C  C220  1  0.221470  0.003030  0.143430  1.0  0.6727
  C  C221  1  0.386470  0.000430  0.062830  1.0  0.6441
  C  C222  1  0.969730  0.287370  0.413670  1.0  -0.1362
  C  C223  1  0.898030  0.202470  0.407870  1.0  0.1701
  C  C224  1  0.892530  0.287370  0.452970  1.0  -0.1169
  C  C225  1  0.820030  0.200070  0.446970  1.0  0.1537
  C  C226  1  0.967430  0.330570  0.436670  1.0  -0.0673
  C  C227  1  0.888130  0.336370  0.476770  1.0  0.6727
  C  C228  1  0.053130  0.333770  0.396170  1.0  0.6441
  C  C229  1  0.984300  0.363600  0.747000  1.0  -0.1308
  C  C230  1  0.971100  0.435300  0.741200  1.0  0.173
  C  C231  1  0.061500  0.440800  0.786300  1.0  -0.1181
  C  C232  1  0.046700  0.513300  0.780300  1.0  0.1538
  C  C233  1  0.029800  0.365900  0.770000  1.0  -0.0669
  C  C234  1  0.114900  0.445200  0.810100  1.0  0.6767
  C  C235  1  0.947300  0.280200  0.729500  1.0  0.6475
  C  C236  1  0.650970  0.696930  0.080330  1.0  -0.1308
  C  C237  1  0.637770  0.768630  0.074530  1.0  0.173
  C  C238  1  0.728170  0.774130  0.119630  1.0  -0.1181
  C  C239  1  0.713370  0.846630  0.113630  1.0  0.1538
  C  C240  1  0.696470  0.699230  0.103330  1.0  -0.067
  C  C241  1  0.781570  0.778530  0.143430  1.0  0.6767
  C  C242  1  0.613970  0.613530  0.062830  1.0  0.6475
  C  C243  1  0.317630  0.030270  0.413670  1.0  -0.131
  C  C244  1  0.304430  0.101970  0.407870  1.0  0.1731
  C  C245  1  0.394830  0.107470  0.452970  1.0  -0.1181
  C  C246  1  0.380030  0.179970  0.446970  1.0  0.1538
  C  C247  1  0.363130  0.032570  0.436670  1.0  -0.0669
  C  C248  1  0.448230  0.111870  0.476770  1.0  0.6767
  C  C249  1  0.280630  0.946870  0.396170  1.0  0.6475
  C  C250  1  0.379300  0.015700  0.747000  1.0  -0.1352
  C  C251  1  0.464200  0.028900  0.741200  1.0  0.1727
  C  C252  1  0.379300  0.938500  0.786300  1.0  -0.1171
  C  C253  1  0.466600  0.953300  0.780300  1.0  0.1545
  C  C254  1  0.336100  0.970200  0.770000  1.0  -0.0677
  C  C255  1  0.330300  0.885100  0.810100  1.0  0.6724
  C  C256  1  0.332900  0.052700  0.729500  1.0  0.6496
  C  C257  1  0.045970  0.349030  0.080330  1.0  -0.1352
  C  C258  1  0.130870  0.362230  0.074530  1.0  0.1727
  C  C259  1  0.045970  0.271830  0.119630  1.0  -0.1171
  C  C260  1  0.133270  0.286630  0.113630  1.0  0.1545
  C  C261  1  0.002770  0.303530  0.103330  1.0  -0.0678
  C  C262  1  0.996970  0.218430  0.143430  1.0  0.6724
  C  C263  1  0.999570  0.386030  0.062830  1.0  0.6496
  C  C264  1  0.712630  0.682370  0.413670  1.0  -0.1352
  C  C265  1  0.797530  0.695570  0.407870  1.0  0.1727
  C  C266  1  0.712630  0.605170  0.452970  1.0  -0.1171
  C  C267  1  0.799930  0.619970  0.446970  1.0  0.1545
  C  C268  1  0.669430  0.636870  0.436670  1.0  -0.0678
  C  C269  1  0.663630  0.551770  0.476770  1.0  0.6724
  C  C270  1  0.666230  0.719370  0.396170  1.0  0.6496
  N  N271  1  0.505000  0.509900  0.257300  1.0  -0.4076
  N  N272  1  0.171670  0.843230  0.590630  1.0  -0.4076
  N  N273  1  0.838330  0.176570  0.923970  1.0  -0.4076
  N  N274  1  0.490100  0.995100  0.257300  1.0  -0.4053
  N  N275  1  0.156770  0.328430  0.590630  1.0  -0.4053
  N  N276  1  0.823430  0.661770  0.923970  1.0  -0.4053
  N  N277  1  0.004900  0.495000  0.257300  1.0  -0.403
  N  N278  1  0.671570  0.828330  0.590630  1.0  -0.403
  N  N279  1  0.338230  0.161670  0.923970  1.0  -0.403
  N  N280  1  0.490100  0.495000  0.757300  1.0  -0.4042
  N  N281  1  0.156770  0.828330  0.090630  1.0  -0.4042
  N  N282  1  0.823430  0.161670  0.423970  1.0  -0.4042
  N  N283  1  0.004900  0.509900  0.757300  1.0  -0.4069
  N  N284  1  0.671570  0.843230  0.090630  1.0  -0.4069
  N  N285  1  0.338230  0.176570  0.423970  1.0  -0.4069
  N  N286  1  0.505000  0.995100  0.757300  1.0  -0.4088
  N  N287  1  0.171670  0.328430  0.090630  1.0  -0.4088
  N  N288  1  0.838330  0.661770  0.423970  1.0  -0.4088
  O  O289  1  0.439900  0.494900  0.178400  1.0  -0.7031
  O  O290  1  0.277800  0.332200  0.171800  1.0  -0.752
  O  O291  1  0.377800  0.594100  0.161500  1.0  -0.8517
  O  O292  1  0.508000  0.606200  0.135400  1.0  -0.6898
  O  O293  1  0.298500  0.479500  0.205700  1.0  -0.7533
  O  O294  1  0.245400  0.385000  0.311900  1.0  -0.6484
  O  O295  1  0.496500  0.654300  0.207400  1.0  -0.7018
  O  O296  1  0.374600  0.287500  0.207900  1.0  -0.7035
  O  O297  1  0.334400  0.455600  0.133400  1.0  -0.727
  O  O298  1  0.193100  0.439700  0.165100  1.0  -0.741
  O  O299  1  0.226000  0.622000  0.245200  1.0  -0.6423
  O  O300  1  0.436700  0.710000  0.115800  1.0  -0.6975
  O  O301  1  0.371600  0.501800  0.327200  1.0  -0.4233
  O  O302  1  0.264600  0.213300  0.237200  1.0  -0.4285
  O  O303  1  0.106570  0.828230  0.511730  1.0  -0.7031
  O  O304  1  0.944470  0.665530  0.505130  1.0  -0.752
  O  O305  1  0.044470  0.927430  0.494830  1.0  -0.8517
  O  O306  1  0.174670  0.939530  0.468730  1.0  -0.6898
  O  O307  1  0.965170  0.812830  0.539030  1.0  -0.7533
  O  O308  1  0.912070  0.718330  0.645230  1.0  -0.6484
  O  O309  1  0.163170  0.987630  0.540730  1.0  -0.7022
  O  O310  1  0.041270  0.620830  0.541230  1.0  -0.7035
  O  O311  1  0.001070  0.788930  0.466730  1.0  -0.727
  O  O312  1  0.859770  0.773030  0.498430  1.0  -0.741
  O  O313  1  0.892670  0.955330  0.578530  1.0  -0.6424
  O  O314  1  0.103370  0.043330  0.449130  1.0  -0.6916
  O  O315  1  0.038270  0.835130  0.660530  1.0  -0.4232
  O  O316  1  0.931270  0.546630  0.570530  1.0  -0.4273
  O  O317  1  0.773230  0.161570  0.845070  1.0  -0.7031
  O  O318  1  0.611130  0.998870  0.838470  1.0  -0.752
  O  O319  1  0.711130  0.260770  0.828170  1.0  -0.8517
  O  O320  1  0.841330  0.272870  0.802070  1.0  -0.6898
  O  O321  1  0.631830  0.146170  0.872370  1.0  -0.7533
  O  O322  1  0.578730  0.051670  0.978570  1.0  -0.6484
  O  O323  1  0.829830  0.320970  0.874070  1.0  -0.7019
  O  O324  1  0.707930  0.954170  0.874570  1.0  -0.7034
  O  O325  1  0.667730  0.122270  0.800070  1.0  -0.7271
  O  O326  1  0.526430  0.106370  0.831770  1.0  -0.741
  O  O327  1  0.559330  0.288670  0.911870  1.0  -0.6423
  O  O328  1  0.770030  0.376670  0.782470  1.0  -0.6975
  O  O329  1  0.704930  0.168470  0.993870  1.0  -0.4084
  O  O330  1  0.597930  0.879970  0.903870  1.0  -0.4285
  O  O331  1  0.505100  0.945000  0.178400  1.0  -0.7043
  O  O332  1  0.667800  0.945600  0.171800  1.0  -0.7516
  O  O333  1  0.405900  0.783700  0.161500  1.0  -0.8537
  O  O334  1  0.393800  0.901800  0.135400  1.0  -0.6878
  O  O335  1  0.520500  0.819000  0.205700  1.0  -0.7518
  O  O336  1  0.615000  0.860400  0.311900  1.0  -0.6489
  O  O337  1  0.345700  0.842200  0.207400  1.0  -0.7051
  O  O338  1  0.712500  0.087100  0.207900  1.0  -0.7038
  O  O339  1  0.544400  0.878800  0.133400  1.0  -0.7273
  O  O340  1  0.560300  0.753400  0.165100  1.0  -0.7369
  O  O341  1  0.378000  0.604000  0.245200  1.0  -0.6419
  O  O342  1  0.290000  0.726700  0.115800  1.0  -0.6922
  O  O343  1  0.498200  0.869800  0.327200  1.0  -0.4241
  O  O344  1  0.786700  0.051300  0.237200  1.0  -0.4257
  O  O345  1  0.171770  0.278330  0.511730  1.0  -0.7043
  O  O346  1  0.334470  0.278930  0.505130  1.0  -0.7516
  O  O347  1  0.072570  0.117030  0.494830  1.0  -0.8537
  O  O348  1  0.060470  0.235130  0.468730  1.0  -0.6878
  O  O349  1  0.187170  0.152330  0.539030  1.0  -0.7519
  O  O350  1  0.281670  0.193730  0.645230  1.0  -0.6489
  O  O351  1  0.012370  0.175530  0.540730  1.0  -0.705
  O  O352  1  0.379170  0.420430  0.541230  1.0  -0.7038
  O  O353  1  0.211070  0.212130  0.466730  1.0  -0.7274
  O  O354  1  0.226970  0.086730  0.498430  1.0  -0.7368
  O  O355  1  0.044670  0.937330  0.578530  1.0  -0.642
  O  O356  1  0.956670  0.060030  0.449130  1.0  -0.6955
  O  O357  1  0.164870  0.203130  0.660530  1.0  -0.424
  O  O358  1  0.453370  0.384630  0.570530  1.0  -0.4113
  O  O359  1  0.838430  0.611670  0.845070  1.0  -0.7042
  O  O360  1  0.001130  0.612270  0.838470  1.0  -0.7516
  O  O361  1  0.739230  0.450370  0.828170  1.0  -0.8537
  O  O362  1  0.727130  0.568470  0.802070  1.0  -0.6877
  O  O363  1  0.853830  0.485670  0.872370  1.0  -0.7518
  O  O364  1  0.948330  0.527070  0.978570  1.0  -0.6489
  O  O365  1  0.679030  0.508870  0.874070  1.0  -0.7051
  O  O366  1  0.045830  0.753770  0.874570  1.0  -0.7038
  O  O367  1  0.877730  0.545470  0.800070  1.0  -0.7273
  O  O368  1  0.893630  0.420070  0.831770  1.0  -0.7369
  O  O369  1  0.711330  0.270670  0.911870  1.0  -0.6419
  O  O370  1  0.623330  0.393370  0.782470  1.0  -0.6922
  O  O371  1  0.831530  0.536470  0.993870  1.0  -0.4204
  O  O372  1  0.120030  0.717970  0.903870  1.0  -0.4257
  O  O373  1  0.055000  0.560100  0.178400  1.0  -0.706
  O  O374  1  0.054400  0.722200  0.171800  1.0  -0.7507
  O  O375  1  0.216300  0.622200  0.161500  1.0  -0.8535
  O  O376  1  0.098200  0.492000  0.135400  1.0  -0.6888
  O  O377  1  0.181000  0.701500  0.205700  1.0  -0.7529
  O  O378  1  0.139600  0.754600  0.311900  1.0  -0.6416
  O  O379  1  0.157800  0.503500  0.207400  1.0  -0.7048
  O  O380  1  0.912900  0.625400  0.207900  1.0  -0.7035
  O  O381  1  0.121200  0.665600  0.133400  1.0  -0.7264
  O  O382  1  0.246600  0.806900  0.165100  1.0  -0.7415
  O  O383  1  0.396000  0.774000  0.245200  1.0  -0.6417
  O  O384  1  0.273300  0.563300  0.115800  1.0  -0.706
  O  O385  1  0.130200  0.628400  0.327200  1.0  -0.4018
  O  O386  1  0.948700  0.735400  0.237200  1.0  -0.4054
  O  O387  1  0.721670  0.893430  0.511730  1.0  -0.706
  O  O388  1  0.721070  0.055530  0.505130  1.0  -0.7506
  O  O389  1  0.882970  0.955530  0.494830  1.0  -0.8535
  O  O390  1  0.764870  0.825330  0.468730  1.0  -0.6889
  O  O391  1  0.847670  0.034830  0.539030  1.0  -0.7529
  O  O392  1  0.806270  0.087930  0.645230  1.0  -0.6416
  O  O393  1  0.824470  0.836830  0.540730  1.0  -0.7048
  O  O394  1  0.579570  0.958730  0.541230  1.0  -0.7036
  O  O395  1  0.787870  0.998930  0.466730  1.0  -0.7264
  O  O396  1  0.913270  0.140230  0.498430  1.0  -0.7415
  O  O397  1  0.062670  0.107330  0.578530  1.0  -0.6418
  O  O398  1  0.939970  0.896630  0.449130  1.0  -0.6944
  O  O399  1  0.796870  0.961730  0.660530  1.0  -0.4018
  O  O400  1  0.615370  0.068730  0.570530  1.0  -0.4268
  O  O401  1  0.388330  0.226770  0.845070  1.0  -0.706
  O  O402  1  0.387730  0.388870  0.838470  1.0  -0.7507
  O  O403  1  0.549630  0.288870  0.828170  1.0  -0.8535
  O  O404  1  0.431530  0.158670  0.802070  1.0  -0.689
  O  O405  1  0.514330  0.368170  0.872370  1.0  -0.7529
  O  O406  1  0.472930  0.421270  0.978570  1.0  -0.6416
  O  O407  1  0.491130  0.170170  0.874070  1.0  -0.7049
  O  O408  1  0.246230  0.292070  0.874570  1.0  -0.7035
  O  O409  1  0.454530  0.332270  0.800070  1.0  -0.7265
  O  O410  1  0.579930  0.473570  0.831770  1.0  -0.7418
  O  O411  1  0.729330  0.440670  0.911870  1.0  -0.6417
  O  O412  1  0.606630  0.229970  0.782470  1.0  -0.706
  O  O413  1  0.463530  0.295070  0.993870  1.0  -0.4268
  O  O414  1  0.282030  0.402070  0.903870  1.0  -0.4054
  O  O415  1  0.505100  0.560100  0.678400  1.0  -0.705
  O  O416  1  0.667800  0.722200  0.671800  1.0  -0.7497
  O  O417  1  0.405900  0.622200  0.661500  1.0  -0.8517
  O  O418  1  0.393800  0.492000  0.635400  1.0  -0.6889
  O  O419  1  0.520500  0.701500  0.705700  1.0  -0.7519
  O  O420  1  0.615000  0.754600  0.811900  1.0  -0.6413
  O  O421  1  0.345700  0.503500  0.707400  1.0  -0.7061
  O  O422  1  0.712500  0.625400  0.707900  1.0  -0.7027
  O  O423  1  0.544400  0.665600  0.633400  1.0  -0.7273
  O  O424  1  0.560300  0.806900  0.665100  1.0  -0.7406
  O  O425  1  0.378000  0.774000  0.745200  1.0  -0.6421
  O  O426  1  0.290000  0.563300  0.615800  1.0  -0.6972
  O  O427  1  0.498200  0.628400  0.827200  1.0  -0.4215
  O  O428  1  0.786700  0.735400  0.737200  1.0  -0.4265
  O  O429  1  0.171770  0.893430  0.011730  1.0  -0.705
  O  O430  1  0.334470  0.055530  0.005130  1.0  -0.7498
  O  O431  1  0.072570  0.955530  0.994830  1.0  -0.8517
  O  O432  1  0.060470  0.825330  0.968730  1.0  -0.6889
  O  O433  1  0.187170  0.034830  0.039030  1.0  -0.7519
  O  O434  1  0.281670  0.087930  0.145230  1.0  -0.6413
  O  O435  1  0.012370  0.836830  0.040730  1.0  -0.7063
  O  O436  1  0.379170  0.958730  0.041230  1.0  -0.7027
  O  O437  1  0.211070  0.998930  0.966730  1.0  -0.7273
  O  O438  1  0.226970  0.140230  0.998430  1.0  -0.7406
  O  O439  1  0.044670  0.107330  0.078530  1.0  -0.6422
  O  O440  1  0.956670  0.896630  0.949130  1.0  -0.6918
  O  O441  1  0.164870  0.961730  0.160530  1.0  -0.4214
  O  O442  1  0.453370  0.068730  0.070530  1.0  -0.4259
  O  O443  1  0.838430  0.226770  0.345070  1.0  -0.705
  O  O444  1  0.001130  0.388870  0.338470  1.0  -0.7497
  O  O445  1  0.739230  0.288870  0.328170  1.0  -0.8517
  O  O446  1  0.727130  0.158670  0.302070  1.0  -0.6889
  O  O447  1  0.853830  0.368170  0.372370  1.0  -0.7519
  O  O448  1  0.948330  0.421270  0.478570  1.0  -0.6413
  O  O449  1  0.679030  0.170170  0.374070  1.0  -0.7061
  O  O450  1  0.045830  0.292070  0.374570  1.0  -0.7027
  O  O451  1  0.877730  0.332270  0.300070  1.0  -0.7273
  O  O452  1  0.893630  0.473570  0.331770  1.0  -0.7406
  O  O453  1  0.711330  0.440670  0.411870  1.0  -0.6421
  O  O454  1  0.623330  0.229970  0.282470  1.0  -0.6972
  O  O455  1  0.831530  0.295070  0.493870  1.0  -0.406
  O  O456  1  0.120030  0.402070  0.403870  1.0  -0.4265
  O  O457  1  0.055000  0.494900  0.678400  1.0  -0.704
  O  O458  1  0.054400  0.332200  0.671800  1.0  -0.7528
  O  O459  1  0.216300  0.594100  0.661500  1.0  -0.8532
  O  O460  1  0.098200  0.606200  0.635400  1.0  -0.6892
  O  O461  1  0.181000  0.479500  0.705700  1.0  -0.754
  O  O462  1  0.139600  0.385000  0.811900  1.0  -0.65
  O  O463  1  0.157800  0.654300  0.707400  1.0  -0.7022
  O  O464  1  0.912900  0.287500  0.707900  1.0  -0.7022
  O  O465  1  0.121200  0.455600  0.633400  1.0  -0.7272
  O  O466  1  0.246600  0.439700  0.665100  1.0  -0.7413
  O  O467  1  0.396000  0.622000  0.745200  1.0  -0.641
  O  O468  1  0.273300  0.710000  0.615800  1.0  -0.6932
  O  O469  1  0.130200  0.501800  0.827200  1.0  -0.4245
  O  O470  1  0.948700  0.213300  0.737200  1.0  -0.4269
  O  O471  1  0.721670  0.828230  0.011730  1.0  -0.7041
  O  O472  1  0.721070  0.665530  0.005130  1.0  -0.7528
  O  O473  1  0.882970  0.927430  0.994830  1.0  -0.8532
  O  O474  1  0.764870  0.939530  0.968730  1.0  -0.6893
  O  O475  1  0.847670  0.812830  0.039030  1.0  -0.754
  O  O476  1  0.806270  0.718330  0.145230  1.0  -0.65
  O  O477  1  0.824470  0.987630  0.040730  1.0  -0.7022
  O  O478  1  0.579570  0.620830  0.041230  1.0  -0.7022
  O  O479  1  0.787870  0.788930  0.966730  1.0  -0.7274
  O  O480  1  0.913270  0.773030  0.998430  1.0  -0.7412
  O  O481  1  0.062670  0.955330  0.078530  1.0  -0.6411
  O  O482  1  0.939970  0.043330  0.949130  1.0  -0.6965
  O  O483  1  0.796870  0.835130  0.160530  1.0  -0.4246
  O  O484  1  0.615370  0.546630  0.070530  1.0  -0.4124
  O  O485  1  0.388330  0.161570  0.345070  1.0  -0.704
  O  O486  1  0.387730  0.998870  0.338470  1.0  -0.7528
  O  O487  1  0.549630  0.260770  0.328170  1.0  -0.8532
  O  O488  1  0.431530  0.272870  0.302070  1.0  -0.6892
  O  O489  1  0.514330  0.146170  0.372370  1.0  -0.754
  O  O490  1  0.472930  0.051670  0.478570  1.0  -0.65
  O  O491  1  0.491130  0.320970  0.374070  1.0  -0.7023
  O  O492  1  0.246230  0.954170  0.374570  1.0  -0.7021
  O  O493  1  0.454530  0.122270  0.300070  1.0  -0.7272
  O  O494  1  0.579930  0.106370  0.331770  1.0  -0.7413
  O  O495  1  0.729330  0.288670  0.411870  1.0  -0.641
  O  O496  1  0.606630  0.376670  0.282470  1.0  -0.6932
  O  O497  1  0.463530  0.168470  0.493870  1.0  -0.4206
  O  O498  1  0.282030  0.879970  0.403870  1.0  -0.4269
  O  O499  1  0.439900  0.945000  0.678400  1.0  -0.7031
  O  O500  1  0.277800  0.945600  0.671800  1.0  -0.7539
  O  O501  1  0.377800  0.783700  0.661500  1.0  -0.8541
  O  O502  1  0.508000  0.901800  0.635400  1.0  -0.6884
  O  O503  1  0.298500  0.819000  0.705700  1.0  -0.7526
  O  O504  1  0.245400  0.860400  0.811900  1.0  -0.6486
  O  O505  1  0.496500  0.842200  0.707400  1.0  -0.7037
  O  O506  1  0.374600  0.087100  0.707900  1.0  -0.7049
  O  O507  1  0.334400  0.878800  0.633400  1.0  -0.7273
  O  O508  1  0.193100  0.753400  0.665100  1.0  -0.7386
  O  O509  1  0.226000  0.604000  0.745200  1.0  -0.6425
  O  O510  1  0.436700  0.726700  0.615800  1.0  -0.7057
  O  O511  1  0.371600  0.869800  0.827200  1.0  -0.3999
  O  O512  1  0.264600  0.051300  0.737200  1.0  -0.4072
  O  O513  1  0.106570  0.278330  0.011730  1.0  -0.7031
  O  O514  1  0.944470  0.278930  0.005130  1.0  -0.7539
  O  O515  1  0.044470  0.117030  0.994830  1.0  -0.8541
  O  O516  1  0.174670  0.235130  0.968730  1.0  -0.6885
  O  O517  1  0.965170  0.152330  0.039030  1.0  -0.7527
  O  O518  1  0.912070  0.193730  0.145230  1.0  -0.6486
  O  O519  1  0.163170  0.175530  0.040730  1.0  -0.7037
  O  O520  1  0.041270  0.420430  0.041230  1.0  -0.7049
  O  O521  1  0.001070  0.212130  0.966730  1.0  -0.7273
  O  O522  1  0.859770  0.086730  0.998430  1.0  -0.7386
  O  O523  1  0.892670  0.937330  0.078530  1.0  -0.6426
  O  O524  1  0.103370  0.060030  0.949130  1.0  -0.6939
  O  O525  1  0.038270  0.203130  0.160530  1.0  -0.3999
  O  O526  1  0.931270  0.384630  0.070530  1.0  -0.4298
  O  O527  1  0.773230  0.611670  0.345070  1.0  -0.7031
  O  O528  1  0.611130  0.612270  0.338470  1.0  -0.7539
  O  O529  1  0.711130  0.450370  0.328170  1.0  -0.8541
  O  O530  1  0.841330  0.568470  0.302070  1.0  -0.6887
  O  O531  1  0.631830  0.485670  0.372370  1.0  -0.7526
  O  O532  1  0.578730  0.527070  0.478570  1.0  -0.6486
  O  O533  1  0.829830  0.508870  0.374070  1.0  -0.7038
  O  O534  1  0.707930  0.753770  0.374570  1.0  -0.7048
  O  O535  1  0.667730  0.545470  0.300070  1.0  -0.7273
  O  O536  1  0.526430  0.420070  0.331770  1.0  -0.7388
  O  O537  1  0.559330  0.270670  0.411870  1.0  -0.6425
  O  O538  1  0.770030  0.393370  0.282470  1.0  -0.7057
  O  O539  1  0.704930  0.536470  0.493870  1.0  -0.4246
  O  O540  1  0.597930  0.717970  0.403870  1.0  -0.4072
  O  O541  1  0.333333  0.666667  0.206800  1.0  -1.0234
  O  O542  1  0.000000  0.000000  0.540130  1.0  -1.0231
  O  O543  1  0.666667  0.333333  0.873470  1.0  -1.0234
  O  O544  1  0.333333  0.666667  0.706800  1.0  -1.0234
  O  O545  1  0.000000  0.000000  0.040130  1.0  -1.0231
  O  O546  1  0.666667  0.333333  0.373470  1.0  -1.0234
