# generated using pymatgen
data_CuAgH20C10S2(NO2)2
_symmetry_space_group_name_H-M   'P 1'
_cell_length_a   15.87300000
_cell_length_b   16.90610000
_cell_length_c   22.82970000
_cell_angle_alpha   90.00000000
_cell_angle_beta   90.00000000
_cell_angle_gamma   90.00000000
_symmetry_Int_Tables_number   1
_chemical_formula_structural   CuAgH20C10S2(NO2)2
_chemical_formula_sum   'Cu12 Ag12 H240 C120 S24 N24 O48'
_cell_volume   6126.36198744
_cell_formula_units_Z   12
loop_
 _symmetry_equiv_pos_site_id
 _symmetry_equiv_pos_as_xyz
  1  'x, y, z'
loop_
 _atom_site_type_symbol
 _atom_site_label
 _atom_site_symmetry_multiplicity
 _atom_site_fract_x
 _atom_site_fract_y
 _atom_site_fract_z
 _atom_site_occupancy
 _atom_site_charge
  Cu  Cu1  1  0.042810  0.881700  0.499960  1.0  0.8696
  Cu  Cu2  1  0.375740  0.878440  0.488750  1.0  0.8821
  Cu  Cu3  1  0.457190  0.118300  0.999960  1.0  0.8705
  Cu  Cu4  1  0.124260  0.121560  0.988750  1.0  0.8831
  Cu  Cu5  1  0.786980  0.121330  0.997920  1.0  0.8674
  Cu  Cu6  1  0.713020  0.878670  0.497920  1.0  0.8665
  Cu  Cu7  1  0.213020  0.621330  0.502080  1.0  0.8668
  Cu  Cu8  1  0.286980  0.378670  0.002080  1.0  0.8669
  Cu  Cu9  1  0.957190  0.381700  0.000040  1.0  0.8698
  Cu  Cu10  1  0.624260  0.378440  0.011250  1.0  0.8824
  Cu  Cu11  1  0.542810  0.618300  0.500040  1.0  0.87
  Cu  Cu12  1  0.875740  0.621560  0.511250  1.0  0.8827
  Ag  Ag13  1  0.312110  0.793030  0.801750  1.0  -0.0309
  Ag  Ag14  1  0.600410  0.803810  0.811860  1.0  0.0357
  Ag  Ag15  1  0.887220  0.848020  0.822440  1.0  0.0613
  Ag  Ag16  1  0.187890  0.206970  0.301750  1.0  -0.0309
  Ag  Ag17  1  0.899590  0.196190  0.311860  1.0  0.0369
  Ag  Ag18  1  0.612780  0.151980  0.322440  1.0  0.0638
  Ag  Ag19  1  0.687890  0.293030  0.698250  1.0  -0.0316
  Ag  Ag20  1  0.399590  0.303810  0.688140  1.0  0.0358
  Ag  Ag21  1  0.112780  0.348020  0.677560  1.0  0.0683
  Ag  Ag22  1  0.812110  0.706970  0.198250  1.0  -0.0321
  Ag  Ag23  1  0.100410  0.696190  0.188140  1.0  0.0362
  Ag  Ag24  1  0.387220  0.651980  0.177560  1.0  0.0695
  H  H25  1  0.106000  0.726600  0.589200  1.0  0.0943
  H  H26  1  0.037200  0.753000  0.681000  1.0  0.1002
  H  H27  1  0.051500  0.843500  0.669200  1.0  0.0928
  H  H28  1  0.201800  0.810500  0.660900  1.0  0.1009
  H  H29  1  0.178200  0.729300  0.689800  1.0  0.1878
  H  H30  1  0.179500  0.963300  0.775500  1.0  0.1693
  H  H31  1  0.123800  0.946500  0.720100  1.0  0.1339
  H  H32  1  0.222200  0.942200  0.715600  1.0  0.1612
  H  H33  1  0.443400  0.731000  0.588500  1.0  0.0833
  H  H34  1  0.368800  0.855300  0.653500  1.0  0.0902
  H  H35  1  0.348800  0.767000  0.669300  1.0  0.0896
  H  H36  1  0.514700  0.827500  0.668600  1.0  0.1249
  H  H37  1  0.489300  0.743000  0.690500  1.0  0.1386
  H  H38  1  0.450100  0.967600  0.787500  1.0  0.1601
  H  H39  1  0.408700  0.953300  0.726100  1.0  0.1453
  H  H40  1  0.507000  0.957900  0.731800  1.0  0.1795
  H  H41  1  0.763700  0.726000  0.599700  1.0  0.0936
  H  H42  1  0.675600  0.851600  0.655600  1.0  0.0808
  H  H43  1  0.659300  0.763000  0.672600  1.0  0.0855
  H  H44  1  0.819800  0.832500  0.682900  1.0  0.1408
  H  H45  1  0.794100  0.749300  0.707500  1.0  0.1439
  H  H46  1  0.716700  0.980100  0.781400  1.0  0.1682
  H  H47  1  0.688600  0.952000  0.718900  1.0  0.1432
  H  H48  1  0.784000  0.968900  0.731800  1.0  0.1648
  H  H49  1  0.443200  0.864200  0.903400  1.0  0.1006
  H  H50  1  0.374700  0.925300  0.883300  1.0  0.0933
  H  H51  1  0.290700  0.893200  0.964000  1.0  0.1288
  H  H52  1  0.360300  0.835900  0.987700  1.0  0.1355
  H  H53  1  0.340400  0.648600  0.911900  1.0  0.1742
  H  H54  1  0.360300  0.689300  0.972100  1.0  0.1507
  H  H55  1  0.414000  0.710200  0.916600  1.0  0.15
  H  H56  1  0.801100  0.941800  0.986500  1.0  0.0902
  H  H57  1  0.695400  0.924700  0.888200  1.0  0.0968
  H  H58  1  0.766300  0.864800  0.906000  1.0  0.0987
  H  H59  1  0.619800  0.893200  0.973100  1.0  0.1327
  H  H60  1  0.691400  0.835200  0.992700  1.0  0.1487
  H  H61  1  0.670700  0.654600  0.905300  1.0  0.1839
  H  H62  1  0.704200  0.690600  0.964100  1.0  0.1551
  H  H63  1  0.739700  0.721000  0.904100  1.0  0.1529
  H  H64  1  0.389500  0.124800  0.384100  1.0  0.0874
  H  H65  1  0.466600  0.068500  0.373200  1.0  0.0929
  H  H66  1  0.526000  0.112100  0.462800  1.0  0.1403
  H  H67  1  0.450900  0.171000  0.470300  1.0  0.1544
  H  H68  1  0.491900  0.330300  0.356000  1.0  0.1888
  H  H69  1  0.433900  0.307600  0.409000  1.0  0.1634
  H  H70  1  0.429800  0.258500  0.350800  1.0  0.1475
  H  H71  1  0.164600  0.821700  0.548100  1.0  0.2477
  H  H72  1  0.129000  0.879300  0.588600  1.0  0.2753
  H  H73  1  0.498000  0.822700  0.540200  1.0  0.2727
  H  H74  1  0.460800  0.882000  0.578600  1.0  0.275
  H  H75  1  0.826900  0.816700  0.554400  1.0  0.2781
  H  H76  1  0.787900  0.875900  0.592000  1.0  0.28
  H  H77  1  0.692400  0.008500  0.014300  1.0  0.305
  H  H78  1  0.673500  0.040200  0.956200  1.0  0.2848
  H  H79  1  0.346000  0.041000  0.947800  1.0  0.151
  H  H80  1  0.364000  0.007000  0.008000  1.0  0.2275
  H  H81  1  0.476000  0.982000  0.486000  1.0  0.2515
  H  H82  1  0.480000  0.946000  0.428000  1.0  0.1242
  H  H83  1  0.474000  0.943000  0.988000  1.0  0.0907
  H  H84  1  0.367000  0.054000  0.473000  1.0  0.0927
  H  H85  1  0.394000  0.273400  0.089200  1.0  0.0934
  H  H86  1  0.462800  0.247000  0.181000  1.0  0.0988
  H  H87  1  0.448500  0.156500  0.169200  1.0  0.0924
  H  H88  1  0.298200  0.189500  0.160900  1.0  0.1024
  H  H89  1  0.321800  0.270700  0.189800  1.0  0.1886
  H  H90  1  0.320500  0.036700  0.275500  1.0  0.1693
  H  H91  1  0.376200  0.053500  0.220100  1.0  0.1356
  H  H92  1  0.277800  0.057800  0.215600  1.0  0.1611
  H  H93  1  0.056600  0.269000  0.088500  1.0  0.0827
  H  H94  1  0.131200  0.144700  0.153500  1.0  0.0907
  H  H95  1  0.151200  0.233000  0.169300  1.0  0.0878
  H  H96  1  0.985300  0.172500  0.168600  1.0  0.1258
  H  H97  1  0.010700  0.257000  0.190500  1.0  0.14
  H  H98  1  0.049900  0.032400  0.287500  1.0  0.1596
  H  H99  1  0.091300  0.046700  0.226100  1.0  0.1461
  H  H100  1  0.993000  0.042100  0.231800  1.0  0.1779
  H  H101  1  0.736300  0.274000  0.099700  1.0  0.0937
  H  H102  1  0.824400  0.148400  0.155600  1.0  0.0804
  H  H103  1  0.840700  0.237000  0.172600  1.0  0.0836
  H  H104  1  0.680200  0.167500  0.182900  1.0  0.141
  H  H105  1  0.705900  0.250700  0.207500  1.0  0.1423
  H  H106  1  0.783300  0.019900  0.281400  1.0  0.1679
  H  H107  1  0.811400  0.048000  0.218900  1.0  0.1412
  H  H108  1  0.716000  0.031100  0.231800  1.0  0.1644
  H  H109  1  0.056800  0.135800  0.403400  1.0  0.1016
  H  H110  1  0.125300  0.074700  0.383300  1.0  0.0924
  H  H111  1  0.209300  0.106800  0.464000  1.0  0.1299
  H  H112  1  0.139700  0.164100  0.487700  1.0  0.1344
  H  H113  1  0.159600  0.351400  0.411900  1.0  0.1737
  H  H114  1  0.139700  0.310700  0.472100  1.0  0.1515
  H  H115  1  0.086000  0.289800  0.416600  1.0  0.1501
  H  H116  1  0.698900  0.058200  0.486500  1.0  0.0895
  H  H117  1  0.804600  0.075300  0.388200  1.0  0.0962
  H  H118  1  0.733700  0.135200  0.406000  1.0  0.1001
  H  H119  1  0.880200  0.106800  0.473100  1.0  0.1335
  H  H120  1  0.808600  0.164800  0.492700  1.0  0.1482
  H  H121  1  0.829300  0.345400  0.405300  1.0  0.1848
  H  H122  1  0.795800  0.309400  0.464100  1.0  0.1551
  H  H123  1  0.760300  0.279000  0.404100  1.0  0.1527
  H  H124  1  0.110500  0.875200  0.884100  1.0  0.0856
  H  H125  1  0.033400  0.931500  0.873200  1.0  0.093
  H  H126  1  0.974000  0.887900  0.962800  1.0  0.1413
  H  H127  1  0.049100  0.829000  0.970300  1.0  0.1559
  H  H128  1  0.008100  0.669700  0.856000  1.0  0.1878
  H  H129  1  0.066100  0.692400  0.909000  1.0  0.1636
  H  H130  1  0.070200  0.741500  0.850800  1.0  0.1474
  H  H131  1  0.335400  0.178300  0.048100  1.0  0.25
  H  H132  1  0.371000  0.120700  0.088600  1.0  0.2749
  H  H133  1  0.002000  0.177300  0.040200  1.0  0.2742
  H  H134  1  0.039200  0.118000  0.078600  1.0  0.2753
  H  H135  1  0.673100  0.183300  0.054400  1.0  0.2814
  H  H136  1  0.712100  0.124100  0.092000  1.0  0.2811
  H  H137  1  0.807600  0.991500  0.514300  1.0  0.3042
  H  H138  1  0.826500  0.959800  0.456200  1.0  0.2844
  H  H139  1  0.154000  0.959000  0.447800  1.0  0.1501
  H  H140  1  0.136000  0.993000  0.508000  1.0  0.2258
  H  H141  1  0.024000  0.018000  0.986000  1.0  0.251
  H  H142  1  0.020000  0.054000  0.928000  1.0  0.1248
  H  H143  1  0.026000  0.057000  0.488000  1.0  0.09
  H  H144  1  0.133000  0.946000  0.973000  1.0  0.0932
  H  H145  1  0.894000  0.226600  0.910800  1.0  0.0933
  H  H146  1  0.962800  0.253000  0.819000  1.0  0.1001
  H  H147  1  0.948500  0.343500  0.830800  1.0  0.0926
  H  H148  1  0.798200  0.310500  0.839100  1.0  0.101
  H  H149  1  0.821800  0.229300  0.810200  1.0  0.1893
  H  H150  1  0.820500  0.463300  0.724500  1.0  0.1707
  H  H151  1  0.876200  0.446500  0.779900  1.0  0.1357
  H  H152  1  0.777800  0.442200  0.784400  1.0  0.1616
  H  H153  1  0.556600  0.231000  0.911500  1.0  0.0822
  H  H154  1  0.631200  0.355300  0.846500  1.0  0.0905
  H  H155  1  0.651200  0.267000  0.830700  1.0  0.0879
  H  H156  1  0.485300  0.327500  0.831400  1.0  0.1248
  H  H157  1  0.510700  0.243000  0.809500  1.0  0.1376
  H  H158  1  0.549900  0.467600  0.712500  1.0  0.1596
  H  H159  1  0.591300  0.453300  0.773900  1.0  0.144
  H  H160  1  0.493000  0.457900  0.768200  1.0  0.1787
  H  H161  1  0.236300  0.226000  0.900300  1.0  0.0932
  H  H162  1  0.324400  0.351600  0.844400  1.0  0.0799
  H  H163  1  0.340700  0.263000  0.827400  1.0  0.0835
  H  H164  1  0.180200  0.332500  0.817100  1.0  0.1413
  H  H165  1  0.205900  0.249300  0.792500  1.0  0.1429
  H  H166  1  0.283300  0.480100  0.718600  1.0  0.1672
  H  H167  1  0.311400  0.452000  0.781100  1.0  0.142
  H  H168  1  0.216000  0.468900  0.768200  1.0  0.164
  H  H169  1  0.556800  0.364200  0.596600  1.0  0.1018
  H  H170  1  0.625300  0.425300  0.616700  1.0  0.0938
  H  H171  1  0.709300  0.393200  0.536000  1.0  0.1295
  H  H172  1  0.639700  0.335900  0.512300  1.0  0.1354
  H  H173  1  0.659600  0.148600  0.588100  1.0  0.1757
  H  H174  1  0.639700  0.189300  0.527900  1.0  0.1514
  H  H175  1  0.586000  0.210200  0.583400  1.0  0.1501
  H  H176  1  0.198900  0.441800  0.513500  1.0  0.089
  H  H177  1  0.304600  0.424700  0.611800  1.0  0.097
  H  H178  1  0.233700  0.364800  0.594000  1.0  0.0993
  H  H179  1  0.380200  0.393200  0.526900  1.0  0.1334
  H  H180  1  0.308600  0.335200  0.507300  1.0  0.1475
  H  H181  1  0.329300  0.154600  0.594700  1.0  0.1851
  H  H182  1  0.295800  0.190600  0.535900  1.0  0.1549
  H  H183  1  0.260300  0.221000  0.595900  1.0  0.153
  H  H184  1  0.610500  0.624800  0.115900  1.0  0.0855
  H  H185  1  0.533400  0.568500  0.126800  1.0  0.0934
  H  H186  1  0.474000  0.612100  0.037200  1.0  0.1419
  H  H187  1  0.549100  0.671000  0.029700  1.0  0.1562
  H  H188  1  0.508100  0.830300  0.144000  1.0  0.1903
  H  H189  1  0.566100  0.807600  0.091000  1.0  0.1634
  H  H190  1  0.570200  0.758500  0.149200  1.0  0.1475
  H  H191  1  0.835400  0.321700  0.951900  1.0  0.2506
  H  H192  1  0.871000  0.379300  0.911400  1.0  0.2759
  H  H193  1  0.502000  0.322700  0.959800  1.0  0.2734
  H  H194  1  0.539200  0.382000  0.921400  1.0  0.2748
  H  H195  1  0.173100  0.316700  0.945600  1.0  0.2786
  H  H196  1  0.212100  0.375900  0.908000  1.0  0.2814
  H  H197  1  0.307600  0.508500  0.485700  1.0  0.3044
  H  H198  1  0.326500  0.540200  0.543800  1.0  0.2839
  H  H199  1  0.654000  0.541000  0.552200  1.0  0.1503
  H  H200  1  0.636000  0.507000  0.492000  1.0  0.229
  H  H201  1  0.524000  0.482000  0.014000  1.0  0.2528
  H  H202  1  0.520000  0.446000  0.072000  1.0  0.1253
  H  H203  1  0.526000  0.443000  0.512000  1.0  0.0897
  H  H204  1  0.633000  0.554000  0.027000  1.0  0.0927
  H  H205  1  0.606000  0.773400  0.410800  1.0  0.0939
  H  H206  1  0.537200  0.747000  0.319000  1.0  0.1003
  H  H207  1  0.551500  0.656500  0.330800  1.0  0.0919
  H  H208  1  0.701800  0.689500  0.339100  1.0  0.1002
  H  H209  1  0.678200  0.770700  0.310200  1.0  0.1888
  H  H210  1  0.679500  0.536700  0.224500  1.0  0.1697
  H  H211  1  0.623800  0.553500  0.279900  1.0  0.1355
  H  H212  1  0.722200  0.557800  0.284400  1.0  0.1613
  H  H213  1  0.943400  0.769000  0.411500  1.0  0.0829
  H  H214  1  0.868800  0.644700  0.346500  1.0  0.0901
  H  H215  1  0.848800  0.733000  0.330700  1.0  0.0888
  H  H216  1  0.014700  0.672500  0.331400  1.0  0.1233
  H  H217  1  0.989300  0.757000  0.309500  1.0  0.1399
  H  H218  1  0.950100  0.532400  0.212500  1.0  0.1604
  H  H219  1  0.908700  0.546700  0.273900  1.0  0.1444
  H  H220  1  0.007000  0.542100  0.268200  1.0  0.1796
  H  H221  1  0.263700  0.774000  0.400300  1.0  0.0944
  H  H222  1  0.175600  0.648400  0.344400  1.0  0.081
  H  H223  1  0.159300  0.737000  0.327400  1.0  0.0845
  H  H224  1  0.319800  0.667500  0.317100  1.0  0.142
  H  H225  1  0.294100  0.750700  0.292500  1.0  0.1426
  H  H226  1  0.216700  0.519900  0.218600  1.0  0.168
  H  H227  1  0.188600  0.548000  0.281100  1.0  0.1424
  H  H228  1  0.284000  0.531100  0.268200  1.0  0.1643
  H  H229  1  0.943200  0.635800  0.096600  1.0  0.1005
  H  H230  1  0.874700  0.574700  0.116700  1.0  0.0939
  H  H231  1  0.790700  0.606800  0.036000  1.0  0.1293
  H  H232  1  0.860300  0.664100  0.012300  1.0  0.1355
  H  H233  1  0.840400  0.851400  0.088100  1.0  0.1749
  H  H234  1  0.860300  0.810700  0.027900  1.0  0.1517
  H  H235  1  0.914000  0.789800  0.083400  1.0  0.1501
  H  H236  1  0.301100  0.558200  0.013500  1.0  0.089
  H  H237  1  0.195400  0.575300  0.111800  1.0  0.0973
  H  H238  1  0.266300  0.635200  0.094000  1.0  0.0985
  H  H239  1  0.119800  0.606800  0.026900  1.0  0.1324
  H  H240  1  0.191400  0.664800  0.007300  1.0  0.1473
  H  H241  1  0.170700  0.845400  0.094700  1.0  0.1845
  H  H242  1  0.204200  0.809400  0.035900  1.0  0.1546
  H  H243  1  0.239700  0.779000  0.095900  1.0  0.1531
  H  H244  1  0.889500  0.375200  0.615900  1.0  0.0867
  H  H245  1  0.966600  0.431500  0.626800  1.0  0.0931
  H  H246  1  0.026000  0.387900  0.537200  1.0  0.1398
  H  H247  1  0.950900  0.329000  0.529700  1.0  0.1565
  H  H248  1  0.991900  0.169700  0.644000  1.0  0.1892
  H  H249  1  0.933900  0.192400  0.591000  1.0  0.1646
  H  H250  1  0.929800  0.241500  0.649200  1.0  0.1467
  H  H251  1  0.664600  0.678300  0.451900  1.0  0.248
  H  H252  1  0.629000  0.620700  0.411400  1.0  0.2744
  H  H253  1  0.998000  0.677300  0.459800  1.0  0.273
  H  H254  1  0.960800  0.618000  0.421400  1.0  0.2741
  H  H255  1  0.326900  0.683300  0.445600  1.0  0.2773
  H  H256  1  0.287900  0.624100  0.408000  1.0  0.279
  H  H257  1  0.192400  0.491500  0.985700  1.0  0.3041
  H  H258  1  0.173500  0.459800  0.043800  1.0  0.2838
  H  H259  1  0.846000  0.459000  0.052200  1.0  0.1508
  H  H260  1  0.864000  0.493000  0.992000  1.0  0.2284
  H  H261  1  0.976000  0.518000  0.514000  1.0  0.2538
  H  H262  1  0.980000  0.554000  0.572000  1.0  0.1246
  H  H263  1  0.974000  0.557000  0.012000  1.0  0.0898
  H  H264  1  0.867000  0.446000  0.527000  1.0  0.093
  C  C265  1  0.984700  0.762200  0.571480  1.0  0.6736
  C  C266  1  0.073800  0.775200  0.596040  1.0  0.0028
  C  C267  1  0.073700  0.791000  0.661740  1.0  -0.1362
  C  C268  1  0.162500  0.784700  0.687260  1.0  -0.3202
  C  C269  1  0.174600  0.932300  0.740400  1.0  -0.4443
  C  C270  1  0.323100  0.755600  0.558690  1.0  0.6717
  C  C271  1  0.406900  0.777700  0.588550  1.0  0.0049
  C  C272  1  0.390800  0.801800  0.652410  1.0  -0.1216
  C  C273  1  0.471000  0.797600  0.688500  1.0  -0.3526
  C  C274  1  0.456000  0.940900  0.750600  1.0  -0.4753
  C  C275  1  0.649300  0.754300  0.561520  1.0  0.6695
  C  C276  1  0.728800  0.773600  0.596540  1.0  0.0135
  C  C277  1  0.701400  0.799600  0.658010  1.0  -0.1126
  C  C278  1  0.774100  0.802700  0.700480  1.0  -0.3434
  C  C279  1  0.732300  0.949000  0.747900  1.0  -0.4599
  C  C280  1  0.513300  0.008300  0.920670  1.0  0.6761
  C  C281  1  0.443500  0.965000  0.953640  1.0  0.0231
  C  C282  1  0.401000  0.901200  0.917280  1.0  -0.1226
  C  C283  1  0.334500  0.856400  0.952320  1.0  -0.3695
  C  C284  1  0.358700  0.696700  0.930400  1.0  -0.4385
  C  C285  1  0.836300  0.010700  0.917040  1.0  0.6898
  C  C286  1  0.770500  0.967200  0.954390  1.0  0.0119
  C  C287  1  0.724900  0.901700  0.921250  1.0  -0.1243
  C  C288  1  0.662000  0.856500  0.958890  1.0  -0.3423
  C  C289  1  0.690400  0.701900  0.924000  1.0  -0.4864
  C  C290  1  0.316100  0.986700  0.409600  1.0  0.684
  C  C291  1  0.389900  0.029200  0.439500  1.0  0.0198
  C  C292  1  0.432200  0.092900  0.403300  1.0  -0.1322
  C  C293  1  0.486900  0.145600  0.441600  1.0  -0.3625
  C  C294  1  0.466200  0.287200  0.376800  1.0  -0.4018
  C  C295  1  0.515300  0.237800  0.071480  1.0  0.677
  C  C296  1  0.426200  0.224800  0.096040  1.0  0.0034
  C  C297  1  0.426300  0.209000  0.161740  1.0  -0.1363
  C  C298  1  0.337500  0.215300  0.187260  1.0  -0.3208
  C  C299  1  0.325400  0.067700  0.240400  1.0  -0.4441
  C  C300  1  0.176900  0.244400  0.058690  1.0  0.6727
  C  C301  1  0.093100  0.222300  0.088550  1.0  0.005
  C  C302  1  0.109200  0.198200  0.152410  1.0  -0.1205
  C  C303  1  0.029000  0.202400  0.188500  1.0  -0.3528
  C  C304  1  0.044000  0.059100  0.250600  1.0  -0.4756
  C  C305  1  0.850700  0.245700  0.061520  1.0  0.6701
  C  C306  1  0.771200  0.226400  0.096540  1.0  0.014
  C  C307  1  0.798600  0.200400  0.158010  1.0  -0.1135
  C  C308  1  0.725900  0.197300  0.200480  1.0  -0.3432
  C  C309  1  0.767700  0.051000  0.247900  1.0  -0.4612
  C  C310  1  0.986700  0.991700  0.420670  1.0  0.6763
  C  C311  1  0.056500  0.035000  0.453640  1.0  0.0222
  C  C312  1  0.099000  0.098800  0.417280  1.0  -0.1228
  C  C313  1  0.165500  0.143600  0.452320  1.0  -0.3684
  C  C314  1  0.141300  0.303300  0.430400  1.0  -0.4385
  C  C315  1  0.663700  0.989300  0.417040  1.0  0.689
  C  C316  1  0.729500  0.032800  0.454390  1.0  0.0115
  C  C317  1  0.775100  0.098300  0.421250  1.0  -0.1242
  C  C318  1  0.838000  0.143500  0.458890  1.0  -0.3443
  C  C319  1  0.809600  0.298100  0.424000  1.0  -0.4862
  C  C320  1  0.183900  0.013300  0.909600  1.0  0.6827
  C  C321  1  0.110100  0.970800  0.939500  1.0  0.0201
  C  C322  1  0.067800  0.907100  0.903300  1.0  -0.132
  C  C323  1  0.013100  0.854400  0.941600  1.0  -0.3615
  C  C324  1  0.033800  0.712800  0.876800  1.0  -0.4012
  C  C325  1  0.015300  0.262200  0.928520  1.0  0.678
  C  C326  1  0.926200  0.275200  0.903960  1.0  0.0028
  C  C327  1  0.926300  0.291000  0.838260  1.0  -0.1355
  C  C328  1  0.837500  0.284700  0.812740  1.0  -0.3213
  C  C329  1  0.825400  0.432300  0.759600  1.0  -0.4445
  C  C330  1  0.676900  0.255600  0.941310  1.0  0.6725
  C  C331  1  0.593100  0.277700  0.911450  1.0  0.0048
  C  C332  1  0.609200  0.301800  0.847590  1.0  -0.1205
  C  C333  1  0.529000  0.297600  0.811500  1.0  -0.3499
  C  C334  1  0.544000  0.440900  0.749400  1.0  -0.4752
  C  C335  1  0.350700  0.254300  0.938480  1.0  0.6703
  C  C336  1  0.271200  0.273600  0.903460  1.0  0.0141
  C  C337  1  0.298600  0.299600  0.841990  1.0  -0.1134
  C  C338  1  0.225900  0.302700  0.799520  1.0  -0.3438
  C  C339  1  0.267700  0.449000  0.752100  1.0  -0.4591
  C  C340  1  0.486700  0.508300  0.579330  1.0  0.6748
  C  C341  1  0.556500  0.465000  0.546360  1.0  0.0227
  C  C342  1  0.599000  0.401200  0.582720  1.0  -0.123
  C  C343  1  0.665500  0.356400  0.547680  1.0  -0.3668
  C  C344  1  0.641300  0.196700  0.569600  1.0  -0.4396
  C  C345  1  0.163700  0.510700  0.582960  1.0  0.6883
  C  C346  1  0.229500  0.467200  0.545610  1.0  0.0113
  C  C347  1  0.275100  0.401700  0.578750  1.0  -0.1241
  C  C348  1  0.338000  0.356500  0.541110  1.0  -0.3421
  C  C349  1  0.309600  0.201900  0.576000  1.0  -0.4861
  C  C350  1  0.683900  0.486700  0.090400  1.0  0.6842
  C  C351  1  0.610100  0.529200  0.060500  1.0  0.0206
  C  C352  1  0.567800  0.592900  0.096700  1.0  -0.1324
  C  C353  1  0.513100  0.645600  0.058400  1.0  -0.3603
  C  C354  1  0.533800  0.787200  0.123200  1.0  -0.4031
  C  C355  1  0.484700  0.737800  0.428520  1.0  0.6746
  C  C356  1  0.573800  0.724800  0.403960  1.0  0.0015
  C  C357  1  0.573700  0.709000  0.338260  1.0  -0.1344
  C  C358  1  0.662500  0.715300  0.312740  1.0  -0.3187
  C  C359  1  0.674600  0.567700  0.259600  1.0  -0.4443
  C  C360  1  0.823100  0.744400  0.441310  1.0  0.6727
  C  C361  1  0.906900  0.722300  0.411450  1.0  0.003
  C  C362  1  0.890800  0.698200  0.347590  1.0  -0.1216
  C  C363  1  0.971000  0.702400  0.311500  1.0  -0.3487
  C  C364  1  0.956000  0.559100  0.249400  1.0  -0.4754
  C  C365  1  0.149300  0.745700  0.438480  1.0  0.6694
  C  C366  1  0.228800  0.726400  0.403460  1.0  0.0135
  C  C367  1  0.201400  0.700400  0.341990  1.0  -0.1125
  C  C368  1  0.274100  0.697300  0.299520  1.0  -0.3433
  C  C369  1  0.232300  0.551000  0.252100  1.0  -0.4614
  C  C370  1  0.013300  0.491700  0.079330  1.0  0.678
  C  C371  1  0.943500  0.535000  0.046360  1.0  0.0231
  C  C372  1  0.901000  0.598800  0.082720  1.0  -0.122
  C  C373  1  0.834500  0.643600  0.047680  1.0  -0.3667
  C  C374  1  0.858700  0.803300  0.069600  1.0  -0.4398
  C  C375  1  0.336300  0.489300  0.082960  1.0  0.6921
  C  C376  1  0.270500  0.532800  0.045610  1.0  0.0117
  C  C377  1  0.224900  0.598300  0.078750  1.0  -0.1231
  C  C378  1  0.162000  0.643500  0.041110  1.0  -0.3411
  C  C379  1  0.190400  0.798100  0.076000  1.0  -0.4864
  C  C380  1  0.816100  0.513300  0.590400  1.0  0.6825
  C  C381  1  0.889900  0.470800  0.560500  1.0  0.019
  C  C382  1  0.932200  0.407100  0.596700  1.0  -0.1324
  C  C383  1  0.986900  0.354400  0.558400  1.0  -0.3624
  C  C384  1  0.966200  0.212800  0.623200  1.0  -0.405
  S  S385  1  0.171240  0.829090  0.759140  1.0  0.0042
  S  S386  1  0.460110  0.835520  0.762760  1.0  0.158
  S  S387  1  0.746520  0.847690  0.769850  1.0  0.1809
  S  S388  1  0.286540  0.775140  0.912850  1.0  -0.0093
  S  S389  1  0.609270  0.776190  0.921450  1.0  -0.01
  S  S390  1  0.547160  0.221800  0.404280  1.0  -0.006
  S  S391  1  0.328760  0.170910  0.259140  1.0  0.004
  S  S392  1  0.039890  0.164480  0.262760  1.0  0.1574
  S  S393  1  0.753480  0.152310  0.269850  1.0  0.1816
  S  S394  1  0.213460  0.224860  0.412850  1.0  -0.0094
  S  S395  1  0.890730  0.223810  0.421450  1.0  -0.0101
  S  S396  1  0.952840  0.778200  0.904280  1.0  -0.0057
  S  S397  1  0.828760  0.329090  0.740860  1.0  0.0056
  S  S398  1  0.539890  0.335520  0.737240  1.0  0.1574
  S  S399  1  0.253480  0.347690  0.730150  1.0  0.1827
  S  S400  1  0.713460  0.275140  0.587150  1.0  -0.0097
  S  S401  1  0.390730  0.276190  0.578550  1.0  -0.0087
  S  S402  1  0.452840  0.721800  0.095720  1.0  -0.0057
  S  S403  1  0.671240  0.670910  0.240860  1.0  0.0072
  S  S404  1  0.960110  0.664480  0.237240  1.0  0.1573
  S  S405  1  0.246520  0.652310  0.230150  1.0  0.1841
  S  S406  1  0.786540  0.724860  0.087150  1.0  -0.0097
  S  S407  1  0.109270  0.723810  0.078550  1.0  -0.0111
  S  S408  1  0.047160  0.278200  0.595720  1.0  -0.0085
  N  N409  1  0.116200  0.839900  0.563660  1.0  -0.6196
  N  N410  1  0.449000  0.841100  0.554730  1.0  -0.6285
  N  N411  1  0.777200  0.836400  0.566620  1.0  -0.6118
  N  N412  1  0.386000  0.024900  0.979340  1.0  -0.5989
  N  N413  1  0.715330  0.027200  0.981010  1.0  -0.6521
  N  N414  1  0.448000  0.967300  0.461700  1.0  -0.5694
  N  N415  1  0.383800  0.160100  0.063660  1.0  -0.6181
  N  N416  1  0.051000  0.158900  0.054730  1.0  -0.6288
  N  N417  1  0.722800  0.163600  0.066620  1.0  -0.614
  N  N418  1  0.114000  0.975100  0.479340  1.0  -0.5996
  N  N419  1  0.784670  0.972800  0.481010  1.0  -0.6531
  N  N420  1  0.052000  0.032700  0.961700  1.0  -0.5695
  N  N421  1  0.883800  0.339900  0.936340  1.0  -0.6188
  N  N422  1  0.551000  0.341100  0.945270  1.0  -0.6296
  N  N423  1  0.222800  0.336400  0.933380  1.0  -0.6131
  N  N424  1  0.614000  0.524900  0.520660  1.0  -0.5997
  N  N425  1  0.284670  0.527200  0.518990  1.0  -0.6527
  N  N426  1  0.552000  0.467300  0.038300  1.0  -0.5678
  N  N427  1  0.616200  0.660100  0.436340  1.0  -0.62
  N  N428  1  0.949000  0.658900  0.445270  1.0  -0.6291
  N  N429  1  0.277200  0.663600  0.433380  1.0  -0.6125
  N  N430  1  0.886000  0.475100  0.020660  1.0  -0.5981
  N  N431  1  0.215330  0.472800  0.018990  1.0  -0.6518
  N  N432  1  0.948000  0.532700  0.538300  1.0  -0.5697
  O  O433  1  0.960790  0.806430  0.529790  1.0  -0.5762
  O  O434  1  0.940580  0.708300  0.591440  1.0  -0.6318
  O  O435  1  0.297070  0.798060  0.516570  1.0  -0.5814
  O  O436  1  0.283730  0.697230  0.576780  1.0  -0.619
  O  O437  1  0.628380  0.801330  0.520350  1.0  -0.576
  O  O438  1  0.606980  0.695530  0.575340  1.0  -0.6115
  O  O439  1  0.548010  0.977100  0.878510  1.0  -0.5679
  O  O440  1  0.534770  0.075590  0.941490  1.0  -0.5811
  O  O441  1  0.857560  0.079480  0.935150  1.0  -0.5674
  O  O442  1  0.866960  0.980000  0.873310  1.0  -0.6514
  O  O443  1  0.273800  0.021400  0.372760  1.0  -0.5752
  O  O444  1  0.298830  0.917580  0.428330  1.0  -0.5849
  O  O445  1  0.539210  0.193570  0.029790  1.0  -0.576
  O  O446  1  0.559420  0.291700  0.091440  1.0  -0.6325
  O  O447  1  0.202930  0.201940  0.016570  1.0  -0.5809
  O  O448  1  0.216270  0.302770  0.076780  1.0  -0.6171
  O  O449  1  0.871620  0.198670  0.020350  1.0  -0.576
  O  O450  1  0.893020  0.304470  0.075340  1.0  -0.6125
  O  O451  1  0.951990  0.022900  0.378510  1.0  -0.5688
  O  O452  1  0.965230  0.924410  0.441490  1.0  -0.5812
  O  O453  1  0.642440  0.920520  0.435150  1.0  -0.5676
  O  O454  1  0.633040  0.020000  0.373310  1.0  -0.6502
  O  O455  1  0.226200  0.978600  0.872760  1.0  -0.576
  O  O456  1  0.201170  0.082420  0.928330  1.0  -0.5849
  O  O457  1  0.039210  0.306430  0.970210  1.0  -0.5764
  O  O458  1  0.059420  0.208300  0.908560  1.0  -0.635
  O  O459  1  0.702930  0.298060  0.983430  1.0  -0.5805
  O  O460  1  0.716270  0.197230  0.923220  1.0  -0.6173
  O  O461  1  0.371620  0.301330  0.979650  1.0  -0.5765
  O  O462  1  0.393020  0.195530  0.924660  1.0  -0.6125
  O  O463  1  0.451990  0.477100  0.621490  1.0  -0.568
  O  O464  1  0.465230  0.575590  0.558510  1.0  -0.5794
  O  O465  1  0.142440  0.579480  0.564850  1.0  -0.5679
  O  O466  1  0.133040  0.480000  0.626690  1.0  -0.6546
  O  O467  1  0.726200  0.521400  0.127240  1.0  -0.574
  O  O468  1  0.701170  0.417580  0.071670  1.0  -0.5853
  O  O469  1  0.460790  0.693570  0.470210  1.0  -0.5757
  O  O470  1  0.440580  0.791700  0.408560  1.0  -0.6333
  O  O471  1  0.797070  0.701940  0.483430  1.0  -0.58
  O  O472  1  0.783730  0.802770  0.423220  1.0  -0.6162
  O  O473  1  0.128380  0.698670  0.479650  1.0  -0.576
  O  O474  1  0.106980  0.804470  0.424660  1.0  -0.611
  O  O475  1  0.048010  0.522900  0.121490  1.0  -0.5675
  O  O476  1  0.034770  0.424410  0.058510  1.0  -0.5795
  O  O477  1  0.357560  0.420520  0.064850  1.0  -0.5675
  O  O478  1  0.366960  0.520000  0.126690  1.0  -0.6526
  O  O479  1  0.773800  0.478600  0.627240  1.0  -0.5737
  O  O480  1  0.798830  0.582420  0.571670  1.0  -0.5861
