# generated using pymatgen
data_Eu(CO2)4
_symmetry_space_group_name_H-M   'P 1'
_cell_length_a   10.44400000
_cell_length_b   17.26100000
_cell_length_c   14.59800000
_cell_angle_alpha   90.00000000
_cell_angle_beta   98.46100000
_cell_angle_gamma   90.00000000
_symmetry_Int_Tables_number   1
_chemical_formula_structural   Eu(CO2)4
_chemical_formula_sum   'Eu8 C32 O64'
_cell_volume   2602.99605343
_cell_formula_units_Z   8
loop_
 _symmetry_equiv_pos_site_id
 _symmetry_equiv_pos_as_xyz
  1  'x, y, z'
loop_
 _atom_site_type_symbol
 _atom_site_label
 _atom_site_symmetry_multiplicity
 _atom_site_fract_x
 _atom_site_fract_y
 _atom_site_fract_z
 _atom_site_occupancy
 _atom_site_charge
  Eu  Eu1  1  0.496920  0.127360  0.156650  1.0  2.113
  Eu  Eu2  1  0.980100  0.334970  0.090830  1.0  2.0939
  Eu  Eu3  1  0.003080  0.627360  0.343350  1.0  2.1126
  Eu  Eu4  1  0.519900  0.834970  0.409170  1.0  2.094
  Eu  Eu5  1  0.503080  0.872650  0.843350  1.0  2.1127
  Eu  Eu6  1  0.019900  0.665030  0.909170  1.0  2.0942
  Eu  Eu7  1  0.996920  0.372640  0.656650  1.0  2.113
  Eu  Eu8  1  0.480100  0.165030  0.590830  1.0  2.0941
  C  C9  1  0.426100  0.983200  0.280900  1.0  0.6087
  C  C10  1  0.553900  0.023100  0.981000  1.0  0.5892
  C  C11  1  0.233000  0.224900  0.073400  1.0  0.5754
  C  C12  1  0.242900  0.236700  0.179200  1.0  0.5716
  C  C13  1  0.784900  0.198500  0.137800  1.0  0.588
  C  C14  1  0.690700  0.267800  0.115100  1.0  0.5753
  C  C15  1  0.549700  0.953500  0.243000  1.0  0.5873
  C  C16  1  0.941400  0.514300  0.023000  1.0  0.5833
  C  C17  1  0.073900  0.483200  0.219100  1.0  0.6077
  C  C18  1  0.946100  0.523100  0.519000  1.0  0.5893
  C  C19  1  0.267000  0.724900  0.426600  1.0  0.5761
  C  C20  1  0.257100  0.736700  0.320800  1.0  0.5703
  C  C21  1  0.715100  0.698500  0.362200  1.0  0.588
  C  C22  1  0.809300  0.767800  0.384900  1.0  0.5759
  C  C23  1  0.950300  0.453500  0.257000  1.0  0.5878
  C  C24  1  0.558600  0.014300  0.477000  1.0  0.5913
  C  C25  1  0.573900  0.016800  0.719100  1.0  0.6079
  C  C26  1  0.446100  0.976900  0.019000  1.0  0.5894
  C  C27  1  0.767000  0.775100  0.926600  1.0  0.5763
  C  C28  1  0.757100  0.763300  0.820800  1.0  0.5705
  C  C29  1  0.215100  0.801500  0.862200  1.0  0.5884
  C  C30  1  0.309300  0.732200  0.884900  1.0  0.5756
  C  C31  1  0.450300  0.046500  0.757000  1.0  0.5877
  C  C32  1  0.058600  0.485700  0.977000  1.0  0.5912
  C  C33  1  0.926100  0.516800  0.780900  1.0  0.6087
  C  C34  1  0.053900  0.476900  0.481000  1.0  0.5893
  C  C35  1  0.733000  0.275100  0.573400  1.0  0.5757
  C  C36  1  0.742900  0.263300  0.679200  1.0  0.5717
  C  C37  1  0.284900  0.301500  0.637800  1.0  0.5883
  C  C38  1  0.190700  0.232200  0.615100  1.0  0.5762
  C  C39  1  0.049700  0.546500  0.743000  1.0  0.5881
  C  C40  1  0.441400  0.985700  0.523000  1.0  0.59
  O  O41  1  0.610400  0.002210  0.202000  1.0  -0.5607
  O  O42  1  0.390000  0.051180  0.262600  1.0  -0.5564
  O  O43  1  0.616500  0.988150  0.926700  1.0  -0.5571
  O  O44  1  0.569200  0.092540  0.008000  1.0  -0.5543
  O  O45  1  0.736700  0.136430  0.163100  1.0  -0.5443
  O  O46  1  0.318500  0.182440  0.045600  1.0  -0.5726
  O  O47  1  0.339200  0.207600  0.228500  1.0  -0.5553
  O  O48  1  0.141200  0.258450  0.023400  1.0  -0.5539
  O  O49  1  0.151900  0.274670  0.206100  1.0  -0.55
  O  O50  1  0.901400  0.209190  0.129400  1.0  -0.5552
  O  O51  1  0.741000  0.328790  0.090600  1.0  -0.5466
  O  O52  1  0.876900  0.463460  0.057400  1.0  -0.5582
  O  O53  1  0.921200  0.586380  0.022500  1.0  -0.5742
  O  O54  1  0.373300  0.935650  0.330300  1.0  -0.5519
  O  O55  1  0.578700  0.882960  0.258800  1.0  -0.5599
  O  O56  1  0.573400  0.256700  0.123600  1.0  -0.5424
  O  O57  1  0.889600  0.502210  0.298000  1.0  -0.5589
  O  O58  1  0.110000  0.551180  0.237400  1.0  -0.5545
  O  O59  1  0.883500  0.488150  0.573300  1.0  -0.5544
  O  O60  1  0.930800  0.592540  0.492000  1.0  -0.5542
  O  O61  1  0.763300  0.636430  0.336900  1.0  -0.5438
  O  O62  1  0.181500  0.682440  0.454400  1.0  -0.5719
  O  O63  1  0.160800  0.707600  0.271500  1.0  -0.5523
  O  O64  1  0.358800  0.758450  0.476600  1.0  -0.5557
  O  O65  1  0.348100  0.774670  0.293900  1.0  -0.553
  O  O66  1  0.598600  0.709190  0.370600  1.0  -0.5562
  O  O67  1  0.759000  0.828790  0.409400  1.0  -0.5458
  O  O68  1  0.623100  0.963460  0.442600  1.0  -0.5614
  O  O69  1  0.578800  0.086380  0.477500  1.0  -0.5729
  O  O70  1  0.126700  0.435650  0.169700  1.0  -0.5508
  O  O71  1  0.921300  0.382960  0.241200  1.0  -0.5598
  O  O72  1  0.926600  0.756700  0.376400  1.0  -0.5421
  O  O73  1  0.389600  0.997790  0.798000  1.0  -0.5585
  O  O74  1  0.610000  0.948820  0.737400  1.0  -0.5558
  O  O75  1  0.383500  0.011850  0.073300  1.0  -0.5546
  O  O76  1  0.430800  0.907460  0.992000  1.0  -0.5569
  O  O77  1  0.263300  0.863570  0.836900  1.0  -0.5443
  O  O78  1  0.681500  0.817560  0.954400  1.0  -0.5706
  O  O79  1  0.660800  0.792400  0.771500  1.0  -0.554
  O  O80  1  0.858800  0.741550  0.976600  1.0  -0.5568
  O  O81  1  0.848100  0.725330  0.793900  1.0  -0.5515
  O  O82  1  0.098600  0.790810  0.870600  1.0  -0.5567
  O  O83  1  0.259000  0.671210  0.909400  1.0  -0.5459
  O  O84  1  0.123100  0.536540  0.942600  1.0  -0.5613
  O  O85  1  0.078800  0.413620  0.977500  1.0  -0.5759
  O  O86  1  0.626700  0.064350  0.669700  1.0  -0.5501
  O  O87  1  0.421300  0.117040  0.741200  1.0  -0.5588
  O  O88  1  0.426600  0.743300  0.876400  1.0  -0.5422
  O  O89  1  0.110400  0.497790  0.702000  1.0  -0.5609
  O  O90  1  0.890000  0.448820  0.762600  1.0  -0.5567
  O  O91  1  0.116500  0.511850  0.426700  1.0  -0.557
  O  O92  1  0.069200  0.407460  0.508000  1.0  -0.5566
  O  O93  1  0.236700  0.363570  0.663100  1.0  -0.5438
  O  O94  1  0.818500  0.317560  0.545600  1.0  -0.5708
  O  O95  1  0.839200  0.292400  0.728500  1.0  -0.5548
  O  O96  1  0.641200  0.241550  0.523400  1.0  -0.5544
  O  O97  1  0.651900  0.225330  0.706100  1.0  -0.5519
  O  O98  1  0.401400  0.290810  0.629400  1.0  -0.5552
  O  O99  1  0.241000  0.171210  0.590600  1.0  -0.5447
  O  O100  1  0.376900  0.036540  0.557400  1.0  -0.5586
  O  O101  1  0.421200  0.913620  0.522500  1.0  -0.5749
  O  O102  1  0.873300  0.564350  0.830300  1.0  -0.5519
  O  O103  1  0.078700  0.617040  0.758800  1.0  -0.5583
  O  O104  1  0.073400  0.243300  0.623600  1.0  -0.5424
