# generated using pymatgen
data_NdH3C7NO4
_symmetry_space_group_name_H-M   'P 1'
_cell_length_a   30.55360000
_cell_length_b   15.64300000
_cell_length_c   21.97010000
_cell_angle_alpha   90.00000000
_cell_angle_beta   133.09100000
_cell_angle_gamma   90.00000000
_symmetry_Int_Tables_number   1
_chemical_formula_structural   NdH3C7NO4
_chemical_formula_sum   'Nd16 H48 C112 N16 O64'
_cell_volume   7668.27514292
_cell_formula_units_Z   16
loop_
 _symmetry_equiv_pos_site_id
 _symmetry_equiv_pos_as_xyz
  1  'x, y, z'
loop_
 _atom_site_type_symbol
 _atom_site_label
 _atom_site_symmetry_multiplicity
 _atom_site_fract_x
 _atom_site_fract_y
 _atom_site_fract_z
 _atom_site_occupancy
 _atom_site_charge
  Nd  Nd1  1  0.331290  0.871700  0.485890  1.0  2.0568
  Nd  Nd2  1  0.610550  0.863450  0.673630  1.0  1.9565
  Nd  Nd3  1  0.831290  0.371700  0.485890  1.0  2.0568
  Nd  Nd4  1  0.110550  0.363450  0.673630  1.0  1.9565
  Nd  Nd5  1  0.668710  0.871700  0.014110  1.0  2.0562
  Nd  Nd6  1  0.389460  0.863450  0.826370  1.0  1.9564
  Nd  Nd7  1  0.168710  0.371700  0.014110  1.0  2.0562
  Nd  Nd8  1  0.889460  0.363450  0.826370  1.0  1.9564
  Nd  Nd9  1  0.668710  0.128300  0.514110  1.0  2.0557
  Nd  Nd10  1  0.389460  0.136550  0.326370  1.0  1.9579
  Nd  Nd11  1  0.168710  0.628300  0.514110  1.0  2.0557
  Nd  Nd12  1  0.889460  0.636550  0.326370  1.0  1.9579
  Nd  Nd13  1  0.331290  0.128300  0.985890  1.0  2.0562
  Nd  Nd14  1  0.610550  0.136550  0.173630  1.0  1.9575
  Nd  Nd15  1  0.831290  0.628300  0.985890  1.0  2.0562
  Nd  Nd16  1  0.110550  0.636550  0.173630  1.0  1.9575
  H  H17  1  0.317300  0.560900  0.354100  1.0  0.0984
  H  H18  1  0.420400  0.535100  0.441900  1.0  0.0992
  H  H19  1  0.488500  0.638500  0.539700  1.0  0.0955
  H  H20  1  0.744500  0.152200  0.780200  1.0  0.1136
  H  H21  1  0.766400  0.171700  0.904800  1.0  0.091
  H  H22  1  0.719600  0.084800  0.933000  1.0  0.1023
  H  H23  1  0.817300  0.060900  0.354100  1.0  0.0984
  H  H24  1  0.920400  0.035100  0.441900  1.0  0.0992
  H  H25  1  0.988500  0.138500  0.539700  1.0  0.0955
  H  H26  1  0.244500  0.652200  0.780200  1.0  0.1136
  H  H27  1  0.266400  0.671700  0.904800  1.0  0.0905
  H  H28  1  0.219600  0.584800  0.933000  1.0  0.1023
  H  H29  1  0.682700  0.560900  0.145900  1.0  0.0986
  H  H30  1  0.579600  0.535100  0.058100  1.0  0.0988
  H  H31  1  0.511500  0.638500  0.960300  1.0  0.0961
  H  H32  1  0.255500  0.152200  0.719800  1.0  0.113
  H  H33  1  0.233600  0.171700  0.595200  1.0  0.0906
  H  H34  1  0.280400  0.084800  0.567000  1.0  0.1014
  H  H35  1  0.182700  0.060900  0.145900  1.0  0.0986
  H  H36  1  0.079600  0.035100  0.058100  1.0  0.0982
  H  H37  1  0.011500  0.138500  0.960300  1.0  0.0961
  H  H38  1  0.755500  0.652200  0.719800  1.0  0.113
  H  H39  1  0.733600  0.671700  0.595200  1.0  0.0906
  H  H40  1  0.780400  0.584800  0.567000  1.0  0.1014
  H  H41  1  0.682700  0.439100  0.645900  1.0  0.0983
  H  H42  1  0.579600  0.464900  0.558100  1.0  0.0999
  H  H43  1  0.511500  0.361500  0.460300  1.0  0.096
  H  H44  1  0.255500  0.847800  0.219800  1.0  0.1131
  H  H45  1  0.233600  0.828300  0.095200  1.0  0.0902
  H  H46  1  0.280400  0.915200  0.067000  1.0  0.1016
  H  H47  1  0.182700  0.939100  0.645900  1.0  0.0983
  H  H48  1  0.079600  0.964900  0.558100  1.0  0.0999
  H  H49  1  0.011500  0.861500  0.460300  1.0  0.096
  H  H50  1  0.755500  0.347800  0.219800  1.0  0.1131
  H  H51  1  0.733600  0.328300  0.095200  1.0  0.0899
  H  H52  1  0.780400  0.415200  0.067000  1.0  0.1016
  H  H53  1  0.317300  0.439100  0.854100  1.0  0.0987
  H  H54  1  0.420400  0.464900  0.941900  1.0  0.0988
  H  H55  1  0.488500  0.361500  0.039700  1.0  0.0955
  H  H56  1  0.744500  0.847800  0.280200  1.0  0.113
  H  H57  1  0.766400  0.828300  0.404800  1.0  0.0904
  H  H58  1  0.719600  0.915200  0.433000  1.0  0.1023
  H  H59  1  0.817300  0.939100  0.854100  1.0  0.0987
  H  H60  1  0.920400  0.964900  0.941900  1.0  0.0977
  H  H61  1  0.988500  0.861500  0.039700  1.0  0.0955
  H  H62  1  0.244500  0.347800  0.280200  1.0  0.113
  H  H63  1  0.266400  0.328300  0.404800  1.0  0.0904
  H  H64  1  0.219600  0.415200  0.433000  1.0  0.1023
  C  C65  1  0.327600  0.676400  0.406900  1.0  0.0751
  C  C66  1  0.345900  0.601100  0.395700  1.0  -0.1205
  C  C67  1  0.406500  0.586500  0.446900  1.0  -0.114
  C  C68  1  0.446600  0.647000  0.504900  1.0  -0.1307
  C  C69  1  0.425300  0.720400  0.512200  1.0  0.0913
  C  C70  1  0.262300  0.701100  0.353400  1.0  0.6989
  C  C71  1  0.465200  0.792100  0.570300  1.0  0.672
  C  C72  1  0.684700  0.054600  0.738500  1.0  0.094
  C  C73  1  0.726000  0.117900  0.793000  1.0  -0.1396
  C  C74  1  0.739000  0.128600  0.866400  1.0  -0.1269
  C  C75  1  0.712200  0.076500  0.883800  1.0  -0.1263
  C  C76  1  0.674400  0.012300  0.828300  1.0  0.0904
  C  C77  1  0.662700  0.040500  0.653900  1.0  0.6723
  C  C78  1  0.649500  0.945700  0.846500  1.0  0.6515
  C  C79  1  0.827600  0.176400  0.406900  1.0  0.0751
  C  C80  1  0.845900  0.101100  0.395700  1.0  -0.1205
  C  C81  1  0.906500  0.086500  0.446900  1.0  -0.114
  C  C82  1  0.946600  0.147000  0.504900  1.0  -0.1307
  C  C83  1  0.925300  0.220400  0.512200  1.0  0.0913
  C  C84  1  0.762300  0.201100  0.353400  1.0  0.6989
  C  C85  1  0.965200  0.292100  0.570300  1.0  0.672
  C  C86  1  0.184700  0.554600  0.738500  1.0  0.094
  C  C87  1  0.226000  0.617900  0.793000  1.0  -0.1396
  C  C88  1  0.239000  0.628600  0.866400  1.0  -0.1269
  C  C89  1  0.212200  0.576500  0.883800  1.0  -0.1263
  C  C90  1  0.174400  0.512300  0.828300  1.0  0.0904
  C  C91  1  0.162700  0.540500  0.653900  1.0  0.6723
  C  C92  1  0.149500  0.445700  0.846500  1.0  0.6515
  C  C93  1  0.672400  0.676400  0.093100  1.0  0.0761
  C  C94  1  0.654100  0.601100  0.104300  1.0  -0.1186
  C  C95  1  0.593500  0.586500  0.053100  1.0  -0.1147
  C  C96  1  0.553400  0.647000  0.995100  1.0  -0.1313
  C  C97  1  0.574700  0.720400  0.987800  1.0  0.092
  C  C98  1  0.737700  0.701100  0.146600  1.0  0.7001
  C  C99  1  0.534800  0.792100  0.929700  1.0  0.6732
  C  C100  1  0.315300  0.054600  0.761500  1.0  0.0931
  C  C101  1  0.274000  0.117900  0.707000  1.0  -0.1394
  C  C102  1  0.261000  0.128600  0.633600  1.0  -0.1288
  C  C103  1  0.287800  0.076500  0.616200  1.0  -0.1255
  C  C104  1  0.325600  0.012300  0.671700  1.0  0.0892
  C  C105  1  0.337300  0.040500  0.846100  1.0  0.6729
  C  C106  1  0.350500  0.945700  0.653500  1.0  0.6519
  C  C107  1  0.172400  0.176400  0.093100  1.0  0.0761
  C  C108  1  0.154100  0.101100  0.104300  1.0  -0.1186
  C  C109  1  0.093500  0.086500  0.053100  1.0  -0.1147
  C  C110  1  0.053400  0.147000  0.995100  1.0  -0.1313
  C  C111  1  0.074700  0.220400  0.987800  1.0  0.092
  C  C112  1  0.237700  0.201100  0.146600  1.0  0.7001
  C  C113  1  0.034800  0.292100  0.929700  1.0  0.6732
  C  C114  1  0.815300  0.554600  0.761500  1.0  0.0931
  C  C115  1  0.774000  0.617900  0.707000  1.0  -0.1394
  C  C116  1  0.761000  0.628600  0.633600  1.0  -0.1288
  C  C117  1  0.787800  0.576500  0.616200  1.0  -0.1255
  C  C118  1  0.825600  0.512300  0.671700  1.0  0.0892
  C  C119  1  0.837300  0.540500  0.846100  1.0  0.6729
  C  C120  1  0.850500  0.445700  0.653500  1.0  0.6519
  C  C121  1  0.672400  0.323600  0.593100  1.0  0.0761
  C  C122  1  0.654100  0.398900  0.604300  1.0  -0.1194
  C  C123  1  0.593500  0.413500  0.553100  1.0  -0.1144
  C  C124  1  0.553400  0.353000  0.495100  1.0  -0.1319
  C  C125  1  0.574700  0.279600  0.487800  1.0  0.092
  C  C126  1  0.737700  0.298900  0.646600  1.0  0.7011
  C  C127  1  0.534800  0.207900  0.429700  1.0  0.6733
  C  C128  1  0.315300  0.945400  0.261500  1.0  0.0935
  C  C129  1  0.274000  0.882100  0.207000  1.0  -0.139
  C  C130  1  0.261000  0.871400  0.133600  1.0  -0.1298
  C  C131  1  0.287800  0.923500  0.116200  1.0  -0.1258
  C  C132  1  0.325600  0.987700  0.171700  1.0  0.0899
  C  C133  1  0.337300  0.959500  0.346100  1.0  0.6716
  C  C134  1  0.350500  0.054300  0.153500  1.0  0.6522
  C  C135  1  0.172400  0.823600  0.593100  1.0  0.0761
  C  C136  1  0.154100  0.898900  0.604300  1.0  -0.1194
  C  C137  1  0.093500  0.913500  0.553100  1.0  -0.1144
  C  C138  1  0.053400  0.853000  0.495100  1.0  -0.1319
  C  C139  1  0.074700  0.779600  0.487800  1.0  0.092
  C  C140  1  0.237700  0.798900  0.646600  1.0  0.7011
  C  C141  1  0.034800  0.707900  0.429700  1.0  0.6733
  C  C142  1  0.815300  0.445400  0.261500  1.0  0.0935
  C  C143  1  0.774000  0.382100  0.207000  1.0  -0.139
  C  C144  1  0.761000  0.371400  0.133600  1.0  -0.1298
  C  C145  1  0.787800  0.423500  0.116200  1.0  -0.1258
  C  C146  1  0.825600  0.487700  0.171700  1.0  0.0899
  C  C147  1  0.837300  0.459500  0.346100  1.0  0.6716
  C  C148  1  0.850500  0.554300  0.153500  1.0  0.6522
  C  C149  1  0.327600  0.323600  0.906900  1.0  0.0753
  C  C150  1  0.345900  0.398900  0.895700  1.0  -0.121
  C  C151  1  0.406500  0.413500  0.946900  1.0  -0.1136
  C  C152  1  0.446600  0.353000  0.004900  1.0  -0.1308
  C  C153  1  0.425300  0.279600  0.012200  1.0  0.093
  C  C154  1  0.262300  0.298900  0.853400  1.0  0.6995
  C  C155  1  0.465200  0.207900  0.070300  1.0  0.6744
  C  C156  1  0.684700  0.945400  0.238500  1.0  0.0942
  C  C157  1  0.726000  0.882100  0.293000  1.0  -0.1403
  C  C158  1  0.739000  0.871400  0.366400  1.0  -0.1282
  C  C159  1  0.712200  0.923500  0.383800  1.0  -0.127
  C  C160  1  0.674400  0.987700  0.328300  1.0  0.0901
  C  C161  1  0.662700  0.959500  0.153900  1.0  0.6722
  C  C162  1  0.649500  0.054300  0.346500  1.0  0.6502
  C  C163  1  0.827600  0.823600  0.906900  1.0  0.0753
  C  C164  1  0.845900  0.898900  0.895700  1.0  -0.121
  C  C165  1  0.906500  0.913500  0.946900  1.0  -0.1136
  C  C166  1  0.946600  0.853000  0.004900  1.0  -0.1308
  C  C167  1  0.925300  0.779600  0.012200  1.0  0.093
  C  C168  1  0.762300  0.798900  0.853400  1.0  0.6995
  C  C169  1  0.965200  0.707900  0.070300  1.0  0.6744
  C  C170  1  0.184700  0.445400  0.238500  1.0  0.0942
  C  C171  1  0.226000  0.382100  0.293000  1.0  -0.1403
  C  C172  1  0.239000  0.371400  0.366400  1.0  -0.1282
  C  C173  1  0.212200  0.423500  0.383800  1.0  -0.127
  C  C174  1  0.174400  0.487700  0.328300  1.0  0.0901
  C  C175  1  0.162700  0.459500  0.153900  1.0  0.6722
  C  C176  1  0.149500  0.554300  0.346500  1.0  0.6502
  N  N177  1  0.366500  0.734500  0.464200  1.0  -0.5099
  N  N178  1  0.661700  0.001300  0.757900  1.0  -0.5131
  N  N179  1  0.866500  0.234500  0.464200  1.0  -0.5099
  N  N180  1  0.161700  0.501300  0.757900  1.0  -0.5131
  N  N181  1  0.633500  0.734500  0.035800  1.0  -0.5096
  N  N182  1  0.338300  0.001300  0.742100  1.0  -0.5153
  N  N183  1  0.133500  0.234500  0.035800  1.0  -0.5096
  N  N184  1  0.838300  0.501300  0.742100  1.0  -0.5153
  N  N185  1  0.633500  0.265500  0.535800  1.0  -0.5096
  N  N186  1  0.338300  0.998700  0.242100  1.0  -0.5151
  N  N187  1  0.133500  0.765500  0.535800  1.0  -0.5096
  N  N188  1  0.838300  0.498700  0.242100  1.0  -0.5151
  N  N189  1  0.366500  0.265500  0.964200  1.0  -0.5093
  N  N190  1  0.661700  0.998700  0.257900  1.0  -0.5125
  N  N191  1  0.866500  0.765500  0.964200  1.0  -0.5093
  N  N192  1  0.161700  0.498700  0.257900  1.0  -0.5125
  O  O193  1  0.252810  0.769100  0.372300  1.0  -0.7212
  O  O194  1  0.223300  0.652100  0.295200  1.0  -0.6979
  O  O195  1  0.440500  0.857000  0.569600  1.0  -0.7262
  O  O196  1  0.520500  0.784800  0.613900  1.0  -0.7794
  O  O197  1  0.633900  0.972100  0.617400  1.0  -0.7449
  O  O198  1  0.673300  0.095900  0.625600  1.0  -0.7231
  O  O199  1  0.622300  0.882800  0.795100  1.0  -0.719
  O  O200  1  0.657300  0.952700  0.909100  1.0  -0.7641
  O  O201  1  0.752810  0.269100  0.372300  1.0  -0.7212
  O  O202  1  0.723300  0.152100  0.295200  1.0  -0.6979
  O  O203  1  0.940500  0.357000  0.569600  1.0  -0.7262
  O  O204  1  0.020500  0.284800  0.613900  1.0  -0.7794
  O  O205  1  0.133900  0.472100  0.617400  1.0  -0.7449
  O  O206  1  0.173300  0.595900  0.625600  1.0  -0.7231
  O  O207  1  0.122300  0.382800  0.795100  1.0  -0.719
  O  O208  1  0.157300  0.452700  0.909100  1.0  -0.7641
  O  O209  1  0.747190  0.769100  0.127700  1.0  -0.7194
  O  O210  1  0.776700  0.652100  0.204800  1.0  -0.6985
  O  O211  1  0.559500  0.857000  0.930400  1.0  -0.7273
  O  O212  1  0.479500  0.784800  0.886100  1.0  -0.7796
  O  O213  1  0.366100  0.972100  0.882600  1.0  -0.7471
  O  O214  1  0.326700  0.095900  0.874400  1.0  -0.7226
  O  O215  1  0.377700  0.882800  0.704900  1.0  -0.721
  O  O216  1  0.342700  0.952700  0.590900  1.0  -0.7628
  O  O217  1  0.247190  0.269100  0.127700  1.0  -0.7194
  O  O218  1  0.276700  0.152100  0.204800  1.0  -0.6985
  O  O219  1  0.059500  0.357000  0.930400  1.0  -0.7273
  O  O220  1  0.979500  0.284800  0.886100  1.0  -0.7796
  O  O221  1  0.866100  0.472100  0.882600  1.0  -0.7471
  O  O222  1  0.826700  0.595900  0.874400  1.0  -0.7226
  O  O223  1  0.877700  0.382800  0.704900  1.0  -0.721
  O  O224  1  0.842700  0.452700  0.590900  1.0  -0.7628
  O  O225  1  0.747190  0.230900  0.627700  1.0  -0.7205
  O  O226  1  0.776700  0.347900  0.704800  1.0  -0.6976
  O  O227  1  0.559500  0.143000  0.430400  1.0  -0.7272
  O  O228  1  0.479500  0.215200  0.386100  1.0  -0.7798
  O  O229  1  0.366100  0.027900  0.382600  1.0  -0.7457
  O  O230  1  0.326700  0.904100  0.374400  1.0  -0.7223
  O  O231  1  0.377700  0.117200  0.204900  1.0  -0.7208
  O  O232  1  0.342700  0.047300  0.090900  1.0  -0.763
  O  O233  1  0.247190  0.730900  0.627700  1.0  -0.7205
  O  O234  1  0.276700  0.847900  0.704800  1.0  -0.6976
  O  O235  1  0.059500  0.643000  0.430400  1.0  -0.7272
  O  O236  1  0.979500  0.715200  0.386100  1.0  -0.7798
  O  O237  1  0.866100  0.527900  0.382600  1.0  -0.7457
  O  O238  1  0.826700  0.404100  0.374400  1.0  -0.7223
  O  O239  1  0.877700  0.617200  0.204900  1.0  -0.7208
  O  O240  1  0.842700  0.547300  0.090900  1.0  -0.763
  O  O241  1  0.252810  0.230900  0.872300  1.0  -0.7202
  O  O242  1  0.223300  0.347900  0.795200  1.0  -0.6974
  O  O243  1  0.440500  0.143000  0.069600  1.0  -0.7259
  O  O244  1  0.520500  0.215200  0.113900  1.0  -0.7795
  O  O245  1  0.633900  0.027900  0.117400  1.0  -0.7468
  O  O246  1  0.673300  0.904100  0.125600  1.0  -0.7226
  O  O247  1  0.622300  0.117200  0.295100  1.0  -0.7214
  O  O248  1  0.657300  0.047300  0.409100  1.0  -0.7638
  O  O249  1  0.752810  0.730900  0.872300  1.0  -0.7202
  O  O250  1  0.723300  0.847900  0.795200  1.0  -0.6974
  O  O251  1  0.940500  0.643000  0.069600  1.0  -0.7259
  O  O252  1  0.020500  0.715200  0.113900  1.0  -0.7795
  O  O253  1  0.133900  0.527900  0.117400  1.0  -0.7468
  O  O254  1  0.173300  0.404100  0.125600  1.0  -0.7226
  O  O255  1  0.122300  0.617200  0.295100  1.0  -0.7214
  O  O256  1  0.157300  0.547300  0.409100  1.0  -0.7638
