# generated using pymatgen
data_PrH3C7NO4
_symmetry_space_group_name_H-M   'P 1'
_cell_length_a   30.64400000
_cell_length_b   15.66470000
_cell_length_c   22.02300000
_cell_angle_alpha   90.00000000
_cell_angle_beta   133.13500000
_cell_angle_gamma   90.00000000
_symmetry_Int_Tables_number   1
_chemical_formula_structural   PrH3C7NO4
_chemical_formula_sum   'Pr16 H48 C112 N16 O64'
_cell_volume   7714.62810293
_cell_formula_units_Z   16
loop_
 _symmetry_equiv_pos_site_id
 _symmetry_equiv_pos_as_xyz
  1  'x, y, z'
loop_
 _atom_site_type_symbol
 _atom_site_label
 _atom_site_symmetry_multiplicity
 _atom_site_fract_x
 _atom_site_fract_y
 _atom_site_fract_z
 _atom_site_occupancy
 _atom_site_charge
  Pr  Pr1  1  0.331270  0.871410  0.486050  1.0  1.9728
  Pr  Pr2  1  0.610520  0.863180  0.672930  1.0  1.8703
  Pr  Pr3  1  0.831270  0.371410  0.486050  1.0  1.9728
  Pr  Pr4  1  0.110520  0.363180  0.672930  1.0  1.8703
  Pr  Pr5  1  0.668730  0.871410  0.013950  1.0  1.9722
  Pr  Pr6  1  0.389480  0.863180  0.827070  1.0  1.8687
  Pr  Pr7  1  0.168730  0.371410  0.013950  1.0  1.9722
  Pr  Pr8  1  0.889480  0.363180  0.827070  1.0  1.8687
  Pr  Pr9  1  0.668730  0.128590  0.513950  1.0  1.9717
  Pr  Pr10  1  0.389480  0.136820  0.327070  1.0  1.8702
  Pr  Pr11  1  0.168730  0.628590  0.513950  1.0  1.9717
  Pr  Pr12  1  0.889480  0.636820  0.327070  1.0  1.8702
  Pr  Pr13  1  0.331270  0.128590  0.986050  1.0  1.9718
  Pr  Pr14  1  0.610520  0.136820  0.172930  1.0  1.8709
  Pr  Pr15  1  0.831270  0.628590  0.986050  1.0  1.9718
  Pr  Pr16  1  0.110520  0.636820  0.172930  1.0  1.8709
  H  H17  1  0.317500  0.560900  0.354100  1.0  0.1043
  H  H18  1  0.420500  0.534000  0.441800  1.0  0.1072
  H  H19  1  0.488600  0.636500  0.539600  1.0  0.1081
  H  H20  1  0.744600  0.151400  0.780600  1.0  0.1211
  H  H21  1  0.765900  0.172100  0.905000  1.0  0.1038
  H  H22  1  0.719900  0.084700  0.932500  1.0  0.1063
  H  H23  1  0.817500  0.060900  0.354100  1.0  0.1043
  H  H24  1  0.920500  0.034000  0.441800  1.0  0.1072
  H  H25  1  0.988600  0.136500  0.539600  1.0  0.1081
  H  H26  1  0.244600  0.651400  0.780600  1.0  0.1211
  H  H27  1  0.265900  0.672100  0.905000  1.0  0.1042
  H  H28  1  0.219900  0.584700  0.932500  1.0  0.1063
  H  H29  1  0.682500  0.560900  0.145900  1.0  0.1044
  H  H30  1  0.579500  0.534000  0.058200  1.0  0.1075
  H  H31  1  0.511400  0.636500  0.960400  1.0  0.1089
  H  H32  1  0.255400  0.151400  0.719400  1.0  0.1203
  H  H33  1  0.234100  0.172100  0.595000  1.0  0.1043
  H  H34  1  0.280100  0.084700  0.567500  1.0  0.1058
  H  H35  1  0.182500  0.060900  0.145900  1.0  0.1044
  H  H36  1  0.079500  0.034000  0.058200  1.0  0.1097
  H  H37  1  0.011400  0.136500  0.960400  1.0  0.1089
  H  H38  1  0.755400  0.651400  0.719400  1.0  0.1203
  H  H39  1  0.734100  0.672100  0.595000  1.0  0.1043
  H  H40  1  0.780100  0.584700  0.567500  1.0  0.1058
  H  H41  1  0.682500  0.439100  0.645900  1.0  0.1039
  H  H42  1  0.579500  0.466000  0.558200  1.0  0.1072
  H  H43  1  0.511400  0.363500  0.460400  1.0  0.1087
  H  H44  1  0.255400  0.848600  0.219400  1.0  0.1204
  H  H45  1  0.234100  0.827900  0.095000  1.0  0.1036
  H  H46  1  0.280100  0.915300  0.067500  1.0  0.1059
  H  H47  1  0.182500  0.939100  0.645900  1.0  0.1039
  H  H48  1  0.079500  0.966000  0.558200  1.0  0.1072
  H  H49  1  0.011400  0.863500  0.460400  1.0  0.1087
  H  H50  1  0.755400  0.348600  0.219400  1.0  0.1204
  H  H51  1  0.734100  0.327900  0.095000  1.0  0.1035
  H  H52  1  0.780100  0.415300  0.067500  1.0  0.1059
  H  H53  1  0.317500  0.439100  0.854100  1.0  0.1045
  H  H54  1  0.420500  0.466000  0.941800  1.0  0.1078
  H  H55  1  0.488600  0.363500  0.039600  1.0  0.1081
  H  H56  1  0.744600  0.848600  0.280600  1.0  0.1206
  H  H57  1  0.765900  0.827900  0.405000  1.0  0.1039
  H  H58  1  0.719900  0.915300  0.432500  1.0  0.1064
  H  H59  1  0.817500  0.939100  0.854100  1.0  0.1045
  H  H60  1  0.920500  0.966000  0.941800  1.0  0.11
  H  H61  1  0.988600  0.863500  0.039600  1.0  0.1081
  H  H62  1  0.244600  0.348600  0.280600  1.0  0.1206
  H  H63  1  0.265900  0.327900  0.405000  1.0  0.1039
  H  H64  1  0.219900  0.415300  0.432500  1.0  0.1064
  C  C65  1  0.327700  0.676000  0.406800  1.0  0.0934
  C  C66  1  0.346100  0.600800  0.395900  1.0  -0.1053
  C  C67  1  0.406800  0.585500  0.446900  1.0  -0.1048
  C  C68  1  0.446900  0.645500  0.504900  1.0  -0.1223
  C  C69  1  0.425800  0.719800  0.512400  1.0  0.0815
  C  C70  1  0.263200  0.699400  0.354000  1.0  0.6616
  C  C71  1  0.465500  0.791200  0.570000  1.0  0.6762
  C  C72  1  0.684900  0.054900  0.739000  1.0  0.1012
  C  C73  1  0.726000  0.117400  0.793200  1.0  -0.1315
  C  C74  1  0.739000  0.128800  0.866700  1.0  -0.1222
  C  C75  1  0.712400  0.076600  0.883200  1.0  -0.1114
  C  C76  1  0.674700  0.012500  0.828600  1.0  0.0881
  C  C77  1  0.662700  0.041200  0.654400  1.0  0.6882
  C  C78  1  0.649000  0.945700  0.845600  1.0  0.6984
  C  C79  1  0.827700  0.176000  0.406800  1.0  0.0934
  C  C80  1  0.846100  0.100800  0.395900  1.0  -0.1053
  C  C81  1  0.906800  0.085500  0.446900  1.0  -0.1048
  C  C82  1  0.946900  0.145500  0.504900  1.0  -0.1223
  C  C83  1  0.925800  0.219800  0.512400  1.0  0.0815
  C  C84  1  0.763200  0.199400  0.354000  1.0  0.6616
  C  C85  1  0.965500  0.291200  0.570000  1.0  0.6762
  C  C86  1  0.184900  0.554900  0.739000  1.0  0.1012
  C  C87  1  0.226000  0.617400  0.793200  1.0  -0.1315
  C  C88  1  0.239000  0.628800  0.866700  1.0  -0.1222
  C  C89  1  0.212400  0.576600  0.883200  1.0  -0.1114
  C  C90  1  0.174700  0.512500  0.828600  1.0  0.0881
  C  C91  1  0.162700  0.541200  0.654400  1.0  0.6882
  C  C92  1  0.149000  0.445700  0.845600  1.0  0.6984
  C  C93  1  0.672300  0.676000  0.093200  1.0  0.0938
  C  C94  1  0.653900  0.600800  0.104100  1.0  -0.1042
  C  C95  1  0.593200  0.585500  0.053100  1.0  -0.1055
  C  C96  1  0.553100  0.645500  0.995100  1.0  -0.1225
  C  C97  1  0.574200  0.719800  0.987600  1.0  0.0816
  C  C98  1  0.736800  0.699400  0.146000  1.0  0.6643
  C  C99  1  0.534500  0.791200  0.930000  1.0  0.6783
  C  C100  1  0.315100  0.054900  0.761000  1.0  0.1004
  C  C101  1  0.274000  0.117400  0.706800  1.0  -0.131
  C  C102  1  0.261000  0.128800  0.633300  1.0  -0.123
  C  C103  1  0.287600  0.076600  0.616800  1.0  -0.1108
  C  C104  1  0.325300  0.012500  0.671400  1.0  0.0882
  C  C105  1  0.337300  0.041200  0.845600  1.0  0.6885
  C  C106  1  0.351000  0.945700  0.654400  1.0  0.6991
  C  C107  1  0.172300  0.176000  0.093200  1.0  0.0938
  C  C108  1  0.153900  0.100800  0.104100  1.0  -0.1042
  C  C109  1  0.093200  0.085500  0.053100  1.0  -0.1055
  C  C110  1  0.053100  0.145500  0.995100  1.0  -0.1225
  C  C111  1  0.074200  0.219800  0.987600  1.0  0.0816
  C  C112  1  0.236800  0.199400  0.146000  1.0  0.6643
  C  C113  1  0.034500  0.291200  0.930000  1.0  0.6783
  C  C114  1  0.815100  0.554900  0.761000  1.0  0.1004
  C  C115  1  0.774000  0.617400  0.706800  1.0  -0.131
  C  C116  1  0.761000  0.628800  0.633300  1.0  -0.123
  C  C117  1  0.787600  0.576600  0.616800  1.0  -0.1108
  C  C118  1  0.825300  0.512500  0.671400  1.0  0.0882
  C  C119  1  0.837300  0.541200  0.845600  1.0  0.6885
  C  C120  1  0.851000  0.445700  0.654400  1.0  0.6991
  C  C121  1  0.672300  0.324000  0.593200  1.0  0.0936
  C  C122  1  0.653900  0.399200  0.604100  1.0  -0.105
  C  C123  1  0.593200  0.414500  0.553100  1.0  -0.1054
  C  C124  1  0.553100  0.354500  0.495100  1.0  -0.1232
  C  C125  1  0.574200  0.280200  0.487600  1.0  0.0821
  C  C126  1  0.736800  0.300600  0.646000  1.0  0.6651
  C  C127  1  0.534500  0.208800  0.430000  1.0  0.6777
  C  C128  1  0.315100  0.945100  0.261000  1.0  0.1007
  C  C129  1  0.274000  0.882600  0.206800  1.0  -0.1301
  C  C130  1  0.261000  0.871200  0.133300  1.0  -0.1254
  C  C131  1  0.287600  0.923400  0.116800  1.0  -0.1109
  C  C132  1  0.325300  0.987500  0.171400  1.0  0.0885
  C  C133  1  0.337300  0.958800  0.345600  1.0  0.6871
  C  C134  1  0.351000  0.054300  0.154400  1.0  0.6995
  C  C135  1  0.172300  0.824000  0.593200  1.0  0.0936
  C  C136  1  0.153900  0.899200  0.604100  1.0  -0.105
  C  C137  1  0.093200  0.914500  0.553100  1.0  -0.1054
  C  C138  1  0.053100  0.854500  0.495100  1.0  -0.1232
  C  C139  1  0.074200  0.780200  0.487600  1.0  0.0821
  C  C140  1  0.236800  0.800600  0.646000  1.0  0.6651
  C  C141  1  0.034500  0.708800  0.430000  1.0  0.6777
  C  C142  1  0.815100  0.445100  0.261000  1.0  0.1007
  C  C143  1  0.774000  0.382600  0.206800  1.0  -0.1301
  C  C144  1  0.761000  0.371200  0.133300  1.0  -0.1254
  C  C145  1  0.787600  0.423400  0.116800  1.0  -0.1109
  C  C146  1  0.825300  0.487500  0.171400  1.0  0.0885
  C  C147  1  0.837300  0.458800  0.345600  1.0  0.6871
  C  C148  1  0.851000  0.554300  0.154400  1.0  0.6995
  C  C149  1  0.327700  0.324000  0.906800  1.0  0.0934
  C  C150  1  0.346100  0.399200  0.895900  1.0  -0.1057
  C  C151  1  0.406800  0.414500  0.946900  1.0  -0.1041
  C  C152  1  0.446900  0.354500  0.004900  1.0  -0.122
  C  C153  1  0.425800  0.280200  0.012400  1.0  0.0833
  C  C154  1  0.263200  0.300600  0.854000  1.0  0.6619
  C  C155  1  0.465500  0.208800  0.070000  1.0  0.6781
  C  C156  1  0.684900  0.945100  0.239000  1.0  0.1009
  C  C157  1  0.726000  0.882600  0.293200  1.0  -0.1318
  C  C158  1  0.739000  0.871200  0.366700  1.0  -0.1241
  C  C159  1  0.712400  0.923400  0.383200  1.0  -0.1122
  C  C160  1  0.674700  0.987500  0.328600  1.0  0.0877
  C  C161  1  0.662700  0.958800  0.154400  1.0  0.688
  C  C162  1  0.649000  0.054300  0.345600  1.0  0.6973
  C  C163  1  0.827700  0.824000  0.906800  1.0  0.0934
  C  C164  1  0.846100  0.899200  0.895900  1.0  -0.1057
  C  C165  1  0.906800  0.914500  0.946900  1.0  -0.1041
  C  C166  1  0.946900  0.854500  0.004900  1.0  -0.122
  C  C167  1  0.925800  0.780200  0.012400  1.0  0.0833
  C  C168  1  0.763200  0.800600  0.854000  1.0  0.6619
  C  C169  1  0.965500  0.708800  0.070000  1.0  0.6781
  C  C170  1  0.184900  0.445100  0.239000  1.0  0.1009
  C  C171  1  0.226000  0.382600  0.293200  1.0  -0.1318
  C  C172  1  0.239000  0.371200  0.366700  1.0  -0.1241
  C  C173  1  0.212400  0.423400  0.383200  1.0  -0.1122
  C  C174  1  0.174700  0.487500  0.328600  1.0  0.0877
  C  C175  1  0.162700  0.458800  0.154400  1.0  0.688
  C  C176  1  0.149000  0.554300  0.345600  1.0  0.6973
  N  N177  1  0.366700  0.733900  0.464000  1.0  -0.5051
  N  N178  1  0.661800  0.001400  0.757800  1.0  -0.4898
  N  N179  1  0.866700  0.233900  0.464000  1.0  -0.5051
  N  N180  1  0.161800  0.501400  0.757800  1.0  -0.4898
  N  N181  1  0.633300  0.733900  0.036000  1.0  -0.5042
  N  N182  1  0.338200  0.001400  0.742200  1.0  -0.4918
  N  N183  1  0.133300  0.233900  0.036000  1.0  -0.5042
  N  N184  1  0.838200  0.501400  0.742200  1.0  -0.4918
  N  N185  1  0.633300  0.266100  0.536000  1.0  -0.5038
  N  N186  1  0.338200  0.998600  0.242200  1.0  -0.4934
  N  N187  1  0.133300  0.766100  0.536000  1.0  -0.5038
  N  N188  1  0.838200  0.498600  0.242200  1.0  -0.4934
  N  N189  1  0.366700  0.266100  0.964000  1.0  -0.5043
  N  N190  1  0.661800  0.998600  0.257800  1.0  -0.4899
  N  N191  1  0.866700  0.766100  0.964000  1.0  -0.5043
  N  N192  1  0.161800  0.498600  0.257800  1.0  -0.4899
  O  O193  1  0.253000  0.767900  0.372300  1.0  -0.7376
  O  O194  1  0.223600  0.651700  0.294600  1.0  -0.6874
  O  O195  1  0.440500  0.856400  0.569400  1.0  -0.7224
  O  O196  1  0.520300  0.783900  0.613600  1.0  -0.762
  O  O197  1  0.634100  0.972900  0.617600  1.0  -0.747
  O  O198  1  0.674100  0.096700  0.626300  1.0  -0.7394
  O  O199  1  0.622500  0.883500  0.795200  1.0  -0.7145
  O  O200  1  0.657100  0.953500  0.908600  1.0  -0.7808
  O  O201  1  0.753000  0.267900  0.372300  1.0  -0.7376
  O  O202  1  0.723600  0.151700  0.294600  1.0  -0.6874
  O  O203  1  0.940500  0.356400  0.569400  1.0  -0.7224
  O  O204  1  0.020300  0.283900  0.613600  1.0  -0.762
  O  O205  1  0.134100  0.472900  0.617600  1.0  -0.747
  O  O206  1  0.174100  0.596700  0.626300  1.0  -0.7394
  O  O207  1  0.122500  0.383500  0.795200  1.0  -0.7145
  O  O208  1  0.157100  0.453500  0.908600  1.0  -0.7808
  O  O209  1  0.747000  0.767900  0.127700  1.0  -0.7354
  O  O210  1  0.776400  0.651700  0.205400  1.0  -0.6884
  O  O211  1  0.559500  0.856400  0.930600  1.0  -0.725
  O  O212  1  0.479700  0.783900  0.886400  1.0  -0.7621
  O  O213  1  0.365900  0.972900  0.882400  1.0  -0.7487
  O  O214  1  0.325900  0.096700  0.873700  1.0  -0.7386
  O  O215  1  0.377500  0.883500  0.704800  1.0  -0.7162
  O  O216  1  0.342900  0.953500  0.591400  1.0  -0.7786
  O  O217  1  0.247000  0.267900  0.127700  1.0  -0.7354
  O  O218  1  0.276400  0.151700  0.205400  1.0  -0.6884
  O  O219  1  0.059500  0.356400  0.930600  1.0  -0.725
  O  O220  1  0.979700  0.283900  0.886400  1.0  -0.7621
  O  O221  1  0.865900  0.472900  0.882400  1.0  -0.7487
  O  O222  1  0.825900  0.596700  0.873700  1.0  -0.7386
  O  O223  1  0.877500  0.383500  0.704800  1.0  -0.7162
  O  O224  1  0.842900  0.453500  0.591400  1.0  -0.7786
  O  O225  1  0.747000  0.232100  0.627700  1.0  -0.736
  O  O226  1  0.776400  0.348300  0.705400  1.0  -0.6875
  O  O227  1  0.559500  0.143600  0.430600  1.0  -0.7237
  O  O228  1  0.479700  0.216100  0.386400  1.0  -0.762
  O  O229  1  0.365900  0.027100  0.382400  1.0  -0.747
  O  O230  1  0.325900  0.903300  0.373700  1.0  -0.7387
  O  O231  1  0.377500  0.116500  0.204800  1.0  -0.7152
  O  O232  1  0.342900  0.046500  0.091400  1.0  -0.7788
  O  O233  1  0.247000  0.732100  0.627700  1.0  -0.736
  O  O234  1  0.276400  0.848300  0.705400  1.0  -0.6875
  O  O235  1  0.059500  0.643600  0.430600  1.0  -0.7237
  O  O236  1  0.979700  0.716100  0.386400  1.0  -0.762
  O  O237  1  0.865900  0.527100  0.382400  1.0  -0.747
  O  O238  1  0.825900  0.403300  0.373700  1.0  -0.7387
  O  O239  1  0.877500  0.616500  0.204800  1.0  -0.7152
  O  O240  1  0.842900  0.546500  0.091400  1.0  -0.7788
  O  O241  1  0.253000  0.232100  0.872300  1.0  -0.7367
  O  O242  1  0.223600  0.348300  0.794600  1.0  -0.6876
  O  O243  1  0.440500  0.143600  0.069400  1.0  -0.7216
  O  O244  1  0.520300  0.216100  0.113600  1.0  -0.762
  O  O245  1  0.634100  0.027100  0.117600  1.0  -0.7483
  O  O246  1  0.674100  0.903300  0.126300  1.0  -0.7396
  O  O247  1  0.622500  0.116500  0.295200  1.0  -0.7158
  O  O248  1  0.657100  0.046500  0.408600  1.0  -0.7805
  O  O249  1  0.753000  0.732100  0.872300  1.0  -0.7367
  O  O250  1  0.723600  0.848300  0.794600  1.0  -0.6876
  O  O251  1  0.940500  0.643600  0.069400  1.0  -0.7216
  O  O252  1  0.020300  0.716100  0.113600  1.0  -0.762
  O  O253  1  0.134100  0.527100  0.117600  1.0  -0.7483
  O  O254  1  0.174100  0.403300  0.126300  1.0  -0.7396
  O  O255  1  0.122500  0.616500  0.295200  1.0  -0.7158
  O  O256  1  0.157100  0.546500  0.408600  1.0  -0.7805
