# generated using pymatgen
data_CeH3C7NO4
_symmetry_space_group_name_H-M   'P 1'
_cell_length_a   30.74640000
_cell_length_b   15.68550000
_cell_length_c   22.07140000
_cell_angle_alpha   90.00000000
_cell_angle_beta   133.21000000
_cell_angle_gamma   90.00000000
_symmetry_Int_Tables_number   1
_chemical_formula_structural   CeH3C7NO4
_chemical_formula_sum   'Ce16 H48 C112 N16 O64'
_cell_volume   7758.18564153
_cell_formula_units_Z   16
loop_
 _symmetry_equiv_pos_site_id
 _symmetry_equiv_pos_as_xyz
  1  'x, y, z'
loop_
 _atom_site_type_symbol
 _atom_site_label
 _atom_site_symmetry_multiplicity
 _atom_site_fract_x
 _atom_site_fract_y
 _atom_site_fract_z
 _atom_site_occupancy
 _atom_site_charge
  Ce  Ce1  1  0.331220  0.871070  0.486290  1.0  2.0214
  Ce  Ce2  1  0.610600  0.862830  0.672130  1.0  1.9696
  Ce  Ce3  1  0.831220  0.371070  0.486290  1.0  2.0214
  Ce  Ce4  1  0.110600  0.362830  0.672130  1.0  1.9696
  Ce  Ce5  1  0.668780  0.871070  0.013710  1.0  2.0221
  Ce  Ce6  1  0.389400  0.862830  0.827870  1.0  1.9697
  Ce  Ce7  1  0.168780  0.371070  0.013710  1.0  2.0221
  Ce  Ce8  1  0.889400  0.362830  0.827870  1.0  1.9697
  Ce  Ce9  1  0.668780  0.128930  0.513710  1.0  2.0216
  Ce  Ce10  1  0.389400  0.137170  0.327870  1.0  1.9697
  Ce  Ce11  1  0.168780  0.628930  0.513710  1.0  2.0216
  Ce  Ce12  1  0.889400  0.637170  0.327870  1.0  1.9697
  Ce  Ce13  1  0.331220  0.128930  0.986290  1.0  2.0209
  Ce  Ce14  1  0.610600  0.137170  0.172130  1.0  1.9696
  Ce  Ce15  1  0.831220  0.628930  0.986290  1.0  2.0209
  Ce  Ce16  1  0.110600  0.637170  0.172130  1.0  1.9696
  H  H17  1  0.317400  0.560100  0.354200  1.0  0.0958
  H  H18  1  0.420100  0.532700  0.441900  1.0  0.0968
  H  H19  1  0.488400  0.636400  0.539100  1.0  0.0983
  H  H20  1  0.743500  0.153100  0.779600  1.0  0.1086
  H  H21  1  0.766700  0.172300  0.905800  1.0  0.0984
  H  H22  1  0.719600  0.084400  0.932300  1.0  0.0967
  H  H23  1  0.817400  0.060100  0.354200  1.0  0.0958
  H  H24  1  0.920100  0.032700  0.441900  1.0  0.0968
  H  H25  1  0.988400  0.136400  0.539100  1.0  0.0983
  H  H26  1  0.243500  0.653100  0.779600  1.0  0.1086
  H  H27  1  0.266700  0.672300  0.905800  1.0  0.0972
  H  H28  1  0.219600  0.584400  0.932300  1.0  0.0967
  H  H29  1  0.682600  0.560100  0.145800  1.0  0.0957
  H  H30  1  0.579900  0.532700  0.058100  1.0  0.0961
  H  H31  1  0.511600  0.636400  0.960900  1.0  0.0993
  H  H32  1  0.256500  0.153100  0.720400  1.0  0.1076
  H  H33  1  0.233300  0.172300  0.594200  1.0  0.0978
  H  H34  1  0.280400  0.084400  0.567700  1.0  0.0959
  H  H35  1  0.182600  0.060100  0.145800  1.0  0.0957
  H  H36  1  0.079900  0.032700  0.058100  1.0  0.0965
  H  H37  1  0.011600  0.136400  0.960900  1.0  0.0993
  H  H38  1  0.756500  0.653100  0.720400  1.0  0.1076
  H  H39  1  0.733300  0.672300  0.594200  1.0  0.0978
  H  H40  1  0.780400  0.584400  0.567700  1.0  0.0959
  H  H41  1  0.682600  0.439900  0.645800  1.0  0.0952
  H  H42  1  0.579900  0.467300  0.558100  1.0  0.0979
  H  H43  1  0.511600  0.363600  0.460900  1.0  0.0991
  H  H44  1  0.256500  0.846900  0.220400  1.0  0.1076
  H  H45  1  0.233300  0.827700  0.094200  1.0  0.0979
  H  H46  1  0.280400  0.915600  0.067700  1.0  0.0961
  H  H47  1  0.182600  0.939900  0.645800  1.0  0.0952
  H  H48  1  0.079900  0.967300  0.558100  1.0  0.0979
  H  H49  1  0.011600  0.863600  0.460900  1.0  0.0991
  H  H50  1  0.756500  0.346900  0.220400  1.0  0.1076
  H  H51  1  0.733300  0.327700  0.094200  1.0  0.0963
  H  H52  1  0.780400  0.415600  0.067700  1.0  0.0961
  H  H53  1  0.317400  0.439900  0.854200  1.0  0.096
  H  H54  1  0.420100  0.467300  0.941900  1.0  0.0963
  H  H55  1  0.488400  0.363600  0.039100  1.0  0.0982
  H  H56  1  0.743500  0.846900  0.279600  1.0  0.108
  H  H57  1  0.766700  0.827700  0.405800  1.0  0.0973
  H  H58  1  0.719600  0.915600  0.432300  1.0  0.0968
  H  H59  1  0.817400  0.939900  0.854200  1.0  0.096
  H  H60  1  0.920100  0.967300  0.941900  1.0  0.0965
  H  H61  1  0.988400  0.863600  0.039100  1.0  0.0982
  H  H62  1  0.243500  0.346900  0.279600  1.0  0.108
  H  H63  1  0.266700  0.327700  0.405800  1.0  0.0973
  H  H64  1  0.219600  0.415600  0.432300  1.0  0.0968
  C  C65  1  0.328200  0.674500  0.407200  1.0  0.0735
  C  C66  1  0.346100  0.599800  0.395900  1.0  -0.1124
  C  C67  1  0.406500  0.584200  0.446800  1.0  -0.1028
  C  C68  1  0.446800  0.644900  0.504700  1.0  -0.1211
  C  C69  1  0.425500  0.718400  0.512000  1.0  0.0692
  C  C70  1  0.263200  0.698900  0.353500  1.0  0.6831
  C  C71  1  0.465400  0.790200  0.570000  1.0  0.6737
  C  C72  1  0.684600  0.055500  0.738600  1.0  0.0811
  C  C73  1  0.725500  0.118500  0.792800  1.0  -0.1244
  C  C74  1  0.739400  0.129500  0.867200  1.0  -0.1231
  C  C75  1  0.712300  0.076500  0.883300  1.0  -0.1245
  C  C76  1  0.675200  0.012900  0.829100  1.0  0.1113
  C  C77  1  0.663400  0.041600  0.654700  1.0  0.6785
  C  C78  1  0.649500  0.946000  0.845500  1.0  0.6851
  C  C79  1  0.828200  0.174500  0.407200  1.0  0.0735
  C  C80  1  0.846100  0.099800  0.395900  1.0  -0.1124
  C  C81  1  0.906500  0.084200  0.446800  1.0  -0.1028
  C  C82  1  0.946800  0.144900  0.504700  1.0  -0.1211
  C  C83  1  0.925500  0.218400  0.512000  1.0  0.0692
  C  C84  1  0.763200  0.198900  0.353500  1.0  0.6831
  C  C85  1  0.965400  0.290200  0.570000  1.0  0.6737
  C  C86  1  0.184600  0.555500  0.738600  1.0  0.0811
  C  C87  1  0.225500  0.618500  0.792800  1.0  -0.1244
  C  C88  1  0.239400  0.629500  0.867200  1.0  -0.1231
  C  C89  1  0.212300  0.576500  0.883300  1.0  -0.1245
  C  C90  1  0.175200  0.512900  0.829100  1.0  0.1113
  C  C91  1  0.163400  0.541600  0.654700  1.0  0.6785
  C  C92  1  0.149500  0.446000  0.845500  1.0  0.6851
  C  C93  1  0.671800  0.674500  0.092800  1.0  0.0733
  C  C94  1  0.653900  0.599800  0.104100  1.0  -0.111
  C  C95  1  0.593500  0.584200  0.053200  1.0  -0.1035
  C  C96  1  0.553200  0.644900  0.995300  1.0  -0.1229
  C  C97  1  0.574500  0.718400  0.988000  1.0  0.0702
  C  C98  1  0.736800  0.698900  0.146500  1.0  0.6857
  C  C99  1  0.534600  0.790200  0.930000  1.0  0.6754
  C  C100  1  0.315400  0.055500  0.761400  1.0  0.0806
  C  C101  1  0.274500  0.118500  0.707200  1.0  -0.1251
  C  C102  1  0.260600  0.129500  0.632800  1.0  -0.1259
  C  C103  1  0.287700  0.076500  0.616700  1.0  -0.1235
  C  C104  1  0.324800  0.012900  0.670900  1.0  0.111
  C  C105  1  0.336600  0.041600  0.845300  1.0  0.6787
  C  C106  1  0.350500  0.946000  0.654500  1.0  0.6856
  C  C107  1  0.171800  0.174500  0.092800  1.0  0.0733
  C  C108  1  0.153900  0.099800  0.104100  1.0  -0.111
  C  C109  1  0.093500  0.084200  0.053200  1.0  -0.1035
  C  C110  1  0.053200  0.144900  0.995300  1.0  -0.1229
  C  C111  1  0.074500  0.218400  0.988000  1.0  0.0702
  C  C112  1  0.236800  0.198900  0.146500  1.0  0.6857
  C  C113  1  0.034600  0.290200  0.930000  1.0  0.6754
  C  C114  1  0.815400  0.555500  0.761400  1.0  0.0806
  C  C115  1  0.774500  0.618500  0.707200  1.0  -0.1251
  C  C116  1  0.760600  0.629500  0.632800  1.0  -0.1259
  C  C117  1  0.787700  0.576500  0.616700  1.0  -0.1235
  C  C118  1  0.824800  0.512900  0.670900  1.0  0.111
  C  C119  1  0.836600  0.541600  0.845300  1.0  0.6787
  C  C120  1  0.850500  0.446000  0.654500  1.0  0.6856
  C  C121  1  0.671800  0.325500  0.592800  1.0  0.0733
  C  C122  1  0.653900  0.400200  0.604100  1.0  -0.1121
  C  C123  1  0.593500  0.415800  0.553200  1.0  -0.1028
  C  C124  1  0.553200  0.355100  0.495300  1.0  -0.1237
  C  C125  1  0.574500  0.281600  0.488000  1.0  0.0703
  C  C126  1  0.736800  0.301100  0.646500  1.0  0.6865
  C  C127  1  0.534600  0.209800  0.430000  1.0  0.6753
  C  C128  1  0.315400  0.944500  0.261400  1.0  0.0815
  C  C129  1  0.274500  0.881500  0.207200  1.0  -0.1245
  C  C130  1  0.260600  0.870500  0.132800  1.0  -0.1279
  C  C131  1  0.287700  0.923500  0.116700  1.0  -0.1244
  C  C132  1  0.324800  0.987100  0.170900  1.0  0.1114
  C  C133  1  0.336600  0.958400  0.345300  1.0  0.6772
  C  C134  1  0.350500  0.054000  0.154500  1.0  0.6856
  C  C135  1  0.171800  0.825500  0.592800  1.0  0.0733
  C  C136  1  0.153900  0.900200  0.604100  1.0  -0.1121
  C  C137  1  0.093500  0.915800  0.553200  1.0  -0.1028
  C  C138  1  0.053200  0.855100  0.495300  1.0  -0.1237
  C  C139  1  0.074500  0.781600  0.488000  1.0  0.0703
  C  C140  1  0.236800  0.801100  0.646500  1.0  0.6865
  C  C141  1  0.034600  0.709800  0.430000  1.0  0.6753
  C  C142  1  0.815400  0.444500  0.261400  1.0  0.0815
  C  C143  1  0.774500  0.381500  0.207200  1.0  -0.1245
  C  C144  1  0.760600  0.370500  0.132800  1.0  -0.1279
  C  C145  1  0.787700  0.423500  0.116700  1.0  -0.1244
  C  C146  1  0.824800  0.487100  0.170900  1.0  0.1114
  C  C147  1  0.836600  0.458400  0.345300  1.0  0.6772
  C  C148  1  0.850500  0.554000  0.154500  1.0  0.6856
  C  C149  1  0.328200  0.325500  0.907200  1.0  0.0738
  C  C150  1  0.346100  0.400200  0.895900  1.0  -0.113
  C  C151  1  0.406500  0.415800  0.946800  1.0  -0.1016
  C  C152  1  0.446800  0.355100  0.004700  1.0  -0.1212
  C  C153  1  0.425500  0.281600  0.012000  1.0  0.0707
  C  C154  1  0.263200  0.301100  0.853500  1.0  0.6835
  C  C155  1  0.465400  0.209800  0.070000  1.0  0.6763
  C  C156  1  0.684600  0.944500  0.238600  1.0  0.0811
  C  C157  1  0.725500  0.881500  0.292800  1.0  -0.1249
  C  C158  1  0.739400  0.870500  0.367200  1.0  -0.1253
  C  C159  1  0.712300  0.923500  0.383300  1.0  -0.1256
  C  C160  1  0.675200  0.987100  0.329100  1.0  0.1109
  C  C161  1  0.663400  0.958400  0.154700  1.0  0.678
  C  C162  1  0.649500  0.054000  0.345500  1.0  0.6837
  C  C163  1  0.828200  0.825500  0.907200  1.0  0.0738
  C  C164  1  0.846100  0.900200  0.895900  1.0  -0.113
  C  C165  1  0.906500  0.915800  0.946800  1.0  -0.1016
  C  C166  1  0.946800  0.855100  0.004700  1.0  -0.1212
  C  C167  1  0.925500  0.781600  0.012000  1.0  0.0707
  C  C168  1  0.763200  0.801100  0.853500  1.0  0.6835
  C  C169  1  0.965400  0.709800  0.070000  1.0  0.6763
  C  C170  1  0.184600  0.444500  0.238600  1.0  0.0811
  C  C171  1  0.225500  0.381500  0.292800  1.0  -0.1249
  C  C172  1  0.239400  0.370500  0.367200  1.0  -0.1253
  C  C173  1  0.212300  0.423500  0.383300  1.0  -0.1256
  C  C174  1  0.175200  0.487100  0.329100  1.0  0.1109
  C  C175  1  0.163400  0.458400  0.154700  1.0  0.678
  C  C176  1  0.149500  0.554000  0.345500  1.0  0.6837
  N  N177  1  0.366700  0.732600  0.464100  1.0  -0.5062
  N  N178  1  0.662000  0.002400  0.757600  1.0  -0.5116
  N  N179  1  0.866700  0.232600  0.464100  1.0  -0.5062
  N  N180  1  0.162000  0.502400  0.757600  1.0  -0.5116
  N  N181  1  0.633300  0.732600  0.035900  1.0  -0.5055
  N  N182  1  0.338000  0.002400  0.742400  1.0  -0.514
  N  N183  1  0.133300  0.232600  0.035900  1.0  -0.5055
  N  N184  1  0.838000  0.502400  0.742400  1.0  -0.514
  N  N185  1  0.633300  0.267400  0.535900  1.0  -0.505
  N  N186  1  0.338000  0.997600  0.242400  1.0  -0.5143
  N  N187  1  0.133300  0.767400  0.535900  1.0  -0.505
  N  N188  1  0.838000  0.497600  0.242400  1.0  -0.5143
  N  N189  1  0.366700  0.267400  0.964100  1.0  -0.5055
  N  N190  1  0.662000  0.997600  0.257600  1.0  -0.5112
  N  N191  1  0.866700  0.767400  0.964100  1.0  -0.5055
  N  N192  1  0.162000  0.497600  0.257600  1.0  -0.5112
  O  O193  1  0.253310  0.765800  0.373400  1.0  -0.6932
  O  O194  1  0.224200  0.651000  0.294400  1.0  -0.7059
  O  O195  1  0.440900  0.854900  0.569500  1.0  -0.7243
  O  O196  1  0.520170  0.783100  0.612500  1.0  -0.7756
  O  O197  1  0.634100  0.974000  0.617500  1.0  -0.7575
  O  O198  1  0.674600  0.097400  0.627100  1.0  -0.7401
  O  O199  1  0.622800  0.883500  0.795100  1.0  -0.7257
  O  O200  1  0.657600  0.953600  0.908400  1.0  -0.7894
  O  O201  1  0.753310  0.265800  0.373400  1.0  -0.6932
  O  O202  1  0.724200  0.151000  0.294400  1.0  -0.7059
  O  O203  1  0.940900  0.354900  0.569500  1.0  -0.7243
  O  O204  1  0.020170  0.283100  0.612500  1.0  -0.7756
  O  O205  1  0.134100  0.474000  0.617500  1.0  -0.7575
  O  O206  1  0.174600  0.597400  0.627100  1.0  -0.7401
  O  O207  1  0.122800  0.383500  0.795100  1.0  -0.7257
  O  O208  1  0.157600  0.453600  0.908400  1.0  -0.7894
  O  O209  1  0.746690  0.765800  0.126600  1.0  -0.6907
  O  O210  1  0.775800  0.651000  0.205600  1.0  -0.7065
  O  O211  1  0.559100  0.854900  0.930500  1.0  -0.7262
  O  O212  1  0.479830  0.783100  0.887500  1.0  -0.7759
  O  O213  1  0.365900  0.974000  0.882500  1.0  -0.7599
  O  O214  1  0.325400  0.097400  0.872900  1.0  -0.7409
  O  O215  1  0.377200  0.883500  0.704900  1.0  -0.7284
  O  O216  1  0.342400  0.953600  0.591600  1.0  -0.7867
  O  O217  1  0.246690  0.265800  0.126600  1.0  -0.6907
  O  O218  1  0.275800  0.151000  0.205600  1.0  -0.7065
  O  O219  1  0.059100  0.354900  0.930500  1.0  -0.7262
  O  O220  1  0.979830  0.283100  0.887500  1.0  -0.7759
  O  O221  1  0.865900  0.474000  0.882500  1.0  -0.7599
  O  O222  1  0.825400  0.597400  0.872900  1.0  -0.7409
  O  O223  1  0.877200  0.383500  0.704900  1.0  -0.7284
  O  O224  1  0.842400  0.453600  0.591600  1.0  -0.7867
  O  O225  1  0.746690  0.234200  0.626600  1.0  -0.6914
  O  O226  1  0.775800  0.349000  0.705600  1.0  -0.7054
  O  O227  1  0.559100  0.145100  0.430500  1.0  -0.7257
  O  O228  1  0.479830  0.216900  0.387500  1.0  -0.7761
  O  O229  1  0.365900  0.026000  0.382500  1.0  -0.7582
  O  O230  1  0.325400  0.902600  0.372900  1.0  -0.7414
  O  O231  1  0.377200  0.116500  0.204900  1.0  -0.7276
  O  O232  1  0.342400  0.046400  0.091600  1.0  -0.7872
  O  O233  1  0.246690  0.734200  0.626600  1.0  -0.6914
  O  O234  1  0.275800  0.849000  0.705600  1.0  -0.7054
  O  O235  1  0.059100  0.645100  0.430500  1.0  -0.7257
  O  O236  1  0.979830  0.716900  0.387500  1.0  -0.7761
  O  O237  1  0.865900  0.526000  0.382500  1.0  -0.7582
  O  O238  1  0.825400  0.402600  0.372900  1.0  -0.7414
  O  O239  1  0.877200  0.616500  0.204900  1.0  -0.7276
  O  O240  1  0.842400  0.546400  0.091600  1.0  -0.7872
  O  O241  1  0.253310  0.234200  0.873400  1.0  -0.6911
  O  O242  1  0.224200  0.349000  0.794400  1.0  -0.7052
  O  O243  1  0.440900  0.145100  0.069500  1.0  -0.724
  O  O244  1  0.520170  0.216900  0.112500  1.0  -0.7759
  O  O245  1  0.634100  0.026000  0.117500  1.0  -0.7594
  O  O246  1  0.674600  0.902600  0.127100  1.0  -0.7402
  O  O247  1  0.622800  0.116500  0.295100  1.0  -0.7276
  O  O248  1  0.657600  0.046400  0.408400  1.0  -0.7885
  O  O249  1  0.753310  0.734200  0.873400  1.0  -0.6911
  O  O250  1  0.724200  0.849000  0.794400  1.0  -0.7052
  O  O251  1  0.940900  0.645100  0.069500  1.0  -0.724
  O  O252  1  0.020170  0.716900  0.112500  1.0  -0.7759
  O  O253  1  0.134100  0.526000  0.117500  1.0  -0.7594
  O  O254  1  0.174600  0.402600  0.127100  1.0  -0.7402
  O  O255  1  0.122800  0.616500  0.295100  1.0  -0.7276
  O  O256  1  0.157600  0.546400  0.408400  1.0  -0.7885
