# generated using pymatgen
data_Al3P3HO13
_symmetry_space_group_name_H-M   'P 1'
_cell_length_a   10.28100000
_cell_length_b   13.84400000
_cell_length_c   17.06400000
_cell_angle_alpha   90.00000000
_cell_angle_beta   90.00000000
_cell_angle_gamma   90.00000000
_symmetry_Int_Tables_number   1
_chemical_formula_structural   Al3P3HO13
_chemical_formula_sum   'Al24 P24 H8 O104'
_cell_volume   2428.72191850
_cell_formula_units_Z   8
loop_
 _symmetry_equiv_pos_site_id
 _symmetry_equiv_pos_as_xyz
  1  'x, y, z'
loop_
 _atom_site_type_symbol
 _atom_site_label
 _atom_site_symmetry_multiplicity
 _atom_site_fract_x
 _atom_site_fract_y
 _atom_site_fract_z
 _atom_site_occupancy
 _atom_site_charge
  Al  Al1  1  0.329800  0.478900  0.198120  1.0  1.798
  Al  Al2  1  0.374900  0.561700  0.393440  1.0  1.8877
  Al  Al3  1  0.121900  0.241400  0.306320  1.0  2.0268
  Al  Al4  1  0.670200  0.021100  0.698120  1.0  1.7964
  Al  Al5  1  0.625100  0.938300  0.893440  1.0  1.8864
  Al  Al6  1  0.878100  0.258600  0.806320  1.0  2.0269
  Al  Al7  1  0.829800  0.521100  0.301880  1.0  1.7998
  Al  Al8  1  0.874900  0.438300  0.106560  1.0  1.8879
  Al  Al9  1  0.621900  0.758600  0.193680  1.0  2.0265
  Al  Al10  1  0.170200  0.978900  0.801880  1.0  1.7977
  Al  Al11  1  0.125100  0.061700  0.606560  1.0  1.8878
  Al  Al12  1  0.378100  0.741400  0.693680  1.0  2.0268
  Al  Al13  1  0.670200  0.521100  0.801880  1.0  1.7978
  Al  Al14  1  0.625100  0.438300  0.606560  1.0  1.8873
  Al  Al15  1  0.878100  0.758600  0.693680  1.0  2.0268
  Al  Al16  1  0.329800  0.978900  0.301880  1.0  1.7996
  Al  Al17  1  0.374900  0.061700  0.106560  1.0  1.888
  Al  Al18  1  0.121900  0.741400  0.193680  1.0  2.0265
  Al  Al19  1  0.170200  0.478900  0.698120  1.0  1.7966
  Al  Al20  1  0.125100  0.561700  0.893440  1.0  1.8872
  Al  Al21  1  0.378100  0.241400  0.806320  1.0  2.0269
  Al  Al22  1  0.829800  0.021100  0.198120  1.0  1.798
  Al  Al23  1  0.874900  0.938300  0.393440  1.0  1.8874
  Al  Al24  1  0.621900  0.258600  0.306320  1.0  2.0268
  P  P25  1  0.367600  0.253280  0.203870  1.0  1.9892
  P  P26  1  0.126300  0.460130  0.337110  1.0  1.9062
  P  P27  1  0.370700  0.566680  0.580270  1.0  1.9634
  P  P28  1  0.632400  0.246720  0.703870  1.0  1.9893
  P  P29  1  0.873700  0.039870  0.837110  1.0  1.9056
  P  P30  1  0.629300  0.933320  0.080270  1.0  1.964
  P  P31  1  0.867600  0.746720  0.296130  1.0  1.9897
  P  P32  1  0.626300  0.539870  0.162890  1.0  1.9051
  P  P33  1  0.870700  0.433320  0.919730  1.0  1.9641
  P  P34  1  0.132400  0.753280  0.796130  1.0  1.9892
  P  P35  1  0.373700  0.960130  0.662890  1.0  1.9052
  P  P36  1  0.129300  0.066680  0.419730  1.0  1.9641
  P  P37  1  0.632400  0.746720  0.796130  1.0  1.9897
  P  P38  1  0.873700  0.539870  0.662890  1.0  1.905
  P  P39  1  0.629300  0.433320  0.419730  1.0  1.9647
  P  P40  1  0.367600  0.753280  0.296130  1.0  1.9894
  P  P41  1  0.126300  0.960130  0.162890  1.0  1.9052
  P  P42  1  0.370700  0.066680  0.919730  1.0  1.964
  P  P43  1  0.132400  0.253280  0.703870  1.0  1.989
  P  P44  1  0.373700  0.460130  0.837110  1.0  1.9059
  P  P45  1  0.129300  0.566680  0.080270  1.0  1.9634
  P  P46  1  0.867600  0.246720  0.203870  1.0  1.9895
  P  P47  1  0.626300  0.039870  0.337110  1.0  1.9059
  P  P48  1  0.870700  0.933320  0.580270  1.0  1.9635
  H  H49  1  0.501900  0.529600  0.286200  1.0  0.3159
  H  H50  1  0.498100  0.970400  0.786200  1.0  0.3175
  H  H51  1  0.001900  0.470400  0.213800  1.0  0.3162
  H  H52  1  0.998100  0.029600  0.713800  1.0  0.3177
  H  H53  1  0.498100  0.470400  0.713800  1.0  0.3177
  H  H54  1  0.501900  0.029600  0.213800  1.0  0.3161
  H  H55  1  0.998100  0.529600  0.786200  1.0  0.3174
  H  H56  1  0.001900  0.970400  0.286200  1.0  0.3161
  O  O57  1  0.327000  0.353100  0.177400  1.0  -1.0076
  O  O58  1  0.118200  0.351200  0.355500  1.0  -0.9627
  O  O59  1  0.403600  0.518200  0.289200  1.0  -0.6173
  O  O60  1  0.358700  0.185700  0.135000  1.0  -0.9435
  O  O61  1  0.220400  0.502400  0.395900  1.0  -0.9134
  O  O62  1  0.168500  0.476300  0.253000  1.0  -0.7349
  O  O63  1  0.466700  0.483300  0.584500  1.0  -0.9685
  O  O64  1  0.422900  0.652900  0.627400  1.0  -0.9978
  O  O65  1  0.350200  0.599100  0.496700  1.0  -0.9273
  O  O66  1  0.239400  0.537500  0.614900  1.0  -0.9371
  O  O67  1  0.277900  0.219300  0.270300  1.0  -0.9924
  O  O68  1  0.994600  0.504700  0.351300  1.0  -0.8613
  O  O69  1  0.507600  0.255000  0.232500  1.0  -1.0223
  O  O70  1  0.673000  0.146900  0.677400  1.0  -1.0082
  O  O71  1  0.881800  0.148800  0.855500  1.0  -0.9619
  O  O72  1  0.596400  0.981800  0.789200  1.0  -0.616
  O  O73  1  0.641300  0.314300  0.635000  1.0  -0.9416
  O  O74  1  0.779600  0.997600  0.895900  1.0  -0.9132
  O  O75  1  0.831500  0.023700  0.753000  1.0  -0.7349
  O  O76  1  0.533300  0.016700  0.084500  1.0  -0.9713
  O  O77  1  0.577100  0.847100  0.127400  1.0  -0.9998
  O  O78  1  0.649800  0.900900  0.996700  1.0  -0.9271
  O  O79  1  0.760600  0.962500  0.114900  1.0  -0.9363
  O  O80  1  0.722100  0.280700  0.770300  1.0  -0.9922
  O  O81  1  0.005400  0.995300  0.851300  1.0  -0.8611
  O  O82  1  0.492400  0.245000  0.732500  1.0  -1.0227
  O  O83  1  0.827000  0.646900  0.322600  1.0  -1.0101
  O  O84  1  0.618200  0.648800  0.144500  1.0  -0.9607
  O  O85  1  0.903600  0.481800  0.210800  1.0  -0.6168
  O  O86  1  0.858700  0.814300  0.365000  1.0  -0.9429
  O  O87  1  0.720400  0.497600  0.104100  1.0  -0.9125
  O  O88  1  0.668500  0.523700  0.247000  1.0  -0.7352
  O  O89  1  0.966700  0.516700  0.915500  1.0  -0.9712
  O  O90  1  0.922900  0.347100  0.872600  1.0  -0.998
  O  O91  1  0.850200  0.400900  0.003300  1.0  -0.927
  O  O92  1  0.739400  0.462500  0.885100  1.0  -0.9399
  O  O93  1  0.777900  0.780700  0.229700  1.0  -0.9915
  O  O94  1  0.494600  0.495300  0.148700  1.0  -0.8628
  O  O95  1  0.007600  0.745000  0.267500  1.0  -1.0227
  O  O96  1  0.173000  0.853100  0.822600  1.0  -1.0093
  O  O97  1  0.381800  0.851200  0.644500  1.0  -0.9613
  O  O98  1  0.096400  0.018200  0.710800  1.0  -0.6157
  O  O99  1  0.141300  0.685700  0.865000  1.0  -0.9433
  O  O100  1  0.279600  0.002400  0.604100  1.0  -0.9127
  O  O101  1  0.331500  0.976300  0.747000  1.0  -0.7349
  O  O102  1  0.033300  0.983300  0.415500  1.0  -0.9696
  O  O103  1  0.077100  0.152900  0.372600  1.0  -0.9976
  O  O104  1  0.149800  0.099100  0.503300  1.0  -0.9277
  O  O105  1  0.260600  0.037500  0.385100  1.0  -0.9392
  O  O106  1  0.222100  0.719300  0.729700  1.0  -0.9915
  O  O107  1  0.505400  0.004700  0.648700  1.0  -0.8624
  O  O108  1  0.992400  0.755000  0.767500  1.0  -1.0221
  O  O109  1  0.673000  0.646900  0.822600  1.0  -1.0093
  O  O110  1  0.881800  0.648800  0.644500  1.0  -0.9609
  O  O111  1  0.596400  0.481800  0.710800  1.0  -0.6165
  O  O112  1  0.641300  0.814300  0.865000  1.0  -0.9423
  O  O113  1  0.779600  0.497600  0.604100  1.0  -0.9129
  O  O114  1  0.831500  0.523700  0.747000  1.0  -0.7349
  O  O115  1  0.533300  0.516700  0.415500  1.0  -0.9717
  O  O116  1  0.577100  0.347100  0.372600  1.0  -0.9984
  O  O117  1  0.649800  0.400900  0.503300  1.0  -0.9275
  O  O118  1  0.760600  0.462500  0.385100  1.0  -0.9386
  O  O119  1  0.722100  0.780700  0.729700  1.0  -0.9912
  O  O120  1  0.005400  0.495300  0.648700  1.0  -0.8627
  O  O121  1  0.492400  0.745000  0.767500  1.0  -1.0226
  O  O122  1  0.327000  0.853100  0.322600  1.0  -1.009
  O  O123  1  0.118200  0.851200  0.144500  1.0  -0.9613
  O  O124  1  0.403600  0.018200  0.210800  1.0  -0.6178
  O  O125  1  0.358700  0.685700  0.365000  1.0  -0.9441
  O  O126  1  0.220400  0.002400  0.104100  1.0  -0.9126
  O  O127  1  0.168500  0.976300  0.247000  1.0  -0.735
  O  O128  1  0.466700  0.983300  0.915500  1.0  -0.969
  O  O129  1  0.422900  0.152900  0.872600  1.0  -0.9973
  O  O130  1  0.350200  0.099100  0.003300  1.0  -0.9275
  O  O131  1  0.239400  0.037500  0.885100  1.0  -0.9395
  O  O132  1  0.277900  0.719300  0.229700  1.0  -0.9916
  O  O133  1  0.994600  0.004700  0.148700  1.0  -0.8627
  O  O134  1  0.507600  0.755000  0.267500  1.0  -1.022
  O  O135  1  0.173000  0.353100  0.677400  1.0  -1.0076
  O  O136  1  0.381800  0.351200  0.855500  1.0  -0.9628
  O  O137  1  0.096400  0.518200  0.789200  1.0  -0.616
  O  O138  1  0.141300  0.185700  0.635000  1.0  -0.9432
  O  O139  1  0.279600  0.502400  0.895900  1.0  -0.9134
  O  O140  1  0.331500  0.476300  0.753000  1.0  -0.7348
  O  O141  1  0.033300  0.483300  0.084500  1.0  -0.969
  O  O142  1  0.077100  0.652900  0.127400  1.0  -0.9984
  O  O143  1  0.149800  0.599100  0.996700  1.0  -0.9275
  O  O144  1  0.260600  0.537500  0.114900  1.0  -0.9362
  O  O145  1  0.222100  0.219300  0.770300  1.0  -0.9922
  O  O146  1  0.505400  0.504700  0.851300  1.0  -0.861
  O  O147  1  0.992400  0.255000  0.732500  1.0  -1.0222
  O  O148  1  0.827000  0.146900  0.177400  1.0  -1.0087
  O  O149  1  0.618200  0.148800  0.355500  1.0  -0.9621
  O  O150  1  0.903600  0.981800  0.289200  1.0  -0.6171
  O  O151  1  0.858700  0.314300  0.135000  1.0  -0.9421
  O  O152  1  0.720400  0.997600  0.395900  1.0  -0.9136
  O  O153  1  0.668500  0.023700  0.253000  1.0  -0.735
  O  O154  1  0.966700  0.016700  0.584500  1.0  -0.9709
  O  O155  1  0.922900  0.847100  0.627400  1.0  -0.9992
  O  O156  1  0.850200  0.900900  0.496700  1.0  -0.9266
  O  O157  1  0.739400  0.962500  0.614900  1.0  -0.937
  O  O158  1  0.777900  0.280700  0.270300  1.0  -0.9924
  O  O159  1  0.494600  0.995300  0.351300  1.0  -0.8613
  O  O160  1  0.007600  0.245000  0.232500  1.0  -1.0228
