# generated using pymatgen
data_Ag3P3H38C28N9O8
_symmetry_space_group_name_H-M   'P 1'
_cell_length_a   11.72710000
_cell_length_b   11.77070000
_cell_length_c   18.26330000
_cell_angle_alpha   90.00000000
_cell_angle_beta   98.70400000
_cell_angle_gamma   90.00000000
_symmetry_Int_Tables_number   1
_chemical_formula_structural   Ag3P3H38C28N9O8
_chemical_formula_sum   'Ag6 P6 H76 C56 N18 O16'
_cell_volume   2491.96259841
_cell_formula_units_Z   2
loop_
 _symmetry_equiv_pos_site_id
 _symmetry_equiv_pos_as_xyz
  1  'x, y, z'
loop_
 _atom_site_type_symbol
 _atom_site_label
 _atom_site_symmetry_multiplicity
 _atom_site_fract_x
 _atom_site_fract_y
 _atom_site_fract_z
 _atom_site_occupancy
 _atom_site_charge
  Ag  Ag1  1  0.355700  0.601520  0.015210  1.0  0.3257
  Ag  Ag2  1  0.359910  0.132280  0.504230  1.0  0.2835
  Ag  Ag3  1  0.878830  0.603070  0.922010  1.0  0.2579
  Ag  Ag4  1  0.644300  0.101520  0.984790  1.0  0.3271
  Ag  Ag5  1  0.640090  0.632280  0.495770  1.0  0.2808
  Ag  Ag6  1  0.121170  0.103070  0.077990  1.0  0.2546
  P  P7  1  0.144560  0.912040  0.114850  1.0  0.1675
  P  P8  1  0.595970  0.808690  0.440370  1.0  0.162
  P  P9  1  0.486550  0.714650  0.959080  1.0  0.2173
  P  P10  1  0.855440  0.412040  0.885150  1.0  0.1685
  P  P11  1  0.404030  0.308690  0.559630  1.0  0.1627
  P  P12  1  0.513450  0.214650  0.040920  1.0  0.2151
  H  H13  1  0.899800  0.772200  0.760300  1.0  0.1039
  H  H14  1  0.120200  0.449400  0.742200  1.0  0.0974
  H  H15  1  0.313800  0.853000  0.068000  1.0  0.1232
  H  H16  1  0.201900  0.815500  0.011800  1.0  0.1228
  H  H17  1  0.168600  0.912400  0.246900  1.0  0.1125
  H  H18  1  0.292400  0.912300  0.220100  1.0  0.1222
  H  H19  1  0.977800  0.812200  0.059100  1.0  0.1178
  H  H20  1  0.964600  0.845600  0.142400  1.0  0.1329
  H  H21  1  0.138900  0.566500  0.102900  1.0  0.0814
  H  H22  1  0.092100  0.651300  0.036800  1.0  0.0807
  H  H23  1  0.371300  0.747400  0.181600  1.0  0.0823
  H  H24  1  0.316300  0.625700  0.193100  1.0  0.0776
  H  H25  1  0.117700  0.622300  0.231300  1.0  0.0854
  H  H26  1  0.059000  0.742200  0.243000  1.0  0.0854
  H  H27  1  0.633400  0.075300  0.508500  1.0  0.0956
  H  H28  1  0.592200  0.154400  0.438400  1.0  0.0899
  H  H29  1  0.779800  0.874500  0.421100  1.0  0.1311
  H  H30  1  0.753300  0.916700  0.500100  1.0  0.1295
  H  H31  1  0.692500  0.969900  0.309100  1.0  0.0905
  H  H32  1  0.625800  0.087400  0.313500  1.0  0.0831
  H  H33  1  0.371600  0.962900  0.356900  1.0  0.0912
  H  H34  1  0.426300  0.084100  0.343700  1.0  0.0937
  H  H35  1  0.518500  0.913500  0.532500  1.0  0.124
  H  H36  1  0.416100  0.869700  0.471200  1.0  0.1262
  H  H37  1  0.461600  0.792900  0.329200  1.0  0.1089
  H  H38  1  0.590400  0.791700  0.309900  1.0  0.1213
  H  H39  1  0.751300  0.831400  0.002300  1.0  0.0976
  H  H40  1  0.781200  0.878400  0.925200  1.0  0.087
  H  H41  1  0.625900  0.576300  0.938800  1.0  0.1228
  H  H42  1  0.672400  0.648400  0.011600  1.0  0.1222
  H  H43  1  0.705400  0.765600  0.810300  1.0  0.0888
  H  H44  1  0.633600  0.652800  0.820800  1.0  0.0925
  H  H45  1  0.619000  0.949900  0.832400  1.0  0.0857
  H  H46  1  0.491900  0.955200  0.853600  1.0  0.081
  H  H47  1  0.564600  0.861700  0.036500  1.0  0.1325
  H  H48  1  0.460000  0.908300  0.977900  1.0  0.132
  H  H49  1  0.373900  0.787200  0.850700  1.0  0.1248
  H  H50  1  0.426800  0.666400  0.833300  1.0  0.1192
  H  H51  1  0.100200  0.272200  0.239700  1.0  0.1037
  H  H52  1  0.879800  0.949400  0.257800  1.0  0.0975
  H  H53  1  0.686200  0.353000  0.932000  1.0  0.1256
  H  H54  1  0.798100  0.315500  0.988200  1.0  0.1232
  H  H55  1  0.831400  0.412400  0.753100  1.0  0.1128
  H  H56  1  0.707600  0.412300  0.779900  1.0  0.1228
  H  H57  1  0.022200  0.312200  0.940900  1.0  0.1193
  H  H58  1  0.035400  0.345600  0.857600  1.0  0.1356
  H  H59  1  0.861100  0.066500  0.897100  1.0  0.0791
  H  H60  1  0.907900  0.151300  0.963200  1.0  0.0812
  H  H61  1  0.628700  0.247400  0.818400  1.0  0.0812
  H  H62  1  0.683700  0.125700  0.806900  1.0  0.0824
  H  H63  1  0.882300  0.122300  0.768700  1.0  0.0829
  H  H64  1  0.941000  0.242200  0.757000  1.0  0.085
  H  H65  1  0.366600  0.575300  0.491500  1.0  0.1027
  H  H66  1  0.407800  0.654400  0.561600  1.0  0.0896
  H  H67  1  0.220200  0.374500  0.578900  1.0  0.1307
  H  H68  1  0.246700  0.416700  0.499900  1.0  0.1243
  H  H69  1  0.307500  0.469900  0.690900  1.0  0.0907
  H  H70  1  0.374200  0.587400  0.686500  1.0  0.083
  H  H71  1  0.628400  0.462900  0.643100  1.0  0.0909
  H  H72  1  0.573700  0.584100  0.656300  1.0  0.0937
  H  H73  1  0.481500  0.413500  0.467500  1.0  0.1235
  H  H74  1  0.583900  0.369700  0.528800  1.0  0.1259
  H  H75  1  0.538400  0.292900  0.670800  1.0  0.1087
  H  H76  1  0.409600  0.291700  0.690100  1.0  0.1217
  H  H77  1  0.248700  0.331400  0.997700  1.0  0.098
  H  H78  1  0.218800  0.378400  0.074800  1.0  0.0888
  H  H79  1  0.374100  0.076300  0.061200  1.0  0.123
  H  H80  1  0.327600  0.148400  0.988400  1.0  0.1193
  H  H81  1  0.294600  0.265600  0.189700  1.0  0.0893
  H  H82  1  0.366400  0.152800  0.179200  1.0  0.0931
  H  H83  1  0.381000  0.449900  0.167600  1.0  0.0839
  H  H84  1  0.508100  0.455200  0.146400  1.0  0.0823
  H  H85  1  0.435400  0.361700  0.963500  1.0  0.1317
  H  H86  1  0.540000  0.408300  0.022100  1.0  0.1313
  H  H87  1  0.626100  0.287200  0.149300  1.0  0.13
  H  H88  1  0.573200  0.166400  0.166700  1.0  0.1196
  C  C89  1  0.099900  0.582200  0.808700  1.0  -0.1268
  C  C90  1  0.033100  0.679800  0.813700  1.0  -0.0717
  C  C91  1  0.943500  0.704900  0.757000  1.0  -0.0697
  C  C92  1  0.915300  0.633300  0.694600  1.0  -0.1093
  C  C93  1  0.984100  0.536000  0.688500  1.0  -0.0447
  C  C94  1  0.073800  0.514600  0.746100  1.0  -0.0801
  C  C95  1  0.193600  0.549400  0.870700  1.0  0.6523
  C  C96  1  0.055100  0.765500  0.877900  1.0  0.6641
  C  C97  1  0.967700  0.453200  0.625100  1.0  0.6466
  C  C98  1  0.815700  0.660600  0.636400  1.0  0.6559
  C  C99  1  0.235900  0.819000  0.064800  1.0  -0.195
  C  C100  1  0.214300  0.878300  0.211200  1.0  -0.1429
  C  C101  1  0.018800  0.815200  0.110600  1.0  -0.1479
  C  C102  1  0.129400  0.647700  0.089100  1.0  0.0981
  C  C103  1  0.298000  0.704400  0.176100  1.0  0.0777
  C  C104  1  0.109500  0.701400  0.212900  1.0  0.1113
  C  C105  1  0.602200  0.074400  0.455000  1.0  0.0563
  C  C106  1  0.719700  0.907600  0.447400  1.0  -0.1602
  C  C107  1  0.636300  0.010200  0.335100  1.0  0.109
  C  C108  1  0.444200  0.007200  0.364200  1.0  0.0714
  C  C109  1  0.493500  0.905200  0.478500  1.0  -0.1867
  C  C110  1  0.538400  0.829100  0.340500  1.0  -0.1857
  C  C111  1  0.721800  0.838700  0.948800  1.0  0.0646
  C  C112  1  0.632900  0.654000  0.959800  1.0  -0.2175
  C  C113  1  0.650100  0.730900  0.839600  1.0  0.0797
  C  C114  1  0.564200  0.910600  0.860000  1.0  0.1006
  C  C115  1  0.529800  0.859900  0.983600  1.0  -0.2338
  C  C116  1  0.444400  0.739800  0.859000  1.0  -0.1589
  C  C117  1  0.900100  0.082200  0.191300  1.0  -0.1262
  C  C118  1  0.966900  0.179800  0.186300  1.0  -0.0719
  C  C119  1  0.056500  0.204900  0.243000  1.0  -0.0698
  C  C120  1  0.084700  0.133300  0.305400  1.0  -0.1102
  C  C121  1  0.015900  0.036000  0.311500  1.0  -0.0463
  C  C122  1  0.926200  0.014600  0.253900  1.0  -0.0797
  C  C123  1  0.806400  0.049400  0.129300  1.0  0.6515
  C  C124  1  0.944900  0.265500  0.122100  1.0  0.6654
  C  C125  1  0.032300  0.953200  0.374900  1.0  0.6804
  C  C126  1  0.184300  0.160600  0.363600  1.0  0.6546
  C  C127  1  0.764100  0.319000  0.935200  1.0  -0.1918
  C  C128  1  0.785700  0.378300  0.788800  1.0  -0.1441
  C  C129  1  0.981200  0.315200  0.889400  1.0  -0.1454
  C  C130  1  0.870600  0.147700  0.910900  1.0  0.0971
  C  C131  1  0.702000  0.204400  0.823900  1.0  0.0788
  C  C132  1  0.890500  0.201400  0.787100  1.0  0.1109
  C  C133  1  0.397800  0.574400  0.545000  1.0  0.0587
  C  C134  1  0.280300  0.407600  0.552600  1.0  -0.1781
  C  C135  1  0.363700  0.510200  0.664900  1.0  0.1107
  C  C136  1  0.555800  0.507200  0.635800  1.0  0.0712
  C  C137  1  0.506500  0.405200  0.521500  1.0  -0.1873
  C  C138  1  0.461600  0.329100  0.659500  1.0  -0.1707
  C  C139  1  0.278200  0.338700  0.051200  1.0  0.0652
  C  C140  1  0.367100  0.154000  0.040200  1.0  -0.2168
  C  C141  1  0.349900  0.230900  0.160400  1.0  0.0804
  C  C142  1  0.435800  0.410600  0.140000  1.0  0.0992
  C  C143  1  0.470200  0.359900  0.016400  1.0  -0.2343
  C  C144  1  0.555600  0.239800  0.141000  1.0  -0.1578
  N  N145  1  0.246800  0.701600  0.095400  1.0  -0.1868
  N  N146  1  0.223100  0.755600  0.223500  1.0  -0.2937
  N  N147  1  0.053900  0.700300  0.135100  1.0  -0.3092
  N  N148  1  0.484800  0.017700  0.444800  1.0  -0.1757
  N  N149  1  0.686400  0.021000  0.415400  1.0  -0.2693
  N  N150  1  0.528300  0.951500  0.321100  1.0  -0.3213
  N  N151  1  0.612900  0.909400  0.939100  1.0  -0.1648
  N  N152  1  0.703500  0.724600  0.916400  1.0  -0.1777
  N  N153  1  0.539800  0.798600  0.827800  1.0  -0.3191
  N  N154  1  0.753200  0.201600  0.904600  1.0  -0.1861
  N  N155  1  0.776900  0.255600  0.776500  1.0  -0.2945
  N  N156  1  0.946100  0.200300  0.864900  1.0  -0.3081
  N  N157  1  0.515200  0.517700  0.555200  1.0  -0.1751
  N  N158  1  0.313600  0.521000  0.584600  1.0  -0.271
  N  N159  1  0.471700  0.451500  0.678900  1.0  -0.3229
  N  N160  1  0.387100  0.409400  0.060900  1.0  -0.1646
  N  N161  1  0.296500  0.224600  0.083600  1.0  -0.1803
  N  N162  1  0.460200  0.298600  0.172200  1.0  -0.3209
  O  O163  1  0.185300  0.581800  0.933600  1.0  -0.5609
  O  O164  1  0.274000  0.484000  0.855600  1.0  -0.6343
  O  O165  1  0.986200  0.762000  0.924200  1.0  -0.5841
  O  O166  1  0.128900  0.838700  0.874700  1.0  -0.5753
  O  O167  1  0.024100  0.469100  0.573000  1.0  -0.4671
  O  O168  1  0.905500  0.369200  0.631100  1.0  -0.5097
  O  O169  1  0.754700  0.747800  0.645100  1.0  -0.607
  O  O170  1  0.793800  0.594600  0.583500  1.0  -0.5295
  O  O171  1  0.814700  0.081800  0.066400  1.0  -0.5601
  O  O172  1  0.726000  0.984000  0.144400  1.0  -0.6325
  O  O173  1  0.013800  0.262000  0.075800  1.0  -0.5851
  O  O174  1  0.871100  0.338700  0.125300  1.0  -0.5738
  O  O175  1  0.975900  0.969100  0.427000  1.0  -0.4682
  O  O176  1  0.094500  0.869200  0.368900  1.0  -0.5138
  O  O177  1  0.245300  0.247800  0.354900  1.0  -0.6048
  O  O178  1  0.206200  0.094600  0.416500  1.0  -0.5296
