# generated using pymatgen
data_Zn3P4(HO3)4
_symmetry_space_group_name_H-M   'P 1'
_cell_length_a   9.53640000
_cell_length_b   21.80150000
_cell_length_c   9.11180000
_cell_angle_alpha   90.00000000
_cell_angle_beta   90.00000000
_cell_angle_gamma   90.00000000
_symmetry_Int_Tables_number   1
_chemical_formula_structural   Zn3P4(HO3)4
_chemical_formula_sum   'Zn12 P16 H16 O48'
_cell_volume   1894.41451619
_cell_formula_units_Z   4
loop_
 _symmetry_equiv_pos_site_id
 _symmetry_equiv_pos_as_xyz
  1  'x, y, z'
loop_
 _atom_site_type_symbol
 _atom_site_label
 _atom_site_symmetry_multiplicity
 _atom_site_fract_x
 _atom_site_fract_y
 _atom_site_fract_z
 _atom_site_occupancy
 _atom_site_charge
  Zn  Zn1  1  0.567700  0.548380  0.780340  1.0  1.1161
  Zn  Zn2  1  0.932300  0.951620  0.780340  1.0  1.1167
  Zn  Zn3  1  0.432300  0.048380  0.719660  1.0  1.1158
  Zn  Zn4  1  0.067700  0.451620  0.719660  1.0  1.1163
  Zn  Zn5  1  0.432300  0.451620  0.219660  1.0  1.1166
  Zn  Zn6  1  0.067700  0.048380  0.219660  1.0  1.1157
  Zn  Zn7  1  0.567700  0.951620  0.280340  1.0  1.1165
  Zn  Zn8  1  0.932300  0.548380  0.280340  1.0  1.1163
  Zn  Zn9  1  0.250000  0.750000  0.453770  1.0  1.1249
  Zn  Zn10  1  0.750000  0.250000  0.046230  1.0  1.125
  Zn  Zn11  1  0.750000  0.250000  0.546230  1.0  1.125
  Zn  Zn12  1  0.250000  0.750000  0.953770  1.0  1.1249
  P  P13  1  0.379810  0.664360  0.710810  1.0  1.6181
  P  P14  1  0.293270  0.500470  0.944010  1.0  1.5547
  P  P15  1  0.120190  0.835640  0.710810  1.0  1.6155
  P  P16  1  0.206730  0.999530  0.944010  1.0  1.5573
  P  P17  1  0.620190  0.164360  0.789190  1.0  1.6155
  P  P18  1  0.706730  0.000470  0.555990  1.0  1.553
  P  P19  1  0.879810  0.335640  0.789190  1.0  1.6183
  P  P20  1  0.793270  0.499530  0.555990  1.0  1.5582
  P  P21  1  0.620190  0.335640  0.289190  1.0  1.6159
  P  P22  1  0.706730  0.499530  0.055990  1.0  1.557
  P  P23  1  0.879810  0.164360  0.289190  1.0  1.6184
  P  P24  1  0.793270  0.000470  0.055990  1.0  1.5546
  P  P25  1  0.379810  0.835640  0.210810  1.0  1.618
  P  P26  1  0.293270  0.999530  0.444010  1.0  1.5586
  P  P27  1  0.120190  0.664360  0.210810  1.0  1.6151
  P  P28  1  0.206730  0.500470  0.444010  1.0  1.5534
  H  H29  1  0.277400  0.627300  0.751400  1.0  -0.0963
  H  H30  1  0.309900  0.552400  0.016500  1.0  -0.0864
  H  H31  1  0.222600  0.872700  0.751400  1.0  -0.0948
  H  H32  1  0.190100  0.947600  0.016500  1.0  -0.0869
  H  H33  1  0.722600  0.127300  0.748600  1.0  -0.0949
  H  H34  1  0.690100  0.052400  0.483500  1.0  -0.0872
  H  H35  1  0.777400  0.372700  0.748600  1.0  -0.0949
  H  H36  1  0.809900  0.447600  0.483500  1.0  -0.0864
  H  H37  1  0.722600  0.372700  0.248600  1.0  -0.0941
  H  H38  1  0.690100  0.447600  0.983500  1.0  -0.0869
  H  H39  1  0.777400  0.127300  0.248600  1.0  -0.0958
  H  H40  1  0.809900  0.052400  0.983500  1.0  -0.0869
  H  H41  1  0.277400  0.872700  0.251400  1.0  -0.0956
  H  H42  1  0.309900  0.947600  0.516500  1.0  -0.0865
  H  H43  1  0.222600  0.627300  0.251400  1.0  -0.0956
  H  H44  1  0.190100  0.552400  0.516500  1.0  -0.0867
  O  O45  1  0.346600  0.685610  0.556300  1.0  -0.8225
  O  O46  1  0.387300  0.714410  0.822000  1.0  -0.743
  O  O47  1  0.512100  0.625920  0.702200  1.0  -0.7577
  O  O48  1  0.413400  0.495680  0.835400  1.0  -0.8179
  O  O49  1  0.149700  0.502840  0.872300  1.0  -0.7645
  O  O50  1  0.299700  0.448500  0.056700  1.0  -0.7618
  O  O51  1  0.153400  0.814390  0.556300  1.0  -0.823
  O  O52  1  0.112700  0.785590  0.822000  1.0  -0.7456
  O  O53  1  0.987900  0.874080  0.702200  1.0  -0.7584
  O  O54  1  0.086600  0.004320  0.835400  1.0  -0.817
  O  O55  1  0.350300  0.997160  0.872300  1.0  -0.7663
  O  O56  1  0.200300  0.051500  0.056700  1.0  -0.7612
  O  O57  1  0.653400  0.185610  0.943700  1.0  -0.8237
  O  O58  1  0.612700  0.214410  0.678000  1.0  -0.7446
  O  O59  1  0.487900  0.125920  0.797800  1.0  -0.7583
  O  O60  1  0.586600  0.995680  0.664600  1.0  -0.8186
  O  O61  1  0.850300  0.002840  0.627700  1.0  -0.7667
  O  O62  1  0.700300  0.948500  0.443300  1.0  -0.7606
  O  O63  1  0.846600  0.314390  0.943700  1.0  -0.8226
  O  O64  1  0.887300  0.285590  0.678000  1.0  -0.7438
  O  O65  1  0.012100  0.374080  0.797800  1.0  -0.7571
  O  O66  1  0.913400  0.504320  0.664600  1.0  -0.8172
  O  O67  1  0.649700  0.497160  0.627700  1.0  -0.7648
  O  O68  1  0.799700  0.551500  0.443300  1.0  -0.7614
  O  O69  1  0.653400  0.314390  0.443700  1.0  -0.8231
  O  O70  1  0.612700  0.285590  0.178000  1.0  -0.7454
  O  O71  1  0.487900  0.374080  0.297800  1.0  -0.758
  O  O72  1  0.586600  0.504320  0.164600  1.0  -0.818
  O  O73  1  0.850300  0.497160  0.127700  1.0  -0.7666
  O  O74  1  0.700300  0.551500  0.943300  1.0  -0.7605
  O  O75  1  0.846600  0.185610  0.443700  1.0  -0.8232
  O  O76  1  0.887300  0.214410  0.178000  1.0  -0.7429
  O  O77  1  0.012100  0.125920  0.297800  1.0  -0.7572
  O  O78  1  0.913400  0.995680  0.164600  1.0  -0.8181
  O  O79  1  0.649700  0.002840  0.127700  1.0  -0.7651
  O  O80  1  0.799700  0.948500  0.943300  1.0  -0.7608
  O  O81  1  0.346600  0.814390  0.056300  1.0  -0.8222
  O  O82  1  0.387300  0.785590  0.322000  1.0  -0.7428
  O  O83  1  0.512100  0.874080  0.202200  1.0  -0.7578
  O  O84  1  0.413400  0.004320  0.335400  1.0  -0.8167
  O  O85  1  0.149700  0.997160  0.372300  1.0  -0.7643
  O  O86  1  0.299700  0.051500  0.556700  1.0  -0.7621
  O  O87  1  0.153400  0.685610  0.056300  1.0  -0.8232
  O  O88  1  0.112700  0.714410  0.322000  1.0  -0.7446
  O  O89  1  0.987900  0.625920  0.202200  1.0  -0.7587
  O  O90  1  0.086600  0.495680  0.335400  1.0  -0.818
  O  O91  1  0.350300  0.502840  0.372300  1.0  -0.7663
  O  O92  1  0.200300  0.448500  0.556700  1.0  -0.7616
