# generated using pymatgen
data_Lu3H9W12C21N3O43
_symmetry_space_group_name_H-M   'P 1'
_cell_length_a   16.63080000
_cell_length_b   16.63080000
_cell_length_c   51.16400000
_cell_angle_alpha   90.00000000
_cell_angle_beta   90.00000000
_cell_angle_gamma   120.00000000
_symmetry_Int_Tables_number   1
_chemical_formula_structural   Lu3H9W12C21N3O43
_chemical_formula_sum   'Lu18 H54 W72 C126 N18 O258'
_cell_volume   12255.22823079
_cell_formula_units_Z   6
loop_
 _symmetry_equiv_pos_site_id
 _symmetry_equiv_pos_as_xyz
  1  'x, y, z'
loop_
 _atom_site_type_symbol
 _atom_site_label
 _atom_site_symmetry_multiplicity
 _atom_site_fract_x
 _atom_site_fract_y
 _atom_site_fract_z
 _atom_site_occupancy
 _atom_site_charge
  Lu  Lu1  1  0.772560  0.656820  0.172780  1.0  1.6845
  Lu  Lu2  1  0.439230  0.990150  0.506120  1.0  1.6845
  Lu  Lu3  1  0.105890  0.323490  0.839450  1.0  1.689
  Lu  Lu4  1  0.343180  0.115740  0.172780  1.0  1.6883
  Lu  Lu5  1  0.009850  0.449070  0.506120  1.0  1.6883
  Lu  Lu6  1  0.676510  0.782410  0.839450  1.0  1.6698
  Lu  Lu7  1  0.884260  0.227440  0.172780  1.0  1.6691
  Lu  Lu8  1  0.550930  0.560770  0.506120  1.0  1.6691
  Lu  Lu9  1  0.217590  0.894110  0.839450  1.0  1.6844
  Lu  Lu10  1  0.343180  0.227440  0.672780  1.0  1.6842
  Lu  Lu11  1  0.009850  0.560770  0.006120  1.0  1.6842
  Lu  Lu12  1  0.676510  0.894110  0.339450  1.0  1.6886
  Lu  Lu13  1  0.884260  0.656820  0.672780  1.0  1.6886
  Lu  Lu14  1  0.550930  0.990150  0.006120  1.0  1.6886
  Lu  Lu15  1  0.217590  0.323490  0.339450  1.0  1.6699
  Lu  Lu16  1  0.772560  0.115740  0.672780  1.0  1.671
  Lu  Lu17  1  0.439230  0.449070  0.006120  1.0  1.671
  Lu  Lu18  1  0.105890  0.782410  0.339450  1.0  1.685
  H  H19  1  0.595600  0.831600  0.051700  1.0  0.1215
  H  H20  1  0.723300  0.836500  0.114100  1.0  0.0963
  H  H21  1  0.631200  0.612500  0.067700  1.0  0.118
  H  H22  1  0.262270  0.164930  0.385030  1.0  0.1215
  H  H23  1  0.389970  0.169830  0.447430  1.0  0.0936
  H  H24  1  0.297870  0.945830  0.401030  1.0  0.1172
  H  H25  1  0.928930  0.498270  0.718370  1.0  0.1215
  H  H26  1  0.056630  0.503170  0.780770  1.0  0.0963
  H  H27  1  0.964530  0.279170  0.734370  1.0  0.118
  H  H28  1  0.168400  0.764000  0.051700  1.0  0.1234
  H  H29  1  0.163500  0.886800  0.114100  1.0  0.0937
  H  H30  1  0.387500  0.018700  0.067700  1.0  0.1168
  H  H31  1  0.835070  0.097330  0.385030  1.0  0.1234
  H  H32  1  0.830170  0.220130  0.447430  1.0  0.0933
  H  H33  1  0.054170  0.352030  0.401030  1.0  0.1166
  H  H34  1  0.501730  0.430670  0.718370  1.0  0.1234
  H  H35  1  0.496830  0.553470  0.780770  1.0  0.0937
  H  H36  1  0.720830  0.685370  0.734370  1.0  0.1168
  H  H37  1  0.236000  0.404400  0.051700  1.0  0.1219
  H  H38  1  0.113200  0.276700  0.114100  1.0  0.091
  H  H39  1  0.981300  0.368800  0.067700  1.0  0.1147
  H  H40  1  0.902670  0.737730  0.385030  1.0  0.1219
  H  H41  1  0.779870  0.610030  0.447430  1.0  0.091
  H  H42  1  0.647970  0.702130  0.401030  1.0  0.1157
  H  H43  1  0.569330  0.071070  0.718370  1.0  0.1219
  H  H44  1  0.446530  0.943370  0.780770  1.0  0.091
  H  H45  1  0.314630  0.035470  0.734370  1.0  0.1147
  H  H46  1  0.168400  0.404400  0.551700  1.0  0.1214
  H  H47  1  0.163500  0.276700  0.614100  1.0  0.0947
  H  H48  1  0.387500  0.368800  0.567700  1.0  0.117
  H  H49  1  0.835070  0.737730  0.885030  1.0  0.1214
  H  H50  1  0.830170  0.610030  0.947430  1.0  0.092
  H  H51  1  0.054170  0.702130  0.901030  1.0  0.1161
  H  H52  1  0.501730  0.071070  0.218370  1.0  0.1214
  H  H53  1  0.496830  0.943370  0.280770  1.0  0.0947
  H  H54  1  0.720830  0.035470  0.234370  1.0  0.117
  H  H55  1  0.236000  0.831600  0.551700  1.0  0.1222
  H  H56  1  0.113200  0.836500  0.614100  1.0  0.0932
  H  H57  1  0.981300  0.612500  0.567700  1.0  0.1179
  H  H58  1  0.902670  0.164930  0.885030  1.0  0.1222
  H  H59  1  0.779870  0.169830  0.947430  1.0  0.093
  H  H60  1  0.647970  0.945830  0.901030  1.0  0.1174
  H  H61  1  0.569330  0.498270  0.218370  1.0  0.1222
  H  H62  1  0.446530  0.503170  0.280770  1.0  0.0932
  H  H63  1  0.314630  0.279170  0.234370  1.0  0.1179
  H  H64  1  0.595600  0.764000  0.551700  1.0  0.1232
  H  H65  1  0.723300  0.886800  0.614100  1.0  0.0927
  H  H66  1  0.631200  0.018700  0.567700  1.0  0.1155
  H  H67  1  0.262270  0.097330  0.885030  1.0  0.1232
  H  H68  1  0.389970  0.220130  0.947430  1.0  0.0929
  H  H69  1  0.297870  0.352030  0.901030  1.0  0.117
  H  H70  1  0.928930  0.430670  0.218370  1.0  0.1231
  H  H71  1  0.056630  0.553470  0.280770  1.0  0.0927
  H  H72  1  0.964530  0.685370  0.234370  1.0  0.1155
  W  W73  1  0.525410  0.639510  0.172420  1.0  2.4113
  W  W74  1  0.291410  0.439150  0.168370  1.0  1.3842
  W  W75  1  0.392460  0.591670  0.111610  1.0  1.5433
  W  W76  1  0.480070  0.731750  0.222880  1.0  1.3789
  W  W77  1  0.192080  0.972840  0.505750  1.0  2.4113
  W  W78  1  0.958080  0.772480  0.501700  1.0  1.3842
  W  W79  1  0.059130  0.925000  0.444940  1.0  1.5433
  W  W80  1  0.146740  0.065080  0.556210  1.0  1.3789
  W  W81  1  0.858740  0.306180  0.839090  1.0  2.4113
  W  W82  1  0.624740  0.105820  0.835040  1.0  1.3842
  W  W83  1  0.725790  0.258340  0.778280  1.0  1.535
  W  W84  1  0.813400  0.398420  0.889550  1.0  1.3777
  W  W85  1  0.360490  0.885900  0.172420  1.0  2.4134
  W  W86  1  0.560850  0.852260  0.168370  1.0  1.3884
  W  W87  1  0.408330  0.800790  0.111610  1.0  1.5506
  W  W88  1  0.268250  0.748320  0.222880  1.0  1.3776
  W  W89  1  0.027160  0.219230  0.505750  1.0  2.4134
  W  W90  1  0.227520  0.185590  0.501700  1.0  1.3884
  W  W91  1  0.075000  0.134120  0.444940  1.0  1.5506
  W  W92  1  0.934920  0.081650  0.556210  1.0  1.3776
  W  W93  1  0.693820  0.552570  0.839090  1.0  2.4135
  W  W94  1  0.894180  0.518930  0.835040  1.0  1.3884
  W  W95  1  0.741660  0.467460  0.778280  1.0  1.5506
  W  W96  1  0.601580  0.414990  0.889550  1.0  1.3764
  W  W97  1  0.114100  0.474590  0.172420  1.0  2.4134
  W  W98  1  0.147740  0.708590  0.168370  1.0  1.3795
  W  W99  1  0.199210  0.607540  0.111610  1.0  1.5436
  W  W100  1  0.251680  0.519930  0.222880  1.0  1.3779
  W  W101  1  0.780770  0.807920  0.505750  1.0  2.4134
  W  W102  1  0.814410  0.041920  0.501700  1.0  1.3792
  W  W103  1  0.865880  0.940870  0.444940  1.0  1.5436
  W  W104  1  0.918350  0.853260  0.556210  1.0  1.3779
  W  W105  1  0.447430  0.141260  0.839090  1.0  2.4134
  W  W106  1  0.481070  0.375260  0.835040  1.0  1.3793
  W  W107  1  0.532540  0.274210  0.778280  1.0  1.5436
  W  W108  1  0.585010  0.186600  0.889550  1.0  1.3766
  W  W109  1  0.360490  0.474590  0.672420  1.0  2.4125
  W  W110  1  0.560850  0.708590  0.668370  1.0  1.3797
  W  W111  1  0.408330  0.607540  0.611610  1.0  1.5439
  W  W112  1  0.268250  0.519930  0.722880  1.0  1.3786
  W  W113  1  0.027160  0.807920  0.005750  1.0  2.4125
  W  W114  1  0.227520  0.041920  0.001700  1.0  1.3796
  W  W115  1  0.075000  0.940870  0.944940  1.0  1.5439
  W  W116  1  0.934920  0.853260  0.056210  1.0  1.3786
  W  W117  1  0.693820  0.141260  0.339090  1.0  2.4124
  W  W118  1  0.894180  0.375260  0.335040  1.0  1.3797
  W  W119  1  0.741660  0.274210  0.278280  1.0  1.5356
  W  W120  1  0.601580  0.186600  0.389550  1.0  1.3774
  W  W121  1  0.114100  0.639510  0.672420  1.0  2.4133
  W  W122  1  0.147740  0.439150  0.668370  1.0  1.3842
  W  W123  1  0.199210  0.591670  0.611610  1.0  1.5438
  W  W124  1  0.251680  0.731750  0.722880  1.0  1.3767
  W  W125  1  0.780770  0.972840  0.005750  1.0  2.4133
  W  W126  1  0.814410  0.772480  0.001700  1.0  1.3842
  W  W127  1  0.865880  0.925000  0.944940  1.0  1.5438
  W  W128  1  0.918350  0.065080  0.056210  1.0  1.3767
  W  W129  1  0.447430  0.306180  0.339090  1.0  2.4134
  W  W130  1  0.481070  0.105820  0.335040  1.0  1.3842
  W  W131  1  0.532540  0.258340  0.278280  1.0  1.5438
  W  W132  1  0.585010  0.398420  0.389550  1.0  1.3755
  W  W133  1  0.525410  0.885900  0.672420  1.0  2.4111
  W  W134  1  0.291410  0.852260  0.668370  1.0  1.3889
  W  W135  1  0.392460  0.800790  0.611610  1.0  1.5508
  W  W136  1  0.480070  0.748320  0.722880  1.0  1.3793
  W  W137  1  0.192080  0.219230  0.005750  1.0  2.4111
  W  W138  1  0.958080  0.185590  0.001700  1.0  1.3887
  W  W139  1  0.059130  0.134120  0.944940  1.0  1.5508
  W  W140  1  0.146740  0.081650  0.056210  1.0  1.3793
  W  W141  1  0.858740  0.552570  0.339090  1.0  2.4111
  W  W142  1  0.624740  0.518930  0.335040  1.0  1.3888
  W  W143  1  0.725790  0.467460  0.278280  1.0  1.5508
  W  W144  1  0.813400  0.414990  0.389550  1.0  1.378
  C  C145  1  0.683500  0.714400  0.094300  1.0  -0.0492
  C  C146  1  0.604200  0.712500  0.054300  1.0  -0.1121
  C  C147  1  0.719000  0.665200  0.111500  1.0  0.6809
  C  C148  1  0.550700  0.661500  0.030900  1.0  0.693
  C  C149  1  0.617800  0.799400  0.062300  1.0  0.1563
  C  C150  1  0.693200  0.797800  0.099300  1.0  0.1177
  C  C151  1  0.639000  0.670500  0.071800  1.0  -0.0654
  C  C152  1  0.350170  0.047730  0.427630  1.0  -0.0492
  C  C153  1  0.270870  0.045830  0.387630  1.0  -0.1121
  C  C154  1  0.385670  0.998530  0.444830  1.0  0.6809
  C  C155  1  0.217370  0.994830  0.364230  1.0  0.693
  C  C156  1  0.284470  0.132730  0.395630  1.0  0.1564
  C  C157  1  0.359870  0.131130  0.432630  1.0  0.1177
  C  C158  1  0.305670  0.003830  0.405130  1.0  -0.0654
  C  C159  1  0.016830  0.381070  0.760970  1.0  -0.0492
  C  C160  1  0.937530  0.379170  0.720970  1.0  -0.1121
  C  C161  1  0.052330  0.331870  0.778170  1.0  0.6809
  C  C162  1  0.884030  0.328170  0.697570  1.0  0.693
  C  C163  1  0.951130  0.466070  0.728970  1.0  0.1563
  C  C164  1  0.026530  0.464470  0.765970  1.0  0.1177
  C  C165  1  0.972330  0.337170  0.738470  1.0  -0.0654
  C  C166  1  0.285600  0.969100  0.094300  1.0  -0.0436
  C  C167  1  0.287500  0.891700  0.054300  1.0  -0.1115
  C  C168  1  0.334800  0.053800  0.111500  1.0  0.6849
  C  C169  1  0.338500  0.889200  0.030900  1.0  0.6917
  C  C170  1  0.200600  0.818400  0.062300  1.0  0.1585
  C  C171  1  0.202200  0.895400  0.099300  1.0  0.1195
  C  C172  1  0.329500  0.968500  0.071800  1.0  -0.0669
  C  C173  1  0.952270  0.302430  0.427630  1.0  -0.0436
  C  C174  1  0.954170  0.225030  0.387630  1.0  -0.1115
  C  C175  1  0.001470  0.387130  0.444830  1.0  0.6849
  C  C176  1  0.005170  0.222530  0.364230  1.0  0.6917
  C  C177  1  0.867270  0.151730  0.395630  1.0  0.1585
  C  C178  1  0.868870  0.228730  0.432630  1.0  0.1195
  C  C179  1  0.996170  0.301830  0.405130  1.0  -0.0669
  C  C180  1  0.618930  0.635770  0.760970  1.0  -0.0437
  C  C181  1  0.620830  0.558370  0.720970  1.0  -0.1115
  C  C182  1  0.668130  0.720470  0.778170  1.0  0.6849
  C  C183  1  0.671830  0.555870  0.697570  1.0  0.6917
  C  C184  1  0.533930  0.485070  0.728970  1.0  0.1585
  C  C185  1  0.535530  0.562070  0.765970  1.0  0.1195
  C  C186  1  0.662830  0.635170  0.738470  1.0  -0.0669
  C  C187  1  0.030900  0.316500  0.094300  1.0  -0.0499
  C  C188  1  0.108300  0.395800  0.054300  1.0  -0.1105
  C  C189  1  0.946200  0.281000  0.111500  1.0  0.6808
  C  C190  1  0.110800  0.449300  0.030900  1.0  0.6937
  C  C191  1  0.181600  0.382200  0.062300  1.0  0.1578
  C  C192  1  0.104600  0.306800  0.099300  1.0  0.119
  C  C193  1  0.031500  0.361000  0.071800  1.0  -0.0684
  C  C194  1  0.697570  0.649830  0.427630  1.0  -0.05
  C  C195  1  0.774970  0.729130  0.387630  1.0  -0.1105
  C  C196  1  0.612870  0.614330  0.444830  1.0  0.6808
  C  C197  1  0.777470  0.782630  0.364230  1.0  0.6937
  C  C198  1  0.848270  0.715530  0.395630  1.0  0.1576
  C  C199  1  0.771270  0.640130  0.432630  1.0  0.1191
  C  C200  1  0.698170  0.694330  0.405130  1.0  -0.0684
  C  C201  1  0.364230  0.983170  0.760970  1.0  -0.0499
  C  C202  1  0.441630  0.062470  0.720970  1.0  -0.1105
  C  C203  1  0.279530  0.947670  0.778170  1.0  0.6808
  C  C204  1  0.444130  0.115970  0.697570  1.0  0.6937
  C  C205  1  0.514930  0.048870  0.728970  1.0  0.1578
  C  C206  1  0.437930  0.973470  0.765970  1.0  0.119
  C  C207  1  0.364830  0.027670  0.738470  1.0  -0.0684
  C  C208  1  0.285600  0.316500  0.594300  1.0  -0.0504
  C  C209  1  0.287500  0.395800  0.554300  1.0  -0.1111
  C  C210  1  0.334800  0.281000  0.611500  1.0  0.6808
  C  C211  1  0.338500  0.449300  0.530900  1.0  0.6924
  C  C212  1  0.200600  0.382200  0.562300  1.0  0.1571
  C  C213  1  0.202200  0.306800  0.599300  1.0  0.1191
  C  C214  1  0.329500  0.361000  0.571800  1.0  -0.0661
  C  C215  1  0.952270  0.649830  0.927630  1.0  -0.0504
  C  C216  1  0.954170  0.729130  0.887630  1.0  -0.1112
  C  C217  1  0.001470  0.614330  0.944830  1.0  0.6808
  C  C218  1  0.005170  0.782630  0.864230  1.0  0.6924
  C  C219  1  0.867270  0.715530  0.895630  1.0  0.157
  C  C220  1  0.868870  0.640130  0.932630  1.0  0.1191
  C  C221  1  0.996170  0.694330  0.905130  1.0  -0.0661
  C  C222  1  0.618930  0.983170  0.260970  1.0  -0.0504
  C  C223  1  0.620830  0.062470  0.220970  1.0  -0.1111
  C  C224  1  0.668130  0.947670  0.278170  1.0  0.6808
  C  C225  1  0.671830  0.115970  0.197570  1.0  0.6924
  C  C226  1  0.533930  0.048870  0.228970  1.0  0.1571
  C  C227  1  0.535530  0.973470  0.265970  1.0  0.1191
  C  C228  1  0.662830  0.027670  0.238470  1.0  -0.0661
  C  C229  1  0.030900  0.714400  0.594300  1.0  -0.0486
  C  C230  1  0.108300  0.712500  0.554300  1.0  -0.1126
  C  C231  1  0.946200  0.665200  0.611500  1.0  0.6807
  C  C232  1  0.110800  0.661500  0.530900  1.0  0.6909
  C  C233  1  0.181600  0.799400  0.562300  1.0  0.157
  C  C234  1  0.104600  0.797800  0.599300  1.0  0.1181
  C  C235  1  0.031500  0.670500  0.571800  1.0  -0.0647
  C  C236  1  0.697570  0.047730  0.927630  1.0  -0.0486
  C  C237  1  0.774970  0.045830  0.887630  1.0  -0.1126
  C  C238  1  0.612870  0.998530  0.944830  1.0  0.6807
  C  C239  1  0.777470  0.994830  0.864230  1.0  0.691
  C  C240  1  0.848270  0.132730  0.895630  1.0  0.157
  C  C241  1  0.771270  0.131130  0.932630  1.0  0.1181
  C  C242  1  0.698170  0.003830  0.905130  1.0  -0.0647
  C  C243  1  0.364230  0.381070  0.260970  1.0  -0.0485
  C  C244  1  0.441630  0.379170  0.220970  1.0  -0.1126
  C  C245  1  0.279530  0.331870  0.278170  1.0  0.6807
  C  C246  1  0.444130  0.328170  0.197570  1.0  0.6909
  C  C247  1  0.514930  0.466070  0.228970  1.0  0.157
  C  C248  1  0.437930  0.464470  0.265970  1.0  0.1181
  C  C249  1  0.364830  0.337170  0.238470  1.0  -0.0647
  C  C250  1  0.683500  0.969100  0.594300  1.0  -0.0433
  C  C251  1  0.604200  0.891700  0.554300  1.0  -0.1101
  C  C252  1  0.719000  0.053800  0.611500  1.0  0.6845
  C  C253  1  0.550700  0.889200  0.530900  1.0  0.6954
  C  C254  1  0.617800  0.818400  0.562300  1.0  0.1583
  C  C255  1  0.693200  0.895400  0.599300  1.0  0.1202
  C  C256  1  0.639000  0.968500  0.571800  1.0  -0.0654
  C  C257  1  0.350170  0.302430  0.927630  1.0  -0.0431
  C  C258  1  0.270870  0.225030  0.887630  1.0  -0.1101
  C  C259  1  0.385670  0.387130  0.944830  1.0  0.6846
  C  C260  1  0.217370  0.222530  0.864230  1.0  0.6954
  C  C261  1  0.284470  0.151730  0.895630  1.0  0.1582
  C  C262  1  0.359870  0.228730  0.932630  1.0  0.1202
  C  C263  1  0.305670  0.301830  0.905130  1.0  -0.0654
  C  C264  1  0.016830  0.635770  0.260970  1.0  -0.0433
  C  C265  1  0.937530  0.558370  0.220970  1.0  -0.1101
  C  C266  1  0.052330  0.720470  0.278170  1.0  0.6845
  C  C267  1  0.884030  0.555870  0.197570  1.0  0.6954
  C  C268  1  0.951130  0.485070  0.228970  1.0  0.1583
  C  C269  1  0.026530  0.562070  0.265970  1.0  0.1202
  C  C270  1  0.972330  0.635170  0.238470  1.0  -0.0654
  N  N271  1  0.662600  0.838500  0.084800  1.0  -0.3661
  N  N272  1  0.329270  0.171830  0.418130  1.0  -0.366
  N  N273  1  0.995930  0.505170  0.751470  1.0  -0.3661
  N  N274  1  0.161500  0.824100  0.084800  1.0  -0.3697
  N  N275  1  0.828170  0.157430  0.418130  1.0  -0.3697
  N  N276  1  0.494830  0.490770  0.751470  1.0  -0.3697
  N  N277  1  0.175900  0.337400  0.084800  1.0  -0.3738
  N  N278  1  0.842570  0.670730  0.418130  1.0  -0.3739
  N  N279  1  0.509230  0.004070  0.751470  1.0  -0.3738
  N  N280  1  0.161500  0.337400  0.584800  1.0  -0.3695
  N  N281  1  0.828170  0.670730  0.918130  1.0  -0.3695
  N  N282  1  0.494830  0.004070  0.251470  1.0  -0.3695
  N  N283  1  0.175900  0.838500  0.584800  1.0  -0.3689
  N  N284  1  0.842570  0.171830  0.918130  1.0  -0.3689
  N  N285  1  0.509230  0.505170  0.251470  1.0  -0.3689
  N  N286  1  0.662600  0.824100  0.584800  1.0  -0.3705
  N  N287  1  0.329270  0.157430  0.918130  1.0  -0.3705
  N  N288  1  0.995930  0.490770  0.251470  1.0  -0.3705
  O  O289  1  0.422300  0.527600  0.176500  1.0  -0.7537
  O  O290  1  0.613200  0.611100  0.168900  1.0  -0.7602
  O  O291  1  0.612300  0.773500  0.163400  1.0  -0.6938
  O  O292  1  0.262700  0.550600  0.179200  1.0  -0.8666
  O  O293  1  0.487600  0.633600  0.134800  1.0  -0.7282
  O  O294  1  0.528100  0.580200  0.029500  1.0  -0.7046
  O  O295  1  0.754100  0.707700  0.133700  1.0  -0.6575
  O  O296  1  0.275000  0.429700  0.206000  1.0  -0.642
  O  O297  1  0.319000  0.487600  0.133700  1.0  -0.6979
  O  O298  1  0.393800  0.770700  0.225600  1.0  -0.6857
  O  O299  1  0.440000  0.710100  0.095500  1.0  -0.6925
  O  O300  1  0.533400  0.703900  0.014500  1.0  -0.3886
  O  O301  1  0.717700  0.594200  0.104400  1.0  -0.4088
  O  O302  1  0.547900  0.669100  0.208100  1.0  -0.7282
  O  O303  1  0.088970  0.860930  0.509830  1.0  -0.7537
  O  O304  1  0.279870  0.944430  0.502230  1.0  -0.7602
  O  O305  1  0.278970  0.106830  0.496730  1.0  -0.6938
  O  O306  1  0.929370  0.883930  0.512530  1.0  -0.8666
  O  O307  1  0.154270  0.966930  0.468130  1.0  -0.7282
  O  O308  1  0.194770  0.913530  0.362830  1.0  -0.7046
  O  O309  1  0.420770  0.041030  0.467030  1.0  -0.6575
  O  O310  1  0.941670  0.763030  0.539330  1.0  -0.642
  O  O311  1  0.985670  0.820930  0.467030  1.0  -0.6979
  O  O312  1  0.060470  0.104030  0.558930  1.0  -0.6857
  O  O313  1  0.106670  0.043430  0.428830  1.0  -0.6925
  O  O314  1  0.200070  0.037230  0.347830  1.0  -0.4123
  O  O315  1  0.384370  0.927530  0.437730  1.0  -0.4088
  O  O316  1  0.214570  0.002430  0.541430  1.0  -0.7282
  O  O317  1  0.755630  0.194270  0.843170  1.0  -0.7537
  O  O318  1  0.946530  0.277770  0.835570  1.0  -0.7602
  O  O319  1  0.945630  0.440170  0.830070  1.0  -0.6938
  O  O320  1  0.596030  0.217270  0.845870  1.0  -0.8666
  O  O321  1  0.820930  0.300270  0.801470  1.0  -0.7282
  O  O322  1  0.861430  0.246870  0.696170  1.0  -0.7047
  O  O323  1  0.087430  0.374370  0.800370  1.0  -0.6576
  O  O324  1  0.608330  0.096370  0.872670  1.0  -0.6419
  O  O325  1  0.652330  0.154270  0.800370  1.0  -0.6979
  O  O326  1  0.727130  0.437370  0.892270  1.0  -0.6693
  O  O327  1  0.773330  0.376770  0.762170  1.0  -0.6925
  O  O328  1  0.866730  0.370570  0.681170  1.0  -0.3886
  O  O329  1  0.051030  0.260870  0.771070  1.0  -0.4338
  O  O330  1  0.881230  0.335770  0.874770  1.0  -0.7285
  O  O331  1  0.472400  0.894700  0.176500  1.0  -0.7577
  O  O332  1  0.388900  0.002100  0.168900  1.0  -0.7664
  O  O333  1  0.226500  0.838800  0.163400  1.0  -0.6912
  O  O334  1  0.449400  0.712100  0.179200  1.0  -0.8666
  O  O335  1  0.366400  0.854000  0.134800  1.0  -0.7333
  O  O336  1  0.419800  0.947900  0.029500  1.0  -0.7148
  O  O337  1  0.292300  0.046400  0.133700  1.0  -0.6589
  O  O338  1  0.570300  0.845300  0.206000  1.0  -0.6412
  O  O339  1  0.512400  0.831400  0.133700  1.0  -0.6978
  O  O340  1  0.229300  0.623100  0.225600  1.0  -0.678
  O  O341  1  0.289900  0.729900  0.095500  1.0  -0.692
  O  O342  1  0.296100  0.829500  0.014500  1.0  -0.4141
  O  O343  1  0.405800  0.123500  0.104400  1.0  -0.4345
  O  O344  1  0.330900  0.878800  0.208100  1.0  -0.7279
  O  O345  1  0.139070  0.228030  0.509830  1.0  -0.7577
  O  O346  1  0.055570  0.335430  0.502230  1.0  -0.7664
  O  O347  1  0.893170  0.172130  0.496730  1.0  -0.6912
  O  O348  1  0.116070  0.045430  0.512530  1.0  -0.8666
  O  O349  1  0.033070  0.187330  0.468130  1.0  -0.7333
  O  O350  1  0.086470  0.281230  0.362830  1.0  -0.7148
  O  O351  1  0.958970  0.379730  0.467030  1.0  -0.6588
  O  O352  1  0.236970  0.178630  0.539330  1.0  -0.6412
  O  O353  1  0.179070  0.164730  0.467030  1.0  -0.6977
  O  O354  1  0.895970  0.956430  0.558930  1.0  -0.678
  O  O355  1  0.956570  0.063230  0.428830  1.0  -0.692
  O  O356  1  0.962770  0.162830  0.347830  1.0  -0.3932
  O  O357  1  0.072470  0.456830  0.437730  1.0  -0.4345
  O  O358  1  0.997570  0.212130  0.541430  1.0  -0.7279
  O  O359  1  0.805730  0.561370  0.843170  1.0  -0.7577
  O  O360  1  0.722230  0.668770  0.835570  1.0  -0.7664
  O  O361  1  0.559830  0.505470  0.830070  1.0  -0.6912
  O  O362  1  0.782730  0.378770  0.845870  1.0  -0.8666
  O  O363  1  0.699730  0.520670  0.801470  1.0  -0.7333
  O  O364  1  0.753130  0.614570  0.696170  1.0  -0.7149
  O  O365  1  0.625630  0.713070  0.800370  1.0  -0.6589
  O  O366  1  0.903630  0.511970  0.872670  1.0  -0.6409
  O  O367  1  0.845730  0.498070  0.800370  1.0  -0.6976
  O  O368  1  0.562630  0.289770  0.892270  1.0  -0.678
  O  O369  1  0.623230  0.396570  0.762170  1.0  -0.692
  O  O370  1  0.629430  0.496170  0.681170  1.0  -0.4141
  O  O371  1  0.739130  0.790170  0.771070  1.0  -0.4382
  O  O372  1  0.664230  0.545470  0.874770  1.0  -0.7282
  O  O373  1  0.105300  0.577700  0.176500  1.0  -0.753
  O  O374  1  0.997900  0.386800  0.168900  1.0  -0.7622
  O  O375  1  0.161200  0.387700  0.163400  1.0  -0.6901
  O  O376  1  0.287900  0.737300  0.179200  1.0  -0.8674
  O  O377  1  0.146000  0.512400  0.134800  1.0  -0.7286
  O  O378  1  0.052100  0.471900  0.029500  1.0  -0.7157
  O  O379  1  0.953600  0.245900  0.133700  1.0  -0.6602
  O  O380  1  0.154700  0.725000  0.206000  1.0  -0.6429
  O  O381  1  0.168600  0.681000  0.133700  1.0  -0.6948
  O  O382  1  0.376900  0.606200  0.225600  1.0  -0.6769
  O  O383  1  0.270100  0.560000  0.095500  1.0  -0.6927
  O  O384  1  0.170500  0.466600  0.014500  1.0  -0.4109
  O  O385  1  0.876500  0.282300  0.104400  1.0  -0.4373
  O  O386  1  0.121200  0.452100  0.208100  1.0  -0.7294
  O  O387  1  0.771970  0.911030  0.509830  1.0  -0.753
  O  O388  1  0.664570  0.720130  0.502230  1.0  -0.7622
  O  O389  1  0.827870  0.721030  0.496730  1.0  -0.6901
  O  O390  1  0.954570  0.070630  0.512530  1.0  -0.8674
  O  O391  1  0.812670  0.845730  0.468130  1.0  -0.7286
  O  O392  1  0.718770  0.805230  0.362830  1.0  -0.7158
  O  O393  1  0.620270  0.579230  0.467030  1.0  -0.6602
  O  O394  1  0.821370  0.058330  0.539330  1.0  -0.6429
  O  O395  1  0.835270  0.014330  0.467030  1.0  -0.6949
  O  O396  1  0.043570  0.939530  0.558930  1.0  -0.6769
  O  O397  1  0.936770  0.893330  0.428830  1.0  -0.6928
  O  O398  1  0.837170  0.799930  0.347830  1.0  -0.4138
  O  O399  1  0.543170  0.615630  0.437730  1.0  -0.4373
  O  O400  1  0.787870  0.785430  0.541430  1.0  -0.7294
  O  O401  1  0.438630  0.244370  0.843170  1.0  -0.753
  O  O402  1  0.331230  0.053470  0.835570  1.0  -0.7622
  O  O403  1  0.494530  0.054370  0.830070  1.0  -0.6901
  O  O404  1  0.621230  0.403970  0.845870  1.0  -0.8674
  O  O405  1  0.479330  0.179070  0.801470  1.0  -0.7286
  O  O406  1  0.385430  0.138570  0.696170  1.0  -0.7158
  O  O407  1  0.286930  0.912570  0.800370  1.0  -0.6602
  O  O408  1  0.488030  0.391670  0.872670  1.0  -0.6429
  O  O409  1  0.501930  0.347670  0.800370  1.0  -0.6949
  O  O410  1  0.710230  0.272870  0.892270  1.0  -0.6834
  O  O411  1  0.603430  0.226670  0.762170  1.0  -0.6927
  O  O412  1  0.503830  0.133270  0.681170  1.0  -0.4109
  O  O413  1  0.209830  0.948970  0.771070  1.0  -0.4152
  O  O414  1  0.454530  0.118770  0.874770  1.0  -0.7297
  O  O415  1  0.472400  0.577700  0.676500  1.0  -0.7516
  O  O416  1  0.388900  0.386800  0.668900  1.0  -0.7604
  O  O417  1  0.226500  0.387700  0.663400  1.0  -0.6901
  O  O418  1  0.449400  0.737300  0.679200  1.0  -0.8671
  O  O419  1  0.366400  0.512400  0.634800  1.0  -0.7277
  O  O420  1  0.419800  0.471900  0.529500  1.0  -0.7157
  O  O421  1  0.292300  0.245900  0.633700  1.0  -0.6594
  O  O422  1  0.570300  0.725000  0.706000  1.0  -0.6416
  O  O423  1  0.512400  0.681000  0.633700  1.0  -0.6943
  O  O424  1  0.229300  0.606200  0.725600  1.0  -0.6855
  O  O425  1  0.289900  0.560000  0.595500  1.0  -0.6927
  O  O426  1  0.296100  0.466600  0.514500  1.0  -0.3883
  O  O427  1  0.405800  0.282300  0.604400  1.0  -0.4101
  O  O428  1  0.330900  0.452100  0.708100  1.0  -0.7294
  O  O429  1  0.139070  0.911030  0.009830  1.0  -0.7516
  O  O430  1  0.055570  0.720130  0.002230  1.0  -0.7604
  O  O431  1  0.893170  0.721030  0.996730  1.0  -0.6901
  O  O432  1  0.116070  0.070630  0.012530  1.0  -0.8671
  O  O433  1  0.033070  0.845730  0.968130  1.0  -0.7277
  O  O434  1  0.086470  0.805230  0.862830  1.0  -0.7157
  O  O435  1  0.958970  0.579230  0.967030  1.0  -0.6595
  O  O436  1  0.236970  0.058330  0.039330  1.0  -0.6416
  O  O437  1  0.179070  0.014330  0.967030  1.0  -0.6942
  O  O438  1  0.895970  0.939530  0.058930  1.0  -0.6855
  O  O439  1  0.956570  0.893330  0.928830  1.0  -0.6928
  O  O440  1  0.962770  0.799930  0.847830  1.0  -0.4114
  O  O441  1  0.072470  0.615630  0.937730  1.0  -0.4101
  O  O442  1  0.997570  0.785430  0.041430  1.0  -0.7294
  O  O443  1  0.805730  0.244370  0.343170  1.0  -0.7516
  O  O444  1  0.722230  0.053470  0.335570  1.0  -0.7604
  O  O445  1  0.559830  0.054370  0.330070  1.0  -0.6901
  O  O446  1  0.782730  0.403970  0.345870  1.0  -0.8671
  O  O447  1  0.699730  0.179070  0.301470  1.0  -0.7277
  O  O448  1  0.753130  0.138570  0.196170  1.0  -0.7158
  O  O449  1  0.625630  0.912570  0.300370  1.0  -0.6594
  O  O450  1  0.903630  0.391670  0.372670  1.0  -0.6415
  O  O451  1  0.845730  0.347670  0.300370  1.0  -0.6942
  O  O452  1  0.562630  0.272870  0.392270  1.0  -0.6688
  O  O453  1  0.623230  0.226670  0.262170  1.0  -0.6927
  O  O454  1  0.629430  0.133270  0.181170  1.0  -0.3883
  O  O455  1  0.739130  0.948970  0.271070  1.0  -0.4342
  O  O456  1  0.664230  0.118770  0.374770  1.0  -0.7297
  O  O457  1  0.105300  0.527600  0.676500  1.0  -0.7551
  O  O458  1  0.997900  0.611100  0.668900  1.0  -0.7621
  O  O459  1  0.161200  0.773500  0.663400  1.0  -0.6933
  O  O460  1  0.287900  0.550600  0.679200  1.0  -0.867
  O  O461  1  0.146000  0.633600  0.634800  1.0  -0.7293
  O  O462  1  0.052100  0.580200  0.529500  1.0  -0.7055
  O  O463  1  0.953600  0.707700  0.633700  1.0  -0.6595
  O  O464  1  0.154700  0.429700  0.706000  1.0  -0.6421
  O  O465  1  0.168600  0.487600  0.633700  1.0  -0.6979
  O  O466  1  0.376900  0.770700  0.725600  1.0  -0.6776
  O  O467  1  0.270100  0.710100  0.595500  1.0  -0.6929
  O  O468  1  0.170500  0.703900  0.514500  1.0  -0.4141
  O  O469  1  0.876500  0.594200  0.604400  1.0  -0.4337
  O  O470  1  0.121200  0.669100  0.708100  1.0  -0.7259
  O  O471  1  0.771970  0.860930  0.009830  1.0  -0.7551
  O  O472  1  0.664570  0.944430  0.002230  1.0  -0.7621
  O  O473  1  0.827870  0.106830  0.996730  1.0  -0.6933
  O  O474  1  0.954570  0.883930  0.012530  1.0  -0.867
  O  O475  1  0.812670  0.966930  0.968130  1.0  -0.7293
  O  O476  1  0.718770  0.913530  0.862830  1.0  -0.7055
  O  O477  1  0.620270  0.041030  0.967030  1.0  -0.6594
  O  O478  1  0.821370  0.763030  0.039330  1.0  -0.6421
  O  O479  1  0.835270  0.820930  0.967030  1.0  -0.6978
  O  O480  1  0.043570  0.104030  0.058930  1.0  -0.6776
  O  O481  1  0.936770  0.043430  0.928830  1.0  -0.6929
  O  O482  1  0.837170  0.037230  0.847830  1.0  -0.3928
  O  O483  1  0.543170  0.927530  0.937730  1.0  -0.4337
  O  O484  1  0.787870  0.002430  0.041430  1.0  -0.7259
  O  O485  1  0.438630  0.194270  0.343170  1.0  -0.7551
  O  O486  1  0.331230  0.277770  0.335570  1.0  -0.7621
  O  O487  1  0.494530  0.440170  0.330070  1.0  -0.6933
  O  O488  1  0.621230  0.217270  0.345870  1.0  -0.867
  O  O489  1  0.479330  0.300270  0.301470  1.0  -0.7293
  O  O490  1  0.385430  0.246870  0.196170  1.0  -0.7055
  O  O491  1  0.286930  0.374370  0.300370  1.0  -0.6595
  O  O492  1  0.488030  0.096370  0.372670  1.0  -0.6419
  O  O493  1  0.501930  0.154270  0.300370  1.0  -0.6977
  O  O494  1  0.710230  0.437370  0.392270  1.0  -0.6777
  O  O495  1  0.603430  0.376770  0.262170  1.0  -0.6929
  O  O496  1  0.503830  0.370570  0.181170  1.0  -0.4141
  O  O497  1  0.209830  0.260870  0.271070  1.0  -0.4374
  O  O498  1  0.454530  0.335770  0.374770  1.0  -0.7261
  O  O499  1  0.422300  0.894700  0.676500  1.0  -0.7582
  O  O500  1  0.613200  0.002100  0.668900  1.0  -0.7656
  O  O501  1  0.612300  0.838800  0.663400  1.0  -0.6915
  O  O502  1  0.262700  0.712100  0.679200  1.0  -0.8673
  O  O503  1  0.487600  0.854000  0.634800  1.0  -0.7333
  O  O504  1  0.528100  0.947900  0.529500  1.0  -0.7144
  O  O505  1  0.754100  0.046400  0.633700  1.0  -0.6582
  O  O506  1  0.275000  0.845300  0.706000  1.0  -0.642
  O  O507  1  0.319000  0.831400  0.633700  1.0  -0.6979
  O  O508  1  0.393800  0.623100  0.725600  1.0  -0.6772
  O  O509  1  0.440000  0.729900  0.595500  1.0  -0.6919
  O  O510  1  0.533400  0.829500  0.514500  1.0  -0.4114
  O  O511  1  0.717700  0.123500  0.604400  1.0  -0.4377
  O  O512  1  0.547900  0.878800  0.708100  1.0  -0.7292
  O  O513  1  0.088970  0.228030  0.009830  1.0  -0.7582
  O  O514  1  0.279870  0.335430  0.002230  1.0  -0.7656
  O  O515  1  0.278970  0.172130  0.996730  1.0  -0.6915
  O  O516  1  0.929370  0.045430  0.012530  1.0  -0.8673
  O  O517  1  0.154270  0.187330  0.968130  1.0  -0.7333
  O  O518  1  0.194770  0.281230  0.862830  1.0  -0.7145
  O  O519  1  0.420770  0.379730  0.967030  1.0  -0.6582
  O  O520  1  0.941670  0.178630  0.039330  1.0  -0.642
  O  O521  1  0.985670  0.164730  0.967030  1.0  -0.6979
  O  O522  1  0.060470  0.956430  0.058930  1.0  -0.6772
  O  O523  1  0.106670  0.063230  0.928830  1.0  -0.692
  O  O524  1  0.200070  0.162830  0.847830  1.0  -0.4147
  O  O525  1  0.384370  0.456830  0.937730  1.0  -0.4377
  O  O526  1  0.214570  0.212130  0.041430  1.0  -0.7292
  O  O527  1  0.755630  0.561370  0.343170  1.0  -0.7582
  O  O528  1  0.946530  0.668770  0.335570  1.0  -0.7656
  O  O529  1  0.945630  0.505470  0.330070  1.0  -0.6915
  O  O530  1  0.596030  0.378770  0.345870  1.0  -0.8673
  O  O531  1  0.820930  0.520670  0.301470  1.0  -0.7333
  O  O532  1  0.861430  0.614570  0.196170  1.0  -0.7145
  O  O533  1  0.087430  0.713070  0.300370  1.0  -0.6582
  O  O534  1  0.608330  0.511970  0.372670  1.0  -0.642
  O  O535  1  0.652330  0.498070  0.300370  1.0  -0.6979
  O  O536  1  0.727130  0.289770  0.392270  1.0  -0.6836
  O  O537  1  0.773330  0.396570  0.262170  1.0  -0.6919
  O  O538  1  0.866730  0.496170  0.181170  1.0  -0.4114
  O  O539  1  0.051030  0.790170  0.271070  1.0  -0.4164
  O  O540  1  0.881230  0.545470  0.374770  1.0  -0.7295
  O  O541  1  0.333333  0.666667  0.133700  1.0  -1.0218
  O  O542  1  0.000000  0.000000  0.467030  1.0  -1.022
  O  O543  1  0.666667  0.333333  0.800370  1.0  -1.022
  O  O544  1  0.333333  0.666667  0.633700  1.0  -1.0218
  O  O545  1  0.000000  0.000000  0.967030  1.0  -1.022
  O  O546  1  0.666667  0.333333  0.300370  1.0  -1.022
