# generated using pymatgen
data_Yb3H9W12C21N3O43
_symmetry_space_group_name_H-M   'P 1'
_cell_length_a   16.66060000
_cell_length_b   16.66060000
_cell_length_c   51.31600000
_cell_angle_alpha   90.00000000
_cell_angle_beta   90.00000000
_cell_angle_gamma   120.00000000
_symmetry_Int_Tables_number   1
_chemical_formula_structural   Yb3H9W12C21N3O43
_chemical_formula_sum   'Yb18 H54 W72 C126 N18 O258'
_cell_volume   12335.72569174
_cell_formula_units_Z   6
loop_
 _symmetry_equiv_pos_site_id
 _symmetry_equiv_pos_as_xyz
  1  'x, y, z'
loop_
 _atom_site_type_symbol
 _atom_site_label
 _atom_site_symmetry_multiplicity
 _atom_site_fract_x
 _atom_site_fract_y
 _atom_site_fract_z
 _atom_site_occupancy
 _atom_site_charge
  Yb  Yb1  1  0.116300  0.771590  0.079540  1.0  1.5463
  Yb  Yb2  1  0.782970  0.104920  0.412880  1.0  1.5463
  Yb  Yb3  1  0.449630  0.438260  0.746210  1.0  1.5514
  Yb  Yb4  1  0.228410  0.344710  0.079540  1.0  1.541
  Yb  Yb5  1  0.895080  0.678040  0.412880  1.0  1.5411
  Yb  Yb6  1  0.561740  0.011380  0.746210  1.0  1.5407
  Yb  Yb7  1  0.655290  0.883700  0.079540  1.0  1.5436
  Yb  Yb8  1  0.321960  0.217030  0.412880  1.0  1.5437
  Yb  Yb9  1  0.988620  0.550370  0.746210  1.0  1.5448
  Yb  Yb10  1  0.228410  0.883700  0.579540  1.0  1.5442
  Yb  Yb11  1  0.895080  0.217030  0.912880  1.0  1.5442
  Yb  Yb12  1  0.561740  0.550370  0.246210  1.0  1.5498
  Yb  Yb13  1  0.655290  0.771590  0.579540  1.0  1.5441
  Yb  Yb14  1  0.321960  0.104920  0.912880  1.0  1.5443
  Yb  Yb15  1  0.988620  0.438260  0.246210  1.0  1.5432
  Yb  Yb16  1  0.116300  0.344710  0.579540  1.0  1.5427
  Yb  Yb17  1  0.782970  0.678040  0.912880  1.0  1.5427
  Yb  Yb18  1  0.449630  0.011380  0.246210  1.0  1.5434
  H  H19  1  0.498000  0.069300  0.972700  1.0  0.0498
  H  H20  1  0.272100  0.952100  0.016400  1.0  0.1275
  H  H21  1  0.498400  0.932700  0.032800  1.0  0.1504
  H  H22  1  0.164670  0.402630  0.306030  1.0  0.0498
  H  H23  1  0.938770  0.285430  0.349730  1.0  0.1275
  H  H24  1  0.165070  0.266030  0.366130  1.0  0.1504
  H  H25  1  0.831330  0.735970  0.639370  1.0  0.0498
  H  H26  1  0.605430  0.618770  0.683070  1.0  0.1275
  H  H27  1  0.831730  0.599370  0.699470  1.0  0.1504
  H  H28  1  0.930700  0.428700  0.972700  1.0  0.0528
  H  H29  1  0.047900  0.320000  0.016400  1.0  0.1295
  H  H30  1  0.067300  0.565700  0.032800  1.0  0.1545
  H  H31  1  0.597370  0.762030  0.306030  1.0  0.0528
  H  H32  1  0.714570  0.653330  0.349730  1.0  0.1295
  H  H33  1  0.733970  0.899030  0.366130  1.0  0.1545
  H  H34  1  0.264030  0.095370  0.639370  1.0  0.0528
  H  H35  1  0.381230  0.986670  0.683070  1.0  0.1295
  H  H36  1  0.400630  0.232370  0.699470  1.0  0.1545
  H  H37  1  0.571300  0.502000  0.972700  1.0  0.0511
  H  H38  1  0.680000  0.727900  0.016400  1.0  0.1293
  H  H39  1  0.434300  0.501600  0.032800  1.0  0.1506
  H  H40  1  0.237970  0.835330  0.306030  1.0  0.0511
  H  H41  1  0.346670  0.061230  0.349730  1.0  0.1293
  H  H42  1  0.100970  0.834930  0.366130  1.0  0.1506
  H  H43  1  0.904630  0.168670  0.639370  1.0  0.0511
  H  H44  1  0.013330  0.394570  0.683070  1.0  0.1293
  H  H45  1  0.767630  0.168270  0.699470  1.0  0.1506
  H  H46  1  0.930700  0.502000  0.472700  1.0  0.0508
  H  H47  1  0.047900  0.727900  0.516400  1.0  0.1294
  H  H48  1  0.067300  0.501600  0.532800  1.0  0.1505
  H  H49  1  0.597370  0.835330  0.806030  1.0  0.0508
  H  H50  1  0.714570  0.061230  0.849730  1.0  0.1294
  H  H51  1  0.733970  0.834930  0.866130  1.0  0.1505
  H  H52  1  0.264030  0.168670  0.139370  1.0  0.0508
  H  H53  1  0.381230  0.394570  0.183070  1.0  0.1294
  H  H54  1  0.400630  0.168270  0.199470  1.0  0.1505
  H  H55  1  0.571300  0.069300  0.472700  1.0  0.0501
  H  H56  1  0.680000  0.952100  0.516400  1.0  0.1286
  H  H57  1  0.434300  0.932700  0.532800  1.0  0.1503
  H  H58  1  0.237970  0.402630  0.806030  1.0  0.0501
  H  H59  1  0.346670  0.285430  0.849730  1.0  0.1286
  H  H60  1  0.100970  0.266030  0.866130  1.0  0.1503
  H  H61  1  0.904630  0.735970  0.139370  1.0  0.0501
  H  H62  1  0.013330  0.618770  0.183070  1.0  0.1286
  H  H63  1  0.767630  0.599370  0.199470  1.0  0.1503
  H  H64  1  0.498000  0.428700  0.472700  1.0  0.0525
  H  H65  1  0.272100  0.320000  0.516400  1.0  0.1292
  H  H66  1  0.498400  0.565700  0.532800  1.0  0.1543
  H  H67  1  0.164670  0.762030  0.806030  1.0  0.0525
  H  H68  1  0.938770  0.653330  0.849730  1.0  0.1292
  H  H69  1  0.165070  0.899030  0.866130  1.0  0.1543
  H  H70  1  0.831330  0.095370  0.139370  1.0  0.0525
  H  H71  1  0.605430  0.986670  0.183070  1.0  0.1292
  H  H72  1  0.831730  0.232370  0.199470  1.0  0.1543
  W  W73  1  0.748420  0.479970  0.029760  1.0  1.3581
  W  W74  1  0.709200  0.560750  0.084000  1.0  1.3771
  W  W75  1  0.885540  0.524900  0.079940  1.0  2.4088
  W  W76  1  0.800180  0.392080  0.140600  1.0  1.5298
  W  W77  1  0.415090  0.813300  0.363090  1.0  1.3581
  W  W78  1  0.375870  0.894080  0.417330  1.0  1.3771
  W  W79  1  0.552210  0.858230  0.413270  1.0  2.4088
  W  W80  1  0.466850  0.725410  0.473940  1.0  1.5294
  W  W81  1  0.081750  0.146640  0.696420  1.0  1.3579
  W  W82  1  0.042530  0.227420  0.750660  1.0  1.3692
  W  W83  1  0.218870  0.191570  0.746610  1.0  2.4088
  W  W84  1  0.133510  0.058750  0.807270  1.0  1.5297
  W  W85  1  0.520030  0.268450  0.029760  1.0  1.3589
  W  W86  1  0.439250  0.148450  0.084000  1.0  1.3705
  W  W87  1  0.475100  0.360640  0.079940  1.0  2.4105
  W  W88  1  0.607920  0.408100  0.140600  1.0  1.5289
  W  W89  1  0.186700  0.601780  0.363090  1.0  1.3589
  W  W90  1  0.105920  0.481780  0.417330  1.0  1.3705
  W  W91  1  0.141770  0.693970  0.413270  1.0  2.4105
  W  W92  1  0.274590  0.741430  0.473940  1.0  1.5286
  W  W93  1  0.853360  0.935120  0.696420  1.0  1.3587
  W  W94  1  0.772580  0.815120  0.750660  1.0  1.3631
  W  W95  1  0.808430  0.027310  0.746610  1.0  2.4105
  W  W96  1  0.941250  0.074770  0.807270  1.0  1.5289
  W  W97  1  0.731550  0.251580  0.029760  1.0  1.3576
  W  W98  1  0.851550  0.290800  0.084000  1.0  1.3654
  W  W99  1  0.639360  0.114460  0.079940  1.0  2.4085
  W  W100  1  0.591900  0.199820  0.140600  1.0  1.5294
  W  W101  1  0.398220  0.584910  0.363090  1.0  1.3576
  W  W102  1  0.518220  0.624130  0.417330  1.0  1.3655
  W  W103  1  0.306030  0.447790  0.413270  1.0  2.4085
  W  W104  1  0.258570  0.533150  0.473940  1.0  1.5295
  W  W105  1  0.064880  0.918250  0.696420  1.0  1.3574
  W  W106  1  0.184880  0.957470  0.750660  1.0  1.3567
  W  W107  1  0.972690  0.781130  0.746610  1.0  2.4085
  W  W108  1  0.925230  0.866490  0.807270  1.0  1.5294
  W  W109  1  0.520030  0.251580  0.529760  1.0  1.3588
  W  W110  1  0.439250  0.290800  0.584000  1.0  1.366
  W  W111  1  0.475100  0.114460  0.579940  1.0  2.4096
  W  W112  1  0.607920  0.199820  0.640600  1.0  1.529
  W  W113  1  0.186700  0.584910  0.863090  1.0  1.3588
  W  W114  1  0.105920  0.624130  0.917330  1.0  1.366
  W  W115  1  0.141770  0.447790  0.913270  1.0  2.4096
  W  W116  1  0.274590  0.533150  0.973940  1.0  1.5287
  W  W117  1  0.853360  0.918250  0.196420  1.0  1.3586
  W  W118  1  0.772580  0.957470  0.250660  1.0  1.3574
  W  W119  1  0.808430  0.781130  0.246610  1.0  2.4096
  W  W120  1  0.941250  0.866490  0.307270  1.0  1.5289
  W  W121  1  0.731550  0.479970  0.529760  1.0  1.3582
  W  W122  1  0.851550  0.560750  0.584000  1.0  1.3779
  W  W123  1  0.639360  0.524900  0.579940  1.0  2.4114
  W  W124  1  0.591900  0.392080  0.640600  1.0  1.5289
  W  W125  1  0.398220  0.813300  0.863090  1.0  1.3582
  W  W126  1  0.518220  0.894080  0.917330  1.0  1.3779
  W  W127  1  0.306030  0.858230  0.913270  1.0  2.4114
  W  W128  1  0.258570  0.725410  0.973940  1.0  1.5285
  W  W129  1  0.064880  0.146640  0.196420  1.0  1.358
  W  W130  1  0.184880  0.227420  0.250660  1.0  1.37
  W  W131  1  0.972690  0.191570  0.246610  1.0  2.4114
  W  W132  1  0.925230  0.058750  0.307270  1.0  1.5289
  W  W133  1  0.748420  0.268450  0.529760  1.0  1.3574
  W  W134  1  0.709200  0.148450  0.584000  1.0  1.3689
  W  W135  1  0.885540  0.360640  0.579940  1.0  2.4078
  W  W136  1  0.800180  0.408100  0.640600  1.0  1.5293
  W  W137  1  0.415090  0.601780  0.863090  1.0  1.3574
  W  W138  1  0.375870  0.481780  0.917330  1.0  1.3689
  W  W139  1  0.552210  0.693970  0.913270  1.0  2.4078
  W  W140  1  0.466850  0.741430  0.973940  1.0  1.5294
  W  W141  1  0.081750  0.935120  0.196420  1.0  1.3573
  W  W142  1  0.042530  0.815120  0.250660  1.0  1.361
  W  W143  1  0.218870  0.027310  0.246610  1.0  2.4078
  W  W144  1  0.133510  0.074770  0.307270  1.0  1.5293
  C  C145  1  0.377500  0.940200  0.029700  1.0  -0.0479
  C  C146  1  0.380300  0.017200  0.991000  1.0  -0.1311
  C  C147  1  0.463600  0.029700  0.987000  1.0  0.1995
  C  C148  1  0.334900  0.967500  0.013000  1.0  -0.0822
  C  C149  1  0.466400  0.955300  0.022200  1.0  0.1562
  C  C150  1  0.330000  0.047000  0.972300  1.0  0.5985
  C  C151  1  0.329100  0.883600  0.053800  1.0  0.7021
  C  C152  1  0.044170  0.273530  0.363030  1.0  -0.0479
  C  C153  1  0.046970  0.350530  0.324330  1.0  -0.1314
  C  C154  1  0.130270  0.363030  0.320330  1.0  0.1994
  C  C155  1  0.001570  0.300830  0.346330  1.0  -0.0825
  C  C156  1  0.133070  0.288630  0.355530  1.0  0.1562
  C  C157  1  0.996670  0.380330  0.305630  1.0  0.5985
  C  C158  1  0.995770  0.216930  0.387130  1.0  0.7025
  C  C159  1  0.710830  0.606870  0.696370  1.0  -0.0479
  C  C160  1  0.713630  0.683870  0.657670  1.0  -0.1313
  C  C161  1  0.796930  0.696370  0.653670  1.0  0.1995
  C  C162  1  0.668230  0.634170  0.679670  1.0  -0.0822
  C  C163  1  0.799730  0.621970  0.688870  1.0  0.1562
  C  C164  1  0.663330  0.713670  0.638970  1.0  0.5986
  C  C165  1  0.662430  0.550270  0.720470  1.0  0.7021
  C  C166  1  0.059800  0.437300  0.029700  1.0  -0.0489
  C  C167  1  0.982800  0.363100  0.991000  1.0  -0.1221
  C  C168  1  0.970300  0.433900  0.987000  1.0  0.1969
  C  C169  1  0.032500  0.367400  0.013000  1.0  -0.0823
  C  C170  1  0.044700  0.511100  0.022200  1.0  0.1577
  C  C171  1  0.953000  0.283000  0.972300  1.0  0.5955
  C  C172  1  0.116400  0.445500  0.053800  1.0  0.7026
  C  C173  1  0.726470  0.770630  0.363030  1.0  -0.0489
  C  C174  1  0.649470  0.696430  0.324330  1.0  -0.1221
  C  C175  1  0.636970  0.767230  0.320330  1.0  0.1968
  C  C176  1  0.699170  0.700730  0.346330  1.0  -0.0825
  C  C177  1  0.711370  0.844430  0.355530  1.0  0.1577
  C  C178  1  0.619670  0.616330  0.305630  1.0  0.5955
  C  C179  1  0.783070  0.778830  0.387130  1.0  0.703
  C  C180  1  0.393130  0.103970  0.696370  1.0  -0.0489
  C  C181  1  0.316130  0.029770  0.657670  1.0  -0.1223
  C  C182  1  0.303630  0.100570  0.653670  1.0  0.1969
  C  C183  1  0.365830  0.034070  0.679670  1.0  -0.0823
  C  C184  1  0.378030  0.177770  0.688870  1.0  0.1577
  C  C185  1  0.286330  0.949670  0.638970  1.0  0.5956
  C  C186  1  0.449730  0.112170  0.720470  1.0  0.7026
  C  C187  1  0.562700  0.622500  0.029700  1.0  -0.0482
  C  C188  1  0.636900  0.619700  0.991000  1.0  -0.1253
  C  C189  1  0.566100  0.536400  0.987000  1.0  0.1978
  C  C190  1  0.632600  0.665100  0.013000  1.0  -0.0838
  C  C191  1  0.488900  0.533600  0.022200  1.0  0.1559
  C  C192  1  0.717000  0.670000  0.972300  1.0  0.5939
  C  C193  1  0.554500  0.670900  0.053800  1.0  0.7034
  C  C194  1  0.229370  0.955830  0.363030  1.0  -0.0482
  C  C195  1  0.303570  0.953030  0.324330  1.0  -0.1253
  C  C196  1  0.232770  0.869730  0.320330  1.0  0.1978
  C  C197  1  0.299270  0.998430  0.346330  1.0  -0.0838
  C  C198  1  0.155570  0.866930  0.355530  1.0  0.1559
  C  C199  1  0.383670  0.003330  0.305630  1.0  0.5939
  C  C200  1  0.221170  0.004230  0.387130  1.0  0.7037
  C  C201  1  0.896030  0.289170  0.696370  1.0  -0.0482
  C  C202  1  0.970230  0.286370  0.657670  1.0  -0.1255
  C  C203  1  0.899430  0.203070  0.653670  1.0  0.1978
  C  C204  1  0.965930  0.331770  0.679670  1.0  -0.0838
  C  C205  1  0.822230  0.200270  0.688870  1.0  0.1559
  C  C206  1  0.050330  0.336670  0.638970  1.0  0.594
  C  C207  1  0.887830  0.337570  0.720470  1.0  0.7034
  C  C208  1  0.059800  0.622500  0.529700  1.0  -0.0489
  C  C209  1  0.982800  0.619700  0.491000  1.0  -0.1257
  C  C210  1  0.970300  0.536400  0.487000  1.0  0.1975
  C  C211  1  0.032500  0.665100  0.513000  1.0  -0.0845
  C  C212  1  0.044700  0.533600  0.522200  1.0  0.1557
  C  C213  1  0.953000  0.670000  0.472300  1.0  0.5961
  C  C214  1  0.116400  0.670900  0.553800  1.0  0.7034
  C  C215  1  0.726470  0.955830  0.863030  1.0  -0.0489
  C  C216  1  0.649470  0.953030  0.824330  1.0  -0.1257
  C  C217  1  0.636970  0.869730  0.820330  1.0  0.1974
  C  C218  1  0.699170  0.998430  0.846330  1.0  -0.0848
  C  C219  1  0.711370  0.866930  0.855530  1.0  0.1557
  C  C220  1  0.619670  0.003330  0.805630  1.0  0.5961
  C  C221  1  0.783070  0.004230  0.887130  1.0  0.7038
  C  C222  1  0.393130  0.289170  0.196370  1.0  -0.0489
  C  C223  1  0.316130  0.286370  0.157670  1.0  -0.1259
  C  C224  1  0.303630  0.203070  0.153670  1.0  0.1975
  C  C225  1  0.365830  0.331770  0.179670  1.0  -0.0845
  C  C226  1  0.378030  0.200270  0.188870  1.0  0.1557
  C  C227  1  0.286330  0.336670  0.138970  1.0  0.5962
  C  C228  1  0.449730  0.337570  0.220470  1.0  0.7034
  C  C229  1  0.562700  0.940200  0.529700  1.0  -0.0488
  C  C230  1  0.636900  0.017200  0.491000  1.0  -0.1273
  C  C231  1  0.566100  0.029700  0.487000  1.0  0.197
  C  C232  1  0.632600  0.967500  0.513000  1.0  -0.0803
  C  C233  1  0.488900  0.955300  0.522200  1.0  0.1557
  C  C234  1  0.717000  0.047000  0.472300  1.0  0.5963
  C  C235  1  0.554500  0.883600  0.553800  1.0  0.7013
  C  C236  1  0.229370  0.273530  0.863030  1.0  -0.0488
  C  C237  1  0.303570  0.350530  0.824330  1.0  -0.1274
  C  C238  1  0.232770  0.363030  0.820330  1.0  0.1969
  C  C239  1  0.299270  0.300830  0.846330  1.0  -0.0804
  C  C240  1  0.155570  0.288630  0.855530  1.0  0.1557
  C  C241  1  0.383670  0.380330  0.805630  1.0  0.5963
  C  C242  1  0.221170  0.216930  0.887130  1.0  0.7018
  C  C243  1  0.896030  0.606870  0.196370  1.0  -0.0488
  C  C244  1  0.970230  0.683870  0.157670  1.0  -0.1275
  C  C245  1  0.899430  0.696370  0.153670  1.0  0.197
  C  C246  1  0.965930  0.634170  0.179670  1.0  -0.0803
  C  C247  1  0.822230  0.621970  0.188870  1.0  0.1557
  C  C248  1  0.050330  0.713670  0.138970  1.0  0.5964
  C  C249  1  0.887830  0.550270  0.220470  1.0  0.7013
  C  C250  1  0.377500  0.437300  0.529700  1.0  -0.0479
  C  C251  1  0.380300  0.363100  0.491000  1.0  -0.122
  C  C252  1  0.463600  0.433900  0.487000  1.0  0.1999
  C  C253  1  0.334900  0.367400  0.513000  1.0  -0.0839
  C  C254  1  0.466400  0.511100  0.522200  1.0  0.1579
  C  C255  1  0.330000  0.283000  0.472300  1.0  0.596
  C  C256  1  0.329100  0.445500  0.553800  1.0  0.7031
  C  C257  1  0.044170  0.770630  0.863030  1.0  -0.0479
  C  C258  1  0.046970  0.696430  0.824330  1.0  -0.122
  C  C259  1  0.130270  0.767230  0.820330  1.0  0.1999
  C  C260  1  0.001570  0.700730  0.846330  1.0  -0.0839
  C  C261  1  0.133070  0.844430  0.855530  1.0  0.1579
  C  C262  1  0.996670  0.616330  0.805630  1.0  0.596
  C  C263  1  0.995770  0.778830  0.887130  1.0  0.7034
  C  C264  1  0.710830  0.103970  0.196370  1.0  -0.0479
  C  C265  1  0.713630  0.029770  0.157670  1.0  -0.1222
  C  C266  1  0.796930  0.100570  0.153670  1.0  0.1999
  C  C267  1  0.668230  0.034070  0.179670  1.0  -0.0839
  C  C268  1  0.799730  0.177770  0.188870  1.0  0.1579
  C  C269  1  0.663330  0.949670  0.138970  1.0  0.596
  C  C270  1  0.662430  0.112170  0.220470  1.0  0.7031
  N  N271  1  0.503800  0.995100  0.997500  1.0  -0.2826
  N  N272  1  0.170470  0.328430  0.330830  1.0  -0.2826
  N  N273  1  0.837130  0.661770  0.664170  1.0  -0.2826
  N  N274  1  0.004900  0.508700  0.997500  1.0  -0.281
  N  N275  1  0.671570  0.842030  0.330830  1.0  -0.2812
  N  N276  1  0.338230  0.175370  0.664170  1.0  -0.281
  N  N277  1  0.491300  0.496200  0.997500  1.0  -0.2825
  N  N278  1  0.157970  0.829530  0.330830  1.0  -0.2825
  N  N279  1  0.824630  0.162870  0.664170  1.0  -0.2825
  N  N280  1  0.004900  0.496200  0.497500  1.0  -0.2813
  N  N281  1  0.671570  0.829530  0.830830  1.0  -0.2813
  N  N282  1  0.338230  0.162870  0.164170  1.0  -0.2813
  N  N283  1  0.491300  0.995100  0.497500  1.0  -0.2818
  N  N284  1  0.157970  0.328430  0.830830  1.0  -0.2819
  N  N285  1  0.824630  0.661770  0.164170  1.0  -0.2818
  N  N286  1  0.503800  0.508700  0.497500  1.0  -0.2808
  N  N287  1  0.170470  0.842030  0.830830  1.0  -0.2808
  N  N288  1  0.837130  0.175370  0.164170  1.0  -0.2807
  O  O289  1  0.580000  0.472400  0.076600  1.0  -0.7341
  O  O290  1  0.877900  0.547800  0.043700  1.0  -0.6856
  O  O291  1  0.680400  0.510700  0.118000  1.0  -0.6691
  O  O292  1  0.727700  0.569700  0.046000  1.0  -0.6789
  O  O293  1  0.731400  0.442300  0.155800  1.0  -0.6453
  O  O294  1  0.838600  0.611200  0.088000  1.0  -0.6767
  O  O295  1  0.245700  0.858200  0.056400  1.0  -0.7038
  O  O296  1  0.002300  0.614100  0.082400  1.0  -0.711
  O  O297  1  0.374300  0.089100  0.951900  1.0  -0.6309
  O  O298  1  0.371400  0.867000  0.071800  1.0  -0.4182
  O  O299  1  0.739400  0.450800  0.072500  1.0  -0.864
  O  O300  1  0.260300  0.051000  0.982400  1.0  -0.4525
  O  O301  1  0.771800  0.378500  0.027200  1.0  -0.6885
  O  O302  1  0.854300  0.484200  0.116800  1.0  -0.7123
  O  O303  1  0.246670  0.805730  0.409930  1.0  -0.7341
  O  O304  1  0.544570  0.881130  0.377030  1.0  -0.6856
  O  O305  1  0.347070  0.844030  0.451330  1.0  -0.6694
  O  O306  1  0.394370  0.903030  0.379330  1.0  -0.6789
  O  O307  1  0.398070  0.775630  0.489130  1.0  -0.6453
  O  O308  1  0.505270  0.944530  0.421330  1.0  -0.6767
  O  O309  1  0.912370  0.191530  0.389730  1.0  -0.7039
  O  O310  1  0.668970  0.947430  0.415730  1.0  -0.7111
  O  O311  1  0.040970  0.422430  0.285230  1.0  -0.6485
  O  O312  1  0.038070  0.200330  0.405130  1.0  -0.4187
  O  O313  1  0.406070  0.784130  0.405830  1.0  -0.864
  O  O314  1  0.926970  0.384330  0.315730  1.0  -0.4708
  O  O315  1  0.438470  0.711830  0.360530  1.0  -0.6885
  O  O316  1  0.520970  0.817530  0.450130  1.0  -0.7121
  O  O317  1  0.913330  0.139070  0.743270  1.0  -0.7341
  O  O318  1  0.211230  0.214470  0.710370  1.0  -0.6855
  O  O319  1  0.013730  0.177370  0.784670  1.0  -0.6695
  O  O320  1  0.061030  0.236370  0.712670  1.0  -0.6787
  O  O321  1  0.064730  0.108970  0.822470  1.0  -0.6533
  O  O322  1  0.171930  0.277870  0.754670  1.0  -0.6767
  O  O323  1  0.579030  0.524870  0.723070  1.0  -0.7038
  O  O324  1  0.335630  0.280770  0.749070  1.0  -0.7111
  O  O325  1  0.707630  0.755770  0.618570  1.0  -0.6308
  O  O326  1  0.704730  0.533670  0.738470  1.0  -0.4538
  O  O327  1  0.072730  0.117470  0.739170  1.0  -0.8636
  O  O328  1  0.593630  0.717670  0.649070  1.0  -0.4525
  O  O329  1  0.105130  0.045170  0.693870  1.0  -0.6886
  O  O330  1  0.187630  0.150870  0.783470  1.0  -0.7123
  O  O331  1  0.527600  0.107600  0.076600  1.0  -0.7326
  O  O332  1  0.452200  0.330100  0.043700  1.0  -0.6854
  O  O333  1  0.489300  0.169700  0.118000  1.0  -0.6708
  O  O334  1  0.430300  0.158000  0.046000  1.0  -0.6786
  O  O335  1  0.557700  0.289100  0.155800  1.0  -0.642
  O  O336  1  0.388800  0.227400  0.088000  1.0  -0.6793
  O  O337  1  0.141800  0.387500  0.056400  1.0  -0.7025
  O  O338  1  0.385900  0.388200  0.082400  1.0  -0.7129
  O  O339  1  0.910900  0.285200  0.951900  1.0  -0.6378
  O  O340  1  0.133000  0.504400  0.071800  1.0  -0.42
  O  O341  1  0.549200  0.288600  0.072500  1.0  -0.8634
  O  O342  1  0.949000  0.209300  0.982400  1.0  -0.4731
  O  O343  1  0.621500  0.393300  0.027200  1.0  -0.6887
  O  O344  1  0.515800  0.370100  0.116800  1.0  -0.7133
  O  O345  1  0.194270  0.440930  0.409930  1.0  -0.7326
  O  O346  1  0.118870  0.663430  0.377030  1.0  -0.6854
  O  O347  1  0.155970  0.503030  0.451330  1.0  -0.6711
  O  O348  1  0.096970  0.491330  0.379330  1.0  -0.6786
  O  O349  1  0.224370  0.622430  0.489130  1.0  -0.6421
  O  O350  1  0.055470  0.560730  0.421330  1.0  -0.6793
  O  O351  1  0.808470  0.720830  0.389730  1.0  -0.7026
  O  O352  1  0.052570  0.721530  0.415730  1.0  -0.7129
  O  O353  1  0.577570  0.618530  0.285230  1.0  -0.6485
  O  O354  1  0.799670  0.837730  0.405130  1.0  -0.4528
  O  O355  1  0.215870  0.621930  0.405830  1.0  -0.8634
  O  O356  1  0.615670  0.542630  0.315730  1.0  -0.4611
  O  O357  1  0.288170  0.726630  0.360530  1.0  -0.6887
  O  O358  1  0.182470  0.703430  0.450130  1.0  -0.713
  O  O359  1  0.860930  0.774270  0.743270  1.0  -0.7326
  O  O360  1  0.785530  0.996770  0.710370  1.0  -0.6853
  O  O361  1  0.822630  0.836370  0.784670  1.0  -0.6714
  O  O362  1  0.763630  0.824670  0.712670  1.0  -0.6783
  O  O363  1  0.891030  0.955770  0.822470  1.0  -0.6539
  O  O364  1  0.722130  0.894070  0.754670  1.0  -0.6793
  O  O365  1  0.475130  0.054170  0.723070  1.0  -0.7025
  O  O366  1  0.719230  0.054870  0.749070  1.0  -0.7129
  O  O367  1  0.244230  0.951870  0.618570  1.0  -0.6378
  O  O368  1  0.466330  0.171070  0.738470  1.0  -0.425
  O  O369  1  0.882530  0.955270  0.739170  1.0  -0.863
  O  O370  1  0.282330  0.875970  0.649070  1.0  -0.4731
  O  O371  1  0.954830  0.059970  0.693870  1.0  -0.6888
  O  O372  1  0.849130  0.036770  0.783470  1.0  -0.7132
  O  O373  1  0.892400  0.420000  0.076600  1.0  -0.73
  O  O374  1  0.669900  0.122100  0.043700  1.0  -0.6829
  O  O375  1  0.830300  0.319600  0.118000  1.0  -0.6699
  O  O376  1  0.842000  0.272300  0.046000  1.0  -0.6779
  O  O377  1  0.710900  0.268600  0.155800  1.0  -0.6533
  O  O378  1  0.772600  0.161400  0.088000  1.0  -0.6775
  O  O379  1  0.612500  0.754300  0.056400  1.0  -0.6962
  O  O380  1  0.611800  0.997700  0.082400  1.0  -0.714
  O  O381  1  0.714800  0.625700  0.951900  1.0  -0.6473
  O  O382  1  0.495600  0.628600  0.071800  1.0  -0.426
  O  O383  1  0.711400  0.260600  0.072500  1.0  -0.8626
  O  O384  1  0.790700  0.739700  0.982400  1.0  -0.4723
  O  O385  1  0.606700  0.228200  0.027200  1.0  -0.6882
  O  O386  1  0.629900  0.145700  0.116800  1.0  -0.7146
  O  O387  1  0.559070  0.753330  0.409930  1.0  -0.73
  O  O388  1  0.336570  0.455430  0.377030  1.0  -0.6829
  O  O389  1  0.496970  0.652930  0.451330  1.0  -0.6702
  O  O390  1  0.508670  0.605630  0.379330  1.0  -0.6779
  O  O391  1  0.377570  0.601930  0.489130  1.0  -0.6538
  O  O392  1  0.439270  0.494730  0.421330  1.0  -0.6775
  O  O393  1  0.279170  0.087630  0.389730  1.0  -0.6963
  O  O394  1  0.278470  0.331030  0.415730  1.0  -0.714
  O  O395  1  0.381470  0.959030  0.285230  1.0  -0.6441
  O  O396  1  0.162270  0.961930  0.405130  1.0  -0.4556
  O  O397  1  0.378070  0.593930  0.405830  1.0  -0.8626
  O  O398  1  0.457370  0.073030  0.315730  1.0  -0.47
  O  O399  1  0.273370  0.561530  0.360530  1.0  -0.6882
  O  O400  1  0.296570  0.479030  0.450130  1.0  -0.7144
  O  O401  1  0.225730  0.086670  0.743270  1.0  -0.73
  O  O402  1  0.003230  0.788770  0.710370  1.0  -0.6829
  O  O403  1  0.163630  0.986270  0.784670  1.0  -0.6706
  O  O404  1  0.175330  0.938970  0.712670  1.0  -0.6776
  O  O405  1  0.044230  0.935270  0.822470  1.0  -0.6527
  O  O406  1  0.105930  0.828070  0.754670  1.0  -0.6775
  O  O407  1  0.945830  0.420970  0.723070  1.0  -0.6962
  O  O408  1  0.945130  0.664370  0.749070  1.0  -0.714
  O  O409  1  0.048130  0.292370  0.618570  1.0  -0.6472
  O  O410  1  0.828930  0.295270  0.738470  1.0  -0.4244
  O  O411  1  0.044730  0.927270  0.739170  1.0  -0.8622
  O  O412  1  0.124030  0.406370  0.649070  1.0  -0.4723
  O  O413  1  0.940030  0.894870  0.693870  1.0  -0.6882
  O  O414  1  0.963230  0.812370  0.783470  1.0  -0.7146
  O  O415  1  0.527600  0.420000  0.576600  1.0  -0.7306
  O  O416  1  0.452200  0.122100  0.543700  1.0  -0.6829
  O  O417  1  0.489300  0.319600  0.618000  1.0  -0.6664
  O  O418  1  0.430300  0.272300  0.546000  1.0  -0.6785
  O  O419  1  0.557700  0.268600  0.655800  1.0  -0.6454
  O  O420  1  0.388800  0.161400  0.588000  1.0  -0.6766
  O  O421  1  0.141800  0.754300  0.556400  1.0  -0.696
  O  O422  1  0.385900  0.997700  0.582400  1.0  -0.7146
  O  O423  1  0.910900  0.625700  0.451900  1.0  -0.6315
  O  O424  1  0.133000  0.628600  0.571800  1.0  -0.4197
  O  O425  1  0.549200  0.260600  0.572500  1.0  -0.863
  O  O426  1  0.949000  0.739700  0.482400  1.0  -0.4559
  O  O427  1  0.621500  0.228200  0.527200  1.0  -0.6882
  O  O428  1  0.515800  0.145700  0.616800  1.0  -0.7153
  O  O429  1  0.194270  0.753330  0.909930  1.0  -0.7306
  O  O430  1  0.118870  0.455430  0.877030  1.0  -0.6829
  O  O431  1  0.155970  0.652930  0.951330  1.0  -0.6667
  O  O432  1  0.096970  0.605630  0.879330  1.0  -0.6785
  O  O433  1  0.224370  0.601930  0.989130  1.0  -0.6454
  O  O434  1  0.055470  0.494730  0.921330  1.0  -0.6766
  O  O435  1  0.808470  0.087630  0.889730  1.0  -0.6961
  O  O436  1  0.052570  0.331030  0.915730  1.0  -0.7147
  O  O437  1  0.577570  0.959030  0.785230  1.0  -0.6498
  O  O438  1  0.799670  0.961930  0.905130  1.0  -0.4203
  O  O439  1  0.215870  0.593930  0.905830  1.0  -0.863
  O  O440  1  0.615670  0.073030  0.815730  1.0  -0.4739
  O  O441  1  0.288170  0.561530  0.860530  1.0  -0.6882
  O  O442  1  0.182470  0.479030  0.950130  1.0  -0.715
  O  O443  1  0.860930  0.086670  0.243270  1.0  -0.7306
  O  O444  1  0.785530  0.788770  0.210370  1.0  -0.6828
  O  O445  1  0.822630  0.986270  0.284670  1.0  -0.6668
  O  O446  1  0.763630  0.938970  0.212670  1.0  -0.6783
  O  O447  1  0.891030  0.935270  0.322470  1.0  -0.6534
  O  O448  1  0.722130  0.828070  0.254670  1.0  -0.6767
  O  O449  1  0.475130  0.420970  0.223070  1.0  -0.696
  O  O450  1  0.719230  0.664370  0.249070  1.0  -0.7147
  O  O451  1  0.244230  0.292370  0.118570  1.0  -0.6315
  O  O452  1  0.466330  0.295270  0.238470  1.0  -0.4544
  O  O453  1  0.882530  0.927270  0.239170  1.0  -0.8626
  O  O454  1  0.282330  0.406370  0.149070  1.0  -0.4559
  O  O455  1  0.954830  0.894870  0.193870  1.0  -0.6883
  O  O456  1  0.849130  0.812370  0.283470  1.0  -0.7153
  O  O457  1  0.892400  0.472400  0.576600  1.0  -0.7333
  O  O458  1  0.669900  0.547800  0.543700  1.0  -0.6852
  O  O459  1  0.830300  0.510700  0.618000  1.0  -0.67
  O  O460  1  0.842000  0.569700  0.546000  1.0  -0.6795
  O  O461  1  0.710900  0.442300  0.655800  1.0  -0.6417
  O  O462  1  0.772600  0.611200  0.588000  1.0  -0.6761
  O  O463  1  0.612500  0.858200  0.556400  1.0  -0.7035
  O  O464  1  0.611800  0.614100  0.582400  1.0  -0.7133
  O  O465  1  0.714800  0.089100  0.451900  1.0  -0.6384
  O  O466  1  0.495600  0.867000  0.571800  1.0  -0.4189
  O  O467  1  0.711400  0.450800  0.572500  1.0  -0.8642
  O  O468  1  0.790700  0.051000  0.482400  1.0  -0.4653
  O  O469  1  0.606700  0.378500  0.527200  1.0  -0.6892
  O  O470  1  0.629900  0.484200  0.616800  1.0  -0.7126
  O  O471  1  0.559070  0.805730  0.909930  1.0  -0.7333
  O  O472  1  0.336570  0.881130  0.877030  1.0  -0.6852
  O  O473  1  0.496970  0.844030  0.951330  1.0  -0.6703
  O  O474  1  0.508670  0.903030  0.879330  1.0  -0.6795
  O  O475  1  0.377570  0.775630  0.989130  1.0  -0.6418
  O  O476  1  0.439270  0.944530  0.921330  1.0  -0.6761
  O  O477  1  0.279170  0.191530  0.889730  1.0  -0.7036
  O  O478  1  0.278470  0.947430  0.915730  1.0  -0.7133
  O  O479  1  0.381470  0.422430  0.785230  1.0  -0.6486
  O  O480  1  0.162270  0.200330  0.905130  1.0  -0.4519
  O  O481  1  0.378070  0.784130  0.905830  1.0  -0.8642
  O  O482  1  0.457370  0.384330  0.815730  1.0  -0.4558
  O  O483  1  0.273370  0.711830  0.860530  1.0  -0.6892
  O  O484  1  0.296570  0.817530  0.950130  1.0  -0.7124
  O  O485  1  0.225730  0.139070  0.243270  1.0  -0.7333
  O  O486  1  0.003230  0.214470  0.210370  1.0  -0.6852
  O  O487  1  0.163630  0.177370  0.284670  1.0  -0.6706
  O  O488  1  0.175330  0.236370  0.212670  1.0  -0.6792
  O  O489  1  0.044230  0.108970  0.322470  1.0  -0.6534
  O  O490  1  0.105930  0.277870  0.254670  1.0  -0.676
  O  O491  1  0.945830  0.524870  0.223070  1.0  -0.7035
  O  O492  1  0.945130  0.280770  0.249070  1.0  -0.7133
  O  O493  1  0.048130  0.755770  0.118570  1.0  -0.6384
  O  O494  1  0.828930  0.533670  0.238470  1.0  -0.4242
  O  O495  1  0.044730  0.117470  0.239170  1.0  -0.8638
  O  O496  1  0.124030  0.717670  0.149070  1.0  -0.4653
  O  O497  1  0.940030  0.045170  0.193870  1.0  -0.6893
  O  O498  1  0.963230  0.150870  0.283470  1.0  -0.7126
  O  O499  1  0.580000  0.107600  0.576600  1.0  -0.7323
  O  O500  1  0.877900  0.330100  0.543700  1.0  -0.6854
  O  O501  1  0.680400  0.169700  0.618000  1.0  -0.6742
  O  O502  1  0.727700  0.158000  0.546000  1.0  -0.6775
  O  O503  1  0.731400  0.289100  0.655800  1.0  -0.6536
  O  O504  1  0.838600  0.227400  0.588000  1.0  -0.6789
  O  O505  1  0.245700  0.387500  0.556400  1.0  -0.703
  O  O506  1  0.002300  0.388200  0.582400  1.0  -0.7112
  O  O507  1  0.374300  0.285200  0.451900  1.0  -0.6479
  O  O508  1  0.371400  0.504400  0.571800  1.0  -0.4269
  O  O509  1  0.739400  0.288600  0.572500  1.0  -0.8627
  O  O510  1  0.260300  0.209300  0.482400  1.0  -0.4772
  O  O511  1  0.771800  0.393300  0.527200  1.0  -0.6883
  O  O512  1  0.854300  0.370100  0.616800  1.0  -0.7126
  O  O513  1  0.246670  0.440930  0.909930  1.0  -0.7323
  O  O514  1  0.544570  0.663430  0.877030  1.0  -0.6854
  O  O515  1  0.347070  0.503030  0.951330  1.0  -0.6746
  O  O516  1  0.394370  0.491330  0.879330  1.0  -0.6775
  O  O517  1  0.398070  0.622430  0.989130  1.0  -0.6541
  O  O518  1  0.505270  0.560730  0.921330  1.0  -0.6789
  O  O519  1  0.912370  0.720830  0.889730  1.0  -0.7031
  O  O520  1  0.668970  0.721530  0.915730  1.0  -0.7112
  O  O521  1  0.040970  0.618530  0.785230  1.0  -0.6451
  O  O522  1  0.038070  0.837730  0.905130  1.0  -0.4565
  O  O523  1  0.406070  0.621930  0.905830  1.0  -0.8627
  O  O524  1  0.926970  0.542630  0.815730  1.0  -0.4754
  O  O525  1  0.438470  0.726630  0.860530  1.0  -0.6883
  O  O526  1  0.520970  0.703430  0.950130  1.0  -0.7124
  O  O527  1  0.913330  0.774270  0.243270  1.0  -0.7323
  O  O528  1  0.211230  0.996770  0.210370  1.0  -0.6854
  O  O529  1  0.013730  0.836370  0.284670  1.0  -0.6749
  O  O530  1  0.061030  0.824670  0.212670  1.0  -0.6771
  O  O531  1  0.064730  0.955770  0.322470  1.0  -0.6527
  O  O532  1  0.171930  0.894070  0.254670  1.0  -0.6789
  O  O533  1  0.579030  0.054170  0.223070  1.0  -0.703
  O  O534  1  0.335630  0.054870  0.249070  1.0  -0.7112
  O  O535  1  0.707630  0.951870  0.118570  1.0  -0.6478
  O  O536  1  0.704730  0.171070  0.238470  1.0  -0.4255
  O  O537  1  0.072730  0.955270  0.239170  1.0  -0.8622
  O  O538  1  0.593630  0.875970  0.149070  1.0  -0.4772
  O  O539  1  0.105130  0.059970  0.193870  1.0  -0.6884
  O  O540  1  0.187630  0.036770  0.283470  1.0  -0.7126
  O  O541  1  0.666667  0.333333  0.116000  1.0  -1.0308
  O  O542  1  0.333333  0.666667  0.449330  1.0  -1.0308
  O  O543  1  0.000000  0.000000  0.782670  1.0  -1.031
  O  O544  1  0.666667  0.333333  0.616000  1.0  -1.0308
  O  O545  1  0.333333  0.666667  0.949330  1.0  -1.0308
  O  O546  1  0.000000  0.000000  0.282670  1.0  -1.031
