# generated using pymatgen
data_CaH10(C2O)4
_symmetry_space_group_name_H-M   'P 1'
_cell_length_a   7.71590000
_cell_length_b   7.86230000
_cell_length_c   18.32300000
_cell_angle_alpha   90.00000000
_cell_angle_beta   90.00000000
_cell_angle_gamma   95.70000000
_symmetry_Int_Tables_number   1
_chemical_formula_structural   CaH10(C2O)4
_chemical_formula_sum   'Ca4 H40 C32 O16'
_cell_volume   1106.06364596
_cell_formula_units_Z   4
loop_
 _symmetry_equiv_pos_site_id
 _symmetry_equiv_pos_as_xyz
  1  'x, y, z'
loop_
 _atom_site_type_symbol
 _atom_site_label
 _atom_site_symmetry_multiplicity
 _atom_site_fract_x
 _atom_site_fract_y
 _atom_site_fract_z
 _atom_site_occupancy
 _atom_site_charge
  Ca  Ca1  1  0.720830  0.780840  0.725610  1.0  1.6017
  Ca  Ca2  1  0.779170  0.219160  0.225610  1.0  1.6017
  Ca  Ca3  1  0.279170  0.219160  0.274380  1.0  1.6018
  Ca  Ca4  1  0.220830  0.780840  0.774390  1.0  1.6017
  H  H5  1  0.625600  0.296800  0.926600  1.0  0.0861
  H  H6  1  0.727700  0.452900  0.966400  1.0  0.0708
  H  H7  1  0.385800  0.451600  0.910100  1.0  0.0918
  H  H8  1  0.390900  0.739100  0.945000  1.0  0.0668
  H  H9  1  0.577800  0.735000  0.978400  1.0  0.073
  H  H10  1  0.775200  0.991300  0.957900  1.0  0.089
  H  H11  1  0.079000  0.816500  0.945200  1.0  0.0589
  H  H12  1  0.891500  0.725400  0.959200  1.0  0.072
  H  H13  1  0.953700  0.243800  0.929500  1.0  0.0832
  H  H14  1  0.118100  0.141100  0.926100  1.0  0.0706
  H  H15  1  0.874400  0.703200  0.426600  1.0  0.0865
  H  H16  1  0.772300  0.547100  0.466400  1.0  0.0706
  H  H17  1  0.114200  0.548400  0.410100  1.0  0.0928
  H  H18  1  0.109100  0.260900  0.445000  1.0  0.0656
  H  H19  1  0.922200  0.265000  0.478400  1.0  0.0734
  H  H20  1  0.724800  0.008700  0.457900  1.0  0.0894
  H  H21  1  0.421000  0.183500  0.445200  1.0  0.0563
  H  H22  1  0.608500  0.274600  0.459200  1.0  0.0723
  H  H23  1  0.546300  0.756200  0.429500  1.0  0.0823
  H  H24  1  0.381900  0.858900  0.426100  1.0  0.071
  H  H25  1  0.374400  0.703200  0.073400  1.0  0.0855
  H  H26  1  0.272300  0.547100  0.033600  1.0  0.0717
  H  H27  1  0.614200  0.548400  0.089900  1.0  0.0913
  H  H28  1  0.609100  0.260900  0.055000  1.0  0.0658
  H  H29  1  0.422200  0.265000  0.021600  1.0  0.0731
  H  H30  1  0.224800  0.008700  0.042100  1.0  0.0893
  H  H31  1  0.921000  0.183500  0.054800  1.0  0.0577
  H  H32  1  0.108500  0.274600  0.040800  1.0  0.0721
  H  H33  1  0.046300  0.756200  0.070500  1.0  0.0839
  H  H34  1  0.881900  0.858900  0.073900  1.0  0.0714
  H  H35  1  0.125600  0.296800  0.573400  1.0  0.0881
  H  H36  1  0.227700  0.452900  0.533600  1.0  0.072
  H  H37  1  0.885800  0.451600  0.589900  1.0  0.0925
  H  H38  1  0.890900  0.739100  0.555000  1.0  0.0656
  H  H39  1  0.077800  0.735000  0.521600  1.0  0.0729
  H  H40  1  0.275200  0.991300  0.542100  1.0  0.089
  H  H41  1  0.579000  0.816500  0.554800  1.0  0.06
  H  H42  1  0.391500  0.725400  0.540800  1.0  0.0725
  H  H43  1  0.453700  0.243800  0.570500  1.0  0.0822
  H  H44  1  0.618100  0.141100  0.573900  1.0  0.0717
  C  C45  1  0.571300  0.583100  0.847250  1.0  0.7448
  C  C46  1  0.612800  0.394500  0.957810  1.0  -0.1253
  C  C47  1  0.499200  0.515400  0.919630  1.0  -0.182
  C  C48  1  0.468000  0.667100  0.969380  1.0  -0.1074
  C  C49  1  0.857700  0.957700  0.852990  1.0  0.7391
  C  C50  1  0.888000  0.981700  0.934460  1.0  -0.1795
  C  C51  1  0.967700  0.829000  0.968200  1.0  -0.1133
  C  C52  1  0.006200  0.146900  0.949570  1.0  -0.1225
  C  C53  1  0.928700  0.416900  0.347250  1.0  0.7456
  C  C54  1  0.887200  0.605500  0.457810  1.0  -0.1242
  C  C55  1  0.000800  0.484600  0.419630  1.0  -0.182
  C  C56  1  0.032000  0.332900  0.469380  1.0  -0.1072
  C  C57  1  0.642300  0.042300  0.352990  1.0  0.7389
  C  C58  1  0.612000  0.018300  0.434460  1.0  -0.1805
  C  C59  1  0.532300  0.171000  0.468200  1.0  -0.1122
  C  C60  1  0.493800  0.853100  0.449570  1.0  -0.122
  C  C61  1  0.428700  0.416900  0.152750  1.0  0.7447
  C  C62  1  0.387200  0.605500  0.042190  1.0  -0.1252
  C  C63  1  0.500800  0.484600  0.080370  1.0  -0.1805
  C  C64  1  0.532000  0.332900  0.030620  1.0  -0.1073
  C  C65  1  0.142300  0.042300  0.147010  1.0  0.7396
  C  C66  1  0.112000  0.018300  0.065540  1.0  -0.1802
  C  C67  1  0.032300  0.171000  0.031800  1.0  -0.1129
  C  C68  1  0.993800  0.853100  0.050430  1.0  -0.1214
  C  C69  1  0.071300  0.583100  0.652750  1.0  0.7462
  C  C70  1  0.112800  0.394500  0.542190  1.0  -0.1244
  C  C71  1  0.999200  0.515400  0.580370  1.0  -0.1812
  C  C72  1  0.968000  0.667100  0.530620  1.0  -0.1076
  C  C73  1  0.357700  0.957700  0.647010  1.0  0.7381
  C  C74  1  0.388000  0.981700  0.565540  1.0  -0.1806
  C  C75  1  0.467700  0.829000  0.531800  1.0  -0.1129
  C  C76  1  0.506200  0.146900  0.550430  1.0  -0.1217
  O  O77  1  0.473680  0.660730  0.806370  1.0  -0.8443
  O  O78  1  0.727160  0.567320  0.828660  1.0  -0.659
  O  O79  1  0.972950  0.900690  0.813900  1.0  -0.8239
  O  O80  1  0.714200  0.992620  0.825650  1.0  -0.6911
  O  O81  1  0.026320  0.339270  0.306370  1.0  -0.8457
  O  O82  1  0.772840  0.432680  0.328660  1.0  -0.6602
  O  O83  1  0.527050  0.099310  0.313900  1.0  -0.8255
  O  O84  1  0.785800  0.007380  0.325650  1.0  -0.6924
  O  O85  1  0.526320  0.339270  0.193630  1.0  -0.8425
  O  O86  1  0.272840  0.432680  0.171340  1.0  -0.6638
  O  O87  1  0.027050  0.099310  0.186100  1.0  -0.8246
  O  O88  1  0.285800  0.007380  0.174350  1.0  -0.6896
  O  O89  1  0.973680  0.660730  0.693630  1.0  -0.8437
  O  O90  1  0.227160  0.567320  0.671340  1.0  -0.663
  O  O91  1  0.472950  0.900690  0.686100  1.0  -0.8222
  O  O92  1  0.214200  0.992620  0.674350  1.0  -0.6895
