# generated using pymatgen
data_SmH3C7NO4
_symmetry_space_group_name_H-M   'P 1'
_cell_length_a   30.42650000
_cell_length_b   15.60320000
_cell_length_c   21.90060000
_cell_angle_alpha   90.00000000
_cell_angle_beta   133.01600000
_cell_angle_gamma   90.00000000
_symmetry_Int_Tables_number   1
_chemical_formula_structural   SmH3C7NO4
_chemical_formula_sum   'Sm16 H48 C112 N16 O64'
_cell_volume   7602.14282958
_cell_formula_units_Z   16
loop_
 _symmetry_equiv_pos_site_id
 _symmetry_equiv_pos_as_xyz
  1  'x, y, z'
loop_
 _atom_site_type_symbol
 _atom_site_label
 _atom_site_symmetry_multiplicity
 _atom_site_fract_x
 _atom_site_fract_y
 _atom_site_fract_z
 _atom_site_occupancy
 _atom_site_charge
  Sm  Sm1  1  0.831480  0.872530  0.985700  1.0  2.0558
  Sm  Sm2  1  0.110410  0.863970  0.174750  1.0  2.0079
  Sm  Sm3  1  0.331480  0.372530  0.985700  1.0  2.0558
  Sm  Sm4  1  0.610410  0.363970  0.174750  1.0  2.0079
  Sm  Sm5  1  0.168520  0.872530  0.514300  1.0  2.0551
  Sm  Sm6  1  0.889590  0.863970  0.325250  1.0  2.0079
  Sm  Sm7  1  0.668520  0.372530  0.514300  1.0  2.0551
  Sm  Sm8  1  0.389590  0.363970  0.325250  1.0  2.0079
  Sm  Sm9  1  0.168520  0.127470  0.014300  1.0  2.0551
  Sm  Sm10  1  0.889590  0.136030  0.825250  1.0  2.008
  Sm  Sm11  1  0.668520  0.627470  0.014300  1.0  2.0551
  Sm  Sm12  1  0.389590  0.636030  0.825250  1.0  2.008
  Sm  Sm13  1  0.831480  0.127470  0.485700  1.0  2.0554
  Sm  Sm14  1  0.110410  0.136030  0.674750  1.0  2.008
  Sm  Sm15  1  0.331480  0.627470  0.485700  1.0  2.0554
  Sm  Sm16  1  0.610410  0.636030  0.674750  1.0  2.008
  H  H17  1  0.816900  0.561600  0.854700  1.0  0.1034
  H  H18  1  0.920800  0.537000  0.942000  1.0  0.0943
  H  H19  1  0.989100  0.639200  0.041300  1.0  0.1007
  H  H20  1  0.243800  0.151000  0.278700  1.0  0.1068
  H  H21  1  0.266600  0.171800  0.404400  1.0  0.098
  H  H22  1  0.220400  0.083900  0.433600  1.0  0.1014
  H  H23  1  0.316900  0.061600  0.854700  1.0  0.1034
  H  H24  1  0.420800  0.037000  0.942000  1.0  0.0953
  H  H25  1  0.489100  0.139200  0.041300  1.0  0.1007
  H  H26  1  0.743800  0.651000  0.278700  1.0  0.1068
  H  H27  1  0.766600  0.671800  0.404400  1.0  0.098
  H  H28  1  0.720400  0.583900  0.433600  1.0  0.1014
  H  H29  1  0.183100  0.561600  0.645300  1.0  0.1033
  H  H30  1  0.079200  0.537000  0.558000  1.0  0.0959
  H  H31  1  0.010900  0.639200  0.458700  1.0  0.1011
  H  H32  1  0.756200  0.151000  0.221300  1.0  0.106
  H  H33  1  0.733400  0.171800  0.095600  1.0  0.0984
  H  H34  1  0.779600  0.083900  0.066400  1.0  0.1013
  H  H35  1  0.683100  0.061600  0.645300  1.0  0.1033
  H  H36  1  0.579200  0.037000  0.558000  1.0  0.0959
  H  H37  1  0.510900  0.139200  0.458700  1.0  0.1011
  H  H38  1  0.256200  0.651000  0.221300  1.0  0.106
  H  H39  1  0.233400  0.671800  0.095600  1.0  0.0996
  H  H40  1  0.279600  0.583900  0.066400  1.0  0.1013
  H  H41  1  0.183100  0.438400  0.145300  1.0  0.1029
  H  H42  1  0.079200  0.463000  0.058000  1.0  0.0951
  H  H43  1  0.010900  0.360800  0.958700  1.0  0.1011
  H  H44  1  0.756200  0.849000  0.721300  1.0  0.1061
  H  H45  1  0.733400  0.828200  0.595600  1.0  0.0978
  H  H46  1  0.779600  0.916100  0.566400  1.0  0.1013
  H  H47  1  0.683100  0.938400  0.145300  1.0  0.1029
  H  H48  1  0.579200  0.963000  0.058000  1.0  0.0959
  H  H49  1  0.510900  0.860800  0.958700  1.0  0.1011
  H  H50  1  0.256200  0.349000  0.721300  1.0  0.1061
  H  H51  1  0.233400  0.328200  0.595600  1.0  0.0978
  H  H52  1  0.279600  0.416100  0.566400  1.0  0.1013
  H  H53  1  0.816900  0.438400  0.354700  1.0  0.1036
  H  H54  1  0.920800  0.463000  0.442000  1.0  0.0959
  H  H55  1  0.989100  0.360800  0.541300  1.0  0.1007
  H  H56  1  0.243800  0.849000  0.778700  1.0  0.1063
  H  H57  1  0.266600  0.828200  0.904400  1.0  0.0979
  H  H58  1  0.220400  0.916100  0.933600  1.0  0.1015
  H  H59  1  0.316900  0.938400  0.354700  1.0  0.1036
  H  H60  1  0.420800  0.963000  0.442000  1.0  0.0959
  H  H61  1  0.489100  0.860800  0.541300  1.0  0.1007
  H  H62  1  0.743800  0.349000  0.778700  1.0  0.1063
  H  H63  1  0.766600  0.328200  0.904400  1.0  0.0986
  H  H64  1  0.720400  0.416100  0.933600  1.0  0.1015
  C  C65  1  0.826900  0.678500  0.906000  1.0  0.0914
  C  C66  1  0.845300  0.602400  0.895700  1.0  -0.1262
  C  C67  1  0.906800  0.588200  0.947400  1.0  -0.1256
  C  C68  1  0.947100  0.648200  0.006000  1.0  -0.1268
  C  C69  1  0.925600  0.722300  0.013000  1.0  0.0837
  C  C70  1  0.762000  0.702400  0.853500  1.0  0.683
  C  C71  1  0.965600  0.793900  0.071600  1.0  0.6867
  C  C72  1  0.184800  0.053900  0.238300  1.0  0.1022
  C  C73  1  0.225500  0.116600  0.292100  1.0  -0.1356
  C  C74  1  0.239300  0.128300  0.366300  1.0  -0.1225
  C  C75  1  0.212600  0.075500  0.384000  1.0  -0.1263
  C  C76  1  0.174900  0.011200  0.329700  1.0  0.0985
  C  C77  1  0.162500  0.038400  0.153500  1.0  0.6824
  C  C78  1  0.148300  0.944200  0.345700  1.0  0.6961
  C  C79  1  0.326900  0.178500  0.906000  1.0  0.0914
  C  C80  1  0.345300  0.102400  0.895700  1.0  -0.1262
  C  C81  1  0.406800  0.088200  0.947400  1.0  -0.1256
  C  C82  1  0.447100  0.148200  0.006000  1.0  -0.1268
  C  C83  1  0.425600  0.222300  0.013000  1.0  0.0837
  C  C84  1  0.262000  0.202400  0.853500  1.0  0.683
  C  C85  1  0.465600  0.293900  0.071600  1.0  0.6867
  C  C86  1  0.684800  0.553900  0.238300  1.0  0.1022
  C  C87  1  0.725500  0.616600  0.292100  1.0  -0.1356
  C  C88  1  0.739300  0.628300  0.366300  1.0  -0.1225
  C  C89  1  0.712600  0.575500  0.384000  1.0  -0.1263
  C  C90  1  0.674900  0.511200  0.329700  1.0  0.0985
  C  C91  1  0.662500  0.538400  0.153500  1.0  0.6824
  C  C92  1  0.648300  0.444200  0.345700  1.0  0.6961
  C  C93  1  0.173100  0.678500  0.594000  1.0  0.0914
  C  C94  1  0.154700  0.602400  0.604300  1.0  -0.125
  C  C95  1  0.093200  0.588200  0.552600  1.0  -0.1257
  C  C96  1  0.052900  0.648200  0.494000  1.0  -0.127
  C  C97  1  0.074400  0.722300  0.487000  1.0  0.0839
  C  C98  1  0.238000  0.702400  0.646500  1.0  0.6854
  C  C99  1  0.034400  0.793900  0.428400  1.0  0.688
  C  C100  1  0.815200  0.053900  0.261700  1.0  0.1022
  C  C101  1  0.774500  0.116600  0.207900  1.0  -0.1361
  C  C102  1  0.760700  0.128300  0.133700  1.0  -0.1264
  C  C103  1  0.787400  0.075500  0.116000  1.0  -0.1247
  C  C104  1  0.825100  0.011200  0.170300  1.0  0.0984
  C  C105  1  0.837500  0.038400  0.346500  1.0  0.6826
  C  C106  1  0.851700  0.944200  0.154300  1.0  0.6962
  C  C107  1  0.673100  0.178500  0.594000  1.0  0.0914
  C  C108  1  0.654700  0.102400  0.604300  1.0  -0.125
  C  C109  1  0.593200  0.088200  0.552600  1.0  -0.1257
  C  C110  1  0.552900  0.148200  0.494000  1.0  -0.127
  C  C111  1  0.574400  0.222300  0.487000  1.0  0.0839
  C  C112  1  0.738000  0.202400  0.646500  1.0  0.6854
  C  C113  1  0.534400  0.293900  0.428400  1.0  0.688
  C  C114  1  0.315200  0.553900  0.261700  1.0  0.1022
  C  C115  1  0.274500  0.616600  0.207900  1.0  -0.1361
  C  C116  1  0.260700  0.628300  0.133700  1.0  -0.1264
  C  C117  1  0.287400  0.575500  0.116000  1.0  -0.1247
  C  C118  1  0.325100  0.511200  0.170300  1.0  0.0984
  C  C119  1  0.337500  0.538400  0.346500  1.0  0.6826
  C  C120  1  0.351700  0.444200  0.154300  1.0  0.6962
  C  C121  1  0.173100  0.321500  0.094000  1.0  0.0916
  C  C122  1  0.154700  0.397600  0.104300  1.0  -0.1266
  C  C123  1  0.093200  0.411800  0.052600  1.0  -0.125
  C  C124  1  0.052900  0.351800  0.994000  1.0  -0.1277
  C  C125  1  0.074400  0.277700  0.987000  1.0  0.0838
  C  C126  1  0.238000  0.297600  0.146500  1.0  0.6862
  C  C127  1  0.034400  0.206100  0.928400  1.0  0.6879
  C  C128  1  0.815200  0.946100  0.761700  1.0  0.1026
  C  C129  1  0.774500  0.883400  0.707900  1.0  -0.136
  C  C130  1  0.760700  0.871700  0.633700  1.0  -0.1261
  C  C131  1  0.787400  0.924500  0.616000  1.0  -0.1253
  C  C132  1  0.825100  0.988800  0.670300  1.0  0.0985
  C  C133  1  0.837500  0.961600  0.846500  1.0  0.6812
  C  C134  1  0.851700  0.055800  0.654300  1.0  0.6959
  C  C135  1  0.673100  0.821500  0.094000  1.0  0.0916
  C  C136  1  0.654700  0.897600  0.104300  1.0  -0.1266
  C  C137  1  0.593200  0.911800  0.052600  1.0  -0.125
  C  C138  1  0.552900  0.851800  0.994000  1.0  -0.1277
  C  C139  1  0.574400  0.777700  0.987000  1.0  0.0838
  C  C140  1  0.738000  0.797600  0.146500  1.0  0.6862
  C  C141  1  0.534400  0.706100  0.928400  1.0  0.6879
  C  C142  1  0.315200  0.446100  0.761700  1.0  0.1026
  C  C143  1  0.274500  0.383400  0.707900  1.0  -0.136
  C  C144  1  0.260700  0.371700  0.633700  1.0  -0.1261
  C  C145  1  0.287400  0.424500  0.616000  1.0  -0.1253
  C  C146  1  0.325100  0.488800  0.670300  1.0  0.0985
  C  C147  1  0.337500  0.461600  0.846500  1.0  0.6812
  C  C148  1  0.351700  0.555800  0.654300  1.0  0.6959
  C  C149  1  0.826900  0.321500  0.406000  1.0  0.0917
  C  C150  1  0.845300  0.397600  0.395700  1.0  -0.1272
  C  C151  1  0.906800  0.411800  0.447400  1.0  -0.1246
  C  C152  1  0.947100  0.351800  0.506000  1.0  -0.1268
  C  C153  1  0.925600  0.277700  0.513000  1.0  0.085
  C  C154  1  0.762000  0.297600  0.353500  1.0  0.6834
  C  C155  1  0.965600  0.206100  0.571600  1.0  0.6886
  C  C156  1  0.184800  0.946100  0.738300  1.0  0.1022
  C  C157  1  0.225500  0.883400  0.792100  1.0  -0.1365
  C  C158  1  0.239300  0.871700  0.866300  1.0  -0.1226
  C  C159  1  0.212600  0.924500  0.884000  1.0  -0.1272
  C  C160  1  0.174900  0.988800  0.829700  1.0  0.0983
  C  C161  1  0.162500  0.961600  0.653500  1.0  0.6817
  C  C162  1  0.148300  0.055800  0.845700  1.0  0.6946
  C  C163  1  0.326900  0.821500  0.406000  1.0  0.0917
  C  C164  1  0.345300  0.897600  0.395700  1.0  -0.1272
  C  C165  1  0.406800  0.911800  0.447400  1.0  -0.1246
  C  C166  1  0.447100  0.851800  0.506000  1.0  -0.1268
  C  C167  1  0.425600  0.777700  0.513000  1.0  0.085
  C  C168  1  0.262000  0.797600  0.353500  1.0  0.6834
  C  C169  1  0.465600  0.706100  0.571600  1.0  0.6886
  C  C170  1  0.684800  0.446100  0.738300  1.0  0.1022
  C  C171  1  0.725500  0.383400  0.792100  1.0  -0.1365
  C  C172  1  0.739300  0.371700  0.866300  1.0  -0.1226
  C  C173  1  0.712600  0.424500  0.884000  1.0  -0.1272
  C  C174  1  0.674900  0.488800  0.829700  1.0  0.0983
  C  C175  1  0.662500  0.461600  0.653500  1.0  0.6817
  C  C176  1  0.648300  0.555800  0.845700  1.0  0.6946
  N  N177  1  0.865800  0.737000  0.963900  1.0  -0.5127
  N  N178  1  0.161700  0.000600  0.258200  1.0  -0.4949
  N  N179  1  0.365800  0.237000  0.963900  1.0  -0.5127
  N  N180  1  0.661700  0.500600  0.258200  1.0  -0.4949
  N  N181  1  0.134200  0.737000  0.536100  1.0  -0.513
  N  N182  1  0.838300  0.000600  0.241800  1.0  -0.4964
  N  N183  1  0.634200  0.237000  0.536100  1.0  -0.513
  N  N184  1  0.338300  0.500600  0.241800  1.0  -0.4964
  N  N185  1  0.134200  0.263000  0.036100  1.0  -0.5137
  N  N186  1  0.838300  0.999400  0.741800  1.0  -0.4974
  N  N187  1  0.634200  0.763000  0.036100  1.0  -0.5137
  N  N188  1  0.338300  0.499400  0.741800  1.0  -0.4974
  N  N189  1  0.865800  0.263000  0.463900  1.0  -0.5128
  N  N190  1  0.161700  0.999400  0.758200  1.0  -0.4949
  N  N191  1  0.365800  0.763000  0.463900  1.0  -0.5128
  N  N192  1  0.661700  0.499400  0.758200  1.0  -0.4949
  O  O193  1  0.752400  0.772000  0.871300  1.0  -0.7452
  O  O194  1  0.722400  0.653400  0.795100  1.0  -0.764
  O  O195  1  0.940000  0.859300  0.069500  1.0  -0.7386
  O  O196  1  0.021100  0.786800  0.115700  1.0  -0.7673
  O  O197  1  0.134000  0.969900  0.118000  1.0  -0.7371
  O  O198  1  0.172600  0.094700  0.124100  1.0  -0.7479
  O  O199  1  0.121600  0.882900  0.295100  1.0  -0.7216
  O  O200  1  0.156800  0.952300  0.409500  1.0  -0.7965
  O  O201  1  0.252400  0.272000  0.871300  1.0  -0.7452
  O  O202  1  0.222400  0.153400  0.795100  1.0  -0.764
  O  O203  1  0.440000  0.359300  0.069500  1.0  -0.7386
  O  O204  1  0.521100  0.286800  0.115700  1.0  -0.7673
  O  O205  1  0.634000  0.469900  0.118000  1.0  -0.7371
  O  O206  1  0.672600  0.594700  0.124100  1.0  -0.7479
  O  O207  1  0.621600  0.382900  0.295100  1.0  -0.7216
  O  O208  1  0.656800  0.452300  0.409500  1.0  -0.7965
  O  O209  1  0.247600  0.772000  0.628700  1.0  -0.7442
  O  O210  1  0.277600  0.653400  0.704900  1.0  -0.765
  O  O211  1  0.060000  0.859300  0.430500  1.0  -0.7401
  O  O212  1  0.978900  0.786800  0.384300  1.0  -0.7672
  O  O213  1  0.866000  0.969900  0.382000  1.0  -0.7423
  O  O214  1  0.827400  0.094700  0.375900  1.0  -0.7473
  O  O215  1  0.878400  0.882900  0.204900  1.0  -0.7236
  O  O216  1  0.843200  0.952300  0.090500  1.0  -0.7946
  O  O217  1  0.747600  0.272000  0.628700  1.0  -0.7442
  O  O218  1  0.777600  0.153400  0.704900  1.0  -0.765
  O  O219  1  0.560000  0.359300  0.430500  1.0  -0.7401
  O  O220  1  0.478900  0.286800  0.384300  1.0  -0.7672
  O  O221  1  0.366000  0.469900  0.382000  1.0  -0.7423
  O  O222  1  0.327400  0.594700  0.375900  1.0  -0.7473
  O  O223  1  0.378400  0.382900  0.204900  1.0  -0.7236
  O  O224  1  0.343200  0.452300  0.090500  1.0  -0.7946
  O  O225  1  0.247600  0.228000  0.128700  1.0  -0.7443
  O  O226  1  0.277600  0.346600  0.204900  1.0  -0.764
  O  O227  1  0.060000  0.140700  0.930500  1.0  -0.7397
  O  O228  1  0.978900  0.213200  0.884300  1.0  -0.7672
  O  O229  1  0.866000  0.030100  0.882000  1.0  -0.7417
  O  O230  1  0.827400  0.905300  0.875900  1.0  -0.7478
  O  O231  1  0.878400  0.117100  0.704900  1.0  -0.7235
  O  O232  1  0.843200  0.047700  0.590500  1.0  -0.795
  O  O233  1  0.747600  0.728000  0.128700  1.0  -0.7443
  O  O234  1  0.777600  0.846600  0.204900  1.0  -0.764
  O  O235  1  0.560000  0.640700  0.930500  1.0  -0.7397
  O  O236  1  0.478900  0.713200  0.884300  1.0  -0.7672
  O  O237  1  0.366000  0.530100  0.882000  1.0  -0.7417
  O  O238  1  0.327400  0.405300  0.875900  1.0  -0.7478
  O  O239  1  0.378400  0.617100  0.704900  1.0  -0.7235
  O  O240  1  0.343200  0.547700  0.590500  1.0  -0.795
  O  O241  1  0.752400  0.228000  0.371300  1.0  -0.7441
  O  O242  1  0.722400  0.346600  0.295100  1.0  -0.7634
  O  O243  1  0.940000  0.140700  0.569500  1.0  -0.7391
  O  O244  1  0.021100  0.213200  0.615700  1.0  -0.7674
  O  O245  1  0.134000  0.030100  0.618000  1.0  -0.7386
  O  O246  1  0.172600  0.905300  0.624100  1.0  -0.7479
  O  O247  1  0.121600  0.117100  0.795100  1.0  -0.7228
  O  O248  1  0.156800  0.047700  0.909500  1.0  -0.7965
  O  O249  1  0.252400  0.728000  0.371300  1.0  -0.7441
  O  O250  1  0.222400  0.846600  0.295100  1.0  -0.7634
  O  O251  1  0.440000  0.640700  0.569500  1.0  -0.7391
  O  O252  1  0.521100  0.713200  0.615700  1.0  -0.7674
  O  O253  1  0.634000  0.530100  0.618000  1.0  -0.7386
  O  O254  1  0.672600  0.405300  0.624100  1.0  -0.7479
  O  O255  1  0.621600  0.617100  0.795100  1.0  -0.7228
  O  O256  1  0.656800  0.547700  0.909500  1.0  -0.7965
