# generated using pymatgen
data_TbH3(CO)6
_symmetry_space_group_name_H-M   'P 1'
_cell_length_a   9.63100000
_cell_length_b   12.21200000
_cell_length_c   12.21200000
_cell_angle_alpha   95.49930000
_cell_angle_beta   94.50590000
_cell_angle_gamma   94.50590000
_symmetry_Int_Tables_number   1
_chemical_formula_structural   TbH3(CO)6
_chemical_formula_sum   'Tb4 H12 C24 O24'
_cell_volume   1419.89586286
_cell_formula_units_Z   4
loop_
 _symmetry_equiv_pos_site_id
 _symmetry_equiv_pos_as_xyz
  1  'x, y, z'
loop_
 _atom_site_type_symbol
 _atom_site_label
 _atom_site_symmetry_multiplicity
 _atom_site_fract_x
 _atom_site_fract_y
 _atom_site_fract_z
 _atom_site_occupancy
 _atom_site_charge
  Tb  Tb1  1  0.467640  0.263740  0.236950  1.0  2.2541
  Tb  Tb2  1  0.032360  0.763050  0.736260  1.0  2.2457
  Tb  Tb3  1  0.532360  0.736260  0.763050  1.0  2.2538
  Tb  Tb4  1  0.967640  0.236950  0.263740  1.0  2.248
  H  H5  1  0.387000  0.046700  0.539100  1.0  0.1022
  H  H6  1  0.614200  0.433200  0.494800  1.0  0.0951
  H  H7  1  0.607900  0.010800  0.950600  1.0  0.0831
  H  H8  1  0.113000  0.460900  0.953300  1.0  0.1007
  H  H9  1  0.885800  0.505200  0.566800  1.0  0.0947
  H  H10  1  0.892100  0.049400  0.989200  1.0  0.0826
  H  H11  1  0.613000  0.953300  0.460900  1.0  0.1004
  H  H12  1  0.385800  0.566800  0.505200  1.0  0.0945
  H  H13  1  0.392100  0.989200  0.049400  1.0  0.0828
  H  H14  1  0.887000  0.539100  0.046700  1.0  0.1011
  H  H15  1  0.114200  0.494800  0.433200  1.0  0.0952
  H  H16  1  0.107900  0.950600  0.010800  1.0  0.0832
  C  C17  1  0.466700  0.112500  0.402500  1.0  0.7477
  C  C18  1  0.457500  0.038300  0.491900  1.0  -0.1783
  C  C19  1  0.769700  0.356500  0.412500  1.0  0.7439
  C  C20  1  0.710900  0.434700  0.494100  1.0  -0.186
  C  C21  1  0.683900  0.134700  0.077900  1.0  0.7667
  C  C22  1  0.691000  0.045200  0.986400  1.0  -0.2195
  C  C23  1  0.033300  0.597500  0.887500  1.0  0.7452
  C  C24  1  0.042500  0.508100  0.961700  1.0  -0.1825
  C  C25  1  0.730300  0.587500  0.643500  1.0  0.743
  C  C26  1  0.789100  0.505900  0.565300  1.0  -0.1868
  C  C27  1  0.816100  0.922100  0.865300  1.0  0.7655
  C  C28  1  0.809000  0.013600  0.954800  1.0  -0.2169
  C  C29  1  0.533300  0.887500  0.597500  1.0  0.7471
  C  C30  1  0.542500  0.961700  0.508100  1.0  -0.1854
  C  C31  1  0.230300  0.643500  0.587500  1.0  0.7388
  C  C32  1  0.289100  0.565300  0.505900  1.0  -0.1864
  C  C33  1  0.316100  0.865300  0.922100  1.0  0.7647
  C  C34  1  0.309000  0.954800  0.013600  1.0  -0.2165
  C  C35  1  0.966700  0.402500  0.112500  1.0  0.7468
  C  C36  1  0.957500  0.491900  0.038300  1.0  -0.1844
  C  C37  1  0.269700  0.412500  0.356500  1.0  0.7542
  C  C38  1  0.210900  0.494100  0.434700  1.0  -0.188
  C  C39  1  0.183900  0.077900  0.134700  1.0  0.7679
  C  C40  1  0.191000  0.986400  0.045200  1.0  -0.2198
  O  O41  1  0.397700  0.195700  0.408500  1.0  -0.6728
  O  O42  1  0.541400  0.092420  0.324580  1.0  -0.666
  O  O43  1  0.686100  0.302790  0.338570  1.0  -0.7722
  O  O44  1  0.898400  0.345570  0.419770  1.0  -0.6337
  O  O45  1  0.564300  0.163320  0.094320  1.0  -0.7521
  O  O46  1  0.791600  0.176300  0.130900  1.0  -0.7014
  O  O47  1  0.102300  0.591500  0.804300  1.0  -0.6728
  O  O48  1  0.958600  0.675420  0.907580  1.0  -0.6645
  O  O49  1  0.813900  0.661430  0.697210  1.0  -0.7733
  O  O50  1  0.601600  0.580230  0.654430  1.0  -0.6376
  O  O51  1  0.935700  0.905680  0.836680  1.0  -0.7504
  O  O52  1  0.708400  0.869100  0.823700  1.0  -0.7006
  O  O53  1  0.602300  0.804300  0.591500  1.0  -0.675
  O  O54  1  0.458600  0.907580  0.675420  1.0  -0.6658
  O  O55  1  0.313900  0.697210  0.661430  1.0  -0.773
  O  O56  1  0.101600  0.654430  0.580230  1.0  -0.637
  O  O57  1  0.435700  0.836680  0.905680  1.0  -0.7523
  O  O58  1  0.208400  0.823700  0.869100  1.0  -0.7013
  O  O59  1  0.897700  0.408500  0.195700  1.0  -0.672
  O  O60  1  0.041400  0.324580  0.092420  1.0  -0.6661
  O  O61  1  0.186100  0.338570  0.302790  1.0  -0.7711
  O  O62  1  0.398400  0.419770  0.345570  1.0  -0.6343
  O  O63  1  0.064300  0.094320  0.163320  1.0  -0.7498
  O  O64  1  0.291600  0.130900  0.176300  1.0  -0.7031
