# generated using pymatgen
data_Zn3P4H15C14(NO7)2
_symmetry_space_group_name_H-M   'P 1'
_cell_length_a   9.65500000
_cell_length_b   9.34400000
_cell_length_c   30.96500000
_cell_angle_alpha   90.00000000
_cell_angle_beta   93.85900000
_cell_angle_gamma   90.00000000
_symmetry_Int_Tables_number   1
_chemical_formula_structural   Zn3P4H15C14(NO7)2
_chemical_formula_sum   'Zn12 P16 H60 C56 N8 O56'
_cell_volume   2787.21452019
_cell_formula_units_Z   4
loop_
 _symmetry_equiv_pos_site_id
 _symmetry_equiv_pos_as_xyz
  1  'x, y, z'
loop_
 _atom_site_type_symbol
 _atom_site_label
 _atom_site_symmetry_multiplicity
 _atom_site_fract_x
 _atom_site_fract_y
 _atom_site_fract_z
 _atom_site_occupancy
 _atom_site_charge
  Zn  Zn1  1  0.530470  0.285100  0.140950  1.0  1.0426
  Zn  Zn2  1  0.701440  0.548250  0.038170  1.0  0.931
  Zn  Zn3  1  0.440790  0.311410  0.307640  1.0  1.0267
  Zn  Zn4  1  0.469530  0.785100  0.359050  1.0  1.0435
  Zn  Zn5  1  0.298560  0.048250  0.461830  1.0  0.9291
  Zn  Zn6  1  0.559210  0.811410  0.192360  1.0  1.0287
  Zn  Zn7  1  0.469530  0.714900  0.859040  1.0  1.045
  Zn  Zn8  1  0.298560  0.451750  0.961830  1.0  0.929
  Zn  Zn9  1  0.559210  0.688590  0.692360  1.0  1.0293
  Zn  Zn10  1  0.530470  0.214900  0.640960  1.0  1.043
  Zn  Zn11  1  0.701440  0.951750  0.538170  1.0  0.9302
  Zn  Zn12  1  0.440790  0.188590  0.807640  1.0  1.0272
  P  P13  1  0.461140  0.121420  0.221510  1.0  1.4546
  P  P14  1  0.745260  0.072500  0.182900  1.0  1.4586
  P  P15  1  0.413300  0.376730  0.051680  1.0  1.5049
  P  P16  1  0.518960  0.613060  0.111990  1.0  1.4666
  P  P17  1  0.538860  0.621420  0.278490  1.0  1.454
  P  P18  1  0.254740  0.572500  0.317100  1.0  1.4589
  P  P19  1  0.586700  0.876730  0.448320  1.0  1.5069
  P  P20  1  0.481040  0.113060  0.388010  1.0  1.467
  P  P21  1  0.538860  0.878580  0.778490  1.0  1.4542
  P  P22  1  0.254740  0.927500  0.817100  1.0  1.4589
  P  P23  1  0.586700  0.623270  0.948320  1.0  1.5008
  P  P24  1  0.481040  0.386940  0.888010  1.0  1.468
  P  P25  1  0.461140  0.378580  0.721510  1.0  1.4553
  P  P26  1  0.745260  0.427500  0.682900  1.0  1.4584
  P  P27  1  0.413300  0.123270  0.551680  1.0  1.5015
  P  P28  1  0.518960  0.886940  0.611990  1.0  1.4672
  H  H29  1  0.648500  0.330400  0.247800  1.0  0.425
  H  H30  1  0.361800  0.636100  0.022900  1.0  0.4304
  H  H31  1  0.069500  0.802700  0.299600  1.0  0.3159
  H  H32  1  0.653700  0.114200  0.295500  1.0  0.1326
  H  H33  1  0.650900  0.967800  0.271200  1.0  0.148
  H  H34  1  0.897300  0.249200  0.295600  1.0  0.129
  H  H35  1  0.128100  0.210400  0.316900  1.0  0.1415
  H  H36  1  0.214000  0.980500  0.317100  1.0  0.1201
  H  H37  1  0.847800  0.829000  0.278700  1.0  0.1234
  H  H38  1  0.280800  0.485900  0.133700  1.0  0.1566
  H  H39  1  0.216800  0.627600  0.114800  1.0  0.1632
  H  H40  1  0.167700  0.260900  0.118400  1.0  0.1285
  H  H41  1  0.961000  0.144200  0.099300  1.0  0.1373
  H  H42  1  0.783000  0.269700  0.063400  1.0  0.1074
  H  H43  1  0.013200  0.613600  0.061600  1.0  0.1194
  H  H44  1  0.351500  0.830400  0.252200  1.0  0.4259
  H  H45  1  0.638200  0.136100  0.477100  1.0  0.4296
  H  H46  1  0.930500  0.302700  0.200400  1.0  0.3153
  H  H47  1  0.346300  0.614200  0.204500  1.0  0.1318
  H  H48  1  0.349100  0.467800  0.228800  1.0  0.1467
  H  H49  1  0.102700  0.749200  0.204400  1.0  0.1294
  H  H50  1  0.871900  0.710400  0.183100  1.0  0.1414
  H  H51  1  0.786000  0.480500  0.182900  1.0  0.1211
  H  H52  1  0.152200  0.329000  0.221300  1.0  0.1236
  H  H53  1  0.719200  0.985900  0.366300  1.0  0.1573
  H  H54  1  0.783200  0.127600  0.385200  1.0  0.1624
  H  H55  1  0.832300  0.760900  0.381600  1.0  0.1286
  H  H56  1  0.039000  0.644200  0.400700  1.0  0.1377
  H  H57  1  0.217000  0.769700  0.436600  1.0  0.1078
  H  H58  1  0.986800  0.113600  0.438400  1.0  0.1195
  H  H59  1  0.351500  0.669600  0.752200  1.0  0.4251
  H  H60  1  0.638200  0.363900  0.977100  1.0  0.4297
  H  H61  1  0.930500  0.197300  0.700400  1.0  0.3153
  H  H62  1  0.346300  0.885800  0.704500  1.0  0.1312
  H  H63  1  0.349100  0.032200  0.728800  1.0  0.1461
  H  H64  1  0.102700  0.750800  0.704400  1.0  0.1292
  H  H65  1  0.871900  0.789600  0.683100  1.0  0.141
  H  H66  1  0.786000  0.019500  0.682900  1.0  0.1212
  H  H67  1  0.152200  0.171000  0.721300  1.0  0.1238
  H  H68  1  0.719200  0.514100  0.866300  1.0  0.1576
  H  H69  1  0.783200  0.372400  0.885200  1.0  0.1632
  H  H70  1  0.832300  0.739100  0.881600  1.0  0.1296
  H  H71  1  0.039000  0.855800  0.900700  1.0  0.137
  H  H72  1  0.217000  0.730300  0.936600  1.0  0.1066
  H  H73  1  0.986800  0.386400  0.938400  1.0  0.1196
  H  H74  1  0.648500  0.169600  0.747800  1.0  0.4251
  H  H75  1  0.361800  0.863900  0.522900  1.0  0.4302
  H  H76  1  0.069500  0.697300  0.799600  1.0  0.3154
  H  H77  1  0.653700  0.385800  0.795500  1.0  0.1323
  H  H78  1  0.650900  0.532200  0.771200  1.0  0.1473
  H  H79  1  0.897300  0.250800  0.795600  1.0  0.1292
  H  H80  1  0.128100  0.289600  0.816900  1.0  0.1416
  H  H81  1  0.214000  0.519500  0.817100  1.0  0.1207
  H  H82  1  0.847800  0.671000  0.778700  1.0  0.1238
  H  H83  1  0.280800  0.014100  0.633700  1.0  0.157
  H  H84  1  0.216800  0.872400  0.614800  1.0  0.1639
  H  H85  1  0.167700  0.239100  0.618400  1.0  0.1293
  H  H86  1  0.961000  0.355800  0.599300  1.0  0.1366
  H  H87  1  0.783000  0.230300  0.563400  1.0  0.1069
  H  H88  1  0.013200  0.886400  0.561600  1.0  0.1191
  C  C89  1  0.651800  0.139500  0.229250  1.0  -0.2566
  C  C90  1  0.693600  0.061800  0.272360  1.0  -0.3238
  C  C91  1  0.845500  0.042800  0.284310  1.0  0.1261
  C  C92  1  0.932500  0.156500  0.296150  1.0  -0.0861
  C  C93  1  0.070400  0.133900  0.308800  1.0  -0.0559
  C  C94  1  0.120700  0.997400  0.309300  1.0  0.1053
  C  C95  1  0.903100  0.907900  0.286190  1.0  0.0713
  C  C96  1  0.367600  0.547400  0.077700  1.0  -0.3425
  C  C97  1  0.245000  0.531900  0.107130  1.0  -0.334
  C  C98  1  0.114900  0.451600  0.091230  1.0  0.1255
  C  C99  1  0.096200  0.309500  0.103020  1.0  -0.039
  C  C100  1  0.972700  0.239900  0.092200  1.0  -0.0811
  C  C101  1  0.866900  0.315700  0.070500  1.0  0.1795
  C  C102  1  0.003500  0.518400  0.069610  1.0  0.1702
  C  C103  1  0.348200  0.639500  0.270750  1.0  -0.2557
  C  C104  1  0.306400  0.561800  0.227640  1.0  -0.3238
  C  C105  1  0.154500  0.542800  0.215690  1.0  0.1261
  C  C106  1  0.067500  0.656500  0.203850  1.0  -0.0864
  C  C107  1  0.929600  0.633900  0.191200  1.0  -0.0559
  C  C108  1  0.879300  0.497400  0.190700  1.0  0.1052
  C  C109  1  0.096900  0.407900  0.213810  1.0  0.071
  C  C110  1  0.632400  0.047400  0.422300  1.0  -0.3402
  C  C111  1  0.755000  0.031900  0.392870  1.0  -0.3301
  C  C112  1  0.885100  0.951600  0.408770  1.0  0.1263
  C  C113  1  0.903800  0.809500  0.396980  1.0  -0.0369
  C  C114  1  0.027300  0.739900  0.407800  1.0  -0.0793
  C  C115  1  0.133100  0.815700  0.429500  1.0  0.1797
  C  C116  1  0.996500  0.018400  0.430390  1.0  0.1695
  C  C117  1  0.348200  0.860500  0.770750  1.0  -0.2575
  C  C118  1  0.306400  0.938200  0.727640  1.0  -0.3237
  C  C119  1  0.154500  0.957200  0.715690  1.0  0.1261
  C  C120  1  0.067500  0.843500  0.703850  1.0  -0.0851
  C  C121  1  0.929600  0.866100  0.691200  1.0  -0.0597
  C  C122  1  0.879300  0.002600  0.690700  1.0  0.1052
  C  C123  1  0.096900  0.092100  0.713810  1.0  0.0702
  C  C124  1  0.632400  0.452600  0.922300  1.0  -0.3413
  C  C125  1  0.755000  0.468100  0.892870  1.0  -0.3289
  C  C126  1  0.885100  0.548400  0.908770  1.0  0.1262
  C  C127  1  0.903800  0.690500  0.896980  1.0  -0.0372
  C  C128  1  0.027300  0.760100  0.907800  1.0  -0.0786
  C  C129  1  0.133100  0.684300  0.929500  1.0  0.1812
  C  C130  1  0.996500  0.481600  0.930390  1.0  0.1703
  C  C131  1  0.651800  0.360500  0.729250  1.0  -0.2576
  C  C132  1  0.693600  0.438200  0.772360  1.0  -0.3238
  C  C133  1  0.845500  0.457200  0.784310  1.0  0.126
  C  C134  1  0.932500  0.343500  0.796150  1.0  -0.0842
  C  C135  1  0.070400  0.366100  0.808800  1.0  -0.0597
  C  C136  1  0.120700  0.502600  0.809300  1.0  0.1056
  C  C137  1  0.903100  0.592100  0.786190  1.0  0.0706
  C  C138  1  0.367600  0.952600  0.577700  1.0  -0.3423
  C  C139  1  0.245000  0.968100  0.607130  1.0  -0.3339
  C  C140  1  0.114900  0.048400  0.591230  1.0  0.1255
  C  C141  1  0.096200  0.190500  0.603020  1.0  -0.0358
  C  C142  1  0.972700  0.260100  0.592200  1.0  -0.0785
  C  C143  1  0.866900  0.184300  0.570500  1.0  0.1807
  C  C144  1  0.003500  0.981600  0.569610  1.0  0.1693
  N  N145  1  0.036700  0.888200  0.298540  1.0  -0.1724
  N  N146  1  0.880600  0.452700  0.059460  1.0  -0.3093
  N  N147  1  0.963300  0.388200  0.201460  1.0  -0.1724
  N  N148  1  0.119400  0.952700  0.440540  1.0  -0.3106
  N  N149  1  0.963300  0.111800  0.701460  1.0  -0.1732
  N  N150  1  0.119400  0.547300  0.940540  1.0  -0.3104
  N  N151  1  0.036700  0.611800  0.798540  1.0  -0.1735
  N  N152  1  0.880600  0.047300  0.559460  1.0  -0.312
  O  O153  1  0.408400  0.215700  0.183780  1.0  -0.7899
  O  O154  1  0.401500  0.169100  0.263130  1.0  -0.8014
  O  O155  1  0.431700  0.961600  0.212950  1.0  -0.784
  O  O156  1  0.675700  0.143600  0.142490  1.0  -0.7871
  O  O157  1  0.728200  0.910100  0.181540  1.0  -0.8093
  O  O158  1  0.895700  0.114900  0.191060  1.0  -0.7853
  O  O159  1  0.690400  0.287800  0.229540  1.0  -0.5482
  O  O160  1  0.413300  0.262300  0.086500  1.0  -0.7489
  O  O161  1  0.556500  0.395700  0.034040  1.0  -0.7731
  O  O162  1  0.302100  0.347300  0.015620  1.0  -0.7542
  O  O163  1  0.467200  0.735700  0.139190  1.0  -0.7585
  O  O164  1  0.571900  0.487800  0.139490  1.0  -0.8048
  O  O165  1  0.625800  0.668800  0.082240  1.0  -0.7405
  O  O166  1  0.325800  0.654000  0.045500  1.0  -0.557
  O  O167  1  0.591600  0.715700  0.316220  1.0  -0.7896
  O  O168  1  0.598500  0.669100  0.236870  1.0  -0.8023
  O  O169  1  0.568300  0.461600  0.287050  1.0  -0.7846
  O  O170  1  0.324300  0.643600  0.357510  1.0  -0.7852
  O  O171  1  0.271800  0.410100  0.318460  1.0  -0.808
  O  O172  1  0.104300  0.614900  0.308940  1.0  -0.7847
  O  O173  1  0.309600  0.787800  0.270460  1.0  -0.5489
  O  O174  1  0.586700  0.762300  0.413500  1.0  -0.7496
  O  O175  1  0.443500  0.895700  0.465960  1.0  -0.7734
  O  O176  1  0.697900  0.847300  0.484380  1.0  -0.7548
  O  O177  1  0.532800  0.235700  0.360810  1.0  -0.7598
  O  O178  1  0.428100  0.987800  0.360510  1.0  -0.8044
  O  O179  1  0.374200  0.168800  0.417760  1.0  -0.7403
  O  O180  1  0.674200  0.154000  0.454500  1.0  -0.5563
  O  O181  1  0.591600  0.784300  0.816220  1.0  -0.7911
  O  O182  1  0.598500  0.830900  0.736870  1.0  -0.8023
  O  O183  1  0.568300  0.038400  0.787050  1.0  -0.7845
  O  O184  1  0.324300  0.856400  0.857510  1.0  -0.7858
  O  O185  1  0.271800  0.089900  0.818460  1.0  -0.8085
  O  O186  1  0.104300  0.885100  0.808940  1.0  -0.7853
  O  O187  1  0.309600  0.712200  0.770460  1.0  -0.5494
  O  O188  1  0.586700  0.737700  0.913500  1.0  -0.7533
  O  O189  1  0.443500  0.604300  0.965960  1.0  -0.7733
  O  O190  1  0.697900  0.652700  0.984380  1.0  -0.7556
  O  O191  1  0.532800  0.264300  0.860810  1.0  -0.7571
  O  O192  1  0.428100  0.512200  0.860510  1.0  -0.8042
  O  O193  1  0.374200  0.331200  0.917760  1.0  -0.7394
  O  O194  1  0.674200  0.346000  0.954500  1.0  -0.5568
  O  O195  1  0.408400  0.284300  0.683780  1.0  -0.7914
  O  O196  1  0.401500  0.330900  0.763130  1.0  -0.8015
  O  O197  1  0.431700  0.538400  0.712950  1.0  -0.7842
  O  O198  1  0.675700  0.356400  0.642490  1.0  -0.7878
  O  O199  1  0.728200  0.589900  0.681540  1.0  -0.8095
  O  O200  1  0.895700  0.385100  0.691060  1.0  -0.7849
  O  O201  1  0.690400  0.212200  0.729540  1.0  -0.5481
  O  O202  1  0.413300  0.237700  0.586500  1.0  -0.7522
  O  O203  1  0.556500  0.104300  0.534040  1.0  -0.773
  O  O204  1  0.302100  0.152700  0.515620  1.0  -0.7556
  O  O205  1  0.467200  0.764300  0.639190  1.0  -0.756
  O  O206  1  0.571900  0.012200  0.639490  1.0  -0.805
  O  O207  1  0.625800  0.831200  0.582240  1.0  -0.7389
  O  O208  1  0.325800  0.846000  0.545500  1.0  -0.5568
