# generated using pymatgen
data_MgH4C4O5
_symmetry_space_group_name_H-M   'P 1'
_cell_length_a   6.86040000
_cell_length_b   9.99250000
_cell_length_c   10.88410000
_cell_angle_alpha   90.00000000
_cell_angle_beta   90.00000000
_cell_angle_gamma   90.00000000
_symmetry_Int_Tables_number   1
_chemical_formula_structural   MgH4C4O5
_chemical_formula_sum   'Mg4 H16 C16 O20'
_cell_volume   746.13277680
_cell_formula_units_Z   4
loop_
 _symmetry_equiv_pos_site_id
 _symmetry_equiv_pos_as_xyz
  1  'x, y, z'
loop_
 _atom_site_type_symbol
 _atom_site_label
 _atom_site_symmetry_multiplicity
 _atom_site_fract_x
 _atom_site_fract_y
 _atom_site_fract_z
 _atom_site_occupancy
 _atom_site_charge
  Mg  Mg1  1  0.857590  0.203180  0.289340  1.0  1.4846
  Mg  Mg2  1  0.642410  0.796820  0.789340  1.0  1.4849
  Mg  Mg3  1  0.142410  0.703180  0.210660  1.0  1.4841
  Mg  Mg4  1  0.357590  0.296820  0.710660  1.0  1.4864
  H  H5  1  0.560000  0.892000  0.311000  1.0  0.0999
  H  H6  1  0.674000  0.921000  0.428000  1.0  0.0905
  H  H7  1  0.532000  0.085000  0.513000  1.0  0.0963
  H  H8  1  0.371000  0.125000  0.417000  1.0  0.1143
  H  H9  1  0.940000  0.108000  0.811000  1.0  0.1004
  H  H10  1  0.826000  0.079000  0.928000  1.0  0.0904
  H  H11  1  0.968000  0.915000  0.013000  1.0  0.0958
  H  H12  1  0.129000  0.875000  0.917000  1.0  0.1123
  H  H13  1  0.440000  0.392000  0.189000  1.0  0.1003
  H  H14  1  0.326000  0.421000  0.072000  1.0  0.091
  H  H15  1  0.468000  0.585000  0.987000  1.0  0.0953
  H  H16  1  0.629000  0.625000  0.083000  1.0  0.1131
  H  H17  1  0.060000  0.608000  0.689000  1.0  0.1
  H  H18  1  0.174000  0.579000  0.572000  1.0  0.0914
  H  H19  1  0.032000  0.415000  0.487000  1.0  0.0956
  H  H20  1  0.871000  0.375000  0.583000  1.0  0.1136
  C  C21  1  0.852000  0.916140  0.276330  1.0  0.714
  C  C22  1  0.546600  0.280700  0.450120  1.0  0.7122
  C  C23  1  0.662200  0.942200  0.343900  1.0  -0.038
  C  C24  1  0.502200  0.132400  0.434400  1.0  -0.0733
  C  C25  1  0.648000  0.083860  0.776330  1.0  0.7132
  C  C26  1  0.953400  0.719300  0.950120  1.0  0.7127
  C  C27  1  0.837800  0.057800  0.843900  1.0  -0.038
  C  C28  1  0.997800  0.867600  0.934400  1.0  -0.0733
  C  C29  1  0.148000  0.416140  0.223670  1.0  0.7139
  C  C30  1  0.453400  0.780700  0.049880  1.0  0.7121
  C  C31  1  0.337800  0.442200  0.156100  1.0  -0.0383
  C  C32  1  0.497800  0.632400  0.065600  1.0  -0.0721
  C  C33  1  0.352000  0.583860  0.723670  1.0  0.7143
  C  C34  1  0.046600  0.219300  0.549880  1.0  0.712
  C  C35  1  0.162200  0.557800  0.656100  1.0  -0.039
  C  C36  1  0.002200  0.367600  0.565600  1.0  -0.0733
  O  O37  1  0.621800  0.082100  0.338200  1.0  -0.4237
  O  O38  1  0.897600  0.794050  0.265570  1.0  -0.7222
  O  O39  1  0.466300  0.341670  0.536570  1.0  -0.6927
  O  O40  1  0.662000  0.334300  0.374490  1.0  -0.6971
  O  O41  1  0.948100  0.012520  0.237390  1.0  -0.6725
  O  O42  1  0.878200  0.917900  0.838200  1.0  -0.4249
  O  O43  1  0.602400  0.205950  0.765570  1.0  -0.7103
  O  O44  1  0.033700  0.658330  0.036570  1.0  -0.6909
  O  O45  1  0.838000  0.665700  0.874490  1.0  -0.6858
  O  O46  1  0.551900  0.987480  0.737390  1.0  -0.6719
  O  O47  1  0.378200  0.582100  0.161800  1.0  -0.4237
  O  O48  1  0.102400  0.294050  0.234430  1.0  -0.7244
  O  O49  1  0.533700  0.841670  0.963430  1.0  -0.6908
  O  O50  1  0.338000  0.834300  0.125510  1.0  -0.6961
  O  O51  1  0.051900  0.512520  0.262610  1.0  -0.6721
  O  O52  1  0.121800  0.417900  0.661800  1.0  -0.424
  O  O53  1  0.397600  0.705950  0.734430  1.0  -0.7193
  O  O54  1  0.966300  0.158330  0.463430  1.0  -0.6942
  O  O55  1  0.162000  0.165700  0.625510  1.0  -0.6909
  O  O56  1  0.448100  0.487480  0.762610  1.0  -0.6718
