# generated using pymatgen
data_CoH16C24(NO2)2
_symmetry_space_group_name_H-M   'P 1'
_cell_length_a   12.22800000
_cell_length_b   13.65400000
_cell_length_c   16.95800000
_cell_angle_alpha   77.04000000
_cell_angle_beta   71.34000000
_cell_angle_gamma   87.90000000
_symmetry_Int_Tables_number   1
_chemical_formula_structural   CoH16C24(NO2)2
_chemical_formula_sum   'Co4 H64 C96 N8 O16'
_cell_volume   2612.27216696
_cell_formula_units_Z   4
loop_
 _symmetry_equiv_pos_site_id
 _symmetry_equiv_pos_as_xyz
  1  'x, y, z'
loop_
 _atom_site_type_symbol
 _atom_site_label
 _atom_site_symmetry_multiplicity
 _atom_site_fract_x
 _atom_site_fract_y
 _atom_site_fract_z
 _atom_site_occupancy
 _atom_site_charge
  Co  Co1  1  0.725380  0.631920  0.884350  1.0  0.8355
  Co  Co2  1  0.766280  0.629560  0.638270  1.0  0.8815
  Co  Co3  1  0.274620  0.368080  0.115650  1.0  0.8361
  Co  Co4  1  0.233720  0.370440  0.361730  1.0  0.8829
  H  H5  1  0.572500  0.813500  0.906000  1.0  0.08
  H  H6  1  0.581200  0.978800  0.908200  1.0  0.1161
  H  H7  1  0.925500  0.973500  0.821700  1.0  0.1408
  H  H8  1  0.905600  0.808300  0.824900  1.0  0.0733
  H  H9  1  0.841300  0.132700  0.846200  1.0  0.0996
  H  H10  1  0.610600  0.128800  0.932000  1.0  0.097
  H  H11  1  0.868100  0.281600  0.885300  1.0  0.1074
  H  H12  1  0.874600  0.446600  0.878700  1.0  0.0763
  H  H13  1  0.542500  0.458600  0.929500  1.0  0.0708
  H  H14  1  0.525100  0.292900  0.937500  1.0  0.1188
  H  H15  1  0.944500  0.629200  0.067800  1.0  0.1164
  H  H16  1  0.967900  0.634600  0.195000  1.0  0.0953
  H  H17  1  0.602200  0.618100  0.174500  1.0  0.0933
  H  H18  1  0.884800  0.641300  0.347800  1.0  0.1031
  H  H19  1  0.541500  0.623600  0.458600  1.0  0.1115
  H  H20  1  0.516800  0.611800  0.332700  1.0  0.0949
  H  H21  1  0.470000  0.625100  0.676300  1.0  0.0953
  H  H22  1  0.163300  0.645700  0.919500  1.0  0.1131
  H  H23  1  0.349300  0.647800  0.921600  1.0  0.0893
  H  H24  1  0.024200  0.640900  0.838400  1.0  0.104
  H  H25  1  0.147000  0.630700  0.590700  1.0  0.1083
  H  H26  1  0.331300  0.626400  0.595500  1.0  0.1088
  H  H27  1  0.588400  0.793500  0.670300  1.0  0.0706
  H  H28  1  0.570600  0.955800  0.684900  1.0  0.1405
  H  H29  1  0.915600  0.986100  0.596700  1.0  0.1214
  H  H30  1  0.921900  0.819900  0.587600  1.0  0.0769
  H  H31  1  0.657900  0.118400  0.674000  1.0  0.0927
  H  H32  1  0.888200  0.139900  0.609100  1.0  0.0908
  H  H33  1  0.637300  0.260800  0.719100  1.0  0.1039
  H  H34  1  0.626500  0.426000  0.726300  1.0  0.08
  H  H35  1  0.944600  0.477600  0.578600  1.0  0.0713
  H  H36  1  0.962900  0.313100  0.567300  1.0  0.1039
  H  H37  1  0.427500  0.186500  0.094000  1.0  0.0798
  H  H38  1  0.418800  0.021200  0.091800  1.0  0.1162
  H  H39  1  0.074500  0.026500  0.178300  1.0  0.1416
  H  H40  1  0.094400  0.191700  0.175100  1.0  0.0725
  H  H41  1  0.158700  0.867300  0.153800  1.0  0.0998
  H  H42  1  0.389400  0.871200  0.068000  1.0  0.0968
  H  H43  1  0.131900  0.718400  0.114700  1.0  0.1077
  H  H44  1  0.125400  0.553400  0.121300  1.0  0.0768
  H  H45  1  0.457500  0.541400  0.070500  1.0  0.0705
  H  H46  1  0.474900  0.707100  0.062500  1.0  0.1188
  H  H47  1  0.055500  0.370800  0.932200  1.0  0.1169
  H  H48  1  0.032100  0.365400  0.805000  1.0  0.0951
  H  H49  1  0.397800  0.381900  0.825500  1.0  0.0936
  H  H50  1  0.115200  0.358700  0.652200  1.0  0.1032
  H  H51  1  0.458500  0.376400  0.541400  1.0  0.1105
  H  H52  1  0.483200  0.388200  0.667300  1.0  0.0947
  H  H53  1  0.530000  0.374900  0.323700  1.0  0.0958
  H  H54  1  0.836700  0.354300  0.080500  1.0  0.1134
  H  H55  1  0.650700  0.352200  0.078400  1.0  0.0904
  H  H56  1  0.975800  0.359100  0.161600  1.0  0.1037
  H  H57  1  0.853000  0.369300  0.409300  1.0  0.1077
  H  H58  1  0.668700  0.373600  0.404500  1.0  0.1091
  H  H59  1  0.411600  0.206500  0.329700  1.0  0.0707
  H  H60  1  0.429400  0.044200  0.315100  1.0  0.1394
  H  H61  1  0.084400  0.013900  0.403300  1.0  0.1212
  H  H62  1  0.078100  0.180100  0.412400  1.0  0.0765
  H  H63  1  0.342100  0.881600  0.326000  1.0  0.0936
  H  H64  1  0.111800  0.860100  0.390900  1.0  0.0884
  H  H65  1  0.362700  0.739200  0.280900  1.0  0.1042
  H  H66  1  0.373500  0.574000  0.273700  1.0  0.0797
  H  H67  1  0.055400  0.522400  0.421400  1.0  0.0694
  H  H68  1  0.037100  0.686900  0.432700  1.0  0.1037
  C  C69  1  0.644500  0.845600  0.890400  1.0  0.1814
  C  C70  1  0.649300  0.945100  0.891800  1.0  -0.1767
  C  C71  1  0.755300  0.996500  0.868800  1.0  0.1412
  C  C72  1  0.852300  0.942700  0.841100  1.0  -0.2078
  C  C73  1  0.838900  0.843500  0.842700  1.0  0.1808
  C  C74  1  0.767600  0.102700  0.871400  1.0  -0.1381
  C  C75  1  0.684000  0.159300  0.905900  1.0  -0.1463
  C  C76  1  0.695600  0.265600  0.907000  1.0  0.1319
  C  C77  1  0.800300  0.316700  0.892700  1.0  -0.215
  C  C78  1  0.803300  0.415300  0.889600  1.0  0.165
  C  C79  1  0.609400  0.422100  0.919200  1.0  0.1705
  C  C80  1  0.598000  0.322800  0.923600  1.0  -0.2088
  C  C81  1  0.754900  0.620300  0.026700  1.0  0.6339
  C  C82  1  0.768200  0.623800  0.110200  1.0  -0.1338
  C  C83  1  0.880300  0.628500  0.115700  1.0  -0.0719
  C  C84  1  0.893800  0.632100  0.191400  1.0  -0.1107
  C  C85  1  0.798600  0.632100  0.264200  1.0  0.0353
  C  C86  1  0.686000  0.624100  0.259800  1.0  0.0381
  C  C87  1  0.675500  0.621500  0.179300  1.0  -0.0995
  C  C88  1  0.811100  0.636500  0.344000  1.0  -0.0827
  C  C89  1  0.717900  0.634000  0.414700  1.0  -0.1584
  C  C90  1  0.605500  0.625300  0.410400  1.0  -0.0566
  C  C91  1  0.591100  0.619300  0.334700  1.0  -0.0947
  C  C92  1  0.731100  0.637900  0.499500  1.0  0.6528
  C  C93  1  0.549900  0.628000  0.802100  1.0  0.6645
  C  C94  1  0.429400  0.632900  0.798200  1.0  -0.1143
  C  C95  1  0.408300  0.629600  0.724500  1.0  -0.0642
  C  C96  1  0.294300  0.632800  0.720000  1.0  0.0456
  C  C97  1  0.200700  0.638600  0.793600  1.0  0.0432
  C  C98  1  0.224200  0.642700  0.870400  1.0  -0.1128
  C  C99  1  0.335000  0.642100  0.872100  1.0  -0.0324
  C  C100  1  0.086300  0.638600  0.789900  1.0  -0.0778
  C  C101  1  0.067100  0.635300  0.715400  1.0  -0.1432
  C  C102  1  0.160500  0.631800  0.641500  1.0  -0.0478
  C  C103  1  0.270400  0.629800  0.644500  1.0  -0.0818
  C  C104  1  0.945100  0.635800  0.713000  1.0  0.6889
  C  C105  1  0.655600  0.832300  0.656600  1.0  0.1718
  C  C106  1  0.643500  0.930600  0.664900  1.0  -0.1998
  C  C107  1  0.741000  0.990600  0.643200  1.0  0.1113
  C  C108  1  0.847300  0.947900  0.613100  1.0  -0.1923
  C  C109  1  0.850300  0.847200  0.607900  1.0  0.1941
  C  C110  1  0.732100  0.096700  0.651500  1.0  -0.0943
  C  C111  1  0.813700  0.161000  0.631300  1.0  -0.1024
  C  C112  1  0.802100  0.266000  0.639800  1.0  0.0746
  C  C113  1  0.701300  0.304000  0.688700  1.0  -0.1581
  C  C114  1  0.694800  0.404200  0.692600  1.0  0.1745
  C  C115  1  0.880600  0.433800  0.606200  1.0  0.1794
  C  C116  1  0.892700  0.333700  0.599500  1.0  -0.2063
  C  C117  1  0.355500  0.154400  0.109600  1.0  0.1808
  C  C118  1  0.350700  0.054900  0.108200  1.0  -0.1765
  C  C119  1  0.244700  0.003500  0.131200  1.0  0.1377
  C  C120  1  0.147700  0.057300  0.158900  1.0  -0.2103
  C  C121  1  0.161100  0.156500  0.157300  1.0  0.1816
  C  C122  1  0.232400  0.897300  0.128600  1.0  -0.1397
  C  C123  1  0.316000  0.840700  0.094100  1.0  -0.1441
  C  C124  1  0.304400  0.734400  0.093000  1.0  0.1336
  C  C125  1  0.199700  0.683300  0.107300  1.0  -0.2149
  C  C126  1  0.196700  0.584700  0.110400  1.0  0.1663
  C  C127  1  0.390600  0.577900  0.080800  1.0  0.1703
  C  C128  1  0.402000  0.677200  0.076400  1.0  -0.2105
  C  C129  1  0.245100  0.379700  0.973300  1.0  0.6337
  C  C130  1  0.231800  0.376200  0.889800  1.0  -0.1349
  C  C131  1  0.119700  0.371500  0.884300  1.0  -0.0728
  C  C132  1  0.106200  0.367900  0.808600  1.0  -0.1109
  C  C133  1  0.201400  0.367900  0.735800  1.0  0.034
  C  C134  1  0.314000  0.375900  0.740200  1.0  0.0375
  C  C135  1  0.324500  0.378500  0.820700  1.0  -0.0995
  C  C136  1  0.188900  0.363500  0.656000  1.0  -0.0819
  C  C137  1  0.282100  0.366000  0.585300  1.0  -0.1587
  C  C138  1  0.394500  0.374700  0.589600  1.0  -0.0553
  C  C139  1  0.408900  0.380700  0.665300  1.0  -0.0974
  C  C140  1  0.268900  0.362100  0.500500  1.0  0.6545
  C  C141  1  0.450100  0.372000  0.197900  1.0  0.6637
  C  C142  1  0.570600  0.367100  0.201800  1.0  -0.1133
  C  C143  1  0.591700  0.370400  0.275500  1.0  -0.0648
  C  C144  1  0.705700  0.367200  0.280000  1.0  0.0471
  C  C145  1  0.799300  0.361400  0.206400  1.0  0.0421
  C  C146  1  0.775800  0.357300  0.129600  1.0  -0.114
  C  C147  1  0.665000  0.357900  0.127900  1.0  -0.0314
  C  C148  1  0.913700  0.361400  0.210100  1.0  -0.0774
  C  C149  1  0.932900  0.364700  0.284600  1.0  -0.1425
  C  C150  1  0.839500  0.368200  0.358500  1.0  -0.0508
  C  C151  1  0.729600  0.370200  0.355500  1.0  -0.0812
  C  C152  1  0.054900  0.364200  0.287000  1.0  0.6899
  C  C153  1  0.344400  0.167700  0.343400  1.0  0.1714
  C  C154  1  0.356500  0.069400  0.335100  1.0  -0.1985
  C  C155  1  0.259000  0.009400  0.356800  1.0  0.1134
  C  C156  1  0.152700  0.052100  0.386900  1.0  -0.1956
  C  C157  1  0.149700  0.152800  0.392100  1.0  0.1943
  C  C158  1  0.267900  0.903300  0.348500  1.0  -0.0922
  C  C159  1  0.186300  0.839000  0.368700  1.0  -0.1022
  C  C160  1  0.197900  0.734000  0.360200  1.0  0.0759
  C  C161  1  0.298700  0.696000  0.311300  1.0  -0.1571
  C  C162  1  0.305200  0.595800  0.307400  1.0  0.175
  C  C163  1  0.119400  0.566200  0.393800  1.0  0.1797
  C  C164  1  0.107300  0.666300  0.400500  1.0  -0.207
  N  N165  1  0.738400  0.793100  0.867600  1.0  -0.2963
  N  N166  1  0.709800  0.471900  0.901200  1.0  -0.3361
  N  N167  1  0.756400  0.788400  0.630300  1.0  -0.3419
  N  N168  1  0.782200  0.470700  0.650200  1.0  -0.3038
  N  N169  1  0.261600  0.206900  0.132400  1.0  -0.2974
  N  N170  1  0.290200  0.528100  0.098800  1.0  -0.3364
  N  N171  1  0.243600  0.211600  0.369700  1.0  -0.3421
  N  N172  1  0.217800  0.529300  0.349800  1.0  -0.3035
  O  O173  1  0.842500  0.617400  0.963510  1.0  -0.5721
  O  O174  1  0.654800  0.623900  0.019310  1.0  -0.5842
  O  O175  1  0.646200  0.632700  0.564000  1.0  -0.5874
  O  O176  1  0.833000  0.647800  0.502160  1.0  -0.5858
  O  O177  1  0.566600  0.650300  0.866620  1.0  -0.5869
  O  O178  1  0.627100  0.600200  0.744000  1.0  -0.6247
  O  O179  1  0.863600  0.639900  0.778850  1.0  -0.6334
  O  O180  1  0.930700  0.632700  0.643660  1.0  -0.5778
  O  O181  1  0.157500  0.382600  0.036490  1.0  -0.5727
  O  O182  1  0.345200  0.376100  0.980690  1.0  -0.5852
  O  O183  1  0.353800  0.367300  0.436000  1.0  -0.5856
  O  O184  1  0.167000  0.352200  0.497840  1.0  -0.5846
  O  O185  1  0.433400  0.349700  0.133380  1.0  -0.587
  O  O186  1  0.372900  0.399800  0.256000  1.0  -0.6231
  O  O187  1  0.136400  0.360100  0.221150  1.0  -0.6349
  O  O188  1  0.069300  0.367300  0.356340  1.0  -0.5773
