# generated using pymatgen
data_CaH8C14SO6
_symmetry_space_group_name_H-M   'P 1'
_cell_length_a   5.57610000
_cell_length_b   11.83010000
_cell_length_c   22.79220000
_cell_angle_alpha   100.49300000
_cell_angle_beta   90.00000000
_cell_angle_gamma   90.00000000
_symmetry_Int_Tables_number   1
_chemical_formula_structural   CaH8C14SO6
_chemical_formula_sum   'Ca4 H32 C56 S4 O24'
_cell_volume   1478.36329004
_cell_formula_units_Z   4
loop_
 _symmetry_equiv_pos_site_id
 _symmetry_equiv_pos_as_xyz
  1  'x, y, z'
loop_
 _atom_site_type_symbol
 _atom_site_label
 _atom_site_symmetry_multiplicity
 _atom_site_fract_x
 _atom_site_fract_y
 _atom_site_fract_z
 _atom_site_occupancy
 _atom_site_charge
  Ca  Ca1  1  0.256380  0.863410  0.777160  1.0  1.5953
  Ca  Ca2  1  0.756380  0.636590  0.722840  1.0  1.5956
  Ca  Ca3  1  0.743620  0.136590  0.222840  1.0  1.5958
  Ca  Ca4  1  0.243620  0.363410  0.277160  1.0  1.5958
  H  H5  1  0.624700  0.267600  0.094100  1.0  0.1104
  H  H6  1  0.706300  0.225000  0.992500  1.0  0.1051
  H  H7  1  0.055300  0.079100  0.962700  1.0  0.1
  H  H8  1  0.971400  0.126800  0.064000  1.0  0.0948
  H  H9  1  0.978100  0.316100  0.780600  1.0  0.0856
  H  H10  1  0.063700  0.161500  0.827100  1.0  0.1068
  H  H11  1  0.698700  0.306500  0.881700  1.0  0.0992
  H  H12  1  0.618700  0.456400  0.831000  1.0  0.1047
  H  H13  1  0.124700  0.232400  0.405900  1.0  0.1104
  H  H14  1  0.206300  0.275000  0.507500  1.0  0.1051
  H  H15  1  0.555300  0.420900  0.537300  1.0  0.1003
  H  H16  1  0.471400  0.373200  0.436000  1.0  0.0944
  H  H17  1  0.478100  0.183900  0.719400  1.0  0.0854
  H  H18  1  0.563700  0.338500  0.672900  1.0  0.1065
  H  H19  1  0.198700  0.193500  0.618300  1.0  0.0987
  H  H20  1  0.118700  0.043600  0.669000  1.0  0.1048
  H  H21  1  0.375300  0.732400  0.905900  1.0  0.11
  H  H22  1  0.293700  0.775000  0.007500  1.0  0.1051
  H  H23  1  0.944700  0.920900  0.037300  1.0  0.1002
  H  H24  1  0.028600  0.873200  0.936000  1.0  0.0944
  H  H25  1  0.021900  0.683900  0.219400  1.0  0.0855
  H  H26  1  0.936300  0.838500  0.172900  1.0  0.1064
  H  H27  1  0.301300  0.693500  0.118300  1.0  0.0986
  H  H28  1  0.381300  0.543600  0.169000  1.0  0.1044
  H  H29  1  0.875300  0.767600  0.594100  1.0  0.1104
  H  H30  1  0.793700  0.725000  0.492500  1.0  0.1053
  H  H31  1  0.444700  0.579100  0.462700  1.0  0.1
  H  H32  1  0.528600  0.626800  0.564000  1.0  0.0949
  H  H33  1  0.521900  0.816100  0.280600  1.0  0.0854
  H  H34  1  0.436300  0.661500  0.327100  1.0  0.107
  H  H35  1  0.801300  0.806500  0.381700  1.0  0.0989
  H  H36  1  0.881300  0.956400  0.331000  1.0  0.1047
  C  C37  1  0.238800  0.222970  0.155110  1.0  0.753
  C  C38  1  0.292600  0.198450  0.089260  1.0  -0.1116
  C  C39  1  0.511200  0.229400  0.067840  1.0  -0.051
  C  C40  1  0.560900  0.203500  0.007120  1.0  -0.0365
  C  C41  1  0.390800  0.145200  0.968660  1.0  -0.2182
  C  C42  1  0.169300  0.116500  0.989130  1.0  -0.0294
  C  C43  1  0.120500  0.144400  0.049710  1.0  -0.0408
  C  C44  1  0.241300  0.495600  0.765420  1.0  0.7652
  C  C45  1  0.292400  0.400450  0.800370  1.0  -0.1093
  C  C46  1  0.124200  0.312800  0.799920  1.0  -0.0434
  C  C47  1  0.173600  0.220900  0.828170  1.0  -0.0152
  C  C48  1  0.389600  0.219370  0.857970  1.0  -0.2284
  C  C49  1  0.556600  0.307700  0.860440  1.0  -0.0379
  C  C50  1  0.507200  0.397800  0.830620  1.0  -0.0473
  C  C51  1  0.738800  0.277030  0.344890  1.0  0.7525
  C  C52  1  0.792600  0.301550  0.410740  1.0  -0.1111
  C  C53  1  0.011200  0.270600  0.432160  1.0  -0.0511
  C  C54  1  0.060900  0.296500  0.492880  1.0  -0.0376
  C  C55  1  0.890800  0.354800  0.531340  1.0  -0.217
  C  C56  1  0.669300  0.383500  0.510870  1.0  -0.029
  C  C57  1  0.620500  0.355600  0.450290  1.0  -0.0396
  C  C58  1  0.741300  0.004400  0.734580  1.0  0.7635
  C  C59  1  0.792400  0.099550  0.699630  1.0  -0.1101
  C  C60  1  0.624200  0.187200  0.700080  1.0  -0.0438
  C  C61  1  0.673600  0.279100  0.671830  1.0  -0.0141
  C  C62  1  0.889600  0.280630  0.642030  1.0  -0.2286
  C  C63  1  0.056600  0.192300  0.639560  1.0  -0.0389
  C  C64  1  0.007200  0.102200  0.669380  1.0  -0.0501
  C  C65  1  0.761200  0.777030  0.844890  1.0  0.7517
  C  C66  1  0.707400  0.801550  0.910740  1.0  -0.1108
  C  C67  1  0.488800  0.770600  0.932160  1.0  -0.0505
  C  C68  1  0.439100  0.796500  0.992880  1.0  -0.0364
  C  C69  1  0.609200  0.854800  0.031340  1.0  -0.2171
  C  C70  1  0.830700  0.883500  0.010870  1.0  -0.0293
  C  C71  1  0.879500  0.855600  0.950290  1.0  -0.0419
  C  C72  1  0.758700  0.504400  0.234580  1.0  0.764
  C  C73  1  0.707600  0.599550  0.199630  1.0  -0.1103
  C  C74  1  0.875800  0.687200  0.200080  1.0  -0.0456
  C  C75  1  0.826400  0.779100  0.171830  1.0  -0.0143
  C  C76  1  0.610400  0.780630  0.142030  1.0  -0.229
  C  C77  1  0.443400  0.692300  0.139560  1.0  -0.0368
  C  C78  1  0.492800  0.602200  0.169380  1.0  -0.0485
  C  C79  1  0.261200  0.722970  0.655110  1.0  0.7529
  C  C80  1  0.207400  0.698450  0.589260  1.0  -0.1113
  C  C81  1  0.988800  0.729400  0.567840  1.0  -0.0518
  C  C82  1  0.939100  0.703500  0.507120  1.0  -0.0367
  C  C83  1  0.109200  0.645200  0.468660  1.0  -0.2181
  C  C84  1  0.330700  0.616500  0.489130  1.0  -0.0297
  C  C85  1  0.379500  0.644400  0.549710  1.0  -0.0422
  C  C86  1  0.258700  0.995600  0.265420  1.0  0.7655
  C  C87  1  0.207600  0.900450  0.300370  1.0  -0.1096
  C  C88  1  0.375800  0.812800  0.299920  1.0  -0.045
  C  C89  1  0.326400  0.720900  0.328170  1.0  -0.0153
  C  C90  1  0.110400  0.719370  0.357970  1.0  -0.2286
  C  C91  1  0.943400  0.807700  0.360440  1.0  -0.038
  C  C92  1  0.992800  0.897800  0.330620  1.0  -0.0478
  S  S93  1  0.463820  0.102110  0.892290  1.0  1.1525
  S  S94  1  0.963820  0.397890  0.607710  1.0  1.1529
  S  S95  1  0.536180  0.897890  0.107710  1.0  1.1536
  S  S96  1  0.036180  0.602110  0.392290  1.0  1.1531
  O  O97  1  0.414400  0.237280  0.190730  1.0  -0.7838
  O  O98  1  0.024900  0.231810  0.171690  1.0  -0.7057
  O  O99  1  0.025500  0.515990  0.756680  1.0  -0.7332
  O  O100  1  0.419200  0.543250  0.747350  1.0  -0.7155
  O  O101  1  0.305500  0.006970  0.868770  1.0  -0.6232
  O  O102  1  0.718900  0.085080  0.888210  1.0  -0.5392
  O  O103  1  0.914400  0.262720  0.309270  1.0  -0.7848
  O  O104  1  0.524900  0.268190  0.328310  1.0  -0.7061
  O  O105  1  0.525500  0.984010  0.743320  1.0  -0.7333
  O  O106  1  0.919200  0.956750  0.752650  1.0  -0.7155
  O  O107  1  0.805500  0.493030  0.631230  1.0  -0.6233
  O  O108  1  0.218900  0.414920  0.611790  1.0  -0.5392
  O  O109  1  0.585600  0.762720  0.809270  1.0  -0.7848
  O  O110  1  0.975100  0.768190  0.828310  1.0  -0.705
  O  O111  1  0.974500  0.484010  0.243320  1.0  -0.7339
  O  O112  1  0.580800  0.456750  0.252650  1.0  -0.7157
  O  O113  1  0.694500  0.993030  0.131230  1.0  -0.6237
  O  O114  1  0.281100  0.914920  0.111790  1.0  -0.5374
  O  O115  1  0.085600  0.737280  0.690730  1.0  -0.7838
  O  O116  1  0.475100  0.731810  0.671690  1.0  -0.7054
  O  O117  1  0.474500  0.015990  0.256680  1.0  -0.7337
  O  O118  1  0.080800  0.043250  0.247350  1.0  -0.715
  O  O119  1  0.194500  0.506970  0.368770  1.0  -0.6233
  O  O120  1  0.781100  0.585080  0.388210  1.0  -0.5374
