# generated using pymatgen
data_SrH8C14SO6
_symmetry_space_group_name_H-M   'P 1'
_cell_length_a   5.72770000
_cell_length_b   12.17220000
_cell_length_c   22.90340000
_cell_angle_alpha   98.85700000
_cell_angle_beta   90.00000000
_cell_angle_gamma   90.00000000
_symmetry_Int_Tables_number   1
_chemical_formula_structural   SrH8C14SO6
_chemical_formula_sum   'Sr4 H32 C56 S4 O24'
_cell_volume   1577.75482685
_cell_formula_units_Z   4
loop_
 _symmetry_equiv_pos_site_id
 _symmetry_equiv_pos_as_xyz
  1  'x, y, z'
loop_
 _atom_site_type_symbol
 _atom_site_label
 _atom_site_symmetry_multiplicity
 _atom_site_fract_x
 _atom_site_fract_y
 _atom_site_fract_z
 _atom_site_occupancy
 _atom_site_charge
  Sr  Sr1  1  0.255350  0.633480  0.224330  1.0  1.6407
  Sr  Sr2  1  0.755350  0.866520  0.275670  1.0  1.6407
  Sr  Sr3  1  0.744650  0.366520  0.775670  1.0  1.6408
  Sr  Sr4  1  0.244650  0.133480  0.724330  1.0  1.6406
  H  H5  1  0.512700  0.371100  0.935900  1.0  0.0992
  H  H6  1  0.436200  0.419300  0.035300  1.0  0.1057
  H  H7  1  0.795000  0.286800  0.010200  1.0  0.1058
  H  H8  1  0.872700  0.239800  0.910100  1.0  0.105
  H  H9  1  0.434100  0.340800  0.170000  1.0  0.1127
  H  H10  1  0.519400  0.190300  0.216700  1.0  0.0856
  H  H11  1  0.892700  0.056800  0.171600  1.0  0.1057
  H  H12  1  0.809000  0.204700  0.121800  1.0  0.0988
  H  H13  1  0.012700  0.128900  0.564100  1.0  0.0993
  H  H14  1  0.936200  0.080700  0.464700  1.0  0.1054
  H  H15  1  0.295000  0.213200  0.489800  1.0  0.1057
  H  H16  1  0.372700  0.260200  0.589900  1.0  0.1049
  H  H17  1  0.934100  0.159200  0.330000  1.0  0.1129
  H  H18  1  0.019400  0.309700  0.283300  1.0  0.0854
  H  H19  1  0.392700  0.443200  0.328400  1.0  0.1062
  H  H20  1  0.309000  0.295300  0.378200  1.0  0.0992
  H  H21  1  0.487300  0.628900  0.064100  1.0  0.0991
  H  H22  1  0.563800  0.580700  0.964700  1.0  0.1053
  H  H23  1  0.205000  0.713200  0.989800  1.0  0.1053
  H  H24  1  0.127300  0.760200  0.089900  1.0  0.1051
  H  H25  1  0.565900  0.659200  0.830000  1.0  0.1124
  H  H26  1  0.480600  0.809700  0.783300  1.0  0.0856
  H  H27  1  0.107300  0.943200  0.828400  1.0  0.1061
  H  H28  1  0.191000  0.795300  0.878200  1.0  0.0992
  H  H29  1  0.987300  0.871100  0.435900  1.0  0.099
  H  H30  1  0.063800  0.919300  0.535300  1.0  0.1056
  H  H31  1  0.705000  0.786800  0.510200  1.0  0.1056
  H  H32  1  0.627300  0.739800  0.410100  1.0  0.1056
  H  H33  1  0.065900  0.840800  0.670000  1.0  0.1124
  H  H34  1  0.980600  0.690300  0.716700  1.0  0.0855
  H  H35  1  0.607300  0.556800  0.671600  1.0  0.106
  H  H36  1  0.691000  0.704700  0.621800  1.0  0.0987
  C  C37  1  0.246200  0.276100  0.847520  1.0  0.7455
  C  C38  1  0.199000  0.302700  0.912710  1.0  -0.119
  C  C39  1  0.367500  0.355200  0.950730  1.0  -0.0453
  C  C40  1  0.322700  0.384000  0.010030  1.0  -0.0316
  C  C41  1  0.107100  0.359900  0.031570  1.0  -0.2133
  C  C42  1  0.938100  0.304700  0.994900  1.0  -0.0435
  C  C43  1  0.985100  0.276500  0.935200  1.0  -0.0459
  C  C44  1  0.112200  0.287100  0.142500  1.0  -0.2263
  C  C45  1  0.326300  0.283800  0.170170  1.0  -0.022
  C  C46  1  0.376000  0.193800  0.198070  1.0  -0.0374
  C  C47  1  0.215500  0.108400  0.198820  1.0  -0.1217
  C  C48  1  0.001700  0.113200  0.170810  1.0  -0.0416
  C  C49  1  0.950200  0.202100  0.141660  1.0  -0.0361
  C  C50  1  0.272000  0.012900  0.232060  1.0  0.7665
  C  C51  1  0.746200  0.223900  0.652480  1.0  0.7461
  C  C52  1  0.699000  0.197300  0.587290  1.0  -0.1195
  C  C53  1  0.867500  0.144800  0.549270  1.0  -0.0451
  C  C54  1  0.822700  0.116000  0.489970  1.0  -0.0317
  C  C55  1  0.607100  0.140100  0.468430  1.0  -0.2139
  C  C56  1  0.438100  0.195300  0.505100  1.0  -0.0423
  C  C57  1  0.485100  0.223500  0.564800  1.0  -0.0468
  C  C58  1  0.612200  0.212900  0.357500  1.0  -0.2251
  C  C59  1  0.826300  0.216200  0.329830  1.0  -0.023
  C  C60  1  0.876000  0.306200  0.301930  1.0  -0.0366
  C  C61  1  0.715500  0.391600  0.301180  1.0  -0.1219
  C  C62  1  0.501700  0.386800  0.329190  1.0  -0.0432
  C  C63  1  0.450200  0.297900  0.358340  1.0  -0.0365
  C  C64  1  0.772000  0.487100  0.267940  1.0  0.7679
  C  C65  1  0.753800  0.723900  0.152480  1.0  0.7461
  C  C66  1  0.801000  0.697300  0.087290  1.0  -0.1198
  C  C67  1  0.632500  0.644800  0.049270  1.0  -0.0447
  C  C68  1  0.677300  0.616000  0.989970  1.0  -0.0311
  C  C69  1  0.892900  0.640100  0.968430  1.0  -0.2139
  C  C70  1  0.061900  0.695300  0.005100  1.0  -0.042
  C  C71  1  0.014900  0.723500  0.064800  1.0  -0.0464
  C  C72  1  0.887800  0.712900  0.857500  1.0  -0.2249
  C  C73  1  0.673700  0.716200  0.829830  1.0  -0.0229
  C  C74  1  0.624000  0.806200  0.801930  1.0  -0.0354
  C  C75  1  0.784500  0.891600  0.801180  1.0  -0.1215
  C  C76  1  0.998300  0.886800  0.829190  1.0  -0.0426
  C  C77  1  0.049800  0.797900  0.858340  1.0  -0.0367
  C  C78  1  0.728000  0.987100  0.767940  1.0  0.7683
  C  C79  1  0.253800  0.776100  0.347520  1.0  0.7458
  C  C80  1  0.301000  0.802700  0.412710  1.0  -0.1197
  C  C81  1  0.132500  0.855200  0.450730  1.0  -0.0444
  C  C82  1  0.177300  0.884000  0.510030  1.0  -0.0312
  C  C83  1  0.392900  0.859900  0.531570  1.0  -0.2134
  C  C84  1  0.561900  0.804700  0.494900  1.0  -0.0436
  C  C85  1  0.514900  0.776500  0.435200  1.0  -0.0472
  C  C86  1  0.387800  0.787100  0.642500  1.0  -0.2259
  C  C87  1  0.173700  0.783800  0.670170  1.0  -0.0218
  C  C88  1  0.124000  0.693800  0.698070  1.0  -0.0367
  C  C89  1  0.284500  0.608400  0.698820  1.0  -0.1217
  C  C90  1  0.498300  0.613200  0.670810  1.0  -0.0435
  C  C91  1  0.549800  0.702100  0.641660  1.0  -0.0379
  C  C92  1  0.228000  0.512900  0.732060  1.0  0.7665
  S  S93  1  0.038290  0.401340  0.107150  1.0  1.1507
  S  S94  1  0.538290  0.098660  0.392850  1.0  1.1498
  S  S95  1  0.961710  0.598660  0.892850  1.0  1.1494
  S  S96  1  0.461710  0.901340  0.607150  1.0  1.1503
  O  O97  1  0.482100  0.995590  0.240780  1.0  -0.7222
  O  O98  1  0.104700  0.960720  0.248830  1.0  -0.7339
  O  O99  1  0.451800  0.265190  0.829630  1.0  -0.7259
  O  O100  1  0.071100  0.261700  0.813490  1.0  -0.7914
  O  O101  1  0.194300  0.492190  0.128920  1.0  -0.6382
  O  O102  1  0.790800  0.418290  0.111700  1.0  -0.5263
  O  O103  1  0.982100  0.504410  0.259220  1.0  -0.7216
  O  O104  1  0.604700  0.539280  0.251170  1.0  -0.734
  O  O105  1  0.951800  0.234810  0.670370  1.0  -0.727
  O  O106  1  0.571100  0.238300  0.686510  1.0  -0.792
  O  O107  1  0.694300  0.007810  0.371080  1.0  -0.6382
  O  O108  1  0.290800  0.081710  0.388300  1.0  -0.5259
  O  O109  1  0.517900  0.004410  0.759220  1.0  -0.7189
  O  O110  1  0.895300  0.039280  0.751170  1.0  -0.7342
  O  O111  1  0.548200  0.734810  0.170370  1.0  -0.7265
  O  O112  1  0.928900  0.738300  0.186510  1.0  -0.7925
  O  O113  1  0.805700  0.507810  0.871080  1.0  -0.6378
  O  O114  1  0.209200  0.581710  0.888300  1.0  -0.5271
  O  O115  1  0.017900  0.495590  0.740780  1.0  -0.7203
  O  O116  1  0.395300  0.460720  0.748830  1.0  -0.7333
  O  O117  1  0.048200  0.765190  0.329630  1.0  -0.7266
  O  O118  1  0.428900  0.761700  0.313490  1.0  -0.7922
  O  O119  1  0.305700  0.992190  0.628920  1.0  -0.638
  O  O120  1  0.709200  0.918290  0.611700  1.0  -0.5273
