# generated using pymatgen
data_EuHC6N2O5
_symmetry_space_group_name_H-M   'P 1'
_cell_length_a   9.74600000
_cell_length_b   9.74600000
_cell_length_c   9.74600000
_cell_angle_alpha   79.56160000
_cell_angle_beta   79.56160000
_cell_angle_gamma   79.56160000
_symmetry_Int_Tables_number   1
_chemical_formula_structural   EuHC6N2O5
_chemical_formula_sum   'Eu3 H3 C18 N6 O15'
_cell_volume   884.73654090
_cell_formula_units_Z   3
loop_
 _symmetry_equiv_pos_site_id
 _symmetry_equiv_pos_as_xyz
  1  'x, y, z'
loop_
 _atom_site_type_symbol
 _atom_site_label
 _atom_site_symmetry_multiplicity
 _atom_site_fract_x
 _atom_site_fract_y
 _atom_site_fract_z
 _atom_site_occupancy
 _atom_site_charge
  Eu  Eu1  1  0.500000  0.011640  0.988360  1.0  2.1419
  Eu  Eu2  1  0.988360  0.500000  0.011640  1.0  2.1391
  Eu  Eu3  1  0.011640  0.988360  0.500000  1.0  2.1397
  H  H4  1  0.424950  0.575050  0.000000  1.0  0.1035
  H  H5  1  0.000000  0.424950  0.575050  1.0  0.1023
  H  H6  1  0.575050  0.000000  0.424950  1.0  0.1016
  C  C7  1  0.666667  0.665550  0.003750  1.0  0.6651
  C  C8  1  0.636410  0.520110  0.000210  1.0  0.1141
  C  C9  1  0.003750  0.666667  0.665550  1.0  0.6638
  C  C10  1  0.000210  0.636410  0.520110  1.0  0.1125
  C  C11  1  0.665550  0.003750  0.666667  1.0  0.6648
  C  C12  1  0.520110  0.000210  0.636410  1.0  0.1155
  C  C13  1  0.334450  0.333333  0.996250  1.0  0.6657
  C  C14  1  0.479890  0.363590  0.999790  1.0  0.1136
  C  C15  1  0.333333  0.996250  0.334450  1.0  0.6679
  C  C16  1  0.363590  0.999790  0.479890  1.0  0.1138
  C  C17  1  0.996250  0.334450  0.333333  1.0  0.6659
  C  C18  1  0.999790  0.479890  0.363590  1.0  0.1154
  C  C19  1  0.499450  0.500550  0.000000  1.0  -0.0266
  C  C20  1  0.718350  0.281650  0.000000  1.0  0.5868
  C  C21  1  0.000000  0.499450  0.500550  1.0  -0.0269
  C  C22  1  0.000000  0.718350  0.281650  1.0  0.5883
  C  C23  1  0.500550  0.000000  0.499450  1.0  -0.028
  C  C24  1  0.281650  0.000000  0.718350  1.0  0.5867
  N  N25  1  0.744880  0.415880  0.000680  1.0  -0.4495
  N  N26  1  0.000680  0.744880  0.415880  1.0  -0.4524
  N  N27  1  0.415880  0.000680  0.744880  1.0  -0.4536
  N  N28  1  0.584120  0.255120  0.999320  1.0  -0.4495
  N  N29  1  0.255120  0.999320  0.584120  1.0  -0.451
  N  N30  1  0.999320  0.584120  0.255120  1.0  -0.4505
  O  O31  1  0.570060  0.766160  0.985360  1.0  -0.7517
  O  O32  1  0.787120  0.674220  0.027520  1.0  -0.6986
  O  O33  1  0.985360  0.570060  0.766160  1.0  -0.7553
  O  O34  1  0.027520  0.787120  0.674220  1.0  -0.697
  O  O35  1  0.766160  0.985360  0.570060  1.0  -0.7543
  O  O36  1  0.674220  0.027520  0.787120  1.0  -0.6982
  O  O37  1  0.233840  0.429940  0.014640  1.0  -0.7531
  O  O38  1  0.325780  0.212880  0.972480  1.0  -0.6987
  O  O39  1  0.429940  0.014640  0.233840  1.0  -0.754
  O  O40  1  0.212880  0.972480  0.325780  1.0  -0.6986
  O  O41  1  0.014640  0.233840  0.429940  1.0  -0.7534
  O  O42  1  0.972480  0.325780  0.212880  1.0  -0.7009
  O  O43  1  0.818950  0.181050  0.000000  1.0  -0.5509
  O  O44  1  0.000000  0.818950  0.181050  1.0  -0.5544
  O  O45  1  0.181050  0.000000  0.818950  1.0  -0.5609
