# generated using pymatgen
data_Cd3H42C50N9O6F
_symmetry_space_group_name_H-M   'P 1'
_cell_length_a   22.02800000
_cell_length_b   12.60700000
_cell_length_c   23.17900000
_cell_angle_alpha   90.00000000
_cell_angle_beta   103.76000000
_cell_angle_gamma   90.00000000
_symmetry_Int_Tables_number   1
_chemical_formula_structural   Cd3H42C50N9O6F
_chemical_formula_sum   'Cd12 H168 C200 N36 O24 F4'
_cell_volume   6252.23308362
_cell_formula_units_Z   4
loop_
 _symmetry_equiv_pos_site_id
 _symmetry_equiv_pos_as_xyz
  1  'x, y, z'
loop_
 _atom_site_type_symbol
 _atom_site_label
 _atom_site_symmetry_multiplicity
 _atom_site_fract_x
 _atom_site_fract_y
 _atom_site_fract_z
 _atom_site_occupancy
 _atom_site_charge
  Cd  Cd1  1  0.597520  0.667750  0.270600  1.0  0.9352
  Cd  Cd2  1  0.097520  0.167750  0.270600  1.0  0.9352
  Cd  Cd3  1  0.402480  0.667750  0.229400  1.0  0.9364
  Cd  Cd4  1  0.902470  0.167750  0.229400  1.0  0.9364
  Cd  Cd5  1  0.402480  0.332250  0.729400  1.0  0.9363
  Cd  Cd6  1  0.902470  0.832250  0.729400  1.0  0.9363
  Cd  Cd7  1  0.597520  0.332250  0.770600  1.0  0.9352
  Cd  Cd8  1  0.097520  0.832250  0.770600  1.0  0.9352
  Cd  Cd9  1  0.500000  0.400810  0.250000  1.0  0.9059
  Cd  Cd10  1  0.000000  0.900810  0.250000  1.0  0.9057
  Cd  Cd11  1  0.500000  0.599190  0.750000  1.0  0.9056
  Cd  Cd12  1  0.000000  0.099190  0.750000  1.0  0.9054
  H  H13  1  0.662300  0.245200  0.207800  1.0  0.1139
  H  H14  1  0.771200  0.480500  0.289300  1.0  0.1156
  H  H15  1  0.750500  0.162000  0.193700  1.0  0.0624
  H  H16  1  0.855900  0.388600  0.275200  1.0  0.0622
  H  H17  1  0.589600  0.011100  0.295300  1.0  0.1125
  H  H18  1  0.587300  0.192500  0.293200  1.0  0.064
  H  H19  1  0.613100  0.342500  0.367000  1.0  0.0607
  H  H20  1  0.442600  0.424800  0.364300  1.0  0.0585
  H  H21  1  0.635900  0.318100  0.467200  1.0  0.1237
  H  H22  1  0.459900  0.400900  0.464200  1.0  0.1058
  H  H23  1  0.653400  0.393200  0.563900  1.0  0.1142
  H  H24  1  0.478500  0.289700  0.548300  1.0  0.1054
  H  H25  1  0.667500  0.384500  0.664600  1.0  0.0567
  H  H26  1  0.498500  0.281000  0.649200  1.0  0.0619
  H  H27  1  0.655400  0.537700  0.391400  1.0  0.0614
  H  H28  1  0.614900  0.837800  0.376600  1.0  0.0644
  H  H29  1  0.686700  0.551600  0.492100  1.0  0.1118
  H  H30  1  0.647300  0.859700  0.477100  1.0  0.116
  H  H31  1  0.701700  0.790000  0.574100  1.0  0.1263
  H  H32  1  0.725000  0.672000  0.579000  1.0  0.1201
  H  H33  1  0.656000  0.698300  0.581200  1.0  0.121
  H  H34  1  0.162300  0.745200  0.207800  1.0  0.1139
  H  H35  1  0.271200  0.980500  0.289300  1.0  0.1156
  H  H36  1  0.250500  0.662000  0.193700  1.0  0.0624
  H  H37  1  0.355900  0.888600  0.275200  1.0  0.0622
  H  H38  1  0.089600  0.511100  0.295300  1.0  0.1125
  H  H39  1  0.087300  0.692500  0.293200  1.0  0.064
  H  H40  1  0.113100  0.842500  0.367000  1.0  0.0607
  H  H41  1  0.942600  0.924800  0.364300  1.0  0.0585
  H  H42  1  0.135900  0.818100  0.467200  1.0  0.1237
  H  H43  1  0.959900  0.900900  0.464200  1.0  0.1058
  H  H44  1  0.153400  0.893200  0.563900  1.0  0.1142
  H  H45  1  0.978500  0.789700  0.548300  1.0  0.1054
  H  H46  1  0.167500  0.884500  0.664600  1.0  0.0567
  H  H47  1  0.998500  0.781000  0.649200  1.0  0.0619
  H  H48  1  0.155400  0.037700  0.391400  1.0  0.0614
  H  H49  1  0.114900  0.337800  0.376600  1.0  0.0644
  H  H50  1  0.186700  0.051600  0.492100  1.0  0.1118
  H  H51  1  0.147300  0.359700  0.477100  1.0  0.116
  H  H52  1  0.201700  0.290000  0.574100  1.0  0.1263
  H  H53  1  0.225000  0.172000  0.579000  1.0  0.1201
  H  H54  1  0.156000  0.198300  0.581200  1.0  0.121
  H  H55  1  0.337700  0.245200  0.292200  1.0  0.114
  H  H56  1  0.228800  0.480500  0.210700  1.0  0.1158
  H  H57  1  0.249500  0.162000  0.306300  1.0  0.0628
  H  H58  1  0.144100  0.388600  0.224800  1.0  0.0626
  H  H59  1  0.410400  0.011100  0.204700  1.0  0.1127
  H  H60  1  0.412700  0.192500  0.206800  1.0  0.064
  H  H61  1  0.386900  0.342500  0.133000  1.0  0.0602
  H  H62  1  0.557400  0.424800  0.135700  1.0  0.0584
  H  H63  1  0.364100  0.318100  0.032800  1.0  0.1247
  H  H64  1  0.540100  0.400900  0.035800  1.0  0.1054
  H  H65  1  0.346600  0.393200  0.936100  1.0  0.1137
  H  H66  1  0.521500  0.289700  0.951700  1.0  0.106
  H  H67  1  0.332500  0.384500  0.835400  1.0  0.056
  H  H68  1  0.501500  0.281000  0.850800  1.0  0.062
  H  H69  1  0.344600  0.537700  0.108600  1.0  0.0617
  H  H70  1  0.385100  0.837800  0.123400  1.0  0.065
  H  H71  1  0.313300  0.551600  0.007900  1.0  0.112
  H  H72  1  0.352700  0.859700  0.022900  1.0  0.116
  H  H73  1  0.298300  0.790000  0.925900  1.0  0.1264
  H  H74  1  0.275000  0.672000  0.921000  1.0  0.1194
  H  H75  1  0.344000  0.698300  0.918800  1.0  0.1202
  H  H76  1  0.837700  0.745200  0.292200  1.0  0.114
  H  H77  1  0.728800  0.980500  0.210700  1.0  0.1158
  H  H78  1  0.749500  0.662000  0.306300  1.0  0.0628
  H  H79  1  0.644100  0.888600  0.224800  1.0  0.0626
  H  H80  1  0.910400  0.511100  0.204700  1.0  0.1127
  H  H81  1  0.912700  0.692500  0.206800  1.0  0.064
  H  H82  1  0.886900  0.842500  0.133000  1.0  0.0602
  H  H83  1  0.057400  0.924800  0.135700  1.0  0.0584
  H  H84  1  0.864100  0.818100  0.032800  1.0  0.1247
  H  H85  1  0.040100  0.900900  0.035800  1.0  0.1054
  H  H86  1  0.846600  0.893200  0.936100  1.0  0.1137
  H  H87  1  0.021500  0.789700  0.951700  1.0  0.106
  H  H88  1  0.832500  0.884500  0.835400  1.0  0.056
  H  H89  1  0.001500  0.781000  0.850800  1.0  0.062
  H  H90  1  0.844600  0.037700  0.108600  1.0  0.0617
  H  H91  1  0.885100  0.337800  0.123400  1.0  0.065
  H  H92  1  0.813300  0.051600  0.007900  1.0  0.112
  H  H93  1  0.852700  0.359700  0.022900  1.0  0.116
  H  H94  1  0.798300  0.290000  0.925900  1.0  0.1264
  H  H95  1  0.775000  0.172000  0.921000  1.0  0.1194
  H  H96  1  0.844000  0.198300  0.918800  1.0  0.1202
  H  H97  1  0.337700  0.754800  0.792200  1.0  0.1138
  H  H98  1  0.228800  0.519500  0.710700  1.0  0.1157
  H  H99  1  0.249500  0.838000  0.806300  1.0  0.0631
  H  H100  1  0.144100  0.611400  0.724800  1.0  0.0623
  H  H101  1  0.410400  0.988900  0.704700  1.0  0.1123
  H  H102  1  0.412700  0.807500  0.706800  1.0  0.0638
  H  H103  1  0.386900  0.657500  0.633000  1.0  0.0599
  H  H104  1  0.557400  0.575200  0.635700  1.0  0.0584
  H  H105  1  0.364100  0.681900  0.532800  1.0  0.1247
  H  H106  1  0.540100  0.599100  0.535800  1.0  0.1053
  H  H107  1  0.346600  0.606800  0.436100  1.0  0.1137
  H  H108  1  0.521500  0.710300  0.451700  1.0  0.1056
  H  H109  1  0.332500  0.615500  0.335400  1.0  0.0562
  H  H110  1  0.501500  0.719000  0.350800  1.0  0.062
  H  H111  1  0.344600  0.462300  0.608600  1.0  0.0615
  H  H112  1  0.385100  0.162200  0.623400  1.0  0.0656
  H  H113  1  0.313300  0.448400  0.507900  1.0  0.1129
  H  H114  1  0.352700  0.140300  0.522900  1.0  0.116
  H  H115  1  0.298300  0.210000  0.425900  1.0  0.1237
  H  H116  1  0.275000  0.328000  0.421000  1.0  0.1205
  H  H117  1  0.344000  0.301700  0.418800  1.0  0.1202
  H  H118  1  0.837700  0.254800  0.792200  1.0  0.1138
  H  H119  1  0.728800  0.019500  0.710700  1.0  0.1157
  H  H120  1  0.749500  0.338000  0.806300  1.0  0.0631
  H  H121  1  0.644100  0.111400  0.724800  1.0  0.0623
  H  H122  1  0.910400  0.488900  0.704700  1.0  0.1123
  H  H123  1  0.912700  0.307500  0.706800  1.0  0.0638
  H  H124  1  0.886900  0.157500  0.633000  1.0  0.0599
  H  H125  1  0.057400  0.075200  0.635700  1.0  0.0584
  H  H126  1  0.864100  0.181900  0.532800  1.0  0.1247
  H  H127  1  0.040100  0.099100  0.535800  1.0  0.1053
  H  H128  1  0.846600  0.106800  0.436100  1.0  0.1137
  H  H129  1  0.021500  0.210300  0.451700  1.0  0.1056
  H  H130  1  0.832500  0.115500  0.335400  1.0  0.0562
  H  H131  1  0.001500  0.219000  0.350800  1.0  0.062
  H  H132  1  0.844600  0.962300  0.608600  1.0  0.0615
  H  H133  1  0.885100  0.662200  0.623400  1.0  0.0656
  H  H134  1  0.813300  0.948400  0.507900  1.0  0.1129
  H  H135  1  0.852700  0.640300  0.522900  1.0  0.116
  H  H136  1  0.798300  0.710000  0.425900  1.0  0.1237
  H  H137  1  0.775000  0.828000  0.421000  1.0  0.1205
  H  H138  1  0.844000  0.801700  0.418800  1.0  0.1202
  H  H139  1  0.662300  0.754800  0.707800  1.0  0.1136
  H  H140  1  0.771200  0.519500  0.789300  1.0  0.1155
  H  H141  1  0.750500  0.838000  0.693700  1.0  0.0628
  H  H142  1  0.855900  0.611400  0.775200  1.0  0.0624
  H  H143  1  0.589600  0.988900  0.795300  1.0  0.1123
  H  H144  1  0.587300  0.807500  0.793200  1.0  0.0639
  H  H145  1  0.613100  0.657500  0.867000  1.0  0.0611
  H  H146  1  0.442600  0.575200  0.864300  1.0  0.0593
  H  H147  1  0.635900  0.681900  0.967200  1.0  0.1241
  H  H148  1  0.459900  0.599100  0.964200  1.0  0.1054
  H  H149  1  0.653400  0.606800  0.063900  1.0  0.1141
  H  H150  1  0.478500  0.710300  0.048300  1.0  0.1056
  H  H151  1  0.667500  0.615500  0.164600  1.0  0.0568
  H  H152  1  0.498500  0.719000  0.149200  1.0  0.0619
  H  H153  1  0.655400  0.462300  0.891400  1.0  0.0621
  H  H154  1  0.614900  0.162200  0.876600  1.0  0.0653
  H  H155  1  0.686700  0.448400  0.992100  1.0  0.1122
  H  H156  1  0.647300  0.140300  0.977100  1.0  0.1166
  H  H157  1  0.701700  0.210000  0.074100  1.0  0.1237
  H  H158  1  0.725000  0.328000  0.079000  1.0  0.1204
  H  H159  1  0.656000  0.301700  0.081200  1.0  0.121
  H  H160  1  0.162300  0.254800  0.707800  1.0  0.1136
  H  H161  1  0.271200  0.019500  0.789300  1.0  0.1155
  H  H162  1  0.250500  0.338000  0.693700  1.0  0.0628
  H  H163  1  0.355900  0.111400  0.775200  1.0  0.0624
  H  H164  1  0.089600  0.488900  0.795300  1.0  0.1123
  H  H165  1  0.087300  0.307500  0.793200  1.0  0.0639
  H  H166  1  0.113100  0.157500  0.867000  1.0  0.0611
  H  H167  1  0.942600  0.075200  0.864300  1.0  0.0593
  H  H168  1  0.135900  0.181900  0.967200  1.0  0.1241
  H  H169  1  0.959900  0.099100  0.964200  1.0  0.1054
  H  H170  1  0.153400  0.106800  0.063900  1.0  0.1141
  H  H171  1  0.978500  0.210300  0.048300  1.0  0.1056
  H  H172  1  0.167500  0.115500  0.164600  1.0  0.0568
  H  H173  1  0.998500  0.219000  0.149200  1.0  0.0619
  H  H174  1  0.155400  0.962300  0.891400  1.0  0.0621
  H  H175  1  0.114900  0.662200  0.876600  1.0  0.0653
  H  H176  1  0.186700  0.948400  0.992100  1.0  0.1122
  H  H177  1  0.147300  0.640300  0.977100  1.0  0.1166
  H  H178  1  0.201700  0.710000  0.074100  1.0  0.1237
  H  H179  1  0.225000  0.828000  0.079000  1.0  0.1204
  H  H180  1  0.156000  0.801700  0.081200  1.0  0.121
  C  C181  1  0.649940  0.431100  0.259090  1.0  0.6583
  C  C182  1  0.706790  0.372800  0.250050  1.0  -0.0877
  C  C183  1  0.701290  0.276400  0.221550  1.0  -0.1635
  C  C184  1  0.765810  0.415300  0.270090  1.0  -0.1372
  C  C185  1  0.754670  0.226600  0.213710  1.0  0.1586
  C  C186  1  0.816260  0.359700  0.261140  1.0  0.1644
  C  C187  1  0.553130  0.046400  0.276730  1.0  -0.1386
  C  C188  1  0.551130  0.155400  0.275420  1.0  0.1715
  C  C189  1  0.581950  0.355300  0.387010  1.0  0.1612
  C  C190  1  0.482110  0.403200  0.385270  1.0  0.1748
  C  C191  1  0.596080  0.340000  0.447380  1.0  -0.2495
  C  C192  1  0.492170  0.389200  0.445460  1.0  -0.1977
  C  C193  1  0.550480  0.357400  0.478410  1.0  0.0974
  C  C194  1  0.562880  0.345300  0.543450  1.0  0.1
  C  C195  1  0.620660  0.371800  0.580200  1.0  -0.2316
  C  C196  1  0.517490  0.310200  0.571010  1.0  -0.2275
  C  C197  1  0.628760  0.365800  0.640710  1.0  0.1622
  C  C198  1  0.529750  0.305600  0.631720  1.0  0.164
  C  C199  1  0.652400  0.603300  0.408870  1.0  0.1667
  C  C200  1  0.628970  0.779000  0.400220  1.0  0.159
  C  C201  1  0.671900  0.611400  0.469680  1.0  -0.237
  C  C202  1  0.648470  0.792600  0.460790  1.0  -0.2199
  C  C203  1  0.669780  0.707000  0.497510  1.0  0.0948
  C  C204  1  0.689900  0.717800  0.563960  1.0  -0.3894
  C  C205  1  0.149940  0.931100  0.259090  1.0  0.6583
  C  C206  1  0.206790  0.872800  0.250050  1.0  -0.0877
  C  C207  1  0.201290  0.776400  0.221550  1.0  -0.1635
  C  C208  1  0.265810  0.915300  0.270090  1.0  -0.1372
  C  C209  1  0.254670  0.726600  0.213710  1.0  0.1585
  C  C210  1  0.316260  0.859700  0.261140  1.0  0.1644
  C  C211  1  0.053130  0.546400  0.276730  1.0  -0.1386
  C  C212  1  0.051130  0.655400  0.275420  1.0  0.1715
  C  C213  1  0.081950  0.855300  0.387010  1.0  0.1612
  C  C214  1  0.982110  0.903200  0.385270  1.0  0.1748
  C  C215  1  0.096080  0.840000  0.447380  1.0  -0.2495
  C  C216  1  0.992170  0.889200  0.445460  1.0  -0.1977
  C  C217  1  0.050480  0.857400  0.478410  1.0  0.0974
  C  C218  1  0.062880  0.845300  0.543450  1.0  0.1
  C  C219  1  0.120660  0.871800  0.580200  1.0  -0.2316
  C  C220  1  0.017490  0.810200  0.571010  1.0  -0.2275
  C  C221  1  0.128760  0.865800  0.640710  1.0  0.1622
  C  C222  1  0.029750  0.805600  0.631720  1.0  0.164
  C  C223  1  0.152400  0.103300  0.408870  1.0  0.1667
  C  C224  1  0.128970  0.279000  0.400220  1.0  0.159
  C  C225  1  0.171900  0.111400  0.469680  1.0  -0.237
  C  C226  1  0.148470  0.292600  0.460790  1.0  -0.2199
  C  C227  1  0.169780  0.207000  0.497510  1.0  0.0948
  C  C228  1  0.189900  0.217800  0.563960  1.0  -0.3894
  C  C229  1  0.350060  0.431100  0.240910  1.0  0.6589
  C  C230  1  0.293210  0.372800  0.249950  1.0  -0.0887
  C  C231  1  0.298710  0.276400  0.278450  1.0  -0.1648
  C  C232  1  0.234190  0.415300  0.229910  1.0  -0.1361
  C  C233  1  0.245330  0.226600  0.286290  1.0  0.1574
  C  C234  1  0.183740  0.359700  0.238860  1.0  0.1644
  C  C235  1  0.446870  0.046400  0.223270  1.0  -0.1379
  C  C236  1  0.448870  0.155400  0.224580  1.0  0.1716
  C  C237  1  0.418050  0.355300  0.112990  1.0  0.1617
  C  C238  1  0.517890  0.403200  0.114730  1.0  0.1752
  C  C239  1  0.403920  0.340000  0.052620  1.0  -0.2499
  C  C240  1  0.507830  0.389200  0.054540  1.0  -0.1971
  C  C241  1  0.449520  0.357400  0.021590  1.0  0.0973
  C  C242  1  0.437120  0.345300  0.956550  1.0  0.1001
  C  C243  1  0.379340  0.371800  0.919800  1.0  -0.2295
  C  C244  1  0.482510  0.310200  0.928990  1.0  -0.2283
  C  C245  1  0.371240  0.365800  0.859290  1.0  0.1625
  C  C246  1  0.470250  0.305600  0.868280  1.0  0.1633
  C  C247  1  0.347600  0.603300  0.091130  1.0  0.1667
  C  C248  1  0.371030  0.779000  0.099780  1.0  0.1582
  C  C249  1  0.328100  0.611400  0.030320  1.0  -0.2357
  C  C250  1  0.351530  0.792600  0.039210  1.0  -0.2212
  C  C251  1  0.330220  0.707000  0.002490  1.0  0.0957
  C  C252  1  0.310100  0.717800  0.936040  1.0  -0.3909
  C  C253  1  0.850060  0.931100  0.240910  1.0  0.6589
  C  C254  1  0.793210  0.872800  0.249950  1.0  -0.0887
  C  C255  1  0.798710  0.776400  0.278450  1.0  -0.1648
  C  C256  1  0.734190  0.915300  0.229910  1.0  -0.1361
  C  C257  1  0.745330  0.726600  0.286290  1.0  0.1574
  C  C258  1  0.683740  0.859700  0.238860  1.0  0.1644
  C  C259  1  0.946870  0.546400  0.223270  1.0  -0.1379
  C  C260  1  0.948870  0.655400  0.224580  1.0  0.1716
  C  C261  1  0.918050  0.855300  0.112990  1.0  0.1617
  C  C262  1  0.017890  0.903200  0.114730  1.0  0.1752
  C  C263  1  0.903920  0.840000  0.052620  1.0  -0.2499
  C  C264  1  0.007830  0.889200  0.054540  1.0  -0.1971
  C  C265  1  0.949520  0.857400  0.021590  1.0  0.0973
  C  C266  1  0.937120  0.845300  0.956550  1.0  0.1001
  C  C267  1  0.879340  0.871800  0.919800  1.0  -0.2295
  C  C268  1  0.982510  0.810200  0.928990  1.0  -0.2283
  C  C269  1  0.871240  0.865800  0.859290  1.0  0.1625
  C  C270  1  0.970250  0.805600  0.868280  1.0  0.1633
  C  C271  1  0.847600  0.103300  0.091130  1.0  0.1667
  C  C272  1  0.871030  0.279000  0.099780  1.0  0.1582
  C  C273  1  0.828100  0.111400  0.030320  1.0  -0.2357
  C  C274  1  0.851530  0.292600  0.039210  1.0  -0.2212
  C  C275  1  0.830220  0.207000  0.002490  1.0  0.0957
  C  C276  1  0.810100  0.217800  0.936040  1.0  -0.3909
  C  C277  1  0.350060  0.568900  0.740910  1.0  0.6586
  C  C278  1  0.293210  0.627200  0.749950  1.0  -0.0901
  C  C279  1  0.298710  0.723600  0.778450  1.0  -0.1655
  C  C280  1  0.234190  0.584700  0.729910  1.0  -0.1349
  C  C281  1  0.245330  0.773400  0.786290  1.0  0.1578
  C  C282  1  0.183740  0.640300  0.738860  1.0  0.1647
  C  C283  1  0.446870  0.953600  0.723270  1.0  -0.1369
  C  C284  1  0.448870  0.844600  0.724580  1.0  0.1713
  C  C285  1  0.418050  0.644700  0.612990  1.0  0.1615
  C  C286  1  0.517890  0.596800  0.614730  1.0  0.176
  C  C287  1  0.403920  0.660000  0.552620  1.0  -0.2499
  C  C288  1  0.507830  0.610800  0.554540  1.0  -0.1977
  C  C289  1  0.449520  0.642600  0.521590  1.0  0.0972
  C  C290  1  0.437120  0.654700  0.456550  1.0  0.1
  C  C291  1  0.379340  0.628200  0.419800  1.0  -0.229
  C  C292  1  0.482510  0.689800  0.428990  1.0  -0.2273
  C  C293  1  0.371240  0.634200  0.359290  1.0  0.163
  C  C294  1  0.470250  0.694400  0.368280  1.0  0.1639
  C  C295  1  0.347600  0.396700  0.591130  1.0  0.166
  C  C296  1  0.371030  0.221000  0.599780  1.0  0.1589
  C  C297  1  0.328100  0.388600  0.530320  1.0  -0.2372
  C  C298  1  0.351530  0.207400  0.539210  1.0  -0.2215
  C  C299  1  0.330220  0.293000  0.502490  1.0  0.0958
  C  C300  1  0.310100  0.282200  0.436040  1.0  -0.391
  C  C301  1  0.850060  0.068900  0.740910  1.0  0.6586
  C  C302  1  0.793210  0.127200  0.749950  1.0  -0.0901
  C  C303  1  0.798710  0.223600  0.778450  1.0  -0.1655
  C  C304  1  0.734190  0.084700  0.729910  1.0  -0.1349
  C  C305  1  0.745330  0.273400  0.786290  1.0  0.1578
  C  C306  1  0.683740  0.140300  0.738860  1.0  0.1647
  C  C307  1  0.946870  0.453600  0.723270  1.0  -0.1369
  C  C308  1  0.948870  0.344600  0.724580  1.0  0.1713
  C  C309  1  0.918050  0.144700  0.612990  1.0  0.1615
  C  C310  1  0.017890  0.096800  0.614730  1.0  0.176
  C  C311  1  0.903920  0.160000  0.552620  1.0  -0.2499
  C  C312  1  0.007830  0.110800  0.554540  1.0  -0.1977
  C  C313  1  0.949520  0.142600  0.521590  1.0  0.0972
  C  C314  1  0.937120  0.154700  0.456550  1.0  0.1
  C  C315  1  0.879340  0.128200  0.419800  1.0  -0.229
  C  C316  1  0.982510  0.189800  0.428990  1.0  -0.2273
  C  C317  1  0.871240  0.134200  0.359290  1.0  0.163
  C  C318  1  0.970250  0.194400  0.368280  1.0  0.1639
  C  C319  1  0.847600  0.896700  0.591130  1.0  0.166
  C  C320  1  0.871030  0.721000  0.599780  1.0  0.1589
  C  C321  1  0.828100  0.888600  0.530320  1.0  -0.2372
  C  C322  1  0.851530  0.707400  0.539210  1.0  -0.2215
  C  C323  1  0.830220  0.793000  0.502490  1.0  0.0958
  C  C324  1  0.810100  0.782200  0.436040  1.0  -0.391
  C  C325  1  0.649940  0.568900  0.759090  1.0  0.6582
  C  C326  1  0.706790  0.627200  0.750050  1.0  -0.0877
  C  C327  1  0.701290  0.723600  0.721550  1.0  -0.1638
  C  C328  1  0.765810  0.584700  0.770090  1.0  -0.1365
  C  C329  1  0.754670  0.773400  0.713710  1.0  0.1586
  C  C330  1  0.816260  0.640300  0.761140  1.0  0.1653
  C  C331  1  0.553130  0.953600  0.776730  1.0  -0.1387
  C  C332  1  0.551130  0.844600  0.775420  1.0  0.1714
  C  C333  1  0.581950  0.644700  0.887010  1.0  0.1615
  C  C334  1  0.482110  0.596800  0.885270  1.0  0.1759
  C  C335  1  0.596080  0.660000  0.947380  1.0  -0.2501
  C  C336  1  0.492170  0.610800  0.945460  1.0  -0.1981
  C  C337  1  0.550480  0.642600  0.978410  1.0  0.098
  C  C338  1  0.562880  0.654700  0.043450  1.0  0.1007
  C  C339  1  0.620660  0.628200  0.080200  1.0  -0.2305
  C  C340  1  0.517490  0.689800  0.071010  1.0  -0.2274
  C  C341  1  0.628760  0.634200  0.140710  1.0  0.1626
  C  C342  1  0.529750  0.694400  0.131720  1.0  0.1638
  C  C343  1  0.652400  0.396700  0.908870  1.0  0.1665
  C  C344  1  0.628970  0.221000  0.900220  1.0  0.1591
  C  C345  1  0.671900  0.388600  0.969680  1.0  -0.2383
  C  C346  1  0.648470  0.207400  0.960790  1.0  -0.2207
  C  C347  1  0.669780  0.293000  0.997510  1.0  0.0948
  C  C348  1  0.689900  0.282200  0.063960  1.0  -0.3898
  C  C349  1  0.149940  0.068900  0.759090  1.0  0.6582
  C  C350  1  0.206790  0.127200  0.750050  1.0  -0.0877
  C  C351  1  0.201290  0.223600  0.721550  1.0  -0.1638
  C  C352  1  0.265810  0.084700  0.770090  1.0  -0.1365
  C  C353  1  0.254670  0.273400  0.713710  1.0  0.1585
  C  C354  1  0.316260  0.140300  0.761140  1.0  0.1653
  C  C355  1  0.053130  0.453600  0.776730  1.0  -0.1387
  C  C356  1  0.051130  0.344600  0.775420  1.0  0.1714
  C  C357  1  0.081950  0.144700  0.887010  1.0  0.1615
  C  C358  1  0.982110  0.096800  0.885270  1.0  0.1759
  C  C359  1  0.096080  0.160000  0.947380  1.0  -0.2501
  C  C360  1  0.992170  0.110800  0.945460  1.0  -0.1981
  C  C361  1  0.050480  0.142600  0.978410  1.0  0.098
  C  C362  1  0.062880  0.154700  0.043450  1.0  0.1007
  C  C363  1  0.120660  0.128200  0.080200  1.0  -0.2305
  C  C364  1  0.017490  0.189800  0.071010  1.0  -0.2274
  C  C365  1  0.128760  0.134200  0.140710  1.0  0.1626
  C  C366  1  0.029750  0.194400  0.131720  1.0  0.1638
  C  C367  1  0.152400  0.896700  0.908870  1.0  0.1665
  C  C368  1  0.128970  0.721000  0.900220  1.0  0.1591
  C  C369  1  0.171900  0.888600  0.969680  1.0  -0.2383
  C  C370  1  0.148470  0.707400  0.960790  1.0  -0.2207
  C  C371  1  0.169780  0.793000  0.997510  1.0  0.0948
  C  C372  1  0.189900  0.782200  0.063960  1.0  -0.3898
  C  C373  1  0.500000  0.870600  0.250000  1.0  0.6799
  C  C374  1  0.500000  0.990100  0.250000  1.0  -0.101
  C  C375  1  0.000000  0.370600  0.250000  1.0  0.6799
  C  C376  1  0.000000  0.490100  0.250000  1.0  -0.101
  C  C377  1  0.500000  0.129400  0.750000  1.0  0.6801
  C  C378  1  0.500000  0.009900  0.750000  1.0  -0.1008
  C  C379  1  0.000000  0.629400  0.750000  1.0  0.6801
  C  C380  1  0.000000  0.509900  0.750000  1.0  -0.1008
  N  N381  1  0.811470  0.266370  0.233300  1.0  -0.3538
  N  N382  1  0.526030  0.387460  0.355140  1.0  -0.3746
  N  N383  1  0.584410  0.334700  0.667160  1.0  -0.3612
  N  N384  1  0.629460  0.684540  0.373860  1.0  -0.37
  N  N385  1  0.311470  0.766370  0.233300  1.0  -0.3538
  N  N386  1  0.026030  0.887460  0.355140  1.0  -0.3746
  N  N387  1  0.084410  0.834700  0.667160  1.0  -0.3612
  N  N388  1  0.129460  0.184540  0.373860  1.0  -0.37
  N  N389  1  0.188530  0.266370  0.266700  1.0  -0.3527
  N  N390  1  0.473970  0.387460  0.144860  1.0  -0.3756
  N  N391  1  0.415590  0.334700  0.832840  1.0  -0.3623
  N  N392  1  0.370540  0.684540  0.126140  1.0  -0.3693
  N  N393  1  0.688530  0.766370  0.266700  1.0  -0.3527
  N  N394  1  0.973970  0.887460  0.144860  1.0  -0.3756
  N  N395  1  0.915590  0.834700  0.832840  1.0  -0.3623
  N  N396  1  0.870540  0.184540  0.126140  1.0  -0.3693
  N  N397  1  0.188530  0.733630  0.766700  1.0  -0.3519
  N  N398  1  0.473970  0.612540  0.644860  1.0  -0.3755
  N  N399  1  0.415590  0.665300  0.332840  1.0  -0.3623
  N  N400  1  0.370540  0.315460  0.626140  1.0  -0.3691
  N  N401  1  0.688530  0.233630  0.766700  1.0  -0.3519
  N  N402  1  0.973970  0.112540  0.644860  1.0  -0.3755
  N  N403  1  0.915590  0.165300  0.332840  1.0  -0.3623
  N  N404  1  0.870540  0.815460  0.626140  1.0  -0.3691
  N  N405  1  0.811470  0.733630  0.733300  1.0  -0.3538
  N  N406  1  0.526030  0.612540  0.855140  1.0  -0.3749
  N  N407  1  0.584410  0.665300  0.167160  1.0  -0.3615
  N  N408  1  0.629460  0.315460  0.873860  1.0  -0.3693
  N  N409  1  0.311470  0.233630  0.733300  1.0  -0.3538
  N  N410  1  0.026030  0.112540  0.855140  1.0  -0.3749
  N  N411  1  0.084410  0.165300  0.167160  1.0  -0.3615
  N  N412  1  0.129460  0.815460  0.873860  1.0  -0.3693
  N  N413  1  0.500000  0.211000  0.250000  1.0  -0.3744
  N  N414  1  0.000000  0.711000  0.250000  1.0  -0.3745
  N  N415  1  0.500000  0.789000  0.750000  1.0  -0.3751
  N  N416  1  0.000000  0.289000  0.750000  1.0  -0.3751
  O  O417  1  0.599440  0.382520  0.244090  1.0  -0.6338
  O  O418  1  0.657590  0.521580  0.280690  1.0  -0.6284
  O  O419  1  0.550830  0.826070  0.271250  1.0  -0.63
  O  O420  1  0.099440  0.882520  0.244090  1.0  -0.6338
  O  O421  1  0.157590  0.021580  0.280690  1.0  -0.6284
  O  O422  1  0.050830  0.326070  0.271250  1.0  -0.63
  O  O423  1  0.400560  0.382520  0.255910  1.0  -0.6331
  O  O424  1  0.342410  0.521580  0.219310  1.0  -0.6298
  O  O425  1  0.449170  0.826070  0.228750  1.0  -0.6298
  O  O426  1  0.900560  0.882520  0.255910  1.0  -0.6331
  O  O427  1  0.842410  0.021580  0.219310  1.0  -0.6298
  O  O428  1  0.949170  0.326070  0.228750  1.0  -0.6298
  O  O429  1  0.400560  0.617480  0.755910  1.0  -0.6339
  O  O430  1  0.342410  0.478420  0.719310  1.0  -0.6298
  O  O431  1  0.449170  0.173930  0.728750  1.0  -0.6299
  O  O432  1  0.900560  0.117480  0.755910  1.0  -0.6339
  O  O433  1  0.842410  0.978420  0.719310  1.0  -0.6298
  O  O434  1  0.949170  0.673930  0.728750  1.0  -0.63
  O  O435  1  0.599440  0.617480  0.744090  1.0  -0.6337
  O  O436  1  0.657590  0.478420  0.780690  1.0  -0.6285
  O  O437  1  0.550830  0.173930  0.771250  1.0  -0.6301
  O  O438  1  0.099440  0.117480  0.744090  1.0  -0.6337
  O  O439  1  0.157590  0.978420  0.780690  1.0  -0.6285
  O  O440  1  0.050830  0.673930  0.771250  1.0  -0.6301
  F  F441  1  0.500000  0.582440  0.250000  1.0  -0.4622
  F  F442  1  0.000000  0.082440  0.250000  1.0  -0.4622
  F  F443  1  0.500000  0.417560  0.750000  1.0  -0.4614
  F  F444  1  0.000000  0.917560  0.750000  1.0  -0.4614
