# generated using pymatgen
data_Cd3H36C48N9O6F
_symmetry_space_group_name_H-M   'P 1'
_cell_length_a   21.89200000
_cell_length_b   12.60900000
_cell_length_c   23.26300000
_cell_angle_alpha   90.00000000
_cell_angle_beta   102.89400000
_cell_angle_gamma   90.00000000
_symmetry_Int_Tables_number   1
_chemical_formula_structural   Cd3H36C48N9O6F
_chemical_formula_sum   'Cd12 H144 C192 N36 O24 F4'
_cell_volume   6259.51161806
_cell_formula_units_Z   4
loop_
 _symmetry_equiv_pos_site_id
 _symmetry_equiv_pos_as_xyz
  1  'x, y, z'
loop_
 _atom_site_type_symbol
 _atom_site_label
 _atom_site_symmetry_multiplicity
 _atom_site_fract_x
 _atom_site_fract_y
 _atom_site_fract_z
 _atom_site_occupancy
 _atom_site_charge
  Cd  Cd1  1  0.094500  0.676840  0.265450  1.0  0.8834
  Cd  Cd2  1  0.594500  0.176840  0.265450  1.0  0.8834
  Cd  Cd3  1  0.905500  0.676840  0.234550  1.0  0.8854
  Cd  Cd4  1  0.405500  0.176840  0.234550  1.0  0.8854
  Cd  Cd5  1  0.905500  0.323160  0.734550  1.0  0.8851
  Cd  Cd6  1  0.405500  0.823160  0.734550  1.0  0.8851
  Cd  Cd7  1  0.094500  0.323160  0.765450  1.0  0.8831
  Cd  Cd8  1  0.594500  0.823160  0.765450  1.0  0.8831
  Cd  Cd9  1  0.000000  0.408630  0.250000  1.0  0.9089
  Cd  Cd10  1  0.500000  0.908630  0.250000  1.0  0.9089
  Cd  Cd11  1  0.000000  0.591370  0.750000  1.0  0.9081
  Cd  Cd12  1  0.500000  0.091370  0.750000  1.0  0.9081
  H  H13  1  0.164500  0.262000  0.203400  1.0  0.0963
  H  H14  1  0.254200  0.175500  0.194900  1.0  0.0647
  H  H15  1  0.357500  0.390600  0.287500  1.0  0.0663
  H  H16  1  0.271900  0.483500  0.298300  1.0  0.1138
  H  H17  1  0.090600  0.020200  0.290900  1.0  0.1099
  H  H18  1  0.088600  0.201500  0.288500  1.0  0.0631
  H  H19  1  0.113300  0.355700  0.365300  1.0  0.0649
  H  H20  1  0.133200  0.325700  0.464500  1.0  0.1196
  H  H21  1  0.956200  0.398900  0.462000  1.0  0.1069
  H  H22  1  0.940400  0.430700  0.363700  1.0  0.0608
  H  H23  1  0.147900  0.391300  0.560500  1.0  0.1072
  H  H24  1  0.163100  0.372200  0.659300  1.0  0.0708
  H  H25  1  0.991900  0.274800  0.644000  1.0  0.0553
  H  H26  1  0.972700  0.288500  0.544000  1.0  0.1222
  H  H27  1  0.156900  0.551000  0.389500  1.0  0.0598
  H  H28  1  0.229900  0.579600  0.475000  1.0  0.1129
  H  H29  1  0.199800  0.888300  0.451000  1.0  0.1105
  H  H30  1  0.127500  0.851200  0.367100  1.0  0.0653
  H  H31  1  0.664500  0.762000  0.203400  1.0  0.0963
  H  H32  1  0.754200  0.675500  0.194900  1.0  0.0647
  H  H33  1  0.857500  0.890600  0.287500  1.0  0.0663
  H  H34  1  0.771900  0.983500  0.298300  1.0  0.1138
  H  H35  1  0.590600  0.520200  0.290900  1.0  0.1099
  H  H36  1  0.588600  0.701500  0.288500  1.0  0.0631
  H  H37  1  0.613300  0.855700  0.365300  1.0  0.0649
  H  H38  1  0.633200  0.825700  0.464500  1.0  0.1196
  H  H39  1  0.456200  0.898900  0.462000  1.0  0.1069
  H  H40  1  0.440400  0.930700  0.363700  1.0  0.0608
  H  H41  1  0.647900  0.891300  0.560500  1.0  0.1072
  H  H42  1  0.663100  0.872200  0.659300  1.0  0.0708
  H  H43  1  0.491900  0.774800  0.644000  1.0  0.0553
  H  H44  1  0.472700  0.788500  0.544000  1.0  0.1222
  H  H45  1  0.656900  0.051000  0.389500  1.0  0.0598
  H  H46  1  0.729900  0.079600  0.475000  1.0  0.1129
  H  H47  1  0.699800  0.388300  0.451000  1.0  0.1105
  H  H48  1  0.627500  0.351200  0.367100  1.0  0.0653
  H  H49  1  0.835500  0.262000  0.296600  1.0  0.0969
  H  H50  1  0.745800  0.175500  0.305100  1.0  0.065
  H  H51  1  0.642500  0.390600  0.212500  1.0  0.0662
  H  H52  1  0.728100  0.483500  0.201700  1.0  0.1144
  H  H53  1  0.909400  0.020200  0.209100  1.0  0.1099
  H  H54  1  0.911400  0.201500  0.211500  1.0  0.0623
  H  H55  1  0.886700  0.355700  0.134700  1.0  0.0646
  H  H56  1  0.866800  0.325700  0.035500  1.0  0.1195
  H  H57  1  0.043800  0.398900  0.038000  1.0  0.1076
  H  H58  1  0.059600  0.430700  0.136300  1.0  0.0602
  H  H59  1  0.852100  0.391300  0.939500  1.0  0.1068
  H  H60  1  0.836900  0.372200  0.840700  1.0  0.0704
  H  H61  1  0.008100  0.274800  0.856000  1.0  0.0558
  H  H62  1  0.027300  0.288500  0.956000  1.0  0.1221
  H  H63  1  0.843100  0.551000  0.110500  1.0  0.0594
  H  H64  1  0.770100  0.579600  0.025000  1.0  0.113
  H  H65  1  0.800200  0.888300  0.049000  1.0  0.1103
  H  H66  1  0.872500  0.851200  0.132900  1.0  0.0656
  H  H67  1  0.335500  0.762000  0.296600  1.0  0.0969
  H  H68  1  0.245800  0.675500  0.305100  1.0  0.065
  H  H69  1  0.142500  0.890600  0.212500  1.0  0.0662
  H  H70  1  0.228100  0.983500  0.201700  1.0  0.1144
  H  H71  1  0.409400  0.520200  0.209100  1.0  0.1099
  H  H72  1  0.411400  0.701500  0.211500  1.0  0.0623
  H  H73  1  0.386700  0.855700  0.134700  1.0  0.0646
  H  H74  1  0.366800  0.825700  0.035500  1.0  0.1195
  H  H75  1  0.543800  0.898900  0.038000  1.0  0.1076
  H  H76  1  0.559600  0.930700  0.136300  1.0  0.0602
  H  H77  1  0.352100  0.891300  0.939500  1.0  0.1068
  H  H78  1  0.336900  0.872200  0.840700  1.0  0.0704
  H  H79  1  0.508100  0.774800  0.856000  1.0  0.0558
  H  H80  1  0.527300  0.788500  0.956000  1.0  0.1221
  H  H81  1  0.343100  0.051000  0.110500  1.0  0.0594
  H  H82  1  0.270100  0.079600  0.025000  1.0  0.113
  H  H83  1  0.300200  0.388300  0.049000  1.0  0.1103
  H  H84  1  0.372500  0.351200  0.132900  1.0  0.0656
  H  H85  1  0.835500  0.738000  0.796600  1.0  0.0967
  H  H86  1  0.745800  0.824500  0.805100  1.0  0.0649
  H  H87  1  0.642500  0.609400  0.712500  1.0  0.066
  H  H88  1  0.728100  0.516500  0.701700  1.0  0.1143
  H  H89  1  0.909400  0.979800  0.709100  1.0  0.1095
  H  H90  1  0.911400  0.798500  0.711500  1.0  0.0626
  H  H91  1  0.886700  0.644300  0.634700  1.0  0.0642
  H  H92  1  0.866800  0.674300  0.535500  1.0  0.1196
  H  H93  1  0.043800  0.601100  0.538000  1.0  0.1076
  H  H94  1  0.059600  0.569300  0.636300  1.0  0.0601
  H  H95  1  0.852100  0.608700  0.439500  1.0  0.1069
  H  H96  1  0.836900  0.627800  0.340700  1.0  0.0706
  H  H97  1  0.008100  0.725200  0.356000  1.0  0.0559
  H  H98  1  0.027300  0.711500  0.456000  1.0  0.1216
  H  H99  1  0.843100  0.449000  0.610500  1.0  0.0594
  H  H100  1  0.770100  0.420400  0.525000  1.0  0.1135
  H  H101  1  0.800200  0.111700  0.549000  1.0  0.1101
  H  H102  1  0.872500  0.148800  0.632900  1.0  0.0664
  H  H103  1  0.335500  0.238000  0.796600  1.0  0.0967
  H  H104  1  0.245800  0.324500  0.805100  1.0  0.0649
  H  H105  1  0.142500  0.109400  0.712500  1.0  0.066
  H  H106  1  0.228100  0.016500  0.701700  1.0  0.1143
  H  H107  1  0.409400  0.479800  0.709100  1.0  0.1095
  H  H108  1  0.411400  0.298500  0.711500  1.0  0.0626
  H  H109  1  0.386700  0.144300  0.634700  1.0  0.0642
  H  H110  1  0.366800  0.174300  0.535500  1.0  0.1196
  H  H111  1  0.543800  0.101100  0.538000  1.0  0.1076
  H  H112  1  0.559600  0.069300  0.636300  1.0  0.0601
  H  H113  1  0.352100  0.108700  0.439500  1.0  0.1069
  H  H114  1  0.336900  0.127800  0.340700  1.0  0.0706
  H  H115  1  0.508100  0.225200  0.356000  1.0  0.0559
  H  H116  1  0.527300  0.211500  0.456000  1.0  0.1216
  H  H117  1  0.343100  0.949000  0.610500  1.0  0.0594
  H  H118  1  0.270100  0.920400  0.525000  1.0  0.1135
  H  H119  1  0.300200  0.611700  0.549000  1.0  0.1101
  H  H120  1  0.372500  0.648800  0.632900  1.0  0.0664
  H  H121  1  0.164500  0.738000  0.703400  1.0  0.0961
  H  H122  1  0.254200  0.824500  0.694900  1.0  0.0652
  H  H123  1  0.357500  0.609400  0.787500  1.0  0.0663
  H  H124  1  0.271900  0.516500  0.798300  1.0  0.1139
  H  H125  1  0.090600  0.979800  0.790900  1.0  0.1098
  H  H126  1  0.088600  0.798500  0.788500  1.0  0.063
  H  H127  1  0.113300  0.644300  0.865300  1.0  0.0651
  H  H128  1  0.133200  0.674300  0.964500  1.0  0.12
  H  H129  1  0.956200  0.601100  0.962000  1.0  0.1071
  H  H130  1  0.940400  0.569300  0.863700  1.0  0.0608
  H  H131  1  0.147900  0.608700  0.060500  1.0  0.107
  H  H132  1  0.163100  0.627800  0.159300  1.0  0.071
  H  H133  1  0.991900  0.725200  0.144000  1.0  0.0552
  H  H134  1  0.972700  0.711500  0.044000  1.0  0.1222
  H  H135  1  0.156900  0.449000  0.889500  1.0  0.0598
  H  H136  1  0.229900  0.420400  0.975000  1.0  0.1128
  H  H137  1  0.199800  0.111700  0.951000  1.0  0.1102
  H  H138  1  0.127500  0.148800  0.867100  1.0  0.066
  H  H139  1  0.664500  0.238000  0.703400  1.0  0.0961
  H  H140  1  0.754200  0.324500  0.694900  1.0  0.0652
  H  H141  1  0.857500  0.109400  0.787500  1.0  0.0663
  H  H142  1  0.771900  0.016500  0.798300  1.0  0.1139
  H  H143  1  0.590600  0.479800  0.790900  1.0  0.1098
  H  H144  1  0.588600  0.298500  0.788500  1.0  0.063
  H  H145  1  0.613300  0.144300  0.865300  1.0  0.0651
  H  H146  1  0.633200  0.174300  0.964500  1.0  0.12
  H  H147  1  0.456200  0.101100  0.962000  1.0  0.1071
  H  H148  1  0.440400  0.069300  0.863700  1.0  0.0608
  H  H149  1  0.647900  0.108700  0.060500  1.0  0.107
  H  H150  1  0.663100  0.127800  0.159300  1.0  0.071
  H  H151  1  0.491900  0.225200  0.144000  1.0  0.0552
  H  H152  1  0.472700  0.211500  0.044000  1.0  0.1222
  H  H153  1  0.656900  0.949000  0.889500  1.0  0.0598
  H  H154  1  0.729900  0.920400  0.975000  1.0  0.1128
  H  H155  1  0.699800  0.611700  0.951000  1.0  0.1102
  H  H156  1  0.627500  0.648800  0.867100  1.0  0.066
  C  C157  1  0.149700  0.440400  0.258200  1.0  0.6686
  C  C158  1  0.207300  0.382500  0.252600  1.0  -0.0893
  C  C159  1  0.203500  0.289900  0.221300  1.0  -0.1534
  C  C160  1  0.257700  0.238000  0.216600  1.0  0.1606
  C  C161  1  0.318000  0.363800  0.270600  1.0  0.1655
  C  C162  1  0.266800  0.420200  0.277300  1.0  -0.1668
  C  C163  1  0.053700  0.055500  0.274100  1.0  -0.1272
  C  C164  1  0.052000  0.164400  0.272800  1.0  0.1724
  C  C165  1  0.081200  0.365400  0.385100  1.0  0.1549
  C  C166  1  0.093300  0.346900  0.444700  1.0  -0.2361
  C  C167  1  0.046600  0.359700  0.475200  1.0  0.0784
  C  C168  1  0.989200  0.390400  0.443300  1.0  -0.2142
  C  C169  1  0.979900  0.408800  0.384100  1.0  0.1745
  C  C170  1  0.058500  0.343000  0.539800  1.0  0.0775
  C  C171  1  0.115100  0.367400  0.576500  1.0  -0.2025
  C  C172  1  0.123800  0.356900  0.635900  1.0  0.1591
  C  C173  1  0.023700  0.299600  0.626900  1.0  0.1703
  C  C174  1  0.011800  0.307200  0.566700  1.0  -0.2182
  C  C175  1  0.166000  0.620500  0.401900  1.0  0.1677
  C  C176  1  0.210300  0.637200  0.453600  1.0  -0.2227
  C  C177  1  0.225500  0.738900  0.473300  1.0  0.077
  C  C178  1  0.192500  0.818000  0.439400  1.0  -0.2044
  C  C179  1  0.148800  0.795200  0.388700  1.0  0.1549
  C  C180  1  0.649700  0.940400  0.258200  1.0  0.6686
  C  C181  1  0.707300  0.882500  0.252600  1.0  -0.0893
  C  C182  1  0.703500  0.789900  0.221300  1.0  -0.1534
  C  C183  1  0.757700  0.738000  0.216600  1.0  0.1606
  C  C184  1  0.818000  0.863800  0.270600  1.0  0.1655
  C  C185  1  0.766800  0.920200  0.277300  1.0  -0.1668
  C  C186  1  0.553700  0.555500  0.274100  1.0  -0.1272
  C  C187  1  0.552000  0.664400  0.272800  1.0  0.1724
  C  C188  1  0.581200  0.865400  0.385100  1.0  0.1549
  C  C189  1  0.593300  0.846900  0.444700  1.0  -0.2361
  C  C190  1  0.546600  0.859700  0.475200  1.0  0.0784
  C  C191  1  0.489200  0.890400  0.443300  1.0  -0.2142
  C  C192  1  0.479900  0.908800  0.384100  1.0  0.1745
  C  C193  1  0.558500  0.843000  0.539800  1.0  0.0775
  C  C194  1  0.615100  0.867400  0.576500  1.0  -0.2025
  C  C195  1  0.623800  0.856900  0.635900  1.0  0.1591
  C  C196  1  0.523700  0.799600  0.626900  1.0  0.1703
  C  C197  1  0.511800  0.807200  0.566700  1.0  -0.2182
  C  C198  1  0.666000  0.120500  0.401900  1.0  0.1677
  C  C199  1  0.710300  0.137200  0.453600  1.0  -0.2227
  C  C200  1  0.725500  0.238900  0.473300  1.0  0.077
  C  C201  1  0.692500  0.318000  0.439400  1.0  -0.2044
  C  C202  1  0.648800  0.295200  0.388700  1.0  0.1549
  C  C203  1  0.850300  0.440400  0.241800  1.0  0.6693
  C  C204  1  0.792700  0.382500  0.247400  1.0  -0.0883
  C  C205  1  0.796500  0.289900  0.278700  1.0  -0.1549
  C  C206  1  0.742300  0.238000  0.283400  1.0  0.1608
  C  C207  1  0.682000  0.363800  0.229400  1.0  0.165
  C  C208  1  0.733200  0.420200  0.222700  1.0  -0.166
  C  C209  1  0.946300  0.055500  0.225900  1.0  -0.1277
  C  C210  1  0.948000  0.164400  0.227200  1.0  0.1721
  C  C211  1  0.918800  0.365400  0.114900  1.0  0.1558
  C  C212  1  0.906700  0.346900  0.055300  1.0  -0.2371
  C  C213  1  0.953400  0.359700  0.024800  1.0  0.0795
  C  C214  1  0.010800  0.390400  0.056700  1.0  -0.214
  C  C215  1  0.020100  0.408800  0.115900  1.0  0.1755
  C  C216  1  0.941500  0.343000  0.960200  1.0  0.0791
  C  C217  1  0.884900  0.367400  0.923500  1.0  -0.203
  C  C218  1  0.876200  0.356900  0.864100  1.0  0.1583
  C  C219  1  0.976300  0.299600  0.873100  1.0  0.1695
  C  C220  1  0.988200  0.307200  0.933300  1.0  -0.219
  C  C221  1  0.834000  0.620500  0.098100  1.0  0.1682
  C  C222  1  0.789700  0.637200  0.046400  1.0  -0.2226
  C  C223  1  0.774500  0.738900  0.026700  1.0  0.0783
  C  C224  1  0.807500  0.818000  0.060600  1.0  -0.2052
  C  C225  1  0.851200  0.795200  0.111300  1.0  0.1567
  C  C226  1  0.350300  0.940400  0.241800  1.0  0.6693
  C  C227  1  0.292700  0.882500  0.247400  1.0  -0.0883
  C  C228  1  0.296500  0.789900  0.278700  1.0  -0.1549
  C  C229  1  0.242300  0.738000  0.283400  1.0  0.1608
  C  C230  1  0.182000  0.863800  0.229400  1.0  0.165
  C  C231  1  0.233200  0.920200  0.222700  1.0  -0.166
  C  C232  1  0.446300  0.555500  0.225900  1.0  -0.1277
  C  C233  1  0.448000  0.664400  0.227200  1.0  0.1721
  C  C234  1  0.418800  0.865400  0.114900  1.0  0.1558
  C  C235  1  0.406700  0.846900  0.055300  1.0  -0.2371
  C  C236  1  0.453400  0.859700  0.024800  1.0  0.0795
  C  C237  1  0.510800  0.890400  0.056700  1.0  -0.214
  C  C238  1  0.520100  0.908800  0.115900  1.0  0.1755
  C  C239  1  0.441500  0.843000  0.960200  1.0  0.0791
  C  C240  1  0.384900  0.867400  0.923500  1.0  -0.203
  C  C241  1  0.376200  0.856900  0.864100  1.0  0.1583
  C  C242  1  0.476300  0.799600  0.873100  1.0  0.1695
  C  C243  1  0.488200  0.807200  0.933300  1.0  -0.219
  C  C244  1  0.334000  0.120500  0.098100  1.0  0.1682
  C  C245  1  0.289700  0.137200  0.046400  1.0  -0.2226
  C  C246  1  0.274500  0.238900  0.026700  1.0  0.0783
  C  C247  1  0.307500  0.318000  0.060600  1.0  -0.2052
  C  C248  1  0.351200  0.295200  0.111300  1.0  0.1567
  C  C249  1  0.850300  0.559600  0.741800  1.0  0.669
  C  C250  1  0.792700  0.617500  0.747400  1.0  -0.0889
  C  C251  1  0.796500  0.710100  0.778700  1.0  -0.1553
  C  C252  1  0.742300  0.762000  0.783400  1.0  0.1608
  C  C253  1  0.682000  0.636200  0.729400  1.0  0.1652
  C  C254  1  0.733200  0.579800  0.722700  1.0  -0.1656
  C  C255  1  0.946300  0.944500  0.725900  1.0  -0.1267
  C  C256  1  0.948000  0.835600  0.727200  1.0  0.1719
  C  C257  1  0.918800  0.634600  0.614900  1.0  0.1557
  C  C258  1  0.906700  0.653100  0.555300  1.0  -0.2383
  C  C259  1  0.953400  0.640300  0.524800  1.0  0.0795
  C  C260  1  0.010800  0.609600  0.556700  1.0  -0.2145
  C  C261  1  0.020100  0.591200  0.615900  1.0  0.1767
  C  C262  1  0.941500  0.657000  0.460200  1.0  0.0795
  C  C263  1  0.884900  0.632600  0.423500  1.0  -0.2032
  C  C264  1  0.876200  0.643100  0.364100  1.0  0.1587
  C  C265  1  0.976300  0.700400  0.373100  1.0  0.1701
  C  C266  1  0.988200  0.692800  0.433300  1.0  -0.2191
  C  C267  1  0.834000  0.379500  0.598100  1.0  0.1674
  C  C268  1  0.789700  0.362800  0.546400  1.0  -0.2228
  C  C269  1  0.774500  0.261100  0.526700  1.0  0.0782
  C  C270  1  0.807500  0.182000  0.560600  1.0  -0.2058
  C  C271  1  0.851200  0.204800  0.611300  1.0  0.1557
  C  C272  1  0.350300  0.059600  0.741800  1.0  0.669
  C  C273  1  0.292700  0.117500  0.747400  1.0  -0.0889
  C  C274  1  0.296500  0.210100  0.778700  1.0  -0.1553
  C  C275  1  0.242300  0.262000  0.783400  1.0  0.1608
  C  C276  1  0.182000  0.136200  0.729400  1.0  0.1652
  C  C277  1  0.233200  0.079800  0.722700  1.0  -0.1656
  C  C278  1  0.446300  0.444500  0.725900  1.0  -0.1267
  C  C279  1  0.448000  0.335600  0.727200  1.0  0.1719
  C  C280  1  0.418800  0.134600  0.614900  1.0  0.1557
  C  C281  1  0.406700  0.153100  0.555300  1.0  -0.2383
  C  C282  1  0.453400  0.140300  0.524800  1.0  0.0795
  C  C283  1  0.510800  0.109600  0.556700  1.0  -0.2145
  C  C284  1  0.520100  0.091200  0.615900  1.0  0.1767
  C  C285  1  0.441500  0.157000  0.460200  1.0  0.0795
  C  C286  1  0.384900  0.132600  0.423500  1.0  -0.2032
  C  C287  1  0.376200  0.143100  0.364100  1.0  0.1587
  C  C288  1  0.476300  0.200400  0.373100  1.0  0.1701
  C  C289  1  0.488200  0.192800  0.433300  1.0  -0.2191
  C  C290  1  0.334000  0.879500  0.598100  1.0  0.1674
  C  C291  1  0.289700  0.862800  0.546400  1.0  -0.2228
  C  C292  1  0.274500  0.761100  0.526700  1.0  0.0782
  C  C293  1  0.307500  0.682000  0.560600  1.0  -0.2058
  C  C294  1  0.351200  0.704800  0.611300  1.0  0.1557
  C  C295  1  0.149700  0.559600  0.758200  1.0  0.6683
  C  C296  1  0.207300  0.617500  0.752600  1.0  -0.0895
  C  C297  1  0.203500  0.710100  0.721300  1.0  -0.1533
  C  C298  1  0.257700  0.762000  0.716600  1.0  0.1605
  C  C299  1  0.318000  0.636200  0.770600  1.0  0.1658
  C  C300  1  0.266800  0.579800  0.777300  1.0  -0.1667
  C  C301  1  0.053700  0.944500  0.774100  1.0  -0.1276
  C  C302  1  0.052000  0.835600  0.772800  1.0  0.172
  C  C303  1  0.081200  0.634600  0.885100  1.0  0.1558
  C  C304  1  0.093300  0.653100  0.944700  1.0  -0.2377
  C  C305  1  0.046600  0.640300  0.975200  1.0  0.0789
  C  C306  1  0.989200  0.609600  0.943300  1.0  -0.2141
  C  C307  1  0.979900  0.591200  0.884100  1.0  0.1752
  C  C308  1  0.058500  0.657000  0.039800  1.0  0.0787
  C  C309  1  0.115100  0.632600  0.076500  1.0  -0.2034
  C  C310  1  0.123800  0.643100  0.135900  1.0  0.1593
  C  C311  1  0.023700  0.700400  0.126900  1.0  0.1688
  C  C312  1  0.011800  0.692800  0.066700  1.0  -0.2197
  C  C313  1  0.166000  0.379500  0.901900  1.0  0.1669
  C  C314  1  0.210300  0.362800  0.953600  1.0  -0.2235
  C  C315  1  0.225500  0.261100  0.973300  1.0  0.0769
  C  C316  1  0.192500  0.182000  0.939400  1.0  -0.2051
  C  C317  1  0.148800  0.204800  0.888700  1.0  0.1556
  C  C318  1  0.649700  0.059600  0.758200  1.0  0.6683
  C  C319  1  0.707300  0.117500  0.752600  1.0  -0.0895
  C  C320  1  0.703500  0.210100  0.721300  1.0  -0.1533
  C  C321  1  0.757700  0.262000  0.716600  1.0  0.1605
  C  C322  1  0.818000  0.136200  0.770600  1.0  0.1658
  C  C323  1  0.766800  0.079800  0.777300  1.0  -0.1667
  C  C324  1  0.553700  0.444500  0.774100  1.0  -0.1276
  C  C325  1  0.552000  0.335600  0.772800  1.0  0.172
  C  C326  1  0.581200  0.134600  0.885100  1.0  0.1558
  C  C327  1  0.593300  0.153100  0.944700  1.0  -0.2377
  C  C328  1  0.546600  0.140300  0.975200  1.0  0.0789
  C  C329  1  0.489200  0.109600  0.943300  1.0  -0.2141
  C  C330  1  0.479900  0.091200  0.884100  1.0  0.1752
  C  C331  1  0.558500  0.157000  0.039800  1.0  0.0787
  C  C332  1  0.615100  0.132600  0.076500  1.0  -0.2034
  C  C333  1  0.623800  0.143100  0.135900  1.0  0.1593
  C  C334  1  0.523700  0.200400  0.126900  1.0  0.1688
  C  C335  1  0.511800  0.192800  0.066700  1.0  -0.2197
  C  C336  1  0.666000  0.879500  0.901900  1.0  0.1669
  C  C337  1  0.710300  0.862800  0.953600  1.0  -0.2235
  C  C338  1  0.725500  0.761100  0.973300  1.0  0.0769
  C  C339  1  0.692500  0.682000  0.939400  1.0  -0.2051
  C  C340  1  0.648800  0.704800  0.888700  1.0  0.1556
  C  C341  1  0.000000  0.880300  0.250000  1.0  0.6883
  C  C342  1  0.000000  0.999100  0.250000  1.0  -0.1254
  C  C343  1  0.500000  0.380300  0.250000  1.0  0.6883
  C  C344  1  0.500000  0.499100  0.250000  1.0  -0.1254
  C  C345  1  0.000000  0.119700  0.750000  1.0  0.6883
  C  C346  1  0.000000  0.000900  0.750000  1.0  -0.1252
  C  C347  1  0.500000  0.619700  0.750000  1.0  0.6883
  C  C348  1  0.500000  0.500900  0.750000  1.0  -0.1252
  N  N349  1  0.314720  0.273400  0.241600  1.0  -0.349
  N  N350  1  0.024900  0.396700  0.354200  1.0  -0.3743
  N  N351  1  0.078100  0.325600  0.662300  1.0  -0.3585
  N  N352  1  0.135700  0.697900  0.369100  1.0  -0.3538
  N  N353  1  0.814720  0.773400  0.241600  1.0  -0.349
  N  N354  1  0.524900  0.896700  0.354200  1.0  -0.3743
  N  N355  1  0.578100  0.825600  0.662300  1.0  -0.3585
  N  N356  1  0.635700  0.197900  0.369100  1.0  -0.3538
  N  N357  1  0.685280  0.273400  0.258400  1.0  -0.3478
  N  N358  1  0.975100  0.396700  0.145800  1.0  -0.3757
  N  N359  1  0.921900  0.325600  0.837700  1.0  -0.3595
  N  N360  1  0.864300  0.697900  0.130900  1.0  -0.3547
  N  N361  1  0.185280  0.773400  0.258400  1.0  -0.3478
  N  N362  1  0.475100  0.896700  0.145800  1.0  -0.3757
  N  N363  1  0.421900  0.825600  0.837700  1.0  -0.3595
  N  N364  1  0.364300  0.197900  0.130900  1.0  -0.3547
  N  N365  1  0.685280  0.726600  0.758400  1.0  -0.3477
  N  N366  1  0.975100  0.603300  0.645800  1.0  -0.3758
  N  N367  1  0.921900  0.674400  0.337700  1.0  -0.3596
  N  N368  1  0.864300  0.302100  0.630900  1.0  -0.355
  N  N369  1  0.185280  0.226600  0.758400  1.0  -0.3477
  N  N370  1  0.475100  0.103300  0.645800  1.0  -0.3758
  N  N371  1  0.421900  0.174400  0.337700  1.0  -0.3596
  N  N372  1  0.364300  0.802100  0.630900  1.0  -0.355
  N  N373  1  0.314720  0.726600  0.741600  1.0  -0.3487
  N  N374  1  0.024900  0.603300  0.854200  1.0  -0.3753
  N  N375  1  0.078100  0.674400  0.162300  1.0  -0.3587
  N  N376  1  0.135700  0.302100  0.869100  1.0  -0.3541
  N  N377  1  0.814720  0.226600  0.741600  1.0  -0.3487
  N  N378  1  0.524900  0.103300  0.854200  1.0  -0.3753
  N  N379  1  0.578100  0.174400  0.162300  1.0  -0.3587
  N  N380  1  0.635700  0.802100  0.869100  1.0  -0.3541
  N  N381  1  0.000000  0.219900  0.250000  1.0  -0.3816
  N  N382  1  0.500000  0.719900  0.250000  1.0  -0.3816
  N  N383  1  0.000000  0.780100  0.750000  1.0  -0.3822
  N  N384  1  0.500000  0.280100  0.750000  1.0  -0.3822
  O  O385  1  0.099570  0.392600  0.243800  1.0  -0.6168
  O  O386  1  0.156010  0.533600  0.276800  1.0  -0.6378
  O  O387  1  0.050680  0.835200  0.271860  1.0  -0.6322
  O  O388  1  0.599570  0.892600  0.243800  1.0  -0.6168
  O  O389  1  0.656010  0.033600  0.276800  1.0  -0.6378
  O  O390  1  0.550680  0.335200  0.271860  1.0  -0.6322
  O  O391  1  0.900430  0.392600  0.256200  1.0  -0.6175
  O  O392  1  0.843990  0.533600  0.223200  1.0  -0.6381
  O  O393  1  0.949320  0.835200  0.228140  1.0  -0.6321
  O  O394  1  0.400430  0.892600  0.256200  1.0  -0.6175
  O  O395  1  0.343990  0.033600  0.223200  1.0  -0.6381
  O  O396  1  0.449320  0.335200  0.228140  1.0  -0.6321
  O  O397  1  0.900430  0.607400  0.756200  1.0  -0.6178
  O  O398  1  0.843990  0.466400  0.723200  1.0  -0.6381
  O  O399  1  0.949320  0.164800  0.728140  1.0  -0.6325
  O  O400  1  0.400430  0.107400  0.756200  1.0  -0.6178
  O  O401  1  0.343990  0.966400  0.723200  1.0  -0.6381
  O  O402  1  0.449320  0.664800  0.728140  1.0  -0.6325
  O  O403  1  0.099570  0.607400  0.743800  1.0  -0.6159
  O  O404  1  0.156010  0.466400  0.776800  1.0  -0.6381
  O  O405  1  0.050680  0.164800  0.771860  1.0  -0.6325
  O  O406  1  0.599570  0.107400  0.743800  1.0  -0.6159
  O  O407  1  0.656010  0.966400  0.776800  1.0  -0.6381
  O  O408  1  0.550680  0.664800  0.771860  1.0  -0.6325
  F  F409  1  0.000000  0.590400  0.250000  1.0  -0.444
  F  F410  1  0.500000  0.090400  0.250000  1.0  -0.444
  F  F411  1  0.000000  0.409600  0.750000  1.0  -0.4435
  F  F412  1  0.500000  0.909600  0.750000  1.0  -0.4435
