# generated using pymatgen
data_ZnSiH28C40(N2F3)2
_symmetry_space_group_name_H-M   'P 1'
_cell_length_a   15.04730000
_cell_length_b   17.78920000
_cell_length_c   17.78920000
_cell_angle_alpha   90.00000000
_cell_angle_beta   90.00000000
_cell_angle_gamma   90.00000000
_symmetry_Int_Tables_number   1
_chemical_formula_structural   ZnSiH28C40(N2F3)2
_chemical_formula_sum   'Zn4 Si4 H112 C160 N16 F24'
_cell_volume   4761.80290121
_cell_formula_units_Z   4
loop_
 _symmetry_equiv_pos_site_id
 _symmetry_equiv_pos_as_xyz
  1  'x, y, z'
loop_
 _atom_site_type_symbol
 _atom_site_label
 _atom_site_symmetry_multiplicity
 _atom_site_fract_x
 _atom_site_fract_y
 _atom_site_fract_z
 _atom_site_occupancy
 _atom_site_charge
  Zn  Zn1  1  0.871560  0.750000  0.750000  1.0  0.7767
  Zn  Zn2  1  0.371560  0.750000  0.750000  1.0  0.7767
  Zn  Zn3  1  0.628440  0.250000  0.250000  1.0  0.7767
  Zn  Zn4  1  0.128440  0.250000  0.250000  1.0  0.7767
  Si  Si5  1  0.621470  0.750000  0.750000  1.0  1.8301
  Si  Si6  1  0.121470  0.750000  0.750000  1.0  1.8301
  Si  Si7  1  0.878530  0.250000  0.250000  1.0  1.83
  Si  Si8  1  0.378530  0.250000  0.250000  1.0  1.83
  H  H9  1  0.771100  0.826800  0.878100  1.0  0.0903
  H  H10  1  0.772600  0.840400  0.007500  1.0  0.1267
  H  H11  1  0.976700  0.692300  0.015400  1.0  0.1247
  H  H12  1  0.973000  0.686300  0.885200  1.0  0.0894
  H  H13  1  0.880100  0.661600  0.130600  1.0  0.1172
  H  H14  1  0.875200  0.899300  0.243700  1.0  0.116
  H  H15  1  0.870700  0.888900  0.114600  1.0  0.1109
  H  H16  1  0.771100  0.673200  0.621900  1.0  0.0898
  H  H17  1  0.772600  0.659600  0.492500  1.0  0.1263
  H  H18  1  0.976700  0.807700  0.484600  1.0  0.1246
  H  H19  1  0.973000  0.813700  0.614800  1.0  0.0893
  H  H20  1  0.880100  0.838400  0.369400  1.0  0.1177
  H  H21  1  0.875200  0.600700  0.256300  1.0  0.1158
  H  H22  1  0.870700  0.611100  0.385400  1.0  0.1111
  H  H23  1  0.771100  0.621900  0.826800  1.0  0.09
  H  H24  1  0.772600  0.492500  0.840400  1.0  0.1272
  H  H25  1  0.976700  0.484600  0.692300  1.0  0.1246
  H  H26  1  0.973000  0.614800  0.686300  1.0  0.0902
  H  H27  1  0.880100  0.369400  0.661600  1.0  0.118
  H  H28  1  0.875200  0.256300  0.899300  1.0  0.1151
  H  H29  1  0.870700  0.385400  0.888900  1.0  0.1117
  H  H30  1  0.771100  0.878100  0.673200  1.0  0.09
  H  H31  1  0.772600  0.007500  0.659600  1.0  0.1269
  H  H32  1  0.976700  0.015400  0.807700  1.0  0.1245
  H  H33  1  0.973000  0.885200  0.813700  1.0  0.0901
  H  H34  1  0.880100  0.130600  0.838400  1.0  0.1179
  H  H35  1  0.875200  0.243700  0.600700  1.0  0.1157
  H  H36  1  0.870700  0.114600  0.611100  1.0  0.1116
  H  H37  1  0.271100  0.826800  0.621900  1.0  0.0903
  H  H38  1  0.272600  0.840400  0.492500  1.0  0.127
  H  H39  1  0.476700  0.692300  0.484600  1.0  0.1246
  H  H40  1  0.473000  0.686300  0.614800  1.0  0.0892
  H  H41  1  0.380100  0.661600  0.369400  1.0  0.1172
  H  H42  1  0.375200  0.899300  0.256300  1.0  0.1161
  H  H43  1  0.370700  0.888900  0.385400  1.0  0.1111
  H  H44  1  0.271100  0.673200  0.878100  1.0  0.0899
  H  H45  1  0.272600  0.659600  0.007500  1.0  0.126
  H  H46  1  0.476700  0.807700  0.015400  1.0  0.1245
  H  H47  1  0.473000  0.813700  0.885200  1.0  0.0894
  H  H48  1  0.380100  0.838400  0.130600  1.0  0.1176
  H  H49  1  0.375200  0.600700  0.243700  1.0  0.116
  H  H50  1  0.370700  0.611100  0.114600  1.0  0.1105
  H  H51  1  0.271100  0.621900  0.673200  1.0  0.09
  H  H52  1  0.272600  0.492500  0.659600  1.0  0.1272
  H  H53  1  0.476700  0.484600  0.807700  1.0  0.1244
  H  H54  1  0.473000  0.614800  0.813700  1.0  0.0901
  H  H55  1  0.380100  0.369400  0.838400  1.0  0.1172
  H  H56  1  0.375200  0.256300  0.600700  1.0  0.1155
  H  H57  1  0.370700  0.385400  0.611100  1.0  0.1119
  H  H58  1  0.271100  0.878100  0.826800  1.0  0.09
  H  H59  1  0.272600  0.007500  0.840400  1.0  0.1271
  H  H60  1  0.476700  0.015400  0.692300  1.0  0.1247
  H  H61  1  0.473000  0.885200  0.686300  1.0  0.0903
  H  H62  1  0.380100  0.130600  0.661600  1.0  0.1187
  H  H63  1  0.375200  0.243700  0.899300  1.0  0.115
  H  H64  1  0.370700  0.114600  0.888900  1.0  0.1118
  H  H65  1  0.728900  0.173200  0.378100  1.0  0.0899
  H  H66  1  0.727400  0.159600  0.507500  1.0  0.1261
  H  H67  1  0.523300  0.307700  0.515400  1.0  0.1244
  H  H68  1  0.527000  0.313700  0.385200  1.0  0.0898
  H  H69  1  0.619900  0.338400  0.630600  1.0  0.1166
  H  H70  1  0.624800  0.100700  0.743700  1.0  0.1161
  H  H71  1  0.629300  0.111100  0.614600  1.0  0.1105
  H  H72  1  0.728900  0.326800  0.121900  1.0  0.0899
  H  H73  1  0.727400  0.340400  0.992500  1.0  0.1264
  H  H74  1  0.523300  0.192300  0.984600  1.0  0.1242
  H  H75  1  0.527000  0.186300  0.114800  1.0  0.0891
  H  H76  1  0.619900  0.161600  0.869400  1.0  0.1182
  H  H77  1  0.624800  0.399300  0.756300  1.0  0.116
  H  H78  1  0.629300  0.388900  0.885400  1.0  0.1112
  H  H79  1  0.728900  0.378100  0.326800  1.0  0.0898
  H  H80  1  0.727400  0.507500  0.340400  1.0  0.1268
  H  H81  1  0.523300  0.515400  0.192300  1.0  0.1244
  H  H82  1  0.527000  0.385200  0.186300  1.0  0.0902
  H  H83  1  0.619900  0.630600  0.161600  1.0  0.1178
  H  H84  1  0.624800  0.743700  0.399300  1.0  0.1151
  H  H85  1  0.629300  0.614600  0.388900  1.0  0.1118
  H  H86  1  0.728900  0.121900  0.173200  1.0  0.09
  H  H87  1  0.727400  0.992500  0.159600  1.0  0.1269
  H  H88  1  0.523300  0.984600  0.307700  1.0  0.1243
  H  H89  1  0.527000  0.114800  0.313700  1.0  0.0906
  H  H90  1  0.619900  0.869400  0.338400  1.0  0.1181
  H  H91  1  0.624800  0.756300  0.100700  1.0  0.1155
  H  H92  1  0.629300  0.885400  0.111100  1.0  0.1119
  H  H93  1  0.228900  0.173200  0.121900  1.0  0.0896
  H  H94  1  0.227400  0.159600  0.992500  1.0  0.1263
  H  H95  1  0.023300  0.307700  0.984600  1.0  0.1245
  H  H96  1  0.027000  0.313700  0.114800  1.0  0.0895
  H  H97  1  0.119900  0.338400  0.869400  1.0  0.1168
  H  H98  1  0.124800  0.100700  0.756300  1.0  0.1159
  H  H99  1  0.129300  0.111100  0.885400  1.0  0.1111
  H  H100  1  0.228900  0.326800  0.378100  1.0  0.0901
  H  H101  1  0.227400  0.340400  0.507500  1.0  0.1262
  H  H102  1  0.023300  0.192300  0.515400  1.0  0.1243
  H  H103  1  0.027000  0.186300  0.385200  1.0  0.0894
  H  H104  1  0.119900  0.161600  0.630600  1.0  0.118
  H  H105  1  0.124800  0.399300  0.743700  1.0  0.116
  H  H106  1  0.129300  0.388900  0.614600  1.0  0.1111
  H  H107  1  0.228900  0.378100  0.173200  1.0  0.0901
  H  H108  1  0.227400  0.507500  0.159600  1.0  0.1268
  H  H109  1  0.023300  0.515400  0.307700  1.0  0.1243
  H  H110  1  0.027000  0.385200  0.313700  1.0  0.0903
  H  H111  1  0.119900  0.630600  0.338400  1.0  0.117
  H  H112  1  0.124800  0.743700  0.100700  1.0  0.1157
  H  H113  1  0.129300  0.614600  0.111100  1.0  0.1116
  H  H114  1  0.228900  0.121900  0.326800  1.0  0.0898
  H  H115  1  0.227400  0.992500  0.340400  1.0  0.1269
  H  H116  1  0.023300  0.984600  0.192300  1.0  0.1244
  H  H117  1  0.027000  0.114800  0.186300  1.0  0.0902
  H  H118  1  0.119900  0.869400  0.161600  1.0  0.1189
  H  H119  1  0.124800  0.756300  0.399300  1.0  0.1151
  H  H120  1  0.129300  0.885400  0.388900  1.0  0.1117
  C  C121  1  0.814000  0.799830  0.906530  1.0  0.1725
  C  C122  1  0.813800  0.807620  0.983690  1.0  -0.2251
  C  C123  1  0.874750  0.766800  0.026400  1.0  0.1209
  C  C124  1  0.934200  0.721100  0.988270  1.0  -0.2185
  C  C125  1  0.931300  0.717390  0.910610  1.0  0.1724
  C  C126  1  0.876290  0.773000  0.109400  1.0  0.032
  C  C127  1  0.878270  0.709700  0.153790  1.0  -0.1588
  C  C128  1  0.877640  0.714500  0.232650  1.0  0.058
  C  C129  1  0.875500  0.850900  0.221100  1.0  -0.1143
  C  C130  1  0.873700  0.844800  0.144600  1.0  -0.1309
  C  C131  1  0.814000  0.700170  0.593470  1.0  0.1733
  C  C132  1  0.813800  0.692380  0.516310  1.0  -0.2244
  C  C133  1  0.874750  0.733200  0.473600  1.0  0.1209
  C  C134  1  0.934200  0.778900  0.511730  1.0  -0.2179
  C  C135  1  0.931300  0.782610  0.589390  1.0  0.1726
  C  C136  1  0.876290  0.727000  0.390600  1.0  0.0317
  C  C137  1  0.878270  0.790300  0.346210  1.0  -0.1609
  C  C138  1  0.877640  0.785500  0.267350  1.0  0.0585
  C  C139  1  0.875500  0.649100  0.278900  1.0  -0.1049
  C  C140  1  0.873700  0.655200  0.355400  1.0  -0.13
  C  C141  1  0.814000  0.593470  0.799830  1.0  0.1723
  C  C142  1  0.813800  0.516310  0.807620  1.0  -0.2241
  C  C143  1  0.874750  0.473600  0.766800  1.0  0.1211
  C  C144  1  0.934200  0.511730  0.721100  1.0  -0.2174
  C  C145  1  0.931300  0.589390  0.717390  1.0  0.1719
  C  C146  1  0.876290  0.390600  0.773000  1.0  0.0311
  C  C147  1  0.878270  0.346210  0.709700  1.0  -0.1564
  C  C148  1  0.877640  0.267350  0.714500  1.0  0.0583
  C  C149  1  0.875500  0.278900  0.850900  1.0  -0.1135
  C  C150  1  0.873700  0.355400  0.844800  1.0  -0.1294
  C  C151  1  0.814000  0.906530  0.700170  1.0  0.172
  C  C152  1  0.813800  0.983690  0.692380  1.0  -0.2237
  C  C153  1  0.874750  0.026400  0.733200  1.0  0.1212
  C  C154  1  0.934200  0.988270  0.778900  1.0  -0.2173
  C  C155  1  0.931300  0.910610  0.782610  1.0  0.1719
  C  C156  1  0.876290  0.109400  0.727000  1.0  0.0306
  C  C157  1  0.878270  0.153790  0.790300  1.0  -0.1603
  C  C158  1  0.877640  0.232650  0.785500  1.0  0.0586
  C  C159  1  0.875500  0.221100  0.649100  1.0  -0.1039
  C  C160  1  0.873700  0.144600  0.655200  1.0  -0.1297
  C  C161  1  0.314000  0.799830  0.593470  1.0  0.1731
  C  C162  1  0.313800  0.807620  0.516310  1.0  -0.225
  C  C163  1  0.374750  0.766800  0.473600  1.0  0.1209
  C  C164  1  0.434200  0.721100  0.511730  1.0  -0.2183
  C  C165  1  0.431300  0.717390  0.589390  1.0  0.1729
  C  C166  1  0.376290  0.773000  0.390600  1.0  0.0316
  C  C167  1  0.378270  0.709700  0.346210  1.0  -0.1586
  C  C168  1  0.377640  0.714500  0.267350  1.0  0.0582
  C  C169  1  0.375500  0.850900  0.278900  1.0  -0.1144
  C  C170  1  0.373700  0.844800  0.355400  1.0  -0.13
  C  C171  1  0.314000  0.700170  0.906530  1.0  0.1724
  C  C172  1  0.313800  0.692380  0.983690  1.0  -0.2244
  C  C173  1  0.374750  0.733200  0.026400  1.0  0.1209
  C  C174  1  0.434200  0.778900  0.988270  1.0  -0.2183
  C  C175  1  0.431300  0.782610  0.910610  1.0  0.1722
  C  C176  1  0.376290  0.727000  0.109400  1.0  0.0319
  C  C177  1  0.378270  0.790300  0.153790  1.0  -0.161
  C  C178  1  0.377640  0.785500  0.232650  1.0  0.0584
  C  C179  1  0.375500  0.649100  0.221100  1.0  -0.1049
  C  C180  1  0.373700  0.655200  0.144600  1.0  -0.1306
  C  C181  1  0.314000  0.593470  0.700170  1.0  0.1722
  C  C182  1  0.313800  0.516310  0.692380  1.0  -0.2237
  C  C183  1  0.374750  0.473600  0.733200  1.0  0.121
  C  C184  1  0.434200  0.511730  0.778900  1.0  -0.2177
  C  C185  1  0.431300  0.589390  0.782610  1.0  0.172
  C  C186  1  0.376290  0.390600  0.727000  1.0  0.0311
  C  C187  1  0.378270  0.346210  0.790300  1.0  -0.1579
  C  C188  1  0.377640  0.267350  0.785500  1.0  0.0585
  C  C189  1  0.375500  0.278900  0.649100  1.0  -0.1121
  C  C190  1  0.373700  0.355400  0.655200  1.0  -0.13
  C  C191  1  0.314000  0.906530  0.799830  1.0  0.1724
  C  C192  1  0.313800  0.983690  0.807620  1.0  -0.2243
  C  C193  1  0.374750  0.026400  0.766800  1.0  0.1212
  C  C194  1  0.434200  0.988270  0.721100  1.0  -0.2169
  C  C195  1  0.431300  0.910610  0.717390  1.0  0.1715
  C  C196  1  0.376290  0.109400  0.773000  1.0  0.0306
  C  C197  1  0.378270  0.153790  0.709700  1.0  -0.1591
  C  C198  1  0.377640  0.232650  0.714500  1.0  0.0582
  C  C199  1  0.375500  0.221100  0.850900  1.0  -0.1054
  C  C200  1  0.373700  0.144600  0.844800  1.0  -0.1302
  C  C201  1  0.686000  0.200170  0.406530  1.0  0.1721
  C  C202  1  0.686200  0.192380  0.483690  1.0  -0.2246
  C  C203  1  0.625250  0.233200  0.526400  1.0  0.1209
  C  C204  1  0.565800  0.278900  0.488270  1.0  -0.2184
  C  C205  1  0.568700  0.282610  0.410610  1.0  0.1731
  C  C206  1  0.623710  0.227000  0.609400  1.0  0.0322
  C  C207  1  0.621730  0.290300  0.653790  1.0  -0.1582
  C  C208  1  0.622360  0.285500  0.732650  1.0  0.0585
  C  C209  1  0.624500  0.149100  0.721100  1.0  -0.113
  C  C210  1  0.626300  0.155200  0.644600  1.0  -0.13
  C  C211  1  0.686000  0.299830  0.093470  1.0  0.1726
  C  C212  1  0.686200  0.307620  0.016310  1.0  -0.225
  C  C213  1  0.625250  0.266800  0.973600  1.0  0.1209
  C  C214  1  0.565800  0.221100  0.011730  1.0  -0.2182
  C  C215  1  0.568700  0.217390  0.089390  1.0  0.1737
  C  C216  1  0.623710  0.273000  0.890600  1.0  0.0318
  C  C217  1  0.621730  0.209700  0.846210  1.0  -0.1605
  C  C218  1  0.622360  0.214500  0.767350  1.0  0.0583
  C  C219  1  0.624500  0.350900  0.778900  1.0  -0.1063
  C  C220  1  0.626300  0.344800  0.855400  1.0  -0.1298
  C  C221  1  0.686000  0.406530  0.299830  1.0  0.1718
  C  C222  1  0.686200  0.483690  0.307620  1.0  -0.2243
  C  C223  1  0.625250  0.526400  0.266800  1.0  0.1212
  C  C224  1  0.565800  0.488270  0.221100  1.0  -0.2171
  C  C225  1  0.568700  0.410610  0.217390  1.0  0.1723
  C  C226  1  0.623710  0.609400  0.273000  1.0  0.0308
  C  C227  1  0.621730  0.653790  0.209700  1.0  -0.1567
  C  C228  1  0.622360  0.732650  0.214500  1.0  0.0583
  C  C229  1  0.624500  0.721100  0.350900  1.0  -0.1133
  C  C230  1  0.626300  0.644600  0.344800  1.0  -0.13
  C  C231  1  0.686000  0.093470  0.200170  1.0  0.1717
  C  C232  1  0.686200  0.016310  0.192380  1.0  -0.2235
  C  C233  1  0.625250  0.973600  0.233200  1.0  0.121
  C  C234  1  0.565800  0.011730  0.278900  1.0  -0.2177
  C  C235  1  0.568700  0.089390  0.282610  1.0  0.1731
  C  C236  1  0.623710  0.890600  0.227000  1.0  0.0313
  C  C237  1  0.621730  0.846210  0.290300  1.0  -0.1595
  C  C238  1  0.622360  0.767350  0.285500  1.0  0.0586
  C  C239  1  0.624500  0.778900  0.149100  1.0  -0.1041
  C  C240  1  0.626300  0.855400  0.155200  1.0  -0.1297
  C  C241  1  0.186000  0.200170  0.093470  1.0  0.1728
  C  C242  1  0.186200  0.192380  0.016310  1.0  -0.2244
  C  C243  1  0.125250  0.233200  0.973600  1.0  0.1209
  C  C244  1  0.065800  0.278900  0.011730  1.0  -0.2181
  C  C245  1  0.068700  0.282610  0.089390  1.0  0.1736
  C  C246  1  0.123710  0.227000  0.890600  1.0  0.0319
  C  C247  1  0.121730  0.290300  0.846210  1.0  -0.1581
  C  C248  1  0.122360  0.285500  0.767350  1.0  0.0586
  C  C249  1  0.124500  0.149100  0.778900  1.0  -0.113
  C  C250  1  0.126300  0.155200  0.855400  1.0  -0.1297
  C  C251  1  0.186000  0.299830  0.406530  1.0  0.1721
  C  C252  1  0.186200  0.307620  0.483690  1.0  -0.2252
  C  C253  1  0.125250  0.266800  0.526400  1.0  0.1209
  C  C254  1  0.065800  0.221100  0.488270  1.0  -0.2183
  C  C255  1  0.068700  0.217390  0.410610  1.0  0.1731
  C  C256  1  0.123710  0.273000  0.609400  1.0  0.0322
  C  C257  1  0.121730  0.209700  0.653790  1.0  -0.1608
  C  C258  1  0.122360  0.214500  0.732650  1.0  0.058
  C  C259  1  0.124500  0.350900  0.721100  1.0  -0.1062
  C  C260  1  0.126300  0.344800  0.644600  1.0  -0.1305
  C  C261  1  0.186000  0.406530  0.200170  1.0  0.1716
  C  C262  1  0.186200  0.483690  0.192380  1.0  -0.2236
  C  C263  1  0.125250  0.526400  0.233200  1.0  0.1212
  C  C264  1  0.065800  0.488270  0.278900  1.0  -0.2175
  C  C265  1  0.068700  0.410610  0.282610  1.0  0.1728
  C  C266  1  0.123710  0.609400  0.227000  1.0  0.0308
  C  C267  1  0.121730  0.653790  0.290300  1.0  -0.1574
  C  C268  1  0.122360  0.732650  0.285500  1.0  0.0587
  C  C269  1  0.124500  0.721100  0.149100  1.0  -0.112
  C  C270  1  0.126300  0.644600  0.155200  1.0  -0.1292
  C  C271  1  0.186000  0.093470  0.299830  1.0  0.1717
  C  C272  1  0.186200  0.016310  0.307620  1.0  -0.2242
  C  C273  1  0.125250  0.973600  0.266800  1.0  0.1211
  C  C274  1  0.065800  0.011730  0.221100  1.0  -0.2176
  C  C275  1  0.068700  0.089390  0.217390  1.0  0.173
  C  C276  1  0.123710  0.890600  0.273000  1.0  0.0312
  C  C277  1  0.121730  0.846210  0.209700  1.0  -0.1591
  C  C278  1  0.122360  0.767350  0.214500  1.0  0.0583
  C  C279  1  0.124500  0.778900  0.350900  1.0  -0.1055
  C  C280  1  0.126300  0.855400  0.344800  1.0  -0.1294
  N  N281  1  0.871930  0.756020  0.869840  1.0  -0.3117
  N  N282  1  0.871930  0.743980  0.630160  1.0  -0.311
  N  N283  1  0.871930  0.630160  0.756020  1.0  -0.3112
  N  N284  1  0.871930  0.869840  0.743980  1.0  -0.3116
  N  N285  1  0.371930  0.756020  0.630160  1.0  -0.3112
  N  N286  1  0.371930  0.743980  0.869840  1.0  -0.3115
  N  N287  1  0.371930  0.630160  0.743980  1.0  -0.3111
  N  N288  1  0.371930  0.869840  0.756020  1.0  -0.3116
  N  N289  1  0.628070  0.243980  0.369840  1.0  -0.3115
  N  N290  1  0.628070  0.256020  0.130160  1.0  -0.3113
  N  N291  1  0.628070  0.369840  0.256020  1.0  -0.3117
  N  N292  1  0.628070  0.130160  0.243980  1.0  -0.3111
  N  N293  1  0.128070  0.243980  0.130160  1.0  -0.3111
  N  N294  1  0.128070  0.256020  0.369840  1.0  -0.3118
  N  N295  1  0.128070  0.369840  0.243980  1.0  -0.3116
  N  N296  1  0.128070  0.130160  0.256020  1.0  -0.3112
  F  F297  1  0.621370  0.699300  0.828960  1.0  -0.584
  F  F298  1  0.621370  0.800700  0.671040  1.0  -0.5828
  F  F299  1  0.621370  0.671040  0.699300  1.0  -0.5815
  F  F300  1  0.621370  0.828960  0.800700  1.0  -0.5816
  F  F301  1  0.121370  0.699300  0.671040  1.0  -0.5823
  F  F302  1  0.121370  0.800700  0.828960  1.0  -0.5839
  F  F303  1  0.121370  0.671040  0.800700  1.0  -0.5818
  F  F304  1  0.121370  0.828960  0.699300  1.0  -0.5819
  F  F305  1  0.734300  0.750000  0.750000  1.0  -0.4979
  F  F306  1  0.508700  0.750000  0.750000  1.0  -0.4978
  F  F307  1  0.234300  0.750000  0.750000  1.0  -0.4979
  F  F308  1  0.008700  0.750000  0.750000  1.0  -0.4978
  F  F309  1  0.878630  0.300700  0.328960  1.0  -0.5839
  F  F310  1  0.878630  0.199300  0.171040  1.0  -0.5823
  F  F311  1  0.878630  0.328960  0.199300  1.0  -0.5817
  F  F312  1  0.878630  0.171040  0.300700  1.0  -0.5819
  F  F313  1  0.378630  0.300700  0.171040  1.0  -0.5828
  F  F314  1  0.378630  0.199300  0.328960  1.0  -0.5839
  F  F315  1  0.378630  0.328960  0.300700  1.0  -0.5816
  F  F316  1  0.378630  0.171040  0.199300  1.0  -0.5815
  F  F317  1  0.765700  0.250000  0.250000  1.0  -0.4975
  F  F318  1  0.991300  0.250000  0.250000  1.0  -0.4981
  F  F319  1  0.265700  0.250000  0.250000  1.0  -0.4975
  F  F320  1  0.491300  0.250000  0.250000  1.0  -0.4981
