# generated using pymatgen
data_MnH16C19O4
_symmetry_space_group_name_H-M   'P 1'
_cell_length_a   13.86690000
_cell_length_b   14.89320000
_cell_length_c   15.02730000
_cell_angle_alpha   119.18800000
_cell_angle_beta   116.93300000
_cell_angle_gamma   90.97630000
_symmetry_Int_Tables_number   1
_chemical_formula_structural   MnH16C19O4
_chemical_formula_sum   'Mn4 H64 C76 O16'
_cell_volume   2299.90666186
_cell_formula_units_Z   4
loop_
 _symmetry_equiv_pos_site_id
 _symmetry_equiv_pos_as_xyz
  1  'x, y, z'
loop_
 _atom_site_type_symbol
 _atom_site_label
 _atom_site_symmetry_multiplicity
 _atom_site_fract_x
 _atom_site_fract_y
 _atom_site_fract_z
 _atom_site_occupancy
 _atom_site_charge
  Mn  Mn1  1  0.287160  0.037160  0.074320  1.0  1.0499
  Mn  Mn2  1  0.712840  0.962840  0.925680  1.0  1.0487
  Mn  Mn3  1  0.000000  0.000000  0.000000  1.0  1.2969
  Mn  Mn4  1  0.500000  0.000000  0.000000  1.0  1.2969
  H  H5  1  0.353500  0.029800  0.401800  1.0  0.1081
  H  H6  1  0.068400  0.115500  0.279800  1.0  0.0959
  H  H7  1  0.043600  0.129600  0.430000  1.0  0.1087
  H  H8  1  0.052100  0.128900  0.614200  1.0  0.1117
  H  H9  1  0.097100  0.120200  0.778800  1.0  0.1041
  H  H10  1  0.371900  0.028700  0.784000  1.0  0.1052
  H  H11  1  0.393600  0.906000  0.597600  1.0  0.0798
  H  H12  1  0.389000  0.906300  0.489600  1.0  0.0883
  H  H13  1  0.189900  0.845000  0.382800  1.0  0.0998
  H  H14  1  0.244100  0.762300  0.413200  1.0  0.1081
  H  H15  1  0.196400  0.841700  0.490200  1.0  0.1045
  H  H16  1  0.507500  0.094600  0.628200  1.0  0.0785
  H  H17  1  0.512400  0.096600  0.737600  1.0  0.0897
  H  H18  1  0.435700  0.243700  0.773000  1.0  0.1017
  H  H19  1  0.560000  0.270800  0.795600  1.0  0.106
  H  H20  1  0.451000  0.246200  0.674800  1.0  0.0986
  H  H21  1  0.548300  0.372000  0.401800  1.0  0.108
  H  H22  1  0.711400  0.164300  0.279800  1.0  0.0967
  H  H23  1  0.886400  0.300400  0.430000  1.0  0.1103
  H  H24  1  0.062100  0.485300  0.614200  1.0  0.1118
  H  H25  1  0.181700  0.658600  0.778800  1.0  0.1025
  H  H26  1  0.912100  0.755300  0.784000  1.0  0.1055
  H  H27  1  0.704000  0.691600  0.597600  1.0  0.0801
  H  H28  1  0.600600  0.583300  0.489600  1.0  0.0831
  H  H29  1  0.692900  0.537800  0.382800  1.0  0.0969
  H  H30  1  0.669100  0.650900  0.413200  1.0  0.1104
  H  H31  1  0.793800  0.648500  0.490200  1.0  0.0933
  H  H32  1  0.620700  0.533600  0.628200  1.0  0.0702
  H  H33  1  0.725200  0.641000  0.737600  1.0  0.0893
  H  H34  1  0.837300  0.529300  0.773000  1.0  0.0985
  H  H35  1  0.735600  0.524800  0.795600  1.0  0.1056
  H  H36  1  0.723800  0.428600  0.674800  1.0  0.0963
  H  H37  1  0.646500  0.970200  0.598200  1.0  0.108
  H  H38  1  0.931600  0.884500  0.720200  1.0  0.0967
  H  H39  1  0.956400  0.870400  0.570000  1.0  0.1096
  H  H40  1  0.947900  0.871100  0.385800  1.0  0.112
  H  H41  1  0.902900  0.879800  0.221200  1.0  0.1034
  H  H42  1  0.628100  0.971300  0.216000  1.0  0.1057
  H  H43  1  0.606400  0.094000  0.402400  1.0  0.0812
  H  H44  1  0.611000  0.093700  0.510400  1.0  0.0847
  H  H45  1  0.810100  0.155000  0.617200  1.0  0.099
  H  H46  1  0.755900  0.237700  0.586800  1.0  0.1106
  H  H47  1  0.803600  0.158300  0.509800  1.0  0.1001
  H  H48  1  0.492500  0.905400  0.371800  1.0  0.0794
  H  H49  1  0.487600  0.903400  0.262400  1.0  0.0904
  H  H50  1  0.564300  0.756300  0.227000  1.0  0.1005
  H  H51  1  0.440000  0.729200  0.204400  1.0  0.106
  H  H52  1  0.549000  0.753800  0.325200  1.0  0.0989
  H  H53  1  0.451700  0.628000  0.598200  1.0  0.1079
  H  H54  1  0.288600  0.835700  0.720200  1.0  0.0967
  H  H55  1  0.113600  0.699600  0.570000  1.0  0.1095
  H  H56  1  0.937900  0.514700  0.385800  1.0  0.1114
  H  H57  1  0.818300  0.341400  0.221200  1.0  0.1008
  H  H58  1  0.087900  0.244700  0.216000  1.0  0.106
  H  H59  1  0.296000  0.308400  0.402400  1.0  0.078
  H  H60  1  0.399400  0.416700  0.510400  1.0  0.0897
  H  H61  1  0.307100  0.462200  0.617200  1.0  0.0972
  H  H62  1  0.330900  0.349100  0.586800  1.0  0.1108
  H  H63  1  0.206200  0.351500  0.509800  1.0  0.0951
  H  H64  1  0.379300  0.466400  0.371800  1.0  0.0699
  H  H65  1  0.274800  0.359000  0.262400  1.0  0.0882
  H  H66  1  0.162700  0.470700  0.227000  1.0  0.1003
  H  H67  1  0.264400  0.475200  0.204400  1.0  0.1066
  H  H68  1  0.276200  0.571400  0.325200  1.0  0.0987
  C  C69  1  0.229080  0.059480  0.229960  1.0  0.6658
  C  C70  1  0.212280  0.071080  0.326360  1.0  -0.1486
  C  C71  1  0.290700  0.049600  0.407400  1.0  -0.0843
  C  C72  1  0.275760  0.057560  0.495320  1.0  0.0022
  C  C73  1  0.121030  0.100830  0.335060  1.0  -0.0424
  C  C74  1  0.106040  0.109340  0.424080  1.0  -0.108
  C  C75  1  0.183410  0.087910  0.503820  1.0  0.007
  C  C76  1  0.188260  0.087660  0.603920  1.0  0.0067
  C  C77  1  0.117440  0.109740  0.649080  1.0  -0.1262
  C  C78  1  0.143910  0.103310  0.746020  1.0  -0.0323
  C  C79  1  0.262170  0.062870  0.897940  1.0  0.6994
  C  C80  1  0.236580  0.072880  0.795760  1.0  -0.1468
  C  C81  1  0.307850  0.049750  0.750100  1.0  -0.0898
  C  C82  1  0.283550  0.057950  0.654900  1.0  0.0046
  C  C83  1  0.347620  0.035320  0.590640  1.0  0.0523
  C  C84  1  0.349100  0.917600  0.532800  1.0  -0.1154
  C  C85  1  0.235100  0.834500  0.447400  1.0  -0.303
  C  C86  1  0.470400  0.111300  0.675000  1.0  -0.116
  C  C87  1  0.480100  0.227900  0.734600  1.0  -0.2999
  C  C88  1  0.500880  0.170480  0.229960  1.0  0.662
  C  C89  1  0.614080  0.255280  0.326360  1.0  -0.1543
  C  C90  1  0.616700  0.357800  0.407400  1.0  -0.0865
  C  C91  1  0.719560  0.437760  0.495320  1.0  0.0024
  C  C92  1  0.714030  0.234230  0.335060  1.0  -0.0401
  C  C93  1  0.818040  0.314740  0.424080  1.0  -0.1097
  C  C94  1  0.820410  0.415910  0.503820  1.0  0.0072
  C  C95  1  0.915660  0.516260  0.603920  1.0  0.0065
  C  C96  1  0.031640  0.539340  0.649080  1.0  -0.1245
  C  C97  1  0.102110  0.642710  0.746020  1.0  -0.0308
  C  C98  1  0.135770  0.835070  0.897940  1.0  0.7001
  C  C99  1  0.059180  0.722880  0.795760  1.0  -0.1515
  C  C100  1  0.942250  0.700350  0.750100  1.0  -0.0912
  C  C101  1  0.871350  0.596950  0.654900  1.0  0.0065
  C  C102  1  0.743020  0.555320  0.590640  1.0  0.0519
  C  C103  1  0.683700  0.615200  0.532800  1.0  -0.1153
  C  C104  1  0.712300  0.612900  0.447400  1.0  -0.3019
  C  C105  1  0.704600  0.563700  0.675000  1.0  -0.1175
  C  C106  1  0.754500  0.506700  0.734600  1.0  -0.302
  C  C107  1  0.770920  0.940520  0.770040  1.0  0.667
  C  C108  1  0.787720  0.928920  0.673640  1.0  -0.1508
  C  C109  1  0.709300  0.950400  0.592600  1.0  -0.0873
  C  C110  1  0.724240  0.942440  0.504680  1.0  0.0009
  C  C111  1  0.878970  0.899170  0.664940  1.0  -0.0422
  C  C112  1  0.893960  0.890660  0.575920  1.0  -0.1082
  C  C113  1  0.816590  0.912090  0.496180  1.0  0.0067
  C  C114  1  0.811740  0.912340  0.396080  1.0  0.0057
  C  C115  1  0.882560  0.890260  0.350920  1.0  -0.1258
  C  C116  1  0.856090  0.896690  0.253980  1.0  -0.0336
  C  C117  1  0.737830  0.937130  0.102060  1.0  0.7006
  C  C118  1  0.763420  0.927120  0.204240  1.0  -0.1473
  C  C119  1  0.692150  0.950250  0.249900  1.0  -0.0898
  C  C120  1  0.716450  0.942050  0.345100  1.0  0.0046
  C  C121  1  0.652380  0.964680  0.409360  1.0  0.0526
  C  C122  1  0.650900  0.082400  0.467200  1.0  -0.1145
  C  C123  1  0.764900  0.165500  0.552600  1.0  -0.3023
  C  C124  1  0.529600  0.888700  0.325000  1.0  -0.1153
  C  C125  1  0.519900  0.772100  0.265400  1.0  -0.3021
  C  C126  1  0.499120  0.829520  0.770040  1.0  0.6646
  C  C127  1  0.385920  0.744720  0.673640  1.0  -0.1535
  C  C128  1  0.383300  0.642200  0.592600  1.0  -0.0857
  C  C129  1  0.280440  0.562240  0.504680  1.0  0.0025
  C  C130  1  0.285970  0.765770  0.664940  1.0  -0.0403
  C  C131  1  0.181960  0.685260  0.575920  1.0  -0.1088
  C  C132  1  0.179590  0.584090  0.496180  1.0  0.008
  C  C133  1  0.084340  0.483740  0.396080  1.0  0.007
  C  C134  1  0.968360  0.460660  0.350920  1.0  -0.1242
  C  C135  1  0.897890  0.357290  0.253980  1.0  -0.0307
  C  C136  1  0.864230  0.164930  0.102060  1.0  0.7006
  C  C137  1  0.940820  0.277120  0.204240  1.0  -0.1517
  C  C138  1  0.057750  0.299650  0.249900  1.0  -0.0919
  C  C139  1  0.128650  0.403050  0.345100  1.0  0.006
  C  C140  1  0.256980  0.444680  0.409360  1.0  0.052
  C  C141  1  0.316300  0.384800  0.467200  1.0  -0.113
  C  C142  1  0.287700  0.387100  0.552600  1.0  -0.3028
  C  C143  1  0.295400  0.436300  0.325000  1.0  -0.1178
  C  C144  1  0.245500  0.493300  0.265400  1.0  -0.302
  O  O145  1  0.303510  0.020610  0.216520  1.0  -0.5579
  O  O146  1  0.166480  0.089680  0.162760  1.0  -0.6942
  O  O147  1  0.330950  0.012350  0.924320  1.0  -0.718
  O  O148  1  0.214540  0.101940  0.955740  1.0  -0.5933
  O  O149  1  0.413010  0.195910  0.216520  1.0  -0.5614
  O  O150  1  0.496280  0.073080  0.162760  1.0  -0.6962
  O  O151  1  0.093370  0.911970  0.924320  1.0  -0.7184
  O  O152  1  0.241200  0.853800  0.955740  1.0  -0.5919
  O  O153  1  0.696490  0.979390  0.783480  1.0  -0.5584
  O  O154  1  0.833520  0.910320  0.837240  1.0  -0.6939
  O  O155  1  0.669050  0.987650  0.075680  1.0  -0.7174
  O  O156  1  0.785460  0.898060  0.044260  1.0  -0.5939
  O  O157  1  0.586990  0.804090  0.783480  1.0  -0.5603
  O  O158  1  0.503720  0.926920  0.837240  1.0  -0.6944
  O  O159  1  0.906630  0.088030  0.075680  1.0  -0.7179
  O  O160  1  0.758800  0.146200  0.044260  1.0  -0.599
