# generated using pymatgen
data_Zn2H3C2N3O
_symmetry_space_group_name_H-M   'P 1'
_cell_length_a   6.81190000
_cell_length_b   7.31830000
_cell_length_c   13.78460000
_cell_angle_alpha   90.00000000
_cell_angle_beta   90.00000000
_cell_angle_gamma   90.00000000
_symmetry_Int_Tables_number   1
_chemical_formula_structural   Zn2H3C2N3O
_chemical_formula_sum   'Zn8 H12 C8 N12 O4'
_cell_volume   687.18336970
_cell_formula_units_Z   4
loop_
 _symmetry_equiv_pos_site_id
 _symmetry_equiv_pos_as_xyz
  1  'x, y, z'
loop_
 _atom_site_type_symbol
 _atom_site_label
 _atom_site_symmetry_multiplicity
 _atom_site_fract_x
 _atom_site_fract_y
 _atom_site_fract_z
 _atom_site_occupancy
 _atom_site_charge
  Zn  Zn1  1  0.750000  0.182630  0.586240  1.0  0.1143
  Zn  Zn2  1  0.250000  0.317370  0.086240  1.0  0.103
  Zn  Zn3  1  0.250000  0.817370  0.413760  1.0  0.1028
  Zn  Zn4  1  0.750000  0.682630  0.913760  1.0  0.1156
  Zn  Zn5  1  0.000000  0.500000  0.500000  1.0  0.4892
  Zn  Zn6  1  0.000000  0.000000  0.000000  1.0  0.4892
  Zn  Zn7  1  0.500000  0.500000  0.500000  1.0  0.4892
  Zn  Zn8  1  0.500000  0.000000  0.000000  1.0  0.4892
  H  H9  1  0.038600  0.137900  0.766800  1.0  0.0578
  H  H10  1  0.961400  0.362100  0.266800  1.0  0.0596
  H  H11  1  0.538600  0.862100  0.233200  1.0  0.0578
  H  H12  1  0.461400  0.637900  0.733200  1.0  0.0585
  H  H13  1  0.961400  0.862100  0.233200  1.0  0.0589
  H  H14  1  0.038600  0.637900  0.733200  1.0  0.0573
  H  H15  1  0.461400  0.137900  0.766800  1.0  0.0593
  H  H16  1  0.538600  0.362100  0.266800  1.0  0.0583
  H  H17  1  0.750000  0.291000  0.431000  1.0  0.3983
  H  H18  1  0.250000  0.209000  0.931000  1.0  0.3993
  H  H19  1  0.250000  0.709000  0.569000  1.0  0.3986
  H  H20  1  0.750000  0.791000  0.069000  1.0  0.3985
  C  C21  1  0.905800  0.127200  0.787020  1.0  0.1902
  C  C22  1  0.094200  0.372800  0.287020  1.0  0.1892
  C  C23  1  0.405800  0.872800  0.212980  1.0  0.1901
  C  C24  1  0.594200  0.627200  0.712980  1.0  0.1899
  C  C25  1  0.094200  0.872800  0.212980  1.0  0.1895
  C  C26  1  0.905800  0.627200  0.712980  1.0  0.1904
  C  C27  1  0.594200  0.127200  0.787020  1.0  0.1896
  C  C28  1  0.405800  0.372800  0.287020  1.0  0.1898
  N  N29  1  0.851300  0.080500  0.875400  1.0  -0.2282
  N  N30  1  0.148700  0.419500  0.375400  1.0  -0.2283
  N  N31  1  0.351300  0.919500  0.124600  1.0  -0.2287
  N  N32  1  0.648700  0.580500  0.624600  1.0  -0.2282
  N  N33  1  0.148700  0.919500  0.124600  1.0  -0.2281
  N  N34  1  0.851300  0.580500  0.624600  1.0  -0.2289
  N  N35  1  0.648700  0.080500  0.875400  1.0  -0.2281
  N  N36  1  0.351300  0.419500  0.375400  1.0  -0.2284
  N  N37  1  0.750000  0.158000  0.728660  1.0  -0.3054
  N  N38  1  0.250000  0.342000  0.228660  1.0  -0.3045
  N  N39  1  0.250000  0.842000  0.271340  1.0  -0.3096
  N  N40  1  0.750000  0.658000  0.771340  1.0  -0.3111
  O  O41  1  0.750000  0.351100  0.473540  1.0  -0.7317
  O  O42  1  0.250000  0.148900  0.973540  1.0  -0.7278
  O  O43  1  0.250000  0.648900  0.526460  1.0  -0.7271
  O  O44  1  0.750000  0.851100  0.026460  1.0  -0.7298
