# generated using pymatgen
data_Cd6H21C21N31
_symmetry_space_group_name_H-M   'P 1'
_cell_length_a   13.12330000
_cell_length_b   13.12330000
_cell_length_c   13.87900000
_cell_angle_alpha   89.21440000
_cell_angle_beta   89.21440000
_cell_angle_gamma   82.75630000
_symmetry_Int_Tables_number   1
_chemical_formula_structural   Cd6H21C21N31
_chemical_formula_sum   'Cd12 H42 C42 N62'
_cell_volume   2370.78236648
_cell_formula_units_Z   2
loop_
 _symmetry_equiv_pos_site_id
 _symmetry_equiv_pos_as_xyz
  1  'x, y, z'
loop_
 _atom_site_type_symbol
 _atom_site_label
 _atom_site_symmetry_multiplicity
 _atom_site_fract_x
 _atom_site_fract_y
 _atom_site_fract_z
 _atom_site_occupancy
 _atom_site_charge
  Cd  Cd1  1  0.825800  0.351360  0.677470  1.0  0.713
  Cd  Cd2  1  0.754730  0.965690  0.399630  1.0  0.8402
  Cd  Cd3  1  0.648640  0.174200  0.822530  1.0  0.7141
  Cd  Cd4  1  0.034310  0.245270  0.100370  1.0  0.8415
  Cd  Cd5  1  0.174200  0.648640  0.322530  1.0  0.7118
  Cd  Cd6  1  0.245270  0.034310  0.600370  1.0  0.8413
  Cd  Cd7  1  0.351360  0.825800  0.177470  1.0  0.7119
  Cd  Cd8  1  0.965690  0.754730  0.899630  1.0  0.8404
  Cd  Cd9  1  0.375460  0.624540  0.750000  1.0  0.3719
  Cd  Cd10  1  0.624540  0.375460  0.250000  1.0  0.3712
  Cd  Cd11  1  0.500000  0.000000  0.000000  1.0  0.706
  Cd  Cd12  1  0.000000  0.500000  0.500000  1.0  0.706
  H  H13  1  0.625000  0.550600  0.683500  1.0  0.0696
  H  H14  1  0.665100  0.003900  0.628700  1.0  0.0619
  H  H15  1  0.846600  0.172600  0.493500  1.0  0.0745
  H  H16  1  0.350400  0.649800  0.993900  1.0  0.0585
  H  H17  1  0.499800  0.819200  0.821300  1.0  0.0608
  H  H18  1  0.838300  0.545700  0.852100  1.0  0.0651
  H  H19  1  0.013200  0.680000  0.673500  1.0  0.0703
  H  H20  1  0.179600  0.278000  0.495100  1.0  0.0615
  H  H21  1  0.016100  0.148100  0.683700  1.0  0.0766
  H  H22  1  0.002400  0.022000  0.408600  1.0  0.054
  H  H23  1  0.449400  0.375000  0.816500  1.0  0.0666
  H  H24  1  0.996100  0.334900  0.871300  1.0  0.0603
  H  H25  1  0.827400  0.153400  0.006500  1.0  0.0762
  H  H26  1  0.350200  0.649600  0.506100  1.0  0.057
  H  H27  1  0.180800  0.500200  0.678700  1.0  0.0601
  H  H28  1  0.454300  0.161700  0.647900  1.0  0.0626
  H  H29  1  0.320000  0.986800  0.826500  1.0  0.0707
  H  H30  1  0.722000  0.820400  0.004900  1.0  0.0646
  H  H31  1  0.851900  0.983900  0.816300  1.0  0.0752
  H  H32  1  0.978000  0.997600  0.091400  1.0  0.0536
  H  H33  1  0.375000  0.449400  0.316500  1.0  0.0702
  H  H34  1  0.334900  0.996100  0.371300  1.0  0.0626
  H  H35  1  0.153400  0.827400  0.506500  1.0  0.0758
  H  H36  1  0.649600  0.350200  0.006100  1.0  0.0578
  H  H37  1  0.500200  0.180800  0.178700  1.0  0.0613
  H  H38  1  0.161700  0.454300  0.147900  1.0  0.0634
  H  H39  1  0.986800  0.320000  0.326500  1.0  0.0709
  H  H40  1  0.820400  0.722000  0.504900  1.0  0.0613
  H  H41  1  0.983900  0.851900  0.316300  1.0  0.0758
  H  H42  1  0.997600  0.978000  0.591400  1.0  0.0538
  H  H43  1  0.550600  0.625000  0.183500  1.0  0.0668
  H  H44  1  0.003900  0.665100  0.128700  1.0  0.0607
  H  H45  1  0.172600  0.846600  0.993500  1.0  0.0755
  H  H46  1  0.649800  0.350400  0.493900  1.0  0.0566
  H  H47  1  0.819200  0.499800  0.321300  1.0  0.0607
  H  H48  1  0.545700  0.838300  0.352100  1.0  0.0652
  H  H49  1  0.680000  0.013200  0.173500  1.0  0.0702
  H  H50  1  0.278000  0.179600  0.995100  1.0  0.0644
  H  H51  1  0.148100  0.016100  0.183700  1.0  0.0756
  H  H52  1  0.022000  0.002400  0.908600  1.0  0.054
  H  H53  1  0.830000  0.170000  0.250000  1.0  -0.0501
  H  H54  1  0.170000  0.830000  0.750000  1.0  -0.0535
  C  C55  1  0.600700  0.493100  0.714300  1.0  0.2
  C  C56  1  0.706200  0.056600  0.613000  1.0  0.2238
  C  C57  1  0.803100  0.147100  0.540800  1.0  0.2402
  C  C58  1  0.387100  0.702700  0.969500  1.0  0.2109
  C  C59  1  0.467300  0.793700  0.876600  1.0  0.2162
  C  C60  1  0.876600  0.561800  0.796600  1.0  0.2148
  C  C61  1  0.970500  0.633700  0.700700  1.0  0.2323
  C  C62  1  0.126300  0.265100  0.539000  1.0  0.23
  C  C63  1  0.039400  0.196000  0.639300  1.0  0.243
  C  C64  1  0.977100  0.056100  0.351300  1.0  0.2532
  C  C65  1  0.506900  0.399300  0.785700  1.0  0.2001
  C  C66  1  0.943400  0.293800  0.887000  1.0  0.2239
  C  C67  1  0.852900  0.196900  0.959200  1.0  0.2403
  C  C68  1  0.297300  0.612900  0.530500  1.0  0.2107
  C  C69  1  0.206300  0.532700  0.623400  1.0  0.2155
  C  C70  1  0.438200  0.123400  0.703400  1.0  0.2138
  C  C71  1  0.366300  0.029500  0.799300  1.0  0.235
  C  C72  1  0.734900  0.873700  0.961000  1.0  0.2302
  C  C73  1  0.804000  0.960600  0.860700  1.0  0.2413
  C  C74  1  0.943900  0.022900  0.148700  1.0  0.2509
  C  C75  1  0.399300  0.506900  0.285700  1.0  0.1985
  C  C76  1  0.293800  0.943400  0.387000  1.0  0.2239
  C  C77  1  0.196900  0.852900  0.459200  1.0  0.2407
  C  C78  1  0.612900  0.297300  0.030500  1.0  0.2121
  C  C79  1  0.532700  0.206300  0.123400  1.0  0.217
  C  C80  1  0.123400  0.438200  0.203400  1.0  0.2154
  C  C81  1  0.029500  0.366300  0.299300  1.0  0.2334
  C  C82  1  0.873700  0.734900  0.461000  1.0  0.23
  C  C83  1  0.960600  0.804000  0.360700  1.0  0.2428
  C  C84  1  0.022900  0.943900  0.648700  1.0  0.2524
  C  C85  1  0.493100  0.600700  0.214300  1.0  0.201
  C  C86  1  0.056600  0.706200  0.113000  1.0  0.2256
  C  C87  1  0.147100  0.803100  0.040800  1.0  0.2395
  C  C88  1  0.702700  0.387100  0.469500  1.0  0.211
  C  C89  1  0.793700  0.467300  0.376600  1.0  0.2159
  C  C90  1  0.561800  0.876600  0.296600  1.0  0.2134
  C  C91  1  0.633700  0.970500  0.200700  1.0  0.2336
  C  C92  1  0.265100  0.126300  0.039000  1.0  0.2307
  C  C93  1  0.196000  0.039400  0.139300  1.0  0.2416
  C  C94  1  0.056100  0.977100  0.851300  1.0  0.2519
  C  C95  1  0.884800  0.115200  0.250000  1.0  0.4432
  C  C96  1  0.115200  0.884800  0.750000  1.0  0.4362
  N  N97  1  0.658000  0.403000  0.726400  1.0  -0.243
  N  N98  1  0.779800  0.193000  0.622900  1.0  -0.2506
  N  N99  1  0.716500  0.133500  0.670300  1.0  -0.2399
  N  N100  1  0.759800  0.060400  0.529500  1.0  -0.4832
  N  N101  1  0.412600  0.777400  0.022400  1.0  -0.2467
  N  N102  1  0.418400  0.708600  0.876500  1.0  -0.4159
  N  N103  1  0.464400  0.837000  0.962000  1.0  -0.2455
  N  N104  1  0.883500  0.507100  0.716900  1.0  -0.2456
  N  N105  1  0.930200  0.643400  0.790300  1.0  -0.4734
  N  N106  1  0.944900  0.553900  0.654300  1.0  -0.2407
  N  N107  1  0.045600  0.332000  0.555500  1.0  -0.2545
  N  N108  1  0.127700  0.177500  0.588900  1.0  -0.446
  N  N109  1  0.988100  0.286900  0.621200  1.0  -0.268
  N  N110  1  0.880800  0.052600  0.320500  1.0  -0.4506
  N  N111  1  0.033300  0.109900  0.296500  1.0  -0.5331
  N  N112  1  0.597000  0.342000  0.773600  1.0  -0.2432
  N  N113  1  0.807000  0.220200  0.877100  1.0  -0.2503
  N  N114  1  0.866500  0.283500  0.829700  1.0  -0.2402
  N  N115  1  0.939600  0.240200  0.970500  1.0  -0.4856
  N  N116  1  0.222600  0.587400  0.477600  1.0  -0.246
  N  N117  1  0.291400  0.581600  0.623500  1.0  -0.4136
  N  N118  1  0.163000  0.535600  0.538000  1.0  -0.2464
  N  N119  1  0.492900  0.116500  0.783100  1.0  -0.2489
  N  N120  1  0.356600  0.069800  0.709700  1.0  -0.4719
  N  N121  1  0.446100  0.055100  0.845700  1.0  -0.2391
  N  N122  1  0.668000  0.954400  0.944500  1.0  -0.2563
  N  N123  1  0.822500  0.872300  0.911100  1.0  -0.4457
  N  N124  1  0.713100  0.011900  0.878800  1.0  -0.267
  N  N125  1  0.947400  0.119200  0.179500  1.0  -0.4498
  N  N126  1  0.890100  0.966700  0.203500  1.0  -0.4956
  N  N127  1  0.342000  0.597000  0.273600  1.0  -0.2427
  N  N128  1  0.220200  0.807000  0.377100  1.0  -0.2504
  N  N129  1  0.283500  0.866500  0.329700  1.0  -0.2403
  N  N130  1  0.240200  0.939600  0.470500  1.0  -0.4826
  N  N131  1  0.587400  0.222600  0.977600  1.0  -0.2464
  N  N132  1  0.581600  0.291400  0.123500  1.0  -0.415
  N  N133  1  0.535600  0.163000  0.038000  1.0  -0.2462
  N  N134  1  0.116500  0.492900  0.283100  1.0  -0.2463
  N  N135  1  0.069800  0.356600  0.209700  1.0  -0.473
  N  N136  1  0.055100  0.446100  0.345700  1.0  -0.2408
  N  N137  1  0.954400  0.668000  0.444500  1.0  -0.2563
  N  N138  1  0.872300  0.822500  0.411100  1.0  -0.4461
  N  N139  1  0.011900  0.713100  0.378800  1.0  -0.2662
  N  N140  1  0.119200  0.947400  0.679500  1.0  -0.4521
  N  N141  1  0.966700  0.890100  0.703500  1.0  -0.4948
  N  N142  1  0.403000  0.658000  0.226400  1.0  -0.2424
  N  N143  1  0.193000  0.779800  0.122900  1.0  -0.2496
  N  N144  1  0.133500  0.716500  0.170300  1.0  -0.2406
  N  N145  1  0.060400  0.759800  0.029500  1.0  -0.4836
  N  N146  1  0.777400  0.412600  0.522400  1.0  -0.2459
  N  N147  1  0.708600  0.418400  0.376500  1.0  -0.4149
  N  N148  1  0.837000  0.464400  0.462000  1.0  -0.2465
  N  N149  1  0.507100  0.883500  0.216900  1.0  -0.2455
  N  N150  1  0.643400  0.930200  0.290300  1.0  -0.4709
  N  N151  1  0.553900  0.944900  0.154300  1.0  -0.2406
  N  N152  1  0.332000  0.045600  0.055500  1.0  -0.2557
  N  N153  1  0.177500  0.127700  0.088900  1.0  -0.4457
  N  N154  1  0.286900  0.988100  0.121200  1.0  -0.2666
  N  N155  1  0.052600  0.880800  0.820500  1.0  -0.4484
  N  N156  1  0.109900  0.033300  0.796500  1.0  -0.5265
  N  N157  1  0.505500  0.494500  0.750000  1.0  -0.3724
  N  N158  1  0.494500  0.505500  0.250000  1.0  -0.3722
