# generated using pymatgen
data_MnH16C24(NO2)2
_symmetry_space_group_name_H-M   'P 1'
_cell_length_a   17.58110000
_cell_length_b   14.09780000
_cell_length_c   18.78710000
_cell_angle_alpha   90.00000000
_cell_angle_beta   97.72300000
_cell_angle_gamma   90.00000000
_symmetry_Int_Tables_number   1
_chemical_formula_structural   MnH16C24(NO2)2
_chemical_formula_sum   'Mn8 H128 C192 N16 O32'
_cell_volume   4614.23619218
_cell_formula_units_Z   8
loop_
 _symmetry_equiv_pos_site_id
 _symmetry_equiv_pos_as_xyz
  1  'x, y, z'
loop_
 _atom_site_type_symbol
 _atom_site_label
 _atom_site_symmetry_multiplicity
 _atom_site_fract_x
 _atom_site_fract_y
 _atom_site_fract_z
 _atom_site_occupancy
 _atom_site_charge
  Mn  Mn1  1  0.615420  0.429170  0.994620  1.0  1.0608
  Mn  Mn2  1  0.867550  0.576680  0.994820  1.0  0.9979
  Mn  Mn3  1  0.384580  0.929170  0.505380  1.0  1.0622
  Mn  Mn4  1  0.132450  0.076680  0.505180  1.0  0.9981
  Mn  Mn5  1  0.384580  0.570830  0.005380  1.0  1.0604
  Mn  Mn6  1  0.132450  0.423320  0.005180  1.0  0.9986
  Mn  Mn7  1  0.615420  0.070830  0.494620  1.0  1.0614
  Mn  Mn8  1  0.867550  0.923320  0.494820  1.0  0.9983
  H  H9  1  0.721500  0.158400  0.703800  1.0  0.0961
  H  H10  1  0.898800  0.131900  0.864400  1.0  0.1179
  H  H11  1  0.966100  0.043700  0.788700  1.0  0.1064
  H  H12  1  0.912200  0.014100  0.670000  1.0  0.0974
  H  H13  1  0.588100  0.236200  0.886700  1.0  0.0783
  H  H14  1  0.653000  0.146600  0.811500  1.0  0.1162
  H  H15  1  0.847800  0.283800  0.891400  1.0  0.117
  H  H16  1  0.777500  0.370800  0.963300  1.0  0.0824
  H  H17  1  0.505100  0.327500  0.788300  1.0  0.098
  H  H18  1  0.318200  0.335100  0.636300  1.0  0.1157
  H  H19  1  0.251500  0.418800  0.715400  1.0  0.1018
  H  H20  1  0.309900  0.453800  0.831700  1.0  0.0902
  H  H21  1  0.594400  0.105500  0.656500  1.0  0.0758
  H  H22  1  0.526000  0.187100  0.733000  1.0  0.1113
  H  H23  1  0.411700  0.321300  0.560300  1.0  0.1214
  H  H24  1  0.481900  0.232800  0.488800  1.0  0.0827
  H  H25  1  0.027700  0.345000  0.795900  1.0  0.1045
  H  H26  1  0.856100  0.379600  0.630900  1.0  0.1182
  H  H27  1  0.789100  0.471000  0.704400  1.0  0.1007
  H  H28  1  0.837600  0.495100  0.825200  1.0  0.1031
  H  H29  1  0.163100  0.251200  0.619900  1.0  0.0767
  H  H30  1  0.100400  0.344500  0.694400  1.0  0.1208
  H  H31  1  0.900100  0.226200  0.604800  1.0  0.1207
  H  H32  1  0.969300  0.132100  0.536200  1.0  0.0821
  H  H33  1  0.763200  0.651200  0.780900  1.0  0.0976
  H  H34  1  0.598700  0.591900  0.614000  1.0  0.1115
  H  H35  1  0.533000  0.502000  0.689900  1.0  0.1036
  H  H36  1  0.580400  0.488500  0.812100  1.0  0.1047
  H  H37  1  0.901100  0.750100  0.610400  1.0  0.0835
  H  H38  1  0.840200  0.653700  0.684200  1.0  0.1162
  H  H39  1  0.637500  0.742800  0.578200  1.0  0.1013
  H  H40  1  0.703400  0.840400  0.510300  1.0  0.0744
  H  H41  1  0.278500  0.658400  0.796200  1.0  0.0956
  H  H42  1  0.101200  0.631900  0.635600  1.0  0.1176
  H  H43  1  0.033900  0.543700  0.711300  1.0  0.106
  H  H44  1  0.087800  0.514100  0.830000  1.0  0.0979
  H  H45  1  0.411900  0.736200  0.613300  1.0  0.0789
  H  H46  1  0.347000  0.646600  0.688500  1.0  0.1162
  H  H47  1  0.152200  0.783800  0.608600  1.0  0.1166
  H  H48  1  0.222500  0.870800  0.536700  1.0  0.0821
  H  H49  1  0.494900  0.827500  0.711700  1.0  0.0985
  H  H50  1  0.681800  0.835100  0.863700  1.0  0.1158
  H  H51  1  0.748500  0.918800  0.784600  1.0  0.1012
  H  H52  1  0.690100  0.953800  0.668300  1.0  0.0902
  H  H53  1  0.405600  0.605500  0.843500  1.0  0.0761
  H  H54  1  0.474000  0.687100  0.767000  1.0  0.1108
  H  H55  1  0.588300  0.821300  0.939700  1.0  0.1208
  H  H56  1  0.518100  0.732800  0.011200  1.0  0.0819
  H  H57  1  0.972300  0.845000  0.704100  1.0  0.1042
  H  H58  1  0.143900  0.879600  0.869100  1.0  0.1181
  H  H59  1  0.210900  0.971000  0.795600  1.0  0.1016
  H  H60  1  0.162400  0.995100  0.674800  1.0  0.1032
  H  H61  1  0.836900  0.751200  0.880100  1.0  0.0761
  H  H62  1  0.899600  0.844500  0.805600  1.0  0.1215
  H  H63  1  0.099900  0.726200  0.895200  1.0  0.1208
  H  H64  1  0.030700  0.632100  0.963800  1.0  0.0826
  H  H65  1  0.236800  0.151200  0.719100  1.0  0.0983
  H  H66  1  0.401300  0.091900  0.886000  1.0  0.1113
  H  H67  1  0.467000  0.002000  0.810100  1.0  0.1041
  H  H68  1  0.419600  0.988500  0.687900  1.0  0.1051
  H  H69  1  0.098900  0.250100  0.889600  1.0  0.0837
  H  H70  1  0.159800  0.153700  0.815800  1.0  0.1168
  H  H71  1  0.362500  0.242800  0.921800  1.0  0.1022
  H  H72  1  0.296600  0.340400  0.989700  1.0  0.0744
  H  H73  1  0.278500  0.841600  0.296200  1.0  0.096
  H  H74  1  0.101200  0.868100  0.135600  1.0  0.1179
  H  H75  1  0.033900  0.956300  0.211300  1.0  0.1062
  H  H76  1  0.087800  0.985900  0.330000  1.0  0.0978
  H  H77  1  0.411900  0.763800  0.113300  1.0  0.0789
  H  H78  1  0.347000  0.853400  0.188500  1.0  0.1161
  H  H79  1  0.152200  0.716200  0.108600  1.0  0.1167
  H  H80  1  0.222500  0.629200  0.036700  1.0  0.0822
  H  H81  1  0.494900  0.672500  0.211700  1.0  0.0987
  H  H82  1  0.681800  0.664900  0.363700  1.0  0.1162
  H  H83  1  0.748500  0.581200  0.284600  1.0  0.1016
  H  H84  1  0.690100  0.546200  0.168300  1.0  0.0902
  H  H85  1  0.405600  0.894500  0.343500  1.0  0.0762
  H  H86  1  0.474000  0.812900  0.267000  1.0  0.1107
  H  H87  1  0.588300  0.678700  0.439700  1.0  0.121
  H  H88  1  0.518100  0.767200  0.511200  1.0  0.0827
  H  H89  1  0.972300  0.655000  0.204100  1.0  0.1045
  H  H90  1  0.143900  0.620400  0.369100  1.0  0.1183
  H  H91  1  0.210900  0.529000  0.295600  1.0  0.1019
  H  H92  1  0.162400  0.504900  0.174800  1.0  0.1032
  H  H93  1  0.836900  0.748800  0.380100  1.0  0.0758
  H  H94  1  0.899600  0.655500  0.305600  1.0  0.1213
  H  H95  1  0.099900  0.773800  0.395200  1.0  0.1207
  H  H96  1  0.030700  0.867900  0.463800  1.0  0.0828
  H  H97  1  0.236800  0.348800  0.219100  1.0  0.0983
  H  H98  1  0.401300  0.408100  0.386000  1.0  0.1111
  H  H99  1  0.467000  0.498000  0.310100  1.0  0.1037
  H  H100  1  0.419600  0.511500  0.187900  1.0  0.1052
  H  H101  1  0.098900  0.249900  0.389600  1.0  0.0837
  H  H102  1  0.159800  0.346300  0.315800  1.0  0.1168
  H  H103  1  0.362500  0.257200  0.421800  1.0  0.1023
  H  H104  1  0.296600  0.159600  0.489700  1.0  0.0747
  H  H105  1  0.721500  0.341600  0.203800  1.0  0.0959
  H  H106  1  0.898800  0.368100  0.364400  1.0  0.1175
  H  H107  1  0.966100  0.456300  0.288700  1.0  0.1067
  H  H108  1  0.912200  0.485900  0.170000  1.0  0.0975
  H  H109  1  0.588100  0.263800  0.386700  1.0  0.0781
  H  H110  1  0.653000  0.353400  0.311500  1.0  0.1162
  H  H111  1  0.847800  0.216200  0.391400  1.0  0.1167
  H  H112  1  0.777500  0.129200  0.463300  1.0  0.0822
  H  H113  1  0.505100  0.172500  0.288300  1.0  0.0979
  H  H114  1  0.318200  0.164900  0.136300  1.0  0.1156
  H  H115  1  0.251500  0.081200  0.215400  1.0  0.1018
  H  H116  1  0.309900  0.046200  0.331700  1.0  0.0905
  H  H117  1  0.594400  0.394500  0.156500  1.0  0.0759
  H  H118  1  0.526000  0.312900  0.233000  1.0  0.1113
  H  H119  1  0.411700  0.178700  0.060300  1.0  0.1209
  H  H120  1  0.481900  0.267200  0.988800  1.0  0.0823
  H  H121  1  0.027700  0.155000  0.295900  1.0  0.1043
  H  H122  1  0.856100  0.120400  0.130900  1.0  0.1183
  H  H123  1  0.789100  0.029000  0.204400  1.0  0.1011
  H  H124  1  0.837600  0.004900  0.325200  1.0  0.1031
  H  H125  1  0.163100  0.248800  0.119900  1.0  0.0763
  H  H126  1  0.100400  0.155500  0.194400  1.0  0.1205
  H  H127  1  0.900100  0.273800  0.104800  1.0  0.1206
  H  H128  1  0.969300  0.367900  0.036200  1.0  0.082
  H  H129  1  0.763200  0.848800  0.280900  1.0  0.098
  H  H130  1  0.598700  0.908100  0.114000  1.0  0.1118
  H  H131  1  0.533000  0.998000  0.189900  1.0  0.1036
  H  H132  1  0.580400  0.011500  0.312100  1.0  0.1046
  H  H133  1  0.901100  0.749900  0.110400  1.0  0.0837
  H  H134  1  0.840200  0.846300  0.184200  1.0  0.1162
  H  H135  1  0.637500  0.757200  0.078200  1.0  0.1018
  H  H136  1  0.703400  0.659600  0.010300  1.0  0.0746
  C  C137  1  0.777840  0.067650  0.597720  1.0  0.6558
  C  C138  1  0.811790  0.084530  0.675270  1.0  -0.1149
  C  C139  1  0.771250  0.135200  0.721160  1.0  -0.0918
  C  C140  1  0.802300  0.152740  0.792360  1.0  0.0551
  C  C141  1  0.876120  0.119090  0.816550  1.0  -0.1128
  C  C142  1  0.916460  0.067330  0.771410  1.0  -0.0915
  C  C143  1  0.884430  0.049820  0.700800  1.0  -0.0592
  C  C144  1  0.641500  0.246710  0.887240  1.0  0.1752
  C  C145  1  0.679980  0.192760  0.841980  1.0  -0.2051
  C  C146  1  0.758260  0.206330  0.841130  1.0  0.1171
  C  C147  1  0.794100  0.273450  0.888730  1.0  -0.2137
  C  C148  1  0.751690  0.324770  0.931860  1.0  0.1646
  C  C149  1  0.452750  0.420380  0.895760  1.0  0.6559
  C  C150  1  0.413760  0.395160  0.820990  1.0  -0.0956
  C  C151  1  0.453320  0.345430  0.773560  1.0  -0.1059
  C  C152  1  0.418550  0.321190  0.704650  1.0  0.0338
  C  C153  1  0.342620  0.349760  0.683230  1.0  -0.1136
  C  C154  1  0.302910  0.399480  0.730360  1.0  -0.0813
  C  C155  1  0.337910  0.421180  0.799330  1.0  -0.0654
  C  C156  1  0.556860  0.150010  0.636630  1.0  0.1658
  C  C157  1  0.516490  0.199060  0.682800  1.0  -0.2175
  C  C158  1  0.461430  0.266500  0.655920  1.0  0.0913
  C  C159  1  0.449090  0.277580  0.581770  1.0  -0.2108
  C  C160  1  0.491770  0.224350  0.539350  1.0  0.1692
  C  C161  1  0.967830  0.433240  0.900950  1.0  0.6557
  C  C162  1  0.937400  0.421440  0.822540  1.0  -0.1238
  C  C163  1  0.978670  0.369590  0.777570  1.0  -0.0838
  C  C164  1  0.949050  0.353290  0.706100  1.0  0.0697
  C  C165  1  0.877250  0.390870  0.679430  1.0  -0.1327
  C  C166  1  0.837180  0.444160  0.723330  1.0  -0.094
  C  C167  1  0.866160  0.459270  0.795090  1.0  -0.0706
  C  C168  1  0.108920  0.245560  0.617320  1.0  0.1749
  C  C169  1  0.071900  0.301850  0.661890  1.0  -0.2037
  C  C170  1  0.992180  0.295770  0.658880  1.0  0.116
  C  C171  1  0.954420  0.231820  0.609680  1.0  -0.21
  C  C172  1  0.996050  0.176810  0.568150  1.0  0.1758
  C  C173  1  0.707000  0.562110  0.887800  1.0  0.6721
  C  C174  1  0.676160  0.569430  0.808350  1.0  -0.1076
  C  C175  1  0.716100  0.621700  0.762430  1.0  -0.1036
  C  C176  1  0.687890  0.631300  0.689610  1.0  0.0474
  C  C177  1  0.618790  0.586060  0.663330  1.0  -0.1167
  C  C178  1  0.579490  0.532960  0.708540  1.0  -0.0961
  C  C179  1  0.607720  0.524650  0.781170  1.0  -0.0446
  C  C180  1  0.846570  0.749780  0.604640  1.0  0.1686
  C  C181  1  0.810650  0.691510  0.648930  1.0  -0.2025
  C  C182  1  0.730110  0.688510  0.641470  1.0  0.1091
  C  C183  1  0.691950  0.744380  0.587080  1.0  -0.2089
  C  C184  1  0.731770  0.801860  0.545970  1.0  0.1809
  C  C185  1  0.222160  0.567650  0.902280  1.0  0.6568
  C  C186  1  0.188210  0.584530  0.824730  1.0  -0.115
  C  C187  1  0.228750  0.635200  0.778840  1.0  -0.0911
  C  C188  1  0.197700  0.652740  0.707640  1.0  0.0542
  C  C189  1  0.123880  0.619090  0.683450  1.0  -0.1108
  C  C190  1  0.083540  0.567330  0.728590  1.0  -0.0925
  C  C191  1  0.115570  0.549820  0.799200  1.0  -0.0593
  C  C192  1  0.358500  0.746710  0.612760  1.0  0.1762
  C  C193  1  0.320020  0.692760  0.658020  1.0  -0.2049
  C  C194  1  0.241740  0.706330  0.658870  1.0  0.1164
  C  C195  1  0.205900  0.773450  0.611270  1.0  -0.2131
  C  C196  1  0.248310  0.824770  0.568140  1.0  0.1652
  C  C197  1  0.547250  0.920380  0.604240  1.0  0.6559
  C  C198  1  0.586240  0.895160  0.679010  1.0  -0.0951
  C  C199  1  0.546680  0.845430  0.726440  1.0  -0.1058
  C  C200  1  0.581450  0.821190  0.795350  1.0  0.0352
  C  C201  1  0.657380  0.849760  0.816770  1.0  -0.1158
  C  C202  1  0.697090  0.899480  0.769640  1.0  -0.0796
  C  C203  1  0.662090  0.921180  0.700670  1.0  -0.0641
  C  C204  1  0.443140  0.650010  0.863370  1.0  0.1671
  C  C205  1  0.483510  0.699060  0.817200  1.0  -0.2171
  C  C206  1  0.538570  0.766500  0.844080  1.0  0.0912
  C  C207  1  0.550910  0.777580  0.918230  1.0  -0.2117
  C  C208  1  0.508230  0.724350  0.960650  1.0  0.1691
  C  C209  1  0.032170  0.933240  0.599050  1.0  0.6555
  C  C210  1  0.062600  0.921440  0.677460  1.0  -0.1235
  C  C211  1  0.021330  0.869590  0.722430  1.0  -0.0835
  C  C212  1  0.050950  0.853290  0.793900  1.0  0.0695
  C  C213  1  0.122750  0.890870  0.820570  1.0  -0.1371
  C  C214  1  0.162820  0.944160  0.776670  1.0  -0.0918
  C  C215  1  0.133840  0.959270  0.704910  1.0  -0.07
  C  C216  1  0.891080  0.745560  0.882680  1.0  0.1738
  C  C217  1  0.928100  0.801850  0.838110  1.0  -0.2052
  C  C218  1  0.007820  0.795770  0.841120  1.0  0.1161
  C  C219  1  0.045580  0.731820  0.890320  1.0  -0.2093
  C  C220  1  0.003950  0.676810  0.931850  1.0  0.175
  C  C221  1  0.293000  0.062110  0.612200  1.0  0.6724
  C  C222  1  0.323840  0.069430  0.691650  1.0  -0.1082
  C  C223  1  0.283900  0.121700  0.737570  1.0  -0.1031
  C  C224  1  0.312110  0.131300  0.810390  1.0  0.0464
  C  C225  1  0.381210  0.086060  0.836670  1.0  -0.1187
  C  C226  1  0.420510  0.032960  0.791460  1.0  -0.0947
  C  C227  1  0.392280  0.024650  0.718830  1.0  -0.0439
  C  C228  1  0.153430  0.249780  0.895360  1.0  0.1681
  C  C229  1  0.189350  0.191510  0.851070  1.0  -0.2031
  C  C230  1  0.269890  0.188510  0.858530  1.0  0.1084
  C  C231  1  0.308050  0.244380  0.912920  1.0  -0.2107
  C  C232  1  0.268230  0.301860  0.954030  1.0  0.1808
  C  C233  1  0.222160  0.932350  0.402280  1.0  0.6566
  C  C234  1  0.188210  0.915470  0.324730  1.0  -0.1147
  C  C235  1  0.228750  0.864800  0.278840  1.0  -0.0907
  C  C236  1  0.197700  0.847260  0.207640  1.0  0.0539
  C  C237  1  0.123880  0.880910  0.183450  1.0  -0.1104
  C  C238  1  0.083540  0.932670  0.228590  1.0  -0.0928
  C  C239  1  0.115570  0.950180  0.299200  1.0  -0.0591
  C  C240  1  0.358500  0.753290  0.112760  1.0  0.1763
  C  C241  1  0.320020  0.807240  0.158020  1.0  -0.2045
  C  C242  1  0.241740  0.793670  0.158870  1.0  0.1162
  C  C243  1  0.205900  0.726550  0.111270  1.0  -0.2126
  C  C244  1  0.248310  0.675230  0.068140  1.0  0.1655
  C  C245  1  0.547250  0.579620  0.104240  1.0  0.6556
  C  C246  1  0.586240  0.604840  0.179010  1.0  -0.0953
  C  C247  1  0.546680  0.654570  0.226440  1.0  -0.1061
  C  C248  1  0.581450  0.678810  0.295350  1.0  0.0347
  C  C249  1  0.657380  0.650240  0.316770  1.0  -0.1162
  C  C250  1  0.697090  0.600520  0.269640  1.0  -0.0794
  C  C251  1  0.662090  0.578820  0.200670  1.0  -0.064
  C  C252  1  0.443140  0.849990  0.363370  1.0  0.1672
  C  C253  1  0.483510  0.800940  0.317200  1.0  -0.2175
  C  C254  1  0.538570  0.733500  0.344080  1.0  0.0912
  C  C255  1  0.550910  0.722420  0.418230  1.0  -0.2118
  C  C256  1  0.508230  0.775650  0.460650  1.0  0.1687
  C  C257  1  0.032170  0.566760  0.099050  1.0  0.6545
  C  C258  1  0.062600  0.578560  0.177460  1.0  -0.1236
  C  C259  1  0.021330  0.630410  0.222430  1.0  -0.0839
  C  C260  1  0.050950  0.646710  0.293900  1.0  0.0695
  C  C261  1  0.122750  0.609130  0.320570  1.0  -0.1368
  C  C262  1  0.162820  0.555840  0.276670  1.0  -0.0915
  C  C263  1  0.133840  0.540730  0.204910  1.0  -0.0699
  C  C264  1  0.891080  0.754440  0.382680  1.0  0.1745
  C  C265  1  0.928100  0.698150  0.338110  1.0  -0.2056
  C  C266  1  0.007820  0.704230  0.341120  1.0  0.1161
  C  C267  1  0.045580  0.768180  0.390320  1.0  -0.2088
  C  C268  1  0.003950  0.823190  0.431850  1.0  0.1751
  C  C269  1  0.293000  0.437890  0.112200  1.0  0.6647
  C  C270  1  0.323840  0.430570  0.191650  1.0  -0.1078
  C  C271  1  0.283900  0.378300  0.237570  1.0  -0.1037
  C  C272  1  0.312110  0.368700  0.310390  1.0  0.046
  C  C273  1  0.381210  0.413940  0.336670  1.0  -0.1186
  C  C274  1  0.420510  0.467040  0.291460  1.0  -0.0942
  C  C275  1  0.392280  0.475350  0.218830  1.0  -0.0431
  C  C276  1  0.153430  0.250220  0.395360  1.0  0.1678
  C  C277  1  0.189350  0.308490  0.351070  1.0  -0.2032
  C  C278  1  0.269890  0.311490  0.358530  1.0  0.1083
  C  C279  1  0.308050  0.255620  0.412920  1.0  -0.2104
  C  C280  1  0.268230  0.198140  0.454030  1.0  0.1805
  C  C281  1  0.777840  0.432350  0.097720  1.0  0.6556
  C  C282  1  0.811790  0.415470  0.175270  1.0  -0.1147
  C  C283  1  0.771250  0.364800  0.221160  1.0  -0.0915
  C  C284  1  0.802300  0.347260  0.292360  1.0  0.055
  C  C285  1  0.876120  0.380910  0.316550  1.0  -0.1127
  C  C286  1  0.916460  0.432670  0.271410  1.0  -0.0918
  C  C287  1  0.884430  0.450180  0.200800  1.0  -0.059
  C  C288  1  0.641500  0.253290  0.387240  1.0  0.1747
  C  C289  1  0.679980  0.307240  0.341980  1.0  -0.2049
  C  C290  1  0.758260  0.293670  0.341130  1.0  0.1165
  C  C291  1  0.794100  0.226550  0.388730  1.0  -0.2138
  C  C292  1  0.751690  0.175230  0.431860  1.0  0.1644
  C  C293  1  0.452750  0.079620  0.395760  1.0  0.6558
  C  C294  1  0.413760  0.104840  0.320990  1.0  -0.0957
  C  C295  1  0.453320  0.154570  0.273560  1.0  -0.1061
  C  C296  1  0.418550  0.178810  0.204650  1.0  0.0336
  C  C297  1  0.342620  0.150240  0.183230  1.0  -0.1139
  C  C298  1  0.302910  0.100520  0.230360  1.0  -0.0807
  C  C299  1  0.337910  0.078820  0.299330  1.0  -0.065
  C  C300  1  0.556860  0.349990  0.136630  1.0  0.1652
  C  C301  1  0.516490  0.300940  0.182800  1.0  -0.218
  C  C302  1  0.461430  0.233500  0.155920  1.0  0.0908
  C  C303  1  0.449090  0.222420  0.081770  1.0  -0.2114
  C  C304  1  0.491770  0.275650  0.039350  1.0  0.1685
  C  C305  1  0.967830  0.066760  0.400950  1.0  0.6547
  C  C306  1  0.937400  0.078560  0.322540  1.0  -0.1239
  C  C307  1  0.978670  0.130410  0.277570  1.0  -0.0838
  C  C308  1  0.949050  0.146710  0.206100  1.0  0.0706
  C  C309  1  0.877250  0.109130  0.179430  1.0  -0.1326
  C  C310  1  0.837180  0.055840  0.223330  1.0  -0.0936
  C  C311  1  0.866160  0.040730  0.295090  1.0  -0.0703
  C  C312  1  0.108920  0.254440  0.117320  1.0  0.1745
  C  C313  1  0.071900  0.198150  0.161890  1.0  -0.2046
  C  C314  1  0.992180  0.204230  0.158880  1.0  0.1157
  C  C315  1  0.954420  0.268180  0.109680  1.0  -0.21
  C  C316  1  0.996050  0.323190  0.068150  1.0  0.1758
  C  C317  1  0.707000  0.937890  0.387800  1.0  0.6642
  C  C318  1  0.676160  0.930570  0.308350  1.0  -0.1076
  C  C319  1  0.716100  0.878300  0.262430  1.0  -0.1041
  C  C320  1  0.687890  0.868700  0.189610  1.0  0.0472
  C  C321  1  0.618790  0.913940  0.163330  1.0  -0.1168
  C  C322  1  0.579490  0.967040  0.208540  1.0  -0.0949
  C  C323  1  0.607720  0.975350  0.281170  1.0  -0.0445
  C  C324  1  0.846570  0.750220  0.104640  1.0  0.1694
  C  C325  1  0.810650  0.808490  0.148930  1.0  -0.202
  C  C326  1  0.730110  0.811490  0.141470  1.0  0.1091
  C  C327  1  0.691950  0.755620  0.087080  1.0  -0.2081
  C  C328  1  0.731770  0.698140  0.045970  1.0  0.1809
  N  N329  1  0.675660  0.313260  0.931970  1.0  -0.3748
  N  N330  1  0.545890  0.161950  0.564840  1.0  -0.3681
  N  N331  1  0.072580  0.183140  0.570500  1.0  -0.3513
  N  N332  1  0.808770  0.806260  0.553650  1.0  -0.3504
  N  N333  1  0.324340  0.813260  0.568030  1.0  -0.3766
  N  N334  1  0.454110  0.661950  0.935160  1.0  -0.367
  N  N335  1  0.927420  0.683140  0.929500  1.0  -0.3507
  N  N336  1  0.191230  0.306260  0.946350  1.0  -0.352
  N  N337  1  0.324340  0.686740  0.068030  1.0  -0.3779
  N  N338  1  0.454110  0.838050  0.435160  1.0  -0.3684
  N  N339  1  0.927420  0.816860  0.429500  1.0  -0.3516
  N  N340  1  0.191230  0.193740  0.446350  1.0  -0.3514
  N  N341  1  0.675660  0.186740  0.431970  1.0  -0.3736
  N  N342  1  0.545890  0.338050  0.064840  1.0  -0.3678
  N  N343  1  0.072580  0.316860  0.070500  1.0  -0.3501
  N  N344  1  0.808770  0.693740  0.053650  1.0  -0.3513
  O  O345  1  0.819130  0.026750  0.557790  1.0  -0.6134
  O  O346  1  0.710760  0.097540  0.579240  1.0  -0.6048
  O  O347  1  0.412120  0.454050  0.939350  1.0  -0.6389
  O  O348  1  0.523720  0.403700  0.908360  1.0  -0.6017
  O  O349  1  0.923250  0.466740  0.941390  1.0  -0.606
  O  O350  1  0.035980  0.406590  0.920250  1.0  -0.6129
  O  O351  1  0.663220  0.529690  0.929120  1.0  -0.6358
  O  O352  1  0.774920  0.589990  0.906520  1.0  -0.6009
  O  O353  1  0.180870  0.526750  0.942210  1.0  -0.6123
  O  O354  1  0.289240  0.597540  0.920760  1.0  -0.6052
  O  O355  1  0.587880  0.954050  0.560650  1.0  -0.6398
  O  O356  1  0.476280  0.903700  0.591640  1.0  -0.6028
  O  O357  1  0.076750  0.966740  0.558610  1.0  -0.606
  O  O358  1  0.964020  0.906590  0.579750  1.0  -0.6128
  O  O359  1  0.336780  0.029690  0.570880  1.0  -0.636
  O  O360  1  0.225080  0.089990  0.593480  1.0  -0.5996
  O  O361  1  0.180870  0.973250  0.442210  1.0  -0.6126
  O  O362  1  0.289240  0.902460  0.420760  1.0  -0.6056
  O  O363  1  0.587880  0.545950  0.060650  1.0  -0.6403
  O  O364  1  0.476280  0.596300  0.091640  1.0  -0.6025
  O  O365  1  0.076750  0.533260  0.058610  1.0  -0.6059
  O  O366  1  0.964020  0.593410  0.079750  1.0  -0.6127
  O  O367  1  0.336780  0.470310  0.070880  1.0  -0.6361
  O  O368  1  0.225080  0.410010  0.093480  1.0  -0.5989
  O  O369  1  0.819130  0.473250  0.057790  1.0  -0.6134
  O  O370  1  0.710760  0.402460  0.079240  1.0  -0.6061
  O  O371  1  0.412120  0.045950  0.439350  1.0  -0.6391
  O  O372  1  0.523720  0.096300  0.408360  1.0  -0.6016
  O  O373  1  0.923250  0.033260  0.441390  1.0  -0.6056
  O  O374  1  0.035980  0.093410  0.420250  1.0  -0.613
  O  O375  1  0.663220  0.970310  0.429120  1.0  -0.6361
  O  O376  1  0.774920  0.910010  0.406520  1.0  -0.5998
