# generated using pymatgen
data_MnH16C24(NO2)2
_symmetry_space_group_name_H-M   'P 1'
_cell_length_a   17.55150000
_cell_length_b   14.28750000
_cell_length_c   18.74560000
_cell_angle_alpha   90.00000000
_cell_angle_beta   97.43600000
_cell_angle_gamma   90.00000000
_symmetry_Int_Tables_number   1
_chemical_formula_structural   MnH16C24(NO2)2
_chemical_formula_sum   'Mn8 H128 C192 N16 O32'
_cell_volume   4661.24557618
_cell_formula_units_Z   8
loop_
 _symmetry_equiv_pos_site_id
 _symmetry_equiv_pos_as_xyz
  1  'x, y, z'
loop_
 _atom_site_type_symbol
 _atom_site_label
 _atom_site_symmetry_multiplicity
 _atom_site_fract_x
 _atom_site_fract_y
 _atom_site_fract_z
 _atom_site_occupancy
 _atom_site_charge
  Mn  Mn1  1  0.616250  0.428770  0.995030  1.0  1.0542
  Mn  Mn2  1  0.868090  0.576650  0.995260  1.0  1.0159
  Mn  Mn3  1  0.383750  0.928770  0.504970  1.0  1.0544
  Mn  Mn4  1  0.131910  0.076650  0.504740  1.0  1.0165
  Mn  Mn5  1  0.383750  0.571230  0.004970  1.0  1.0531
  Mn  Mn6  1  0.131910  0.423350  0.004740  1.0  1.0172
  Mn  Mn7  1  0.616250  0.071230  0.495030  1.0  1.0537
  Mn  Mn8  1  0.868090  0.923350  0.495260  1.0  1.0166
  H  H9  1  0.722800  0.158300  0.704000  1.0  0.0978
  H  H10  1  0.898300  0.130200  0.863900  1.0  0.1146
  H  H11  1  0.964200  0.041300  0.789300  1.0  0.0986
  H  H12  1  0.910900  0.011000  0.671100  1.0  0.1018
  H  H13  1  0.589500  0.240100  0.887200  1.0  0.0739
  H  H14  1  0.653400  0.150500  0.811700  1.0  0.1184
  H  H15  1  0.849000  0.281300  0.892500  1.0  0.1141
  H  H16  1  0.779100  0.369500  0.962600  1.0  0.0703
  H  H17  1  0.506200  0.329800  0.788200  1.0  0.0959
  H  H18  1  0.319300  0.335000  0.637900  1.0  0.11
  H  H19  1  0.252500  0.417800  0.716300  1.0  0.1024
  H  H20  1  0.311500  0.455500  0.831300  1.0  0.0858
  H  H21  1  0.593300  0.106700  0.656400  1.0  0.0697
  H  H22  1  0.526400  0.188900  0.733000  1.0  0.1089
  H  H23  1  0.411800  0.317800  0.561200  1.0  0.1182
  H  H24  1  0.482000  0.231100  0.489800  1.0  0.0723
  H  H25  1  0.026500  0.345300  0.795800  1.0  0.0939
  H  H26  1  0.855700  0.377200  0.632100  1.0  0.1153
  H  H27  1  0.789200  0.468400  0.705000  1.0  0.0917
  H  H28  1  0.838300  0.494900  0.825000  1.0  0.1031
  H  H29  1  0.161700  0.248700  0.619600  1.0  0.0721
  H  H30  1  0.099200  0.341500  0.693400  1.0  0.1208
  H  H31  1  0.899500  0.225700  0.605600  1.0  0.1171
  H  H32  1  0.967900  0.132400  0.537400  1.0  0.0744
  H  H33  1  0.763500  0.650800  0.781300  1.0  0.0982
  H  H34  1  0.599400  0.594100  0.615200  1.0  0.113
  H  H35  1  0.535300  0.503400  0.690600  1.0  0.1
  H  H36  1  0.581900  0.490000  0.812600  1.0  0.1001
  H  H37  1  0.900700  0.750900  0.609500  1.0  0.0761
  H  H38  1  0.840400  0.656300  0.683700  1.0  0.1206
  H  H39  1  0.638000  0.744800  0.581000  1.0  0.1067
  H  H40  1  0.703800  0.841100  0.512400  1.0  0.072
  H  H41  1  0.277200  0.658300  0.796000  1.0  0.0973
  H  H42  1  0.101700  0.630200  0.636100  1.0  0.1147
  H  H43  1  0.035800  0.541300  0.710700  1.0  0.0993
  H  H44  1  0.089100  0.511000  0.828900  1.0  0.1024
  H  H45  1  0.410500  0.740100  0.612800  1.0  0.0731
  H  H46  1  0.346600  0.650500  0.688300  1.0  0.1185
  H  H47  1  0.151000  0.781300  0.607500  1.0  0.1146
  H  H48  1  0.220900  0.869500  0.537400  1.0  0.0698
  H  H49  1  0.493800  0.829800  0.711800  1.0  0.0958
  H  H50  1  0.680700  0.835000  0.862100  1.0  0.1101
  H  H51  1  0.747500  0.917800  0.783700  1.0  0.1025
  H  H52  1  0.688500  0.955500  0.668700  1.0  0.0858
  H  H53  1  0.406700  0.606700  0.843600  1.0  0.0697
  H  H54  1  0.473600  0.688900  0.767000  1.0  0.1087
  H  H55  1  0.588200  0.817800  0.938800  1.0  0.1179
  H  H56  1  0.518000  0.731100  0.010200  1.0  0.0723
  H  H57  1  0.973500  0.845300  0.704200  1.0  0.0936
  H  H58  1  0.144300  0.877200  0.867900  1.0  0.1151
  H  H59  1  0.210800  0.968400  0.795000  1.0  0.0926
  H  H60  1  0.161700  0.994900  0.675000  1.0  0.1032
  H  H61  1  0.838300  0.748700  0.880400  1.0  0.072
  H  H62  1  0.900800  0.841500  0.806600  1.0  0.121
  H  H63  1  0.100500  0.725700  0.894400  1.0  0.1166
  H  H64  1  0.032100  0.632400  0.962600  1.0  0.0746
  H  H65  1  0.236500  0.150800  0.718700  1.0  0.0986
  H  H66  1  0.400600  0.094100  0.884800  1.0  0.1133
  H  H67  1  0.464700  0.003400  0.809400  1.0  0.1003
  H  H68  1  0.418100  0.990000  0.687400  1.0  0.1001
  H  H69  1  0.099300  0.250900  0.890500  1.0  0.0763
  H  H70  1  0.159600  0.156300  0.816300  1.0  0.1212
  H  H71  1  0.362000  0.244800  0.919000  1.0  0.106
  H  H72  1  0.296200  0.341100  0.987600  1.0  0.0725
  H  H73  1  0.277200  0.841700  0.296000  1.0  0.0974
  H  H74  1  0.101700  0.869800  0.136100  1.0  0.1147
  H  H75  1  0.035800  0.958700  0.210700  1.0  0.0991
  H  H76  1  0.089100  0.989000  0.328900  1.0  0.1023
  H  H77  1  0.410500  0.759900  0.112800  1.0  0.0728
  H  H78  1  0.346600  0.849500  0.188300  1.0  0.1185
  H  H79  1  0.151000  0.718700  0.107500  1.0  0.1148
  H  H80  1  0.220900  0.630500  0.037400  1.0  0.0701
  H  H81  1  0.493800  0.670200  0.211800  1.0  0.096
  H  H82  1  0.680700  0.665000  0.362100  1.0  0.11
  H  H83  1  0.747500  0.582200  0.283700  1.0  0.1027
  H  H84  1  0.688500  0.544500  0.168700  1.0  0.0857
  H  H85  1  0.406700  0.893300  0.343600  1.0  0.0703
  H  H86  1  0.473600  0.811100  0.267000  1.0  0.1086
  H  H87  1  0.588200  0.682200  0.438800  1.0  0.1182
  H  H88  1  0.518000  0.768900  0.510200  1.0  0.0729
  H  H89  1  0.973500  0.654700  0.204200  1.0  0.0937
  H  H90  1  0.144300  0.622800  0.367900  1.0  0.1151
  H  H91  1  0.210800  0.531600  0.295000  1.0  0.0924
  H  H92  1  0.161700  0.505100  0.175000  1.0  0.1033
  H  H93  1  0.838300  0.751300  0.380400  1.0  0.0721
  H  H94  1  0.900800  0.658500  0.306600  1.0  0.1209
  H  H95  1  0.100500  0.774300  0.394400  1.0  0.1166
  H  H96  1  0.032100  0.867600  0.462600  1.0  0.0746
  H  H97  1  0.236500  0.349200  0.218700  1.0  0.0987
  H  H98  1  0.400600  0.405900  0.384800  1.0  0.1132
  H  H99  1  0.464700  0.496600  0.309400  1.0  0.1
  H  H100  1  0.418100  0.510000  0.187400  1.0  0.1002
  H  H101  1  0.099300  0.249100  0.390500  1.0  0.0763
  H  H102  1  0.159600  0.343700  0.316300  1.0  0.1216
  H  H103  1  0.362000  0.255200  0.419000  1.0  0.1059
  H  H104  1  0.296200  0.158900  0.487600  1.0  0.0728
  H  H105  1  0.722800  0.341700  0.204000  1.0  0.0975
  H  H106  1  0.898300  0.369800  0.363900  1.0  0.1139
  H  H107  1  0.964200  0.458700  0.289300  1.0  0.0985
  H  H108  1  0.910900  0.489000  0.171100  1.0  0.1017
  H  H109  1  0.589500  0.259900  0.387200  1.0  0.0737
  H  H110  1  0.653400  0.349500  0.311700  1.0  0.1184
  H  H111  1  0.849000  0.218700  0.392500  1.0  0.1139
  H  H112  1  0.779100  0.130500  0.462600  1.0  0.0702
  H  H113  1  0.506200  0.170200  0.288200  1.0  0.0958
  H  H114  1  0.319300  0.165000  0.137900  1.0  0.1098
  H  H115  1  0.252500  0.082200  0.216300  1.0  0.1022
  H  H116  1  0.311500  0.044500  0.331300  1.0  0.086
  H  H117  1  0.593300  0.393300  0.156400  1.0  0.0702
  H  H118  1  0.526400  0.311100  0.233000  1.0  0.109
  H  H119  1  0.411800  0.182200  0.061200  1.0  0.1179
  H  H120  1  0.482000  0.268900  0.989800  1.0  0.0724
  H  H121  1  0.026500  0.154700  0.295800  1.0  0.0935
  H  H122  1  0.855700  0.122800  0.132100  1.0  0.1154
  H  H123  1  0.789200  0.031600  0.205000  1.0  0.0918
  H  H124  1  0.838300  0.005100  0.325000  1.0  0.103
  H  H125  1  0.161700  0.251300  0.119600  1.0  0.0717
  H  H126  1  0.099200  0.158500  0.193400  1.0  0.1206
  H  H127  1  0.899500  0.274300  0.105600  1.0  0.1168
  H  H128  1  0.967900  0.367600  0.037400  1.0  0.0743
  H  H129  1  0.763500  0.849200  0.281300  1.0  0.0987
  H  H130  1  0.599400  0.905900  0.115200  1.0  0.1133
  H  H131  1  0.535300  0.996600  0.190600  1.0  0.1
  H  H132  1  0.581900  0.010000  0.312600  1.0  0.1
  H  H133  1  0.900700  0.749100  0.109500  1.0  0.0765
  H  H134  1  0.840400  0.843700  0.183700  1.0  0.1207
  H  H135  1  0.638000  0.755200  0.081000  1.0  0.1071
  H  H136  1  0.703800  0.658900  0.012400  1.0  0.0725
  C  C137  1  0.777890  0.066700  0.598020  1.0  0.6757
  C  C138  1  0.812000  0.083800  0.675900  1.0  -0.1555
  C  C139  1  0.771810  0.134900  0.721340  1.0  -0.0789
  C  C140  1  0.802800  0.152500  0.792670  1.0  0.0625
  C  C141  1  0.875800  0.117700  0.816600  1.0  -0.1086
  C  C142  1  0.915400  0.065200  0.771900  1.0  -0.1034
  C  C143  1  0.883900  0.047300  0.701320  1.0  -0.0479
  C  C144  1  0.642600  0.249500  0.887420  1.0  0.1765
  C  C145  1  0.680600  0.195200  0.841870  1.0  -0.2019
  C  C146  1  0.759410  0.207200  0.841020  1.0  0.1199
  C  C147  1  0.795600  0.272600  0.889140  1.0  -0.2156
  C  C148  1  0.753320  0.324600  0.931780  1.0  0.1737
  C  C149  1  0.453920  0.422000  0.896010  1.0  0.6574
  C  C150  1  0.415050  0.396700  0.821270  1.0  -0.1207
  C  C151  1  0.454750  0.346900  0.773910  1.0  -0.0937
  C  C152  1  0.419270  0.322000  0.705390  1.0  0.0358
  C  C153  1  0.343400  0.350000  0.684240  1.0  -0.0933
  C  C154  1  0.303600  0.399500  0.730900  1.0  -0.0837
  C  C155  1  0.339030  0.422500  0.799540  1.0  -0.0575
  C  C156  1  0.556900  0.151100  0.636860  1.0  0.1723
  C  C157  1  0.516900  0.200300  0.683270  1.0  -0.2157
  C  C158  1  0.462210  0.267100  0.656450  1.0  0.1089
  C  C159  1  0.449500  0.276100  0.582540  1.0  -0.222
  C  C160  1  0.492200  0.223600  0.539890  1.0  0.1763
  C  C161  1  0.967770  0.434000  0.901080  1.0  0.6607
  C  C162  1  0.936960  0.421000  0.822310  1.0  -0.1167
  C  C163  1  0.977930  0.369100  0.777560  1.0  -0.0663
  C  C164  1  0.948540  0.351400  0.706070  1.0  0.0574
  C  C165  1  0.876900  0.388800  0.679960  1.0  -0.1256
  C  C166  1  0.836900  0.442500  0.723800  1.0  -0.1012
  C  C167  1  0.866100  0.458800  0.795330  1.0  -0.0613
  C  C168  1  0.108070  0.243500  0.617230  1.0  0.1757
  C  C169  1  0.070960  0.299500  0.661640  1.0  -0.1941
  C  C170  1  0.991370  0.293700  0.659370  1.0  0.1163
  C  C171  1  0.953300  0.230700  0.610270  1.0  -0.2178
  C  C172  1  0.994600  0.176000  0.568740  1.0  0.1679
  C  C173  1  0.707870  0.561700  0.888260  1.0  0.6898
  C  C174  1  0.677280  0.569900  0.808890  1.0  -0.1264
  C  C175  1  0.716940  0.621900  0.763100  1.0  -0.0869
  C  C176  1  0.688540  0.632100  0.689980  1.0  0.0372
  C  C177  1  0.619600  0.587600  0.663840  1.0  -0.1043
  C  C178  1  0.581000  0.534200  0.709100  1.0  -0.1043
  C  C179  1  0.608940  0.525500  0.781940  1.0  -0.0352
  C  C180  1  0.846710  0.751000  0.604510  1.0  0.1641
  C  C181  1  0.810900  0.693100  0.648970  1.0  -0.2017
  C  C182  1  0.730920  0.689500  0.642200  1.0  0.1049
  C  C183  1  0.692020  0.745800  0.588870  1.0  -0.2126
  C  C184  1  0.731900  0.803100  0.547330  1.0  0.1829
  C  C185  1  0.222110  0.566700  0.901980  1.0  0.6764
  C  C186  1  0.188000  0.583800  0.824100  1.0  -0.1543
  C  C187  1  0.228190  0.634900  0.778660  1.0  -0.0811
  C  C188  1  0.197200  0.652500  0.707330  1.0  0.0619
  C  C189  1  0.124200  0.617700  0.683400  1.0  -0.1055
  C  C190  1  0.084600  0.565200  0.728100  1.0  -0.1023
  C  C191  1  0.116100  0.547300  0.798680  1.0  -0.048
  C  C192  1  0.357400  0.749500  0.612580  1.0  0.177
  C  C193  1  0.319400  0.695200  0.658130  1.0  -0.2014
  C  C194  1  0.240590  0.707200  0.658980  1.0  0.1198
  C  C195  1  0.204400  0.772600  0.610860  1.0  -0.2142
  C  C196  1  0.246680  0.824600  0.568220  1.0  0.1747
  C  C197  1  0.546080  0.922000  0.603990  1.0  0.6569
  C  C198  1  0.584950  0.896700  0.678730  1.0  -0.1203
  C  C199  1  0.545250  0.846900  0.726090  1.0  -0.093
  C  C200  1  0.580730  0.822000  0.794610  1.0  0.0371
  C  C201  1  0.656600  0.850000  0.815760  1.0  -0.095
  C  C202  1  0.696400  0.899500  0.769100  1.0  -0.0816
  C  C203  1  0.660970  0.922500  0.700460  1.0  -0.0564
  C  C204  1  0.443100  0.651100  0.863140  1.0  0.1727
  C  C205  1  0.483100  0.700300  0.816730  1.0  -0.2156
  C  C206  1  0.537790  0.767100  0.843550  1.0  0.1087
  C  C207  1  0.550500  0.776100  0.917460  1.0  -0.2231
  C  C208  1  0.507800  0.723600  0.960110  1.0  0.1767
  C  C209  1  0.032230  0.934000  0.598920  1.0  0.6608
  C  C210  1  0.063040  0.921000  0.677690  1.0  -0.1171
  C  C211  1  0.022070  0.869100  0.722440  1.0  -0.0652
  C  C212  1  0.051460  0.851400  0.793930  1.0  0.0579
  C  C213  1  0.123100  0.888800  0.820040  1.0  -0.1268
  C  C214  1  0.163100  0.942500  0.776200  1.0  -0.1002
  C  C215  1  0.133900  0.958800  0.704670  1.0  -0.0612
  C  C216  1  0.891930  0.743500  0.882770  1.0  0.1741
  C  C217  1  0.929040  0.799500  0.838360  1.0  -0.1961
  C  C218  1  0.008630  0.793700  0.840630  1.0  0.1175
  C  C219  1  0.046700  0.730700  0.889730  1.0  -0.2179
  C  C220  1  0.005400  0.676000  0.931260  1.0  0.1687
  C  C221  1  0.292130  0.061700  0.611740  1.0  0.6902
  C  C222  1  0.322720  0.069900  0.691110  1.0  -0.1268
  C  C223  1  0.283060  0.121900  0.736900  1.0  -0.0872
  C  C224  1  0.311460  0.132100  0.810020  1.0  0.0359
  C  C225  1  0.380400  0.087600  0.836160  1.0  -0.1063
  C  C226  1  0.419000  0.034200  0.790900  1.0  -0.1023
  C  C227  1  0.391060  0.025500  0.718060  1.0  -0.0346
  C  C228  1  0.153290  0.251000  0.895490  1.0  0.1626
  C  C229  1  0.189100  0.193100  0.851030  1.0  -0.2024
  C  C230  1  0.269080  0.189500  0.857800  1.0  0.1036
  C  C231  1  0.307980  0.245800  0.911130  1.0  -0.2123
  C  C232  1  0.268100  0.303100  0.952670  1.0  0.1829
  C  C233  1  0.222110  0.933300  0.401980  1.0  0.6763
  C  C234  1  0.188000  0.916200  0.324100  1.0  -0.1541
  C  C235  1  0.228190  0.865100  0.278660  1.0  -0.0797
  C  C236  1  0.197200  0.847500  0.207330  1.0  0.0618
  C  C237  1  0.124200  0.882300  0.183400  1.0  -0.1052
  C  C238  1  0.084600  0.934800  0.228100  1.0  -0.1022
  C  C239  1  0.116100  0.952700  0.298680  1.0  -0.0479
  C  C240  1  0.357400  0.750500  0.112580  1.0  0.1773
  C  C241  1  0.319400  0.804800  0.158130  1.0  -0.2016
  C  C242  1  0.240590  0.792800  0.158980  1.0  0.1194
  C  C243  1  0.204400  0.727400  0.110860  1.0  -0.2138
  C  C244  1  0.246680  0.675400  0.068220  1.0  0.1739
  C  C245  1  0.546080  0.578000  0.103990  1.0  0.6569
  C  C246  1  0.584950  0.603300  0.178730  1.0  -0.1207
  C  C247  1  0.545250  0.653100  0.226090  1.0  -0.0936
  C  C248  1  0.580730  0.678000  0.294610  1.0  0.0365
  C  C249  1  0.656600  0.650000  0.315760  1.0  -0.0954
  C  C250  1  0.696400  0.600500  0.269100  1.0  -0.0816
  C  C251  1  0.660970  0.577500  0.200460  1.0  -0.0564
  C  C252  1  0.443100  0.848900  0.363140  1.0  0.1728
  C  C253  1  0.483100  0.799700  0.316730  1.0  -0.216
  C  C254  1  0.537790  0.732900  0.343550  1.0  0.1087
  C  C255  1  0.550500  0.723900  0.417460  1.0  -0.2233
  C  C256  1  0.507800  0.776400  0.460110  1.0  0.1757
  C  C257  1  0.032230  0.566000  0.098920  1.0  0.6551
  C  C258  1  0.063040  0.579000  0.177690  1.0  -0.1172
  C  C259  1  0.022070  0.630900  0.222440  1.0  -0.0658
  C  C260  1  0.051460  0.648600  0.293930  1.0  0.0581
  C  C261  1  0.123100  0.611200  0.320040  1.0  -0.1265
  C  C262  1  0.163100  0.557500  0.276200  1.0  -0.0999
  C  C263  1  0.133900  0.541200  0.204670  1.0  -0.0615
  C  C264  1  0.891930  0.756500  0.382770  1.0  0.174
  C  C265  1  0.929040  0.700500  0.338360  1.0  -0.1966
  C  C266  1  0.008630  0.706300  0.340630  1.0  0.1173
  C  C267  1  0.046700  0.769300  0.389730  1.0  -0.2177
  C  C268  1  0.005400  0.824000  0.431260  1.0  0.1686
  C  C269  1  0.292130  0.438300  0.111740  1.0  0.6817
  C  C270  1  0.322720  0.430100  0.191110  1.0  -0.1266
  C  C271  1  0.283060  0.378100  0.236900  1.0  -0.0876
  C  C272  1  0.311460  0.367900  0.310020  1.0  0.036
  C  C273  1  0.380400  0.412400  0.336160  1.0  -0.1054
  C  C274  1  0.419000  0.465800  0.290900  1.0  -0.1019
  C  C275  1  0.391060  0.474500  0.218060  1.0  -0.0337
  C  C276  1  0.153290  0.249000  0.395490  1.0  0.1626
  C  C277  1  0.189100  0.306900  0.351030  1.0  -0.202
  C  C278  1  0.269080  0.310500  0.357800  1.0  0.1034
  C  C279  1  0.307980  0.254200  0.411130  1.0  -0.2126
  C  C280  1  0.268100  0.196900  0.452670  1.0  0.1825
  C  C281  1  0.777890  0.433300  0.098020  1.0  0.6754
  C  C282  1  0.812000  0.416200  0.175900  1.0  -0.1555
  C  C283  1  0.771810  0.365100  0.221340  1.0  -0.0784
  C  C284  1  0.802800  0.347500  0.292670  1.0  0.0626
  C  C285  1  0.875800  0.382300  0.316600  1.0  -0.1085
  C  C286  1  0.915400  0.434800  0.271900  1.0  -0.1033
  C  C287  1  0.883900  0.452700  0.201320  1.0  -0.0475
  C  C288  1  0.642600  0.250500  0.387420  1.0  0.1757
  C  C289  1  0.680600  0.304800  0.341870  1.0  -0.2021
  C  C290  1  0.759410  0.292800  0.341020  1.0  0.1195
  C  C291  1  0.795600  0.227400  0.389140  1.0  -0.2156
  C  C292  1  0.753320  0.175400  0.431780  1.0  0.1732
  C  C293  1  0.453920  0.078000  0.396010  1.0  0.6579
  C  C294  1  0.415050  0.103300  0.321270  1.0  -0.1208
  C  C295  1  0.454750  0.153100  0.273910  1.0  -0.0941
  C  C296  1  0.419270  0.178000  0.205390  1.0  0.0357
  C  C297  1  0.343400  0.150000  0.184240  1.0  -0.0939
  C  C298  1  0.303600  0.100500  0.230900  1.0  -0.0834
  C  C299  1  0.339030  0.077500  0.299540  1.0  -0.0573
  C  C300  1  0.556900  0.348900  0.136860  1.0  0.1716
  C  C301  1  0.516900  0.299700  0.183270  1.0  -0.2161
  C  C302  1  0.462210  0.232900  0.156450  1.0  0.1085
  C  C303  1  0.449500  0.223900  0.082540  1.0  -0.2218
  C  C304  1  0.492200  0.276400  0.039890  1.0  0.1758
  C  C305  1  0.967770  0.066000  0.401080  1.0  0.6551
  C  C306  1  0.936960  0.079000  0.322310  1.0  -0.1167
  C  C307  1  0.977930  0.130900  0.277560  1.0  -0.0667
  C  C308  1  0.948540  0.148600  0.206070  1.0  0.0579
  C  C309  1  0.876900  0.111200  0.179960  1.0  -0.1252
  C  C310  1  0.836900  0.057500  0.223800  1.0  -0.1009
  C  C311  1  0.866100  0.041200  0.295330  1.0  -0.0616
  C  C312  1  0.108070  0.256500  0.117230  1.0  0.1744
  C  C313  1  0.070960  0.200500  0.161640  1.0  -0.1949
  C  C314  1  0.991370  0.206300  0.159370  1.0  0.1158
  C  C315  1  0.953300  0.269300  0.110270  1.0  -0.2182
  C  C316  1  0.994600  0.324000  0.068740  1.0  0.1676
  C  C317  1  0.707870  0.938300  0.388260  1.0  0.6811
  C  C318  1  0.677280  0.930100  0.308890  1.0  -0.1268
  C  C319  1  0.716940  0.878100  0.263100  1.0  -0.0874
  C  C320  1  0.688540  0.867900  0.189980  1.0  0.0366
  C  C321  1  0.619600  0.912400  0.163840  1.0  -0.104
  C  C322  1  0.581000  0.965800  0.209100  1.0  -0.1035
  C  C323  1  0.608940  0.974500  0.281940  1.0  -0.0352
  C  C324  1  0.846710  0.749000  0.104510  1.0  0.1657
  C  C325  1  0.810900  0.806900  0.148970  1.0  -0.201
  C  C326  1  0.730920  0.810500  0.142200  1.0  0.105
  C  C327  1  0.692020  0.754200  0.088870  1.0  -0.2122
  C  C328  1  0.731900  0.696900  0.047330  1.0  0.1826
  N  N329  1  0.677340  0.314500  0.931750  1.0  -0.3648
  N  N330  1  0.546670  0.163100  0.565340  1.0  -0.366
  N  N331  1  0.071560  0.181860  0.570690  1.0  -0.3473
  N  N332  1  0.808930  0.807210  0.554580  1.0  -0.3513
  N  N333  1  0.322660  0.814500  0.568250  1.0  -0.3655
  N  N334  1  0.453330  0.663100  0.934660  1.0  -0.3661
  N  N335  1  0.928440  0.681860  0.929310  1.0  -0.3464
  N  N336  1  0.191070  0.307210  0.945420  1.0  -0.3532
  N  N337  1  0.322660  0.685500  0.068250  1.0  -0.3659
  N  N338  1  0.453330  0.836900  0.434660  1.0  -0.3672
  N  N339  1  0.928440  0.818140  0.429310  1.0  -0.3474
  N  N340  1  0.191070  0.192790  0.445420  1.0  -0.3527
  N  N341  1  0.677340  0.185500  0.431750  1.0  -0.364
  N  N342  1  0.546670  0.336900  0.065340  1.0  -0.3658
  N  N343  1  0.071560  0.318140  0.070690  1.0  -0.3464
  N  N344  1  0.808930  0.692790  0.054580  1.0  -0.3526
  O  O345  1  0.819020  0.025260  0.558420  1.0  -0.6156
  O  O346  1  0.711680  0.097450  0.579630  1.0  -0.6088
  O  O347  1  0.413210  0.456870  0.939290  1.0  -0.6514
  O  O348  1  0.524150  0.403720  0.908990  1.0  -0.5968
  O  O349  1  0.923600  0.467870  0.941360  1.0  -0.605
  O  O350  1  0.035290  0.406540  0.920030  1.0  -0.6151
  O  O351  1  0.664410  0.528390  0.929570  1.0  -0.6335
  O  O352  1  0.775150  0.590360  0.907100  1.0  -0.5988
  O  O353  1  0.180980  0.525260  0.941580  1.0  -0.6143
  O  O354  1  0.288320  0.597450  0.920370  1.0  -0.6085
  O  O355  1  0.586790  0.956870  0.560710  1.0  -0.6524
  O  O356  1  0.475850  0.903720  0.591010  1.0  -0.5982
  O  O357  1  0.076400  0.967870  0.558640  1.0  -0.6048
  O  O358  1  0.964710  0.906540  0.579970  1.0  -0.6156
  O  O359  1  0.335590  0.028390  0.570430  1.0  -0.6338
  O  O360  1  0.224850  0.090360  0.592900  1.0  -0.5985
  O  O361  1  0.180980  0.974740  0.441580  1.0  -0.6145
  O  O362  1  0.288320  0.902550  0.420370  1.0  -0.6092
  O  O363  1  0.586790  0.543130  0.060710  1.0  -0.6531
  O  O364  1  0.475850  0.596280  0.091010  1.0  -0.5977
  O  O365  1  0.076400  0.532130  0.058640  1.0  -0.6048
  O  O366  1  0.964710  0.593460  0.079970  1.0  -0.6156
  O  O367  1  0.335590  0.471610  0.070430  1.0  -0.6337
  O  O368  1  0.224850  0.409640  0.092900  1.0  -0.5981
  O  O369  1  0.819020  0.474740  0.058420  1.0  -0.6154
  O  O370  1  0.711680  0.402550  0.079630  1.0  -0.6098
  O  O371  1  0.413210  0.043130  0.439290  1.0  -0.652
  O  O372  1  0.524150  0.096280  0.408990  1.0  -0.5965
  O  O373  1  0.923600  0.032130  0.441360  1.0  -0.6046
  O  O374  1  0.035290  0.093460  0.420030  1.0  -0.6153
  O  O375  1  0.664410  0.971610  0.429570  1.0  -0.6335
  O  O376  1  0.775150  0.909640  0.407100  1.0  -0.5977
