# generated using pymatgen
data_Cd5H58C74(N2O11)2
_symmetry_space_group_name_H-M   'P 1'
_cell_length_a   9.94900000
_cell_length_b   16.15000000
_cell_length_c   24.55000000
_cell_angle_alpha   90.00000000
_cell_angle_beta   95.83000000
_cell_angle_gamma   90.00000000
_symmetry_Int_Tables_number   1
_chemical_formula_structural   Cd5H58C74(N2O11)2
_chemical_formula_sum   'Cd10 H116 C148 N8 O44'
_cell_volume   3924.20155545
_cell_formula_units_Z   2
loop_
 _symmetry_equiv_pos_site_id
 _symmetry_equiv_pos_as_xyz
  1  'x, y, z'
loop_
 _atom_site_type_symbol
 _atom_site_label
 _atom_site_symmetry_multiplicity
 _atom_site_fract_x
 _atom_site_fract_y
 _atom_site_fract_z
 _atom_site_occupancy
 _atom_site_charge
  Cd  Cd1  1  0.160540  0.586570  0.536580  1.0  1.1733
  Cd  Cd2  1  0.248600  0.855480  0.984220  1.0  1.0866
  Cd  Cd3  1  0.339460  0.086570  0.963420  1.0  1.171
  Cd  Cd4  1  0.251400  0.355480  0.515780  1.0  1.085
  Cd  Cd5  1  0.839460  0.413430  0.463420  1.0  1.172
  Cd  Cd6  1  0.751400  0.144520  0.015780  1.0  1.0857
  Cd  Cd7  1  0.660540  0.913430  0.036580  1.0  1.1742
  Cd  Cd8  1  0.748600  0.644520  0.484220  1.0  1.0854
  Cd  Cd9  1  0.000000  0.000000  0.000000  1.0  1.1342
  Cd  Cd10  1  0.500000  0.500000  0.500000  1.0  1.1342
  H  H11  1  0.273300  0.628700  0.393800  1.0  0.4017
  H  H12  1  0.262400  0.779200  0.119100  1.0  0.386
  H  H13  1  0.862500  0.538900  0.343300  1.0  0.0987
  H  H14  1  0.713200  0.539700  0.255900  1.0  0.1077
  H  H15  1  0.678700  0.577100  0.165700  1.0  0.1083
  H  H16  1  0.853100  0.641000  0.124300  1.0  0.0969
  H  H17  1  0.050800  0.677000  0.172300  1.0  0.0993
  H  H18  1  0.324700  0.704800  0.282300  1.0  0.0957
  H  H19  1  0.274700  0.673700  0.223400  1.0  0.1012
  H  H20  1  0.104600  0.003900  0.190300  1.0  0.1049
  H  H21  1  0.079600  0.047600  0.286400  1.0  0.1152
  H  H22  1  0.103200  0.016300  0.377700  1.0  0.1028
  H  H23  1  0.174500  0.883300  0.407700  1.0  0.0998
  H  H24  1  0.225100  0.787000  0.348500  1.0  0.0895
  H  H25  1  0.985300  0.629100  0.637500  1.0  0.0639
  H  H26  1  0.995300  0.673000  0.726500  1.0  0.1234
  H  H27  1  0.400900  0.677000  0.727500  1.0  0.1069
  H  H28  1  0.376600  0.634300  0.638200  1.0  0.0752
  H  H29  1  0.033100  0.777100  0.788900  1.0  0.1116
  H  H30  1  0.056800  0.836900  0.874100  1.0  0.0749
  H  H31  1  0.409000  0.735800  0.906000  1.0  0.0701
  H  H32  1  0.398000  0.675200  0.821600  1.0  0.121
  H  H33  1  0.890400  0.681000  0.987900  1.0  0.1499
  H  H34  1  0.030400  0.710300  0.970900  1.0  0.1482
  H  H35  1  0.014000  0.690700  0.032400  1.0  0.1582
  H  H36  1  0.063700  0.853600  0.534700  1.0  0.1554
  H  H37  1  0.142100  0.775500  0.558900  1.0  0.1425
  H  H38  1  0.037300  0.819800  0.592500  1.0  0.1516
  H  H39  1  0.859900  0.023600  0.071300  1.0  0.4221
  H  H40  1  0.226700  0.128700  0.106200  1.0  0.4003
  H  H41  1  0.237600  0.279200  0.380900  1.0  0.3876
  H  H42  1  0.637500  0.038900  0.156700  1.0  0.0986
  H  H43  1  0.786800  0.039700  0.244100  1.0  0.1083
  H  H44  1  0.821300  0.077100  0.334300  1.0  0.1098
  H  H45  1  0.646900  0.141000  0.375700  1.0  0.0969
  H  H46  1  0.449200  0.177000  0.327700  1.0  0.0992
  H  H47  1  0.175300  0.204800  0.217700  1.0  0.0969
  H  H48  1  0.225300  0.173700  0.276600  1.0  0.1016
  H  H49  1  0.395400  0.503900  0.309700  1.0  0.103
  H  H50  1  0.420400  0.547600  0.213600  1.0  0.1151
  H  H51  1  0.396800  0.516300  0.122300  1.0  0.1023
  H  H52  1  0.325500  0.383300  0.092300  1.0  0.0998
  H  H53  1  0.274900  0.287000  0.151500  1.0  0.0896
  H  H54  1  0.514700  0.129100  0.862500  1.0  0.0646
  H  H55  1  0.504700  0.173000  0.773500  1.0  0.1234
  H  H56  1  0.099100  0.177000  0.772500  1.0  0.1067
  H  H57  1  0.123400  0.134300  0.861800  1.0  0.0755
  H  H58  1  0.466900  0.277100  0.711100  1.0  0.1119
  H  H59  1  0.443200  0.336900  0.625900  1.0  0.0746
  H  H60  1  0.091000  0.235800  0.594000  1.0  0.07
  H  H61  1  0.102000  0.175200  0.678400  1.0  0.1208
  H  H62  1  0.609600  0.181000  0.512100  1.0  0.1512
  H  H63  1  0.469600  0.210300  0.529100  1.0  0.148
  H  H64  1  0.486000  0.190700  0.467600  1.0  0.1581
  H  H65  1  0.436300  0.353600  0.965300  1.0  0.1547
  H  H66  1  0.357900  0.275500  0.941100  1.0  0.1419
  H  H67  1  0.462700  0.319800  0.907500  1.0  0.152
  H  H68  1  0.640100  0.523600  0.428700  1.0  0.4222
  H  H69  1  0.726700  0.371300  0.606200  1.0  0.4002
  H  H70  1  0.737600  0.220800  0.880900  1.0  0.3869
  H  H71  1  0.137500  0.461100  0.656700  1.0  0.099
  H  H72  1  0.286800  0.460300  0.744100  1.0  0.1082
  H  H73  1  0.321300  0.422900  0.834300  1.0  0.1095
  H  H74  1  0.146900  0.359000  0.875700  1.0  0.0965
  H  H75  1  0.949200  0.323000  0.827700  1.0  0.099
  H  H76  1  0.675300  0.295200  0.717700  1.0  0.097
  H  H77  1  0.725300  0.326300  0.776600  1.0  0.1011
  H  H78  1  0.895400  0.996100  0.809700  1.0  0.1047
  H  H79  1  0.920400  0.952400  0.713600  1.0  0.1149
  H  H80  1  0.896800  0.983700  0.622300  1.0  0.1024
  H  H81  1  0.825500  0.116700  0.592300  1.0  0.1003
  H  H82  1  0.774900  0.213000  0.651500  1.0  0.0893
  H  H83  1  0.014700  0.370900  0.362500  1.0  0.0645
  H  H84  1  0.004700  0.327000  0.273500  1.0  0.1231
  H  H85  1  0.599100  0.323000  0.272500  1.0  0.1069
  H  H86  1  0.623400  0.365700  0.361800  1.0  0.0755
  H  H87  1  0.966900  0.222900  0.211100  1.0  0.1121
  H  H88  1  0.943200  0.163100  0.125900  1.0  0.0746
  H  H89  1  0.591000  0.264200  0.094000  1.0  0.0702
  H  H90  1  0.602000  0.324800  0.178400  1.0  0.1212
  H  H91  1  0.109600  0.319000  0.012100  1.0  0.1512
  H  H92  1  0.969600  0.289700  0.029100  1.0  0.148
  H  H93  1  0.986000  0.309300  0.967600  1.0  0.1576
  H  H94  1  0.936300  0.146400  0.465300  1.0  0.1554
  H  H95  1  0.857900  0.224500  0.441100  1.0  0.1418
  H  H96  1  0.962700  0.180200  0.407500  1.0  0.1523
  H  H97  1  0.140100  0.976400  0.928700  1.0  0.422
  H  H98  1  0.773300  0.871300  0.893800  1.0  0.4019
  H  H99  1  0.762400  0.720800  0.619100  1.0  0.3859
  H  H100  1  0.362500  0.961100  0.843300  1.0  0.0987
  H  H101  1  0.213200  0.960300  0.755900  1.0  0.1076
  H  H102  1  0.178700  0.922900  0.665700  1.0  0.1086
  H  H103  1  0.353100  0.859000  0.624300  1.0  0.0965
  H  H104  1  0.550800  0.823000  0.672300  1.0  0.0995
  H  H105  1  0.824700  0.795200  0.782300  1.0  0.0956
  H  H106  1  0.774700  0.826300  0.723400  1.0  0.1012
  H  H107  1  0.604600  0.496100  0.690300  1.0  0.1028
  H  H108  1  0.579600  0.452400  0.786400  1.0  0.1152
  H  H109  1  0.603200  0.483700  0.877700  1.0  0.1031
  H  H110  1  0.674500  0.616700  0.907700  1.0  0.1001
  H  H111  1  0.725100  0.713000  0.848500  1.0  0.0895
  H  H112  1  0.485300  0.870900  0.137500  1.0  0.0642
  H  H113  1  0.495300  0.827000  0.226500  1.0  0.1233
  H  H114  1  0.900900  0.823000  0.227500  1.0  0.1068
  H  H115  1  0.876600  0.865700  0.138200  1.0  0.0754
  H  H116  1  0.533100  0.722900  0.288900  1.0  0.1117
  H  H117  1  0.556800  0.663100  0.374100  1.0  0.0745
  H  H118  1  0.909000  0.764200  0.406000  1.0  0.0699
  H  H119  1  0.898000  0.824800  0.321600  1.0  0.1209
  H  H120  1  0.390400  0.819000  0.487900  1.0  0.1501
  H  H121  1  0.530400  0.789700  0.470900  1.0  0.1478
  H  H122  1  0.514000  0.809300  0.532400  1.0  0.1577
  H  H123  1  0.563700  0.646400  0.034700  1.0  0.1551
  H  H124  1  0.642100  0.724500  0.058900  1.0  0.1427
  H  H125  1  0.537300  0.680200  0.092500  1.0  0.1514
  H  H126  1  0.359900  0.476400  0.571300  1.0  0.4219
  C  C127  1  0.068100  0.561610  0.418130  1.0  0.7094
  C  C128  1  0.050480  0.583350  0.358060  1.0  -0.2783
  C  C129  1  0.930320  0.566090  0.326930  1.0  -0.0379
  C  C130  1  0.906820  0.588090  0.271600  1.0  0.004
  C  C131  1  0.780500  0.567470  0.239600  1.0  -0.1087
  C  C132  1  0.760600  0.588600  0.186120  1.0  -0.1138
  C  C133  1  0.866200  0.628680  0.161430  1.0  -0.073
  C  C134  1  0.985400  0.649660  0.189960  1.0  -0.1335
  C  C135  1  0.011500  0.629980  0.247220  1.0  0.0463
  C  C136  1  0.135050  0.652180  0.278340  1.0  -0.1134
  C  C137  1  0.154350  0.625930  0.332840  1.0  0.2905
  C  C138  1  0.247150  0.702910  0.254930  1.0  -0.0963
  C  C139  1  0.210730  0.790290  0.237960  1.0  -0.1083
  C  C140  1  0.210600  0.814060  0.184010  1.0  0.2917
  C  C141  1  0.168670  0.893660  0.165340  1.0  -0.2583
  C  C142  1  0.133920  0.951860  0.202580  1.0  -0.0437
  C  C143  1  0.142210  0.933490  0.259080  1.0  -0.0027
  C  C144  1  0.109400  0.995390  0.298250  1.0  -0.109
  C  C145  1  0.122600  0.976540  0.352280  1.0  -0.1097
  C  C146  1  0.166300  0.895620  0.370460  1.0  -0.0726
  C  C147  1  0.195190  0.838390  0.335060  1.0  -0.1133
  C  C148  1  0.182750  0.851350  0.277340  1.0  0.0327
  C  C149  1  0.157570  0.917500  0.105480  1.0  0.6953
  C  C150  1  0.069830  0.639140  0.656140  1.0  0.181
  C  C151  1  0.074370  0.666090  0.709790  1.0  -0.1941
  C  C152  1  0.200550  0.682840  0.738390  1.0  0.0872
  C  C153  1  0.314760  0.668440  0.709930  1.0  -0.1844
  C  C154  1  0.299670  0.641810  0.656190  1.0  0.1954
  C  C155  1  0.212020  0.719610  0.794470  1.0  0.1029
  C  C156  1  0.111800  0.768000  0.812020  1.0  -0.1799
  C  C157  1  0.125900  0.803500  0.863630  1.0  0.1821
  C  C158  1  0.332050  0.744330  0.881810  1.0  0.1877
  C  C159  1  0.326670  0.707500  0.831180  1.0  -0.1902
  C  C160  1  0.931600  0.800460  0.007570  1.0  0.8011
  C  C161  1  0.970000  0.712870  0.998900  1.0  -0.5295
  C  C162  1  0.947130  0.749540  0.530190  1.0  0.7514
  C  C163  1  0.057600  0.804620  0.556450  1.0  -0.5149
  C  C164  1  0.431900  0.061610  0.081870  1.0  0.7092
  C  C165  1  0.449520  0.083350  0.141940  1.0  -0.2775
  C  C166  1  0.569680  0.066090  0.173070  1.0  -0.038
  C  C167  1  0.593180  0.088090  0.228400  1.0  0.0024
  C  C168  1  0.719500  0.067470  0.260400  1.0  -0.1076
  C  C169  1  0.739400  0.088600  0.313880  1.0  -0.1143
  C  C170  1  0.633800  0.128680  0.338570  1.0  -0.074
  C  C171  1  0.514600  0.149660  0.310040  1.0  -0.131
  C  C172  1  0.488500  0.129980  0.252780  1.0  0.0467
  C  C173  1  0.364950  0.152180  0.221660  1.0  -0.112
  C  C174  1  0.345650  0.125930  0.167160  1.0  0.2906
  C  C175  1  0.252850  0.202910  0.245070  1.0  -0.0952
  C  C176  1  0.289270  0.290290  0.262040  1.0  -0.1075
  C  C177  1  0.289400  0.314060  0.315990  1.0  0.2928
  C  C178  1  0.331330  0.393660  0.334660  1.0  -0.2588
  C  C179  1  0.366080  0.451860  0.297420  1.0  -0.0441
  C  C180  1  0.357790  0.433490  0.240920  1.0  -0.0035
  C  C181  1  0.390600  0.495390  0.201750  1.0  -0.1103
  C  C182  1  0.377400  0.476540  0.147720  1.0  -0.1099
  C  C183  1  0.333700  0.395620  0.129540  1.0  -0.074
  C  C184  1  0.304810  0.338390  0.164940  1.0  -0.1138
  C  C185  1  0.317250  0.351350  0.222660  1.0  0.0322
  C  C186  1  0.342430  0.417500  0.394520  1.0  0.6961
  C  C187  1  0.430170  0.139140  0.843860  1.0  0.18
  C  C188  1  0.425630  0.166090  0.790210  1.0  -0.1938
  C  C189  1  0.299450  0.182840  0.761610  1.0  0.0861
  C  C190  1  0.185240  0.168440  0.790070  1.0  -0.1835
  C  C191  1  0.200330  0.141810  0.843810  1.0  0.1957
  C  C192  1  0.287980  0.219610  0.705530  1.0  0.1016
  C  C193  1  0.388200  0.268000  0.687980  1.0  -0.1818
  C  C194  1  0.374100  0.303500  0.636370  1.0  0.1826
  C  C195  1  0.167950  0.244330  0.618190  1.0  0.1878
  C  C196  1  0.173330  0.207500  0.668820  1.0  -0.1893
  C  C197  1  0.568400  0.300460  0.492430  1.0  0.8011
  C  C198  1  0.530000  0.212870  0.501100  1.0  -0.5301
  C  C199  1  0.552870  0.249540  0.969810  1.0  0.7519
  C  C200  1  0.442400  0.304620  0.943550  1.0  -0.5156
  C  C201  1  0.931900  0.438390  0.581870  1.0  0.7095
  C  C202  1  0.949520  0.416650  0.641940  1.0  -0.2776
  C  C203  1  0.069680  0.433910  0.673070  1.0  -0.0379
  C  C204  1  0.093180  0.411910  0.728400  1.0  0.0028
  C  C205  1  0.219500  0.432530  0.760400  1.0  -0.1075
  C  C206  1  0.239400  0.411400  0.813880  1.0  -0.1142
  C  C207  1  0.133800  0.371320  0.838570  1.0  -0.0724
  C  C208  1  0.014600  0.350340  0.810040  1.0  -0.1331
  C  C209  1  0.988500  0.370020  0.752780  1.0  0.0468
  C  C210  1  0.864950  0.347820  0.721660  1.0  -0.1097
  C  C211  1  0.845650  0.374070  0.667160  1.0  0.2902
  C  C212  1  0.752850  0.297090  0.745070  1.0  -0.0959
  C  C213  1  0.789270  0.209710  0.762040  1.0  -0.1091
  C  C214  1  0.789400  0.185940  0.815990  1.0  0.2926
  C  C215  1  0.831330  0.106340  0.834660  1.0  -0.2591
  C  C216  1  0.866080  0.048140  0.797420  1.0  -0.0438
  C  C217  1  0.857790  0.066510  0.740920  1.0  -0.0035
  C  C218  1  0.890600  0.004610  0.701750  1.0  -0.11
  C  C219  1  0.877400  0.023460  0.647720  1.0  -0.1088
  C  C220  1  0.833700  0.104380  0.629540  1.0  -0.0744
  C  C221  1  0.804810  0.161610  0.664940  1.0  -0.1148
  C  C222  1  0.817250  0.148650  0.722660  1.0  0.0315
  C  C223  1  0.842430  0.082500  0.894520  1.0  0.6961
  C  C224  1  0.930170  0.360860  0.343860  1.0  0.1801
  C  C225  1  0.925630  0.333910  0.290210  1.0  -0.1939
  C  C226  1  0.799450  0.317160  0.261610  1.0  0.0859
  C  C227  1  0.685240  0.331560  0.290070  1.0  -0.1831
  C  C228  1  0.700330  0.358190  0.343810  1.0  0.1954
  C  C229  1  0.787980  0.280390  0.205530  1.0  0.1021
  C  C230  1  0.888200  0.232000  0.187980  1.0  -0.1813
  C  C231  1  0.874100  0.196500  0.136370  1.0  0.1827
  C  C232  1  0.667950  0.255670  0.118190  1.0  0.1878
  C  C233  1  0.673330  0.292500  0.168820  1.0  -0.1919
  C  C234  1  0.068400  0.199540  0.992430  1.0  0.799
  C  C235  1  0.030000  0.287130  0.001100  1.0  -0.5306
  C  C236  1  0.052870  0.250460  0.469810  1.0  0.7531
  C  C237  1  0.942400  0.195380  0.443550  1.0  -0.5148
  C  C238  1  0.568100  0.938390  0.918130  1.0  0.7092
  C  C239  1  0.550480  0.916650  0.858060  1.0  -0.2784
  C  C240  1  0.430320  0.933910  0.826930  1.0  -0.038
  C  C241  1  0.406820  0.911910  0.771600  1.0  0.0048
  C  C242  1  0.280500  0.932530  0.739600  1.0  -0.1093
  C  C243  1  0.260600  0.911400  0.686120  1.0  -0.1134
  C  C244  1  0.366200  0.871320  0.661430  1.0  -0.072
  C  C245  1  0.485400  0.850340  0.689960  1.0  -0.1345
  C  C246  1  0.511500  0.870020  0.747220  1.0  0.0463
  C  C247  1  0.635050  0.847820  0.778340  1.0  -0.1111
  C  C248  1  0.654350  0.874070  0.832840  1.0  0.2902
  C  C249  1  0.747150  0.797090  0.754930  1.0  -0.0967
  C  C250  1  0.710730  0.709710  0.737960  1.0  -0.1097
  C  C251  1  0.710600  0.685940  0.684010  1.0  0.2916
  C  C252  1  0.668670  0.606340  0.665340  1.0  -0.2588
  C  C253  1  0.633920  0.548140  0.702580  1.0  -0.043
  C  C254  1  0.642210  0.566510  0.759080  1.0  -0.0028
  C  C255  1  0.609400  0.504610  0.798250  1.0  -0.1093
  C  C256  1  0.622600  0.523460  0.852280  1.0  -0.1093
  C  C257  1  0.666300  0.604380  0.870460  1.0  -0.0731
  C  C258  1  0.695190  0.661610  0.835060  1.0  -0.1136
  C  C259  1  0.682750  0.648650  0.777340  1.0  0.0323
  C  C260  1  0.657570  0.582500  0.605480  1.0  0.6952
  C  C261  1  0.569830  0.860860  0.156140  1.0  0.181
  C  C262  1  0.574370  0.833910  0.209790  1.0  -0.1945
  C  C263  1  0.700550  0.817160  0.238390  1.0  0.0869
  C  C264  1  0.814760  0.831560  0.209930  1.0  -0.1842
  C  C265  1  0.799670  0.858190  0.156190  1.0  0.1958
  C  C266  1  0.712020  0.780390  0.294470  1.0  0.1027
  C  C267  1  0.611800  0.732000  0.312020  1.0  -0.1797
  C  C268  1  0.625900  0.696500  0.363630  1.0  0.1821
  C  C269  1  0.832050  0.755670  0.381810  1.0  0.1872
  C  C270  1  0.826670  0.792500  0.331180  1.0  -0.1932
  C  C271  1  0.431600  0.699540  0.507570  1.0  0.7998
  C  C272  1  0.470000  0.787130  0.498900  1.0  -0.5298
  C  C273  1  0.447130  0.750460  0.030190  1.0  0.7519
  C  C274  1  0.557600  0.695380  0.056450  1.0  -0.514
  N  N275  1  0.178740  0.626450  0.628980  1.0  -0.374
  N  N276  1  0.233980  0.791490  0.898500  1.0  -0.3697
  N  N277  1  0.321260  0.126450  0.871020  1.0  -0.3722
  N  N278  1  0.266020  0.291490  0.601500  1.0  -0.3697
  N  N279  1  0.821260  0.373550  0.371020  1.0  -0.3724
  N  N280  1  0.766020  0.208510  0.101500  1.0  -0.3704
  N  N281  1  0.678740  0.873550  0.128980  1.0  -0.3727
  N  N282  1  0.733980  0.708510  0.398500  1.0  -0.3695
  O  O283  1  0.174620  0.587240  0.445890  1.0  -0.6183
  O  O284  1  0.975940  0.523460  0.438160  1.0  -0.6794
  O  O285  1  0.276120  0.642000  0.361680  1.0  -0.4959
  O  O286  1  0.083920  0.977050  0.089090  1.0  -0.6024
  O  O287  1  0.228590  0.872800  0.075650  1.0  -0.6367
  O  O288  1  0.247980  0.756310  0.147720  1.0  -0.5046
  O  O289  1  0.837730  0.818570  0.035170  1.0  -0.6612
  O  O290  1  0.002470  0.854160  0.984530  1.0  -0.706
  O  O291  1  0.975830  0.674370  0.518210  1.0  -0.6808
  O  O292  1  0.830150  0.776940  0.519400  1.0  -0.6148
  O  O293  1  0.810930  0.017120  0.043310  1.0  -0.9569
  O  O294  1  0.325380  0.087240  0.054110  1.0  -0.6192
  O  O295  1  0.524060  0.023460  0.061840  1.0  -0.6795
  O  O296  1  0.223880  0.142000  0.138320  1.0  -0.4962
  O  O297  1  0.416080  0.477050  0.410910  1.0  -0.6028
  O  O298  1  0.271410  0.372800  0.424350  1.0  -0.6367
  O  O299  1  0.252020  0.256310  0.352280  1.0  -0.5053
  O  O300  1  0.662270  0.318570  0.464830  1.0  -0.6616
  O  O301  1  0.497530  0.354160  0.515470  1.0  -0.7054
  O  O302  1  0.524170  0.174370  0.981790  1.0  -0.6808
  O  O303  1  0.669850  0.276940  0.980600  1.0  -0.6146
  O  O304  1  0.689070  0.517120  0.456690  1.0  -0.9549
  O  O305  1  0.825380  0.412760  0.554110  1.0  -0.6197
  O  O306  1  0.024060  0.476540  0.561840  1.0  -0.6787
  O  O307  1  0.723880  0.358000  0.638320  1.0  -0.496
  O  O308  1  0.916080  0.022950  0.910910  1.0  -0.6025
  O  O309  1  0.771410  0.127200  0.924350  1.0  -0.636
  O  O310  1  0.752020  0.243690  0.852280  1.0  -0.5042
  O  O311  1  0.162270  0.181430  0.964830  1.0  -0.6622
  O  O312  1  0.997530  0.145840  0.015470  1.0  -0.7051
  O  O313  1  0.024170  0.325630  0.481790  1.0  -0.6814
  O  O314  1  0.169850  0.223060  0.480600  1.0  -0.6142
  O  O315  1  0.189070  0.982880  0.956690  1.0  -0.9548
  O  O316  1  0.674620  0.912760  0.945890  1.0  -0.6183
  O  O317  1  0.475940  0.976540  0.938160  1.0  -0.679
  O  O318  1  0.776120  0.858000  0.861680  1.0  -0.4957
  O  O319  1  0.583920  0.522950  0.589090  1.0  -0.6026
  O  O320  1  0.728590  0.627200  0.575650  1.0  -0.6359
  O  O321  1  0.747980  0.743690  0.647720  1.0  -0.5039
  O  O322  1  0.337730  0.681430  0.535170  1.0  -0.6618
  O  O323  1  0.502470  0.645840  0.484530  1.0  -0.706
  O  O324  1  0.475830  0.825630  0.018210  1.0  -0.6806
  O  O325  1  0.330150  0.723060  0.019400  1.0  -0.6149
  O  O326  1  0.310930  0.482880  0.543310  1.0  -0.9567
