# generated using pymatgen
data_ZnHC5O4
_symmetry_space_group_name_H-M   'P 1'
_cell_length_a   6.92350000
_cell_length_b   7.42680000
_cell_length_c   8.25170000
_cell_angle_alpha   90.11800000
_cell_angle_beta   109.77400000
_cell_angle_gamma   93.32900000
_symmetry_Int_Tables_number   1
_chemical_formula_structural   ZnHC5O4
_chemical_formula_sum   'Zn2 H2 C10 O8'
_cell_volume   398.49872657
_cell_formula_units_Z   2
loop_
 _symmetry_equiv_pos_site_id
 _symmetry_equiv_pos_as_xyz
  1  'x, y, z'
loop_
 _atom_site_type_symbol
 _atom_site_label
 _atom_site_symmetry_multiplicity
 _atom_site_fract_x
 _atom_site_fract_y
 _atom_site_fract_z
 _atom_site_occupancy
 _atom_site_charge
  Zn  Zn1  1  0.500000  0.000000  0.500000  1.0  1.1457
  Zn  Zn2  1  0.000000  0.500000  0.500000  1.0  1.1542
  H  H3  1  0.570600  0.204500  0.963000  1.0  0.1078
  H  H4  1  0.429400  0.795500  0.037000  1.0  0.1073
  C  C5  1  0.542100  0.323000  0.978200  1.0  -0.0429
  C  C6  1  0.581300  0.391800  0.143800  1.0  -0.0975
  C  C7  1  0.540300  0.569900  0.167400  1.0  -0.1292
  C  C8  1  0.580900  0.662000  0.339700  1.0  0.7178
  C  C9  1  0.647400  0.260300  0.288100  1.0  0.7324
  C  C10  1  0.457900  0.677000  0.021800  1.0  -0.0437
  C  C11  1  0.418700  0.608200  0.856200  1.0  -0.0987
  C  C12  1  0.459700  0.430100  0.832600  1.0  -0.1314
  C  C13  1  0.419100  0.338000  0.660300  1.0  0.7183
  C  C14  1  0.352600  0.739700  0.711900  1.0  0.7313
  O  O15  1  0.510520  0.141520  0.288910  1.0  -0.5888
  O  O16  1  0.827630  0.270240  0.394310  1.0  -0.6147
  O  O17  1  0.447620  0.766010  0.350070  1.0  -0.6065
  O  O18  1  0.745380  0.638640  0.462170  1.0  -0.6266
  O  O19  1  0.489480  0.858480  0.711090  1.0  -0.5884
  O  O20  1  0.172370  0.729760  0.605690  1.0  -0.6157
  O  O21  1  0.552380  0.233990  0.649930  1.0  -0.6036
  O  O22  1  0.254620  0.361360  0.537830  1.0  -0.6272
