# generated using pymatgen
data_Cu3H18C21N12O
_symmetry_space_group_name_H-M   'P 1'
_cell_length_a   21.14600000
_cell_length_b   21.14600000
_cell_length_c   21.14600000
_cell_angle_alpha   90.00000000
_cell_angle_beta   90.00000000
_cell_angle_gamma   90.00000000
_symmetry_Int_Tables_number   1
_chemical_formula_structural   Cu3H18C21N12O
_chemical_formula_sum   'Cu24 H144 C168 N96 O8'
_cell_volume   9455.50402014
_cell_formula_units_Z   8
loop_
 _symmetry_equiv_pos_site_id
 _symmetry_equiv_pos_as_xyz
  1  'x, y, z'
loop_
 _atom_site_type_symbol
 _atom_site_label
 _atom_site_symmetry_multiplicity
 _atom_site_fract_x
 _atom_site_fract_y
 _atom_site_fract_z
 _atom_site_occupancy
 _atom_site_charge
  Cu  Cu1  1  0.674170  0.674170  0.787380  1.0  0.6292
  Cu  Cu2  1  0.174170  0.174170  0.287380  1.0  0.6292
  Cu  Cu3  1  0.325830  0.325830  0.787380  1.0  0.6272
  Cu  Cu4  1  0.825830  0.825830  0.287380  1.0  0.6272
  Cu  Cu5  1  0.325830  0.674170  0.212620  1.0  0.6252
  Cu  Cu6  1  0.825830  0.174170  0.712620  1.0  0.6252
  Cu  Cu7  1  0.674170  0.325830  0.212620  1.0  0.6274
  Cu  Cu8  1  0.174170  0.825830  0.712620  1.0  0.6274
  Cu  Cu9  1  0.787380  0.674170  0.674170  1.0  0.6275
  Cu  Cu10  1  0.287380  0.174170  0.174170  1.0  0.6275
  Cu  Cu11  1  0.787380  0.325830  0.325830  1.0  0.6273
  Cu  Cu12  1  0.287380  0.825830  0.825830  1.0  0.6273
  Cu  Cu13  1  0.212620  0.325830  0.674170  1.0  0.6277
  Cu  Cu14  1  0.712620  0.825830  0.174170  1.0  0.6277
  Cu  Cu15  1  0.212620  0.674170  0.325830  1.0  0.6276
  Cu  Cu16  1  0.712620  0.174170  0.825830  1.0  0.6276
  Cu  Cu17  1  0.674170  0.787380  0.674170  1.0  0.6288
  Cu  Cu18  1  0.174170  0.287380  0.174170  1.0  0.6288
  Cu  Cu19  1  0.325830  0.787380  0.325830  1.0  0.6261
  Cu  Cu20  1  0.825830  0.287380  0.825830  1.0  0.6261
  Cu  Cu21  1  0.674170  0.212620  0.325830  1.0  0.6248
  Cu  Cu22  1  0.174170  0.712620  0.825830  1.0  0.6248
  Cu  Cu23  1  0.325830  0.212620  0.674170  1.0  0.6229
  Cu  Cu24  1  0.825830  0.712620  0.174170  1.0  0.6229
  H  H25  1  0.733000  0.555800  0.864100  1.0  0.0553
  H  H26  1  0.233000  0.055800  0.364100  1.0  0.0553
  H  H27  1  0.267000  0.444200  0.864100  1.0  0.0551
  H  H28  1  0.767000  0.944200  0.364100  1.0  0.0551
  H  H29  1  0.267000  0.555800  0.135900  1.0  0.056
  H  H30  1  0.767000  0.055800  0.635900  1.0  0.056
  H  H31  1  0.733000  0.444200  0.135900  1.0  0.0558
  H  H32  1  0.233000  0.944200  0.635900  1.0  0.0558
  H  H33  1  0.864100  0.733000  0.555800  1.0  0.0539
  H  H34  1  0.364100  0.233000  0.055800  1.0  0.0539
  H  H35  1  0.864100  0.267000  0.444200  1.0  0.0545
  H  H36  1  0.364100  0.767000  0.944200  1.0  0.0545
  H  H37  1  0.135900  0.267000  0.555800  1.0  0.0539
  H  H38  1  0.635900  0.767000  0.055800  1.0  0.0539
  H  H39  1  0.135900  0.733000  0.444200  1.0  0.0539
  H  H40  1  0.635900  0.233000  0.944200  1.0  0.0539
  H  H41  1  0.555800  0.864100  0.733000  1.0  0.0545
  H  H42  1  0.055800  0.364100  0.233000  1.0  0.0545
  H  H43  1  0.444200  0.864100  0.267000  1.0  0.0542
  H  H44  1  0.944200  0.364100  0.767000  1.0  0.0542
  H  H45  1  0.555800  0.135900  0.267000  1.0  0.0541
  H  H46  1  0.055800  0.635900  0.767000  1.0  0.0541
  H  H47  1  0.444200  0.135900  0.733000  1.0  0.0543
  H  H48  1  0.944200  0.635900  0.233000  1.0  0.0543
  H  H49  1  0.555800  0.733000  0.864100  1.0  0.0551
  H  H50  1  0.055800  0.233000  0.364100  1.0  0.0551
  H  H51  1  0.444200  0.267000  0.864100  1.0  0.0553
  H  H52  1  0.944200  0.767000  0.364100  1.0  0.0553
  H  H53  1  0.555800  0.267000  0.135900  1.0  0.056
  H  H54  1  0.055800  0.767000  0.635900  1.0  0.056
  H  H55  1  0.444200  0.733000  0.135900  1.0  0.0559
  H  H56  1  0.944200  0.233000  0.635900  1.0  0.0559
  H  H57  1  0.733000  0.864100  0.555800  1.0  0.055
  H  H58  1  0.233000  0.364100  0.055800  1.0  0.055
  H  H59  1  0.267000  0.864100  0.444200  1.0  0.0552
  H  H60  1  0.767000  0.364100  0.944200  1.0  0.0552
  H  H61  1  0.267000  0.135900  0.555800  1.0  0.0549
  H  H62  1  0.767000  0.635900  0.055800  1.0  0.0549
  H  H63  1  0.733000  0.135900  0.444200  1.0  0.0553
  H  H64  1  0.233000  0.635900  0.944200  1.0  0.0553
  H  H65  1  0.864100  0.555800  0.733000  1.0  0.0535
  H  H66  1  0.364100  0.055800  0.233000  1.0  0.0535
  H  H67  1  0.864100  0.444200  0.267000  1.0  0.0532
  H  H68  1  0.364100  0.944200  0.767000  1.0  0.0532
  H  H69  1  0.135900  0.555800  0.267000  1.0  0.0529
  H  H70  1  0.635900  0.055800  0.767000  1.0  0.0529
  H  H71  1  0.135900  0.444200  0.733000  1.0  0.0534
  H  H72  1  0.635900  0.944200  0.233000  1.0  0.0534
  H  H73  1  0.794600  0.419000  0.794600  1.0  0.0544
  H  H74  1  0.915800  0.350200  0.915800  1.0  0.0442
  H  H75  1  0.945500  0.447700  0.945500  1.0  0.0748
  H  H76  1  0.897600  0.536700  0.897600  1.0  0.0841
  H  H77  1  0.294600  0.919000  0.294600  1.0  0.0544
  H  H78  1  0.415800  0.850200  0.415800  1.0  0.0442
  H  H79  1  0.445500  0.947700  0.445500  1.0  0.0748
  H  H80  1  0.397600  0.036700  0.397600  1.0  0.0841
  H  H81  1  0.205400  0.581000  0.794600  1.0  0.0554
  H  H82  1  0.084200  0.649800  0.915800  1.0  0.0449
  H  H83  1  0.054500  0.552300  0.945500  1.0  0.075
  H  H84  1  0.102400  0.463300  0.897600  1.0  0.084
  H  H85  1  0.705400  0.081000  0.294600  1.0  0.0554
  H  H86  1  0.584200  0.149800  0.415800  1.0  0.0449
  H  H87  1  0.554500  0.052300  0.445500  1.0  0.075
  H  H88  1  0.602400  0.963300  0.397600  1.0  0.084
  H  H89  1  0.205400  0.419000  0.205400  1.0  0.0553
  H  H90  1  0.084200  0.350200  0.084200  1.0  0.0434
  H  H91  1  0.054500  0.447700  0.054500  1.0  0.0747
  H  H92  1  0.102400  0.536700  0.102400  1.0  0.0853
  H  H93  1  0.705400  0.919000  0.705400  1.0  0.0553
  H  H94  1  0.584200  0.850200  0.584200  1.0  0.0434
  H  H95  1  0.554500  0.947700  0.554500  1.0  0.0747
  H  H96  1  0.602400  0.036700  0.602400  1.0  0.0853
  H  H97  1  0.794600  0.581000  0.205400  1.0  0.0555
  H  H98  1  0.915800  0.649800  0.084200  1.0  0.0443
  H  H99  1  0.945500  0.552300  0.054500  1.0  0.0745
  H  H100  1  0.897600  0.463300  0.102400  1.0  0.085
  H  H101  1  0.294600  0.081000  0.705400  1.0  0.0555
  H  H102  1  0.415800  0.149800  0.584200  1.0  0.0443
  H  H103  1  0.445500  0.052300  0.554500  1.0  0.0745
  H  H104  1  0.397600  0.963300  0.602400  1.0  0.085
  H  H105  1  0.794600  0.794600  0.419000  1.0  0.0544
  H  H106  1  0.915800  0.915800  0.350200  1.0  0.0453
  H  H107  1  0.945500  0.945500  0.447700  1.0  0.0737
  H  H108  1  0.897600  0.897600  0.536700  1.0  0.0839
  H  H109  1  0.294600  0.294600  0.919000  1.0  0.0544
  H  H110  1  0.415800  0.415800  0.850200  1.0  0.0453
  H  H111  1  0.445500  0.445500  0.947700  1.0  0.0737
  H  H112  1  0.397600  0.397600  0.036700  1.0  0.0839
  H  H113  1  0.794600  0.205400  0.581000  1.0  0.0552
  H  H114  1  0.915800  0.084200  0.649800  1.0  0.0439
  H  H115  1  0.945500  0.054500  0.552300  1.0  0.0738
  H  H116  1  0.897600  0.102400  0.463300  1.0  0.084
  H  H117  1  0.294600  0.705400  0.081000  1.0  0.0552
  H  H118  1  0.415800  0.584200  0.149800  1.0  0.0439
  H  H119  1  0.445500  0.554500  0.052300  1.0  0.0738
  H  H120  1  0.397600  0.602400  0.963300  1.0  0.084
  H  H121  1  0.205400  0.205400  0.419000  1.0  0.0553
  H  H122  1  0.084200  0.084200  0.350200  1.0  0.0446
  H  H123  1  0.054500  0.054500  0.447700  1.0  0.0739
  H  H124  1  0.102400  0.102400  0.536700  1.0  0.0843
  H  H125  1  0.705400  0.705400  0.919000  1.0  0.0553
  H  H126  1  0.584200  0.584200  0.850200  1.0  0.0446
  H  H127  1  0.554500  0.554500  0.947700  1.0  0.0739
  H  H128  1  0.602400  0.602400  0.036700  1.0  0.0843
  H  H129  1  0.205400  0.794600  0.581000  1.0  0.0549
  H  H130  1  0.084200  0.915800  0.649800  1.0  0.0452
  H  H131  1  0.054500  0.945500  0.552300  1.0  0.0737
  H  H132  1  0.102400  0.897600  0.463300  1.0  0.0837
  H  H133  1  0.705400  0.294600  0.081000  1.0  0.0549
  H  H134  1  0.584200  0.415800  0.149800  1.0  0.0452
  H  H135  1  0.554500  0.445500  0.052300  1.0  0.0737
  H  H136  1  0.602400  0.397600  0.963300  1.0  0.0837
  H  H137  1  0.419000  0.794600  0.794600  1.0  0.0549
  H  H138  1  0.350200  0.915800  0.915800  1.0  0.0458
  H  H139  1  0.447700  0.945500  0.945500  1.0  0.0748
  H  H140  1  0.536700  0.897600  0.897600  1.0  0.0827
  H  H141  1  0.919000  0.294600  0.294600  1.0  0.0549
  H  H142  1  0.850200  0.415800  0.415800  1.0  0.0458
  H  H143  1  0.947700  0.445500  0.445500  1.0  0.0748
  H  H144  1  0.036700  0.397600  0.397600  1.0  0.0827
  H  H145  1  0.581000  0.794600  0.205400  1.0  0.056
  H  H146  1  0.649800  0.915800  0.084200  1.0  0.0453
  H  H147  1  0.552300  0.945500  0.054500  1.0  0.0745
  H  H148  1  0.463300  0.897600  0.102400  1.0  0.0847
  H  H149  1  0.081000  0.294600  0.705400  1.0  0.056
  H  H150  1  0.149800  0.415800  0.584200  1.0  0.0453
  H  H151  1  0.052300  0.445500  0.554500  1.0  0.0745
  H  H152  1  0.963300  0.397600  0.602400  1.0  0.0847
  H  H153  1  0.419000  0.205400  0.205400  1.0  0.056
  H  H154  1  0.350200  0.084200  0.084200  1.0  0.0447
  H  H155  1  0.447700  0.054500  0.054500  1.0  0.0743
  H  H156  1  0.536700  0.102400  0.102400  1.0  0.0839
  H  H157  1  0.919000  0.705400  0.705400  1.0  0.056
  H  H158  1  0.850200  0.584200  0.584200  1.0  0.0447
  H  H159  1  0.947700  0.554500  0.554500  1.0  0.0743
  H  H160  1  0.036700  0.602400  0.602400  1.0  0.0839
  H  H161  1  0.581000  0.205400  0.794600  1.0  0.0554
  H  H162  1  0.649800  0.084200  0.915800  1.0  0.045
  H  H163  1  0.552300  0.054500  0.945500  1.0  0.0747
  H  H164  1  0.463300  0.102400  0.897600  1.0  0.0843
  H  H165  1  0.081000  0.705400  0.294600  1.0  0.0554
  H  H166  1  0.149800  0.584200  0.415800  1.0  0.045
  H  H167  1  0.052300  0.554500  0.445500  1.0  0.0747
  H  H168  1  0.963300  0.602400  0.397600  1.0  0.0843
  C  C169  1  0.756600  0.566100  0.828500  1.0  0.0973
  C  C170  1  0.256600  0.066100  0.328500  1.0  0.0973
  C  C171  1  0.243400  0.433900  0.828500  1.0  0.0974
  C  C172  1  0.743400  0.933900  0.328500  1.0  0.0974
  C  C173  1  0.243400  0.566100  0.171500  1.0  0.0966
  C  C174  1  0.743400  0.066100  0.671500  1.0  0.0966
  C  C175  1  0.756600  0.433900  0.171500  1.0  0.0973
  C  C176  1  0.256600  0.933900  0.671500  1.0  0.0973
  C  C177  1  0.828500  0.756600  0.566100  1.0  0.0963
  C  C178  1  0.328500  0.256600  0.066100  1.0  0.0963
  C  C179  1  0.828500  0.243400  0.433900  1.0  0.0956
  C  C180  1  0.328500  0.743400  0.933900  1.0  0.0956
  C  C181  1  0.171500  0.243400  0.566100  1.0  0.0955
  C  C182  1  0.671500  0.743400  0.066100  1.0  0.0955
  C  C183  1  0.171500  0.756600  0.433900  1.0  0.0961
  C  C184  1  0.671500  0.256600  0.933900  1.0  0.0961
  C  C185  1  0.566100  0.828500  0.756600  1.0  0.0945
  C  C186  1  0.066100  0.328500  0.256600  1.0  0.0945
  C  C187  1  0.433900  0.828500  0.243400  1.0  0.094
  C  C188  1  0.933900  0.328500  0.743400  1.0  0.094
  C  C189  1  0.566100  0.171500  0.243400  1.0  0.0941
  C  C190  1  0.066100  0.671500  0.743400  1.0  0.0941
  C  C191  1  0.433900  0.171500  0.756600  1.0  0.0949
  C  C192  1  0.933900  0.671500  0.256600  1.0  0.0949
  C  C193  1  0.566100  0.756600  0.828500  1.0  0.0972
  C  C194  1  0.066100  0.256600  0.328500  1.0  0.0972
  C  C195  1  0.433900  0.243400  0.828500  1.0  0.0967
  C  C196  1  0.933900  0.743400  0.328500  1.0  0.0967
  C  C197  1  0.566100  0.243400  0.171500  1.0  0.0963
  C  C198  1  0.066100  0.743400  0.671500  1.0  0.0963
  C  C199  1  0.433900  0.756600  0.171500  1.0  0.0967
  C  C200  1  0.933900  0.256600  0.671500  1.0  0.0967
  C  C201  1  0.756600  0.828500  0.566100  1.0  0.0947
  C  C202  1  0.256600  0.328500  0.066100  1.0  0.0947
  C  C203  1  0.243400  0.828500  0.433900  1.0  0.0943
  C  C204  1  0.743400  0.328500  0.933900  1.0  0.0943
  C  C205  1  0.243400  0.171500  0.566100  1.0  0.0949
  C  C206  1  0.743400  0.671500  0.066100  1.0  0.0949
  C  C207  1  0.756600  0.171500  0.433900  1.0  0.0949
  C  C208  1  0.256600  0.671500  0.933900  1.0  0.0949
  C  C209  1  0.828500  0.566100  0.756600  1.0  0.0963
  C  C210  1  0.328500  0.066100  0.256600  1.0  0.0963
  C  C211  1  0.828500  0.433900  0.243400  1.0  0.0961
  C  C212  1  0.328500  0.933900  0.743400  1.0  0.0961
  C  C213  1  0.171500  0.566100  0.243400  1.0  0.0953
  C  C214  1  0.671500  0.066100  0.743400  1.0  0.0953
  C  C215  1  0.171500  0.433900  0.756600  1.0  0.0963
  C  C216  1  0.671500  0.933900  0.256600  1.0  0.0963
  C  C217  1  0.825500  0.424800  0.825500  1.0  0.0821
  C  C218  1  0.896700  0.384800  0.896700  1.0  0.1304
  C  C219  1  0.914600  0.442600  0.914600  1.0  -0.2046
  C  C220  1  0.886200  0.495800  0.886200  1.0  -0.1089
  C  C221  1  0.842500  0.484900  0.842500  1.0  0.1477
  C  C222  1  0.325500  0.924800  0.325500  1.0  0.0821
  C  C223  1  0.396700  0.884800  0.396700  1.0  0.1304
  C  C224  1  0.414600  0.942600  0.414600  1.0  -0.2046
  C  C225  1  0.386200  0.995800  0.386200  1.0  -0.1089
  C  C226  1  0.342500  0.984900  0.342500  1.0  0.1477
  C  C227  1  0.174500  0.575200  0.825500  1.0  0.0837
  C  C228  1  0.103300  0.615200  0.896700  1.0  0.1313
  C  C229  1  0.085400  0.557400  0.914600  1.0  -0.2069
  C  C230  1  0.113800  0.504200  0.886200  1.0  -0.1092
  C  C231  1  0.157500  0.515100  0.842500  1.0  0.1486
  C  C232  1  0.674500  0.075200  0.325500  1.0  0.0837
  C  C233  1  0.603300  0.115200  0.396700  1.0  0.1313
  C  C234  1  0.585400  0.057400  0.414600  1.0  -0.2069
  C  C235  1  0.613800  0.004200  0.386200  1.0  -0.1092
  C  C236  1  0.657500  0.015100  0.342500  1.0  0.1486
  C  C237  1  0.174500  0.424800  0.174500  1.0  0.0831
  C  C238  1  0.103300  0.384800  0.103300  1.0  0.1302
  C  C239  1  0.085400  0.442600  0.085400  1.0  -0.206
  C  C240  1  0.113800  0.495800  0.113800  1.0  -0.1083
  C  C241  1  0.157500  0.484900  0.157500  1.0  0.1486
  C  C242  1  0.674500  0.924800  0.674500  1.0  0.0831
  C  C243  1  0.603300  0.884800  0.603300  1.0  0.1302
  C  C244  1  0.585400  0.942600  0.585400  1.0  -0.206
  C  C245  1  0.613800  0.995800  0.613800  1.0  -0.1083
  C  C246  1  0.657500  0.984900  0.657500  1.0  0.1486
  C  C247  1  0.825500  0.575200  0.174500  1.0  0.0811
  C  C248  1  0.896700  0.615200  0.103300  1.0  0.1308
  C  C249  1  0.914600  0.557400  0.085400  1.0  -0.2035
  C  C250  1  0.886200  0.504200  0.113800  1.0  -0.1104
  C  C251  1  0.842500  0.515100  0.157500  1.0  0.1475
  C  C252  1  0.325500  0.075200  0.674500  1.0  0.0811
  C  C253  1  0.396700  0.115200  0.603300  1.0  0.1308
  C  C254  1  0.414600  0.057400  0.585400  1.0  -0.2035
  C  C255  1  0.386200  0.004200  0.613800  1.0  -0.1104
  C  C256  1  0.342500  0.015100  0.657500  1.0  0.1475
  C  C257  1  0.825500  0.825500  0.424800  1.0  0.0806
  C  C258  1  0.896700  0.896700  0.384800  1.0  0.1308
  C  C259  1  0.914600  0.914600  0.442600  1.0  -0.2055
  C  C260  1  0.886200  0.886200  0.495800  1.0  -0.1055
  C  C261  1  0.842500  0.842500  0.484900  1.0  0.1473
  C  C262  1  0.325500  0.325500  0.924800  1.0  0.0806
  C  C263  1  0.396700  0.396700  0.884800  1.0  0.1308
  C  C264  1  0.414600  0.414600  0.942600  1.0  -0.2055
  C  C265  1  0.386200  0.386200  0.995800  1.0  -0.1055
  C  C266  1  0.342500  0.342500  0.984900  1.0  0.1473
  C  C267  1  0.825500  0.174500  0.575200  1.0  0.0798
  C  C268  1  0.896700  0.103300  0.615200  1.0  0.1319
  C  C269  1  0.914600  0.085400  0.557400  1.0  -0.2056
  C  C270  1  0.886200  0.113800  0.504200  1.0  -0.1051
  C  C271  1  0.842500  0.157500  0.515100  1.0  0.1477
  C  C272  1  0.325500  0.674500  0.075200  1.0  0.0798
  C  C273  1  0.396700  0.603300  0.115200  1.0  0.1319
  C  C274  1  0.414600  0.585400  0.057400  1.0  -0.2056
  C  C275  1  0.386200  0.613800  0.004200  1.0  -0.1051
  C  C276  1  0.342500  0.657500  0.015100  1.0  0.1477
  C  C277  1  0.174500  0.174500  0.424800  1.0  0.0817
  C  C278  1  0.103300  0.103300  0.384800  1.0  0.1318
  C  C279  1  0.085400  0.085400  0.442600  1.0  -0.2074
  C  C280  1  0.113800  0.113800  0.495800  1.0  -0.1057
  C  C281  1  0.157500  0.157500  0.484900  1.0  0.1483
  C  C282  1  0.674500  0.674500  0.924800  1.0  0.0817
  C  C283  1  0.603300  0.603300  0.884800  1.0  0.1318
  C  C284  1  0.585400  0.585400  0.942600  1.0  -0.2074
  C  C285  1  0.613800  0.613800  0.995800  1.0  -0.1057
  C  C286  1  0.657500  0.657500  0.984900  1.0  0.1483
  C  C287  1  0.174500  0.825500  0.575200  1.0  0.0822
  C  C288  1  0.103300  0.896700  0.615200  1.0  0.1312
  C  C289  1  0.085400  0.914600  0.557400  1.0  -0.2075
  C  C290  1  0.113800  0.886200  0.504200  1.0  -0.1043
  C  C291  1  0.157500  0.842500  0.515100  1.0  0.1485
  C  C292  1  0.674500  0.325500  0.075200  1.0  0.0822
  C  C293  1  0.603300  0.396700  0.115200  1.0  0.1312
  C  C294  1  0.585400  0.414600  0.057400  1.0  -0.2075
  C  C295  1  0.613800  0.386200  0.004200  1.0  -0.1043
  C  C296  1  0.657500  0.342500  0.015100  1.0  0.1485
  C  C297  1  0.424800  0.825500  0.825500  1.0  0.0837
  C  C298  1  0.384800  0.896700  0.896700  1.0  0.1285
  C  C299  1  0.442600  0.914600  0.914600  1.0  -0.2034
  C  C300  1  0.495800  0.886200  0.886200  1.0  -0.1045
  C  C301  1  0.484900  0.842500  0.842500  1.0  0.1481
  C  C302  1  0.924800  0.325500  0.325500  1.0  0.0837
  C  C303  1  0.884800  0.396700  0.396700  1.0  0.1285
  C  C304  1  0.942600  0.414600  0.414600  1.0  -0.2034
  C  C305  1  0.995800  0.386200  0.386200  1.0  -0.1045
  C  C306  1  0.984900  0.342500  0.342500  1.0  0.1481
  C  C307  1  0.575200  0.825500  0.174500  1.0  0.0829
  C  C308  1  0.615200  0.896700  0.103300  1.0  0.1294
  C  C309  1  0.557400  0.914600  0.085400  1.0  -0.202
  C  C310  1  0.504200  0.886200  0.113800  1.0  -0.1058
  C  C311  1  0.515100  0.842500  0.157500  1.0  0.1476
  C  C312  1  0.075200  0.325500  0.674500  1.0  0.0829
  C  C313  1  0.115200  0.396700  0.603300  1.0  0.1294
  C  C314  1  0.057400  0.414600  0.585400  1.0  -0.202
  C  C315  1  0.004200  0.386200  0.613800  1.0  -0.1058
  C  C316  1  0.015100  0.342500  0.657500  1.0  0.1476
  C  C317  1  0.424800  0.174500  0.174500  1.0  0.0816
  C  C318  1  0.384800  0.103300  0.103300  1.0  0.1281
  C  C319  1  0.442600  0.085400  0.085400  1.0  -0.2014
  C  C320  1  0.495800  0.113800  0.113800  1.0  -0.1049
  C  C321  1  0.484900  0.157500  0.157500  1.0  0.148
  C  C322  1  0.924800  0.674500  0.674500  1.0  0.0816
  C  C323  1  0.884800  0.603300  0.603300  1.0  0.1281
  C  C324  1  0.942600  0.585400  0.585400  1.0  -0.2014
  C  C325  1  0.995800  0.613800  0.613800  1.0  -0.1049
  C  C326  1  0.984900  0.657500  0.657500  1.0  0.148
  C  C327  1  0.575200  0.174500  0.825500  1.0  0.0833
  C  C328  1  0.615200  0.103300  0.896700  1.0  0.13
  C  C329  1  0.557400  0.085400  0.914600  1.0  -0.2026
  C  C330  1  0.504200  0.113800  0.886200  1.0  -0.1058
  C  C331  1  0.515100  0.157500  0.842500  1.0  0.148
  C  C332  1  0.075200  0.674500  0.325500  1.0  0.0833
  C  C333  1  0.115200  0.603300  0.396700  1.0  0.13
  C  C334  1  0.057400  0.585400  0.414600  1.0  -0.2026
  C  C335  1  0.004200  0.613800  0.386200  1.0  -0.1058
  C  C336  1  0.015100  0.657500  0.342500  1.0  0.148
  N  N337  1  0.742700  0.609500  0.788600  1.0  -0.2913
  N  N338  1  0.242700  0.109500  0.288600  1.0  -0.2913
  N  N339  1  0.257300  0.390500  0.788600  1.0  -0.2912
  N  N340  1  0.757300  0.890500  0.288600  1.0  -0.2912
  N  N341  1  0.257300  0.609500  0.211400  1.0  -0.2906
  N  N342  1  0.757300  0.109500  0.711400  1.0  -0.2906
  N  N343  1  0.742700  0.390500  0.211400  1.0  -0.2902
  N  N344  1  0.242700  0.890500  0.711400  1.0  -0.2902
  N  N345  1  0.788600  0.742700  0.609500  1.0  -0.2888
  N  N346  1  0.288600  0.242700  0.109500  1.0  -0.2888
  N  N347  1  0.788600  0.257300  0.390500  1.0  -0.2915
  N  N348  1  0.288600  0.757300  0.890500  1.0  -0.2915
  N  N349  1  0.211400  0.257300  0.609500  1.0  -0.2892
  N  N350  1  0.711400  0.757300  0.109500  1.0  -0.2892
  N  N351  1  0.211400  0.742700  0.390500  1.0  -0.2892
  N  N352  1  0.711400  0.242700  0.890500  1.0  -0.2892
  N  N353  1  0.609500  0.788600  0.742700  1.0  -0.2885
  N  N354  1  0.109500  0.288600  0.242700  1.0  -0.2885
  N  N355  1  0.390500  0.788600  0.257300  1.0  -0.2862
  N  N356  1  0.890500  0.288600  0.757300  1.0  -0.2862
  N  N357  1  0.609500  0.211400  0.257300  1.0  -0.2868
  N  N358  1  0.109500  0.711400  0.757300  1.0  -0.2868
  N  N359  1  0.390500  0.211400  0.742700  1.0  -0.288
  N  N360  1  0.890500  0.711400  0.242700  1.0  -0.288
  N  N361  1  0.609500  0.742700  0.788600  1.0  -0.2895
  N  N362  1  0.109500  0.242700  0.288600  1.0  -0.2895
  N  N363  1  0.390500  0.257300  0.788600  1.0  -0.2897
  N  N364  1  0.890500  0.757300  0.288600  1.0  -0.2897
  N  N365  1  0.609500  0.257300  0.211400  1.0  -0.2892
  N  N366  1  0.109500  0.757300  0.711400  1.0  -0.2892
  N  N367  1  0.390500  0.742700  0.211400  1.0  -0.2879
  N  N368  1  0.890500  0.242700  0.711400  1.0  -0.2879
  N  N369  1  0.742700  0.788600  0.609500  1.0  -0.2911
  N  N370  1  0.242700  0.288600  0.109500  1.0  -0.2911
  N  N371  1  0.257300  0.788600  0.390500  1.0  -0.2917
  N  N372  1  0.757300  0.288600  0.890500  1.0  -0.2917
  N  N373  1  0.257300  0.211400  0.609500  1.0  -0.2911
  N  N374  1  0.757300  0.711400  0.109500  1.0  -0.2911
  N  N375  1  0.742700  0.211400  0.390500  1.0  -0.2922
  N  N376  1  0.242700  0.711400  0.890500  1.0  -0.2922
  N  N377  1  0.788600  0.609500  0.742700  1.0  -0.2926
  N  N378  1  0.288600  0.109500  0.242700  1.0  -0.2926
  N  N379  1  0.788600  0.390500  0.257300  1.0  -0.2897
  N  N380  1  0.288600  0.890500  0.757300  1.0  -0.2897
  N  N381  1  0.211400  0.609500  0.257300  1.0  -0.2898
  N  N382  1  0.711400  0.109500  0.757300  1.0  -0.2898
  N  N383  1  0.211400  0.390500  0.742700  1.0  -0.2915
  N  N384  1  0.711400  0.890500  0.242700  1.0  -0.2915
  N  N385  1  0.852500  0.374400  0.852500  1.0  -0.3352
  N  N386  1  0.810900  0.537400  0.810900  1.0  -0.0345
  N  N387  1  0.352500  0.874400  0.352500  1.0  -0.3352
  N  N388  1  0.310900  0.037400  0.310900  1.0  -0.0345
  N  N389  1  0.147500  0.625600  0.852500  1.0  -0.3346
  N  N390  1  0.189100  0.462600  0.810900  1.0  -0.0349
  N  N391  1  0.647500  0.125600  0.352500  1.0  -0.3346
  N  N392  1  0.689100  0.962600  0.310900  1.0  -0.0349
  N  N393  1  0.147500  0.374400  0.147500  1.0  -0.3339
  N  N394  1  0.189100  0.537400  0.189100  1.0  -0.0348
  N  N395  1  0.647500  0.874400  0.647500  1.0  -0.3339
  N  N396  1  0.689100  0.037400  0.689100  1.0  -0.0348
  N  N397  1  0.852500  0.625600  0.147500  1.0  -0.3352
  N  N398  1  0.810900  0.462600  0.189100  1.0  -0.035
  N  N399  1  0.352500  0.125600  0.647500  1.0  -0.3352
  N  N400  1  0.310900  0.962600  0.689100  1.0  -0.035
  N  N401  1  0.852500  0.852500  0.374400  1.0  -0.3401
  N  N402  1  0.810900  0.810900  0.537400  1.0  -0.0346
  N  N403  1  0.352500  0.352500  0.874400  1.0  -0.3401
  N  N404  1  0.310900  0.310900  0.037400  1.0  -0.0346
  N  N405  1  0.852500  0.147500  0.625600  1.0  -0.3385
  N  N406  1  0.810900  0.189100  0.462600  1.0  -0.0345
  N  N407  1  0.352500  0.647500  0.125600  1.0  -0.3385
  N  N408  1  0.310900  0.689100  0.962600  1.0  -0.0345
  N  N409  1  0.147500  0.147500  0.374400  1.0  -0.3377
  N  N410  1  0.189100  0.189100  0.537400  1.0  -0.0347
  N  N411  1  0.647500  0.647500  0.874400  1.0  -0.3377
  N  N412  1  0.689100  0.689100  0.037400  1.0  -0.0347
  N  N413  1  0.147500  0.852500  0.625600  1.0  -0.3372
  N  N414  1  0.189100  0.810900  0.462600  1.0  -0.0348
  N  N415  1  0.647500  0.352500  0.125600  1.0  -0.3372
  N  N416  1  0.689100  0.310900  0.962600  1.0  -0.0348
  N  N417  1  0.374400  0.852500  0.852500  1.0  -0.336
  N  N418  1  0.537400  0.810900  0.810900  1.0  -0.0347
  N  N419  1  0.874400  0.352500  0.352500  1.0  -0.336
  N  N420  1  0.037400  0.310900  0.310900  1.0  -0.0347
  N  N421  1  0.625600  0.852500  0.147500  1.0  -0.3364
  N  N422  1  0.462600  0.810900  0.189100  1.0  -0.0345
  N  N423  1  0.125600  0.352500  0.647500  1.0  -0.3364
  N  N424  1  0.962600  0.310900  0.689100  1.0  -0.0345
  N  N425  1  0.374400  0.147500  0.147500  1.0  -0.3352
  N  N426  1  0.537400  0.189100  0.189100  1.0  -0.035
  N  N427  1  0.874400  0.647500  0.647500  1.0  -0.3352
  N  N428  1  0.037400  0.689100  0.689100  1.0  -0.035
  N  N429  1  0.625600  0.147500  0.852500  1.0  -0.3367
  N  N430  1  0.462600  0.189100  0.810900  1.0  -0.0343
  N  N431  1  0.125600  0.647500  0.352500  1.0  -0.3367
  N  N432  1  0.962600  0.689100  0.310900  1.0  -0.0343
  O  O433  1  0.700200  0.700200  0.700200  1.0  -0.854
  O  O434  1  0.200200  0.200200  0.200200  1.0  -0.854
  O  O435  1  0.299800  0.299800  0.700200  1.0  -0.8539
  O  O436  1  0.799800  0.799800  0.200200  1.0  -0.8539
  O  O437  1  0.299800  0.700200  0.299800  1.0  -0.8523
  O  O438  1  0.799800  0.200200  0.799800  1.0  -0.8523
  O  O439  1  0.700200  0.299800  0.299800  1.0  -0.8539
  O  O440  1  0.200200  0.799800  0.799800  1.0  -0.8539
