# generated using pymatgen
data_Cu3H24C28(N8Cl)2
_symmetry_space_group_name_H-M   'P 1'
_cell_length_a   24.77700000
_cell_length_b   24.77700000
_cell_length_c   26.48900000
_cell_angle_alpha   90.00000000
_cell_angle_beta   90.00000000
_cell_angle_gamma   120.00000000
_symmetry_Int_Tables_number   1
_chemical_formula_structural   Cu3H24C28(N8Cl)2
_chemical_formula_sum   'Cu27 H216 C252 N144 Cl18'
_cell_volume   14082.94997793
_cell_formula_units_Z   9
loop_
 _symmetry_equiv_pos_site_id
 _symmetry_equiv_pos_as_xyz
  1  'x, y, z'
loop_
 _atom_site_type_symbol
 _atom_site_label
 _atom_site_symmetry_multiplicity
 _atom_site_fract_x
 _atom_site_fract_y
 _atom_site_fract_z
 _atom_site_occupancy
 _atom_site_charge
  Cu  Cu1  1  0.132710  0.646610  0.027620  1.0  0.5283
  Cu  Cu2  1  0.799380  0.979940  0.360950  1.0  0.5271
  Cu  Cu3  1  0.466040  0.313280  0.694290  1.0  0.5283
  Cu  Cu4  1  0.353390  0.486100  0.027620  1.0  0.526
  Cu  Cu5  1  0.020060  0.819430  0.360950  1.0  0.526
  Cu  Cu6  1  0.686720  0.152770  0.694290  1.0  0.526
  Cu  Cu7  1  0.513900  0.867290  0.027620  1.0  0.5257
  Cu  Cu8  1  0.180570  0.200620  0.360950  1.0  0.5267
  Cu  Cu9  1  0.847230  0.533960  0.694290  1.0  0.5257
  Cu  Cu10  1  0.867290  0.353390  0.972380  1.0  0.5271
  Cu  Cu11  1  0.533960  0.686720  0.305710  1.0  0.5271
  Cu  Cu12  1  0.200620  0.020060  0.639050  1.0  0.5259
  Cu  Cu13  1  0.646610  0.513900  0.972380  1.0  0.5252
  Cu  Cu14  1  0.313280  0.847230  0.305710  1.0  0.5252
  Cu  Cu15  1  0.979940  0.180570  0.639050  1.0  0.5252
  Cu  Cu16  1  0.486100  0.132710  0.972380  1.0  0.5256
  Cu  Cu17  1  0.152770  0.466040  0.305710  1.0  0.5256
  Cu  Cu18  1  0.819430  0.799380  0.639050  1.0  0.5266
  Cu  Cu19  1  0.000000  0.500000  0.000000  1.0  0.6357
  Cu  Cu20  1  0.666667  0.833330  0.333333  1.0  0.6338
  Cu  Cu21  1  0.333333  0.166670  0.666667  1.0  0.6343
  Cu  Cu22  1  0.500000  0.500000  0.000000  1.0  0.6357
  Cu  Cu23  1  0.166670  0.833330  0.333333  1.0  0.6339
  Cu  Cu24  1  0.833330  0.166670  0.666667  1.0  0.6344
  Cu  Cu25  1  0.500000  0.000000  0.000000  1.0  0.6357
  Cu  Cu26  1  0.166670  0.333333  0.333333  1.0  0.6345
  Cu  Cu27  1  0.833330  0.666667  0.666667  1.0  0.6336
  H  H28  1  0.978100  0.452200  0.111800  1.0  0.0629
  H  H29  1  0.127400  0.609800  0.150600  1.0  0.069
  H  H30  1  0.955300  0.482400  0.209500  1.0  0.0975
  H  H31  1  0.940400  0.431200  0.288100  1.0  0.0863
  H  H32  1  0.128300  0.512900  0.206900  1.0  0.0552
  H  H33  1  0.023200  0.427500  0.323600  1.0  0.0608
  H  H34  1  0.227900  0.603700  0.986400  1.0  0.0571
  H  H35  1  0.080600  0.446400  0.946100  1.0  0.0713
  H  H36  1  0.252800  0.515400  0.012000  1.0  0.0483
  H  H37  1  0.318900  0.441600  0.918500  1.0  0.052
  H  H38  1  0.245200  0.427100  0.860200  1.0  0.0755
  H  H39  1  0.174500  0.459900  0.875900  1.0  0.0945
  H  H40  1  0.644770  0.785530  0.445130  1.0  0.0629
  H  H41  1  0.794070  0.943130  0.483930  1.0  0.069
  H  H42  1  0.621970  0.815730  0.542830  1.0  0.0975
  H  H43  1  0.607070  0.764530  0.621430  1.0  0.0863
  H  H44  1  0.794970  0.846230  0.540230  1.0  0.0552
  H  H45  1  0.689870  0.760830  0.656930  1.0  0.0608
  H  H46  1  0.894570  0.937030  0.319730  1.0  0.0571
  H  H47  1  0.747270  0.779730  0.279430  1.0  0.0713
  H  H48  1  0.919470  0.848730  0.345330  1.0  0.0483
  H  H49  1  0.985570  0.774930  0.251830  1.0  0.052
  H  H50  1  0.911870  0.760430  0.193530  1.0  0.0755
  H  H51  1  0.841170  0.793230  0.209230  1.0  0.0945
  H  H52  1  0.311430  0.118870  0.778470  1.0  0.0629
  H  H53  1  0.460730  0.276470  0.817270  1.0  0.069
  H  H54  1  0.288630  0.149070  0.876170  1.0  0.0975
  H  H55  1  0.273730  0.097870  0.954770  1.0  0.0853
  H  H56  1  0.461630  0.179570  0.873570  1.0  0.0552
  H  H57  1  0.356530  0.094170  0.990270  1.0  0.0608
  H  H58  1  0.561230  0.270370  0.653070  1.0  0.0571
  H  H59  1  0.413930  0.113070  0.612770  1.0  0.0713
  H  H60  1  0.586130  0.182070  0.678670  1.0  0.0483
  H  H61  1  0.652230  0.108270  0.585170  1.0  0.052
  H  H62  1  0.578530  0.093770  0.526870  1.0  0.0755
  H  H63  1  0.507830  0.126570  0.542570  1.0  0.0945
  H  H64  1  0.547800  0.525900  0.111800  1.0  0.0623
  H  H65  1  0.390200  0.517600  0.150600  1.0  0.0699
  H  H66  1  0.517600  0.472900  0.209500  1.0  0.0987
  H  H67  1  0.568800  0.509200  0.288100  1.0  0.0831
  H  H68  1  0.487100  0.615400  0.206900  1.0  0.0554
  H  H69  1  0.572500  0.595700  0.323600  1.0  0.0604
  H  H70  1  0.396300  0.624200  0.986400  1.0  0.0579
  H  H71  1  0.553600  0.634200  0.946100  1.0  0.0704
  H  H72  1  0.484600  0.737400  0.012000  1.0  0.0485
  H  H73  1  0.558400  0.877300  0.918500  1.0  0.052
  H  H74  1  0.572900  0.818100  0.860200  1.0  0.0756
  H  H75  1  0.540100  0.714600  0.875900  1.0  0.094
  H  H76  1  0.214470  0.859230  0.445130  1.0  0.0623
  H  H77  1  0.056870  0.850930  0.483930  1.0  0.0697
  H  H78  1  0.184270  0.806230  0.542830  1.0  0.0987
  H  H79  1  0.235470  0.842530  0.621430  1.0  0.0831
  H  H80  1  0.153770  0.948730  0.540230  1.0  0.0554
  H  H81  1  0.239170  0.929030  0.656930  1.0  0.0604
  H  H82  1  0.062970  0.957530  0.319730  1.0  0.0579
  H  H83  1  0.220270  0.967530  0.279430  1.0  0.0704
  H  H84  1  0.151270  0.070730  0.345330  1.0  0.0485
  H  H85  1  0.225070  0.210630  0.251830  1.0  0.052
  H  H86  1  0.239570  0.151430  0.193530  1.0  0.0756
  H  H87  1  0.206770  0.047930  0.209230  1.0  0.094
  H  H88  1  0.881130  0.192570  0.778470  1.0  0.0623
  H  H89  1  0.723530  0.184270  0.817270  1.0  0.0699
  H  H90  1  0.850930  0.139570  0.876170  1.0  0.0987
  H  H91  1  0.902130  0.175870  0.954770  1.0  0.0858
  H  H92  1  0.820430  0.282070  0.873570  1.0  0.0554
  H  H93  1  0.905830  0.262370  0.990270  1.0  0.0604
  H  H94  1  0.729630  0.290870  0.653070  1.0  0.0579
  H  H95  1  0.886930  0.300870  0.612770  1.0  0.0704
  H  H96  1  0.817930  0.404070  0.678670  1.0  0.0485
  H  H97  1  0.891730  0.543970  0.585170  1.0  0.052
  H  H98  1  0.906230  0.484770  0.526870  1.0  0.0756
  H  H99  1  0.873430  0.381270  0.542570  1.0  0.094
  H  H100  1  0.474100  0.021900  0.111800  1.0  0.0623
  H  H101  1  0.482400  0.872600  0.150600  1.0  0.0701
  H  H102  1  0.527100  0.044700  0.209500  1.0  0.0984
  H  H103  1  0.490800  0.059600  0.288100  1.0  0.0878
  H  H104  1  0.384600  0.871700  0.206900  1.0  0.0561
  H  H105  1  0.404300  0.976800  0.323600  1.0  0.0613
  H  H106  1  0.375800  0.772100  0.986400  1.0  0.0582
  H  H107  1  0.365800  0.919400  0.946100  1.0  0.0699
  H  H108  1  0.262600  0.747200  0.012000  1.0  0.048
  H  H109  1  0.122700  0.681100  0.918500  1.0  0.0514
  H  H110  1  0.181900  0.754800  0.860200  1.0  0.0752
  H  H111  1  0.285400  0.825500  0.875900  1.0  0.0939
  H  H112  1  0.140770  0.355230  0.445130  1.0  0.0623
  H  H113  1  0.149070  0.205930  0.483930  1.0  0.0701
  H  H114  1  0.193770  0.378030  0.542830  1.0  0.0984
  H  H115  1  0.157470  0.392930  0.621430  1.0  0.0878
  H  H116  1  0.051270  0.205030  0.540230  1.0  0.0563
  H  H117  1  0.070970  0.310130  0.656930  1.0  0.0612
  H  H118  1  0.042470  0.105430  0.319730  1.0  0.0582
  H  H119  1  0.032470  0.252730  0.279430  1.0  0.0699
  H  H120  1  0.929270  0.080530  0.345330  1.0  0.048
  H  H121  1  0.789370  0.014430  0.251830  1.0  0.0514
  H  H122  1  0.848570  0.088130  0.193530  1.0  0.0752
  H  H123  1  0.952070  0.158830  0.209230  1.0  0.0939
  H  H124  1  0.807430  0.688570  0.778470  1.0  0.0623
  H  H125  1  0.815730  0.539270  0.817270  1.0  0.0701
  H  H126  1  0.860430  0.711370  0.876170  1.0  0.0984
  H  H127  1  0.824130  0.726270  0.954770  1.0  0.0878
  H  H128  1  0.717930  0.538370  0.873570  1.0  0.0561
  H  H129  1  0.737630  0.643470  0.990270  1.0  0.0613
  H  H130  1  0.709130  0.438770  0.653070  1.0  0.0582
  H  H131  1  0.699130  0.586070  0.612770  1.0  0.0699
  H  H132  1  0.595930  0.413870  0.678670  1.0  0.048
  H  H133  1  0.456030  0.347770  0.585170  1.0  0.0514
  H  H134  1  0.515230  0.421470  0.526870  1.0  0.0752
  H  H135  1  0.618730  0.492170  0.542570  1.0  0.0939
  H  H136  1  0.021900  0.547800  0.888200  1.0  0.063
  H  H137  1  0.872600  0.390200  0.849400  1.0  0.0689
  H  H138  1  0.044700  0.517600  0.790500  1.0  0.0969
  H  H139  1  0.059600  0.568800  0.711900  1.0  0.0856
  H  H140  1  0.871700  0.487100  0.793100  1.0  0.0555
  H  H141  1  0.976800  0.572500  0.676400  1.0  0.0604
  H  H142  1  0.772100  0.396300  0.013600  1.0  0.0569
  H  H143  1  0.919400  0.553600  0.053900  1.0  0.0715
  H  H144  1  0.747200  0.484600  0.988000  1.0  0.0486
  H  H145  1  0.681100  0.558400  0.081500  1.0  0.0519
  H  H146  1  0.754800  0.572900  0.139800  1.0  0.076
  H  H147  1  0.825500  0.540100  0.124100  1.0  0.0945
  H  H148  1  0.688570  0.881130  0.221530  1.0  0.063
  H  H149  1  0.539270  0.723530  0.182730  1.0  0.0689
  H  H150  1  0.711370  0.850930  0.123830  1.0  0.0969
  H  H151  1  0.726270  0.902130  0.045230  1.0  0.0848
  H  H152  1  0.538370  0.820430  0.126430  1.0  0.0555
  H  H153  1  0.643470  0.905830  0.009730  1.0  0.0604
  H  H154  1  0.438770  0.729630  0.346930  1.0  0.0569
  H  H155  1  0.586070  0.886930  0.387230  1.0  0.0715
  H  H156  1  0.413870  0.817930  0.321330  1.0  0.0486
  H  H157  1  0.347770  0.891730  0.414830  1.0  0.0519
  H  H158  1  0.421470  0.906230  0.473130  1.0  0.076
  H  H159  1  0.492170  0.873430  0.457430  1.0  0.0945
  H  H160  1  0.355230  0.214470  0.554870  1.0  0.063
  H  H161  1  0.205930  0.056870  0.516070  1.0  0.0686
  H  H162  1  0.378030  0.184270  0.457170  1.0  0.0969
  H  H163  1  0.392930  0.235470  0.378570  1.0  0.0856
  H  H164  1  0.205030  0.153770  0.459770  1.0  0.0555
  H  H165  1  0.310130  0.239170  0.343070  1.0  0.0604
  H  H166  1  0.105430  0.062970  0.680270  1.0  0.057
  H  H167  1  0.252730  0.220270  0.720570  1.0  0.0714
  H  H168  1  0.080530  0.151270  0.654670  1.0  0.0485
  H  H169  1  0.014430  0.225070  0.748170  1.0  0.0519
  H  H170  1  0.088130  0.239570  0.806470  1.0  0.076
  H  H171  1  0.158830  0.206770  0.790770  1.0  0.0945
  H  H172  1  0.452200  0.474100  0.888200  1.0  0.064
  H  H173  1  0.609800  0.482400  0.849400  1.0  0.0694
  H  H174  1  0.482400  0.527100  0.790500  1.0  0.0983
  H  H175  1  0.431200  0.490800  0.711900  1.0  0.0824
  H  H176  1  0.512900  0.384600  0.793100  1.0  0.0552
  H  H177  1  0.427500  0.404300  0.676400  1.0  0.061
  H  H178  1  0.603700  0.375800  0.013600  1.0  0.0572
  H  H179  1  0.446400  0.365800  0.053900  1.0  0.0707
  H  H180  1  0.515400  0.262600  0.988000  1.0  0.049
  H  H181  1  0.441600  0.122700  0.081500  1.0  0.0522
  H  H182  1  0.427100  0.181900  0.139800  1.0  0.0761
  H  H183  1  0.459900  0.285400  0.124100  1.0  0.095
  H  H184  1  0.118870  0.807430  0.221530  1.0  0.064
  H  H185  1  0.276470  0.815730  0.182730  1.0  0.0694
  H  H186  1  0.149070  0.860430  0.123830  1.0  0.0983
  H  H187  1  0.097870  0.824130  0.045230  1.0  0.0856
  H  H188  1  0.179570  0.717930  0.126430  1.0  0.0552
  H  H189  1  0.094170  0.737630  0.009730  1.0  0.061
  H  H190  1  0.270370  0.709130  0.346930  1.0  0.0572
  H  H191  1  0.113070  0.699130  0.387230  1.0  0.0706
  H  H192  1  0.182070  0.595930  0.321330  1.0  0.049
  H  H193  1  0.108270  0.456030  0.414830  1.0  0.0522
  H  H194  1  0.093770  0.515230  0.473130  1.0  0.0761
  H  H195  1  0.126570  0.618730  0.457430  1.0  0.095
  H  H196  1  0.785530  0.140770  0.554870  1.0  0.064
  H  H197  1  0.943130  0.149070  0.516070  1.0  0.0693
  H  H198  1  0.815730  0.193770  0.457170  1.0  0.0983
  H  H199  1  0.764530  0.157470  0.378570  1.0  0.0824
  H  H200  1  0.846230  0.051270  0.459770  1.0  0.0552
  H  H201  1  0.760830  0.070970  0.343070  1.0  0.061
  H  H202  1  0.937030  0.042470  0.680270  1.0  0.0572
  H  H203  1  0.779730  0.032470  0.720570  1.0  0.0707
  H  H204  1  0.848730  0.929270  0.654670  1.0  0.049
  H  H205  1  0.774930  0.789370  0.748170  1.0  0.0522
  H  H206  1  0.760430  0.848570  0.806470  1.0  0.0761
  H  H207  1  0.793230  0.952070  0.790770  1.0  0.095
  H  H208  1  0.525900  0.978100  0.888200  1.0  0.0614
  H  H209  1  0.517600  0.127400  0.849400  1.0  0.0698
  H  H210  1  0.472900  0.955300  0.790500  1.0  0.0978
  H  H211  1  0.509200  0.940400  0.711900  1.0  0.0879
  H  H212  1  0.615400  0.128300  0.793100  1.0  0.0567
  H  H213  1  0.595700  0.023200  0.676400  1.0  0.062
  H  H214  1  0.624200  0.227900  0.013600  1.0  0.0587
  H  H215  1  0.634200  0.080600  0.053900  1.0  0.0697
  H  H216  1  0.737400  0.252800  0.988000  1.0  0.0485
  H  H217  1  0.877300  0.318900  0.081500  1.0  0.0508
  H  H218  1  0.818100  0.245200  0.139800  1.0  0.075
  H  H219  1  0.714600  0.174500  0.124100  1.0  0.0945
  H  H220  1  0.192570  0.311430  0.221530  1.0  0.0614
  H  H221  1  0.184270  0.460730  0.182730  1.0  0.0698
  H  H222  1  0.139570  0.288630  0.123830  1.0  0.0978
  H  H223  1  0.175870  0.273730  0.045230  1.0  0.0879
  H  H224  1  0.282070  0.461630  0.126430  1.0  0.0567
  H  H225  1  0.262370  0.356530  0.009730  1.0  0.062
  H  H226  1  0.290870  0.561230  0.346930  1.0  0.0587
  H  H227  1  0.300870  0.413930  0.387230  1.0  0.0697
  H  H228  1  0.404070  0.586130  0.321330  1.0  0.0485
  H  H229  1  0.543970  0.652230  0.414830  1.0  0.0508
  H  H230  1  0.484770  0.578530  0.473130  1.0  0.075
  H  H231  1  0.381270  0.507830  0.457430  1.0  0.0945
  H  H232  1  0.859230  0.644770  0.554870  1.0  0.0614
  H  H233  1  0.850930  0.794070  0.516070  1.0  0.0698
  H  H234  1  0.806230  0.621970  0.457170  1.0  0.0978
  H  H235  1  0.842530  0.607070  0.378570  1.0  0.0879
  H  H236  1  0.948730  0.794970  0.459770  1.0  0.0569
  H  H237  1  0.929030  0.689870  0.343070  1.0  0.0619
  H  H238  1  0.957530  0.894570  0.680270  1.0  0.0587
  H  H239  1  0.967530  0.747270  0.720570  1.0  0.0697
  H  H240  1  0.070730  0.919470  0.654670  1.0  0.0485
  H  H241  1  0.210630  0.985570  0.748170  1.0  0.0508
  H  H242  1  0.151430  0.911870  0.806470  1.0  0.075
  H  H243  1  0.047930  0.841170  0.790770  1.0  0.0945
  C  C244  1  0.012600  0.492000  0.110600  1.0  0.106
  C  C245  1  0.094600  0.579000  0.132000  1.0  0.1161
  C  C246  1  0.042500  0.497800  0.200300  1.0  0.1808
  C  C247  1  0.986600  0.477300  0.224000  1.0  -0.2033
  C  C248  1  0.978300  0.448300  0.271400  1.0  -0.1229
  C  C249  1  0.090000  0.495800  0.223200  1.0  0.1098
  C  C250  1  0.028100  0.446100  0.292200  1.0  0.1328
  C  C251  1  0.186800  0.572900  0.980900  1.0  0.0849
  C  C252  1  0.106200  0.486500  0.958600  1.0  0.095
  C  C253  1  0.209300  0.493900  0.945500  1.0  0.1574
  C  C254  1  0.252300  0.498500  0.980500  1.0  0.1
  C  C255  1  0.290300  0.454300  0.926200  1.0  0.1343
  C  C256  1  0.246400  0.446100  0.890700  1.0  -0.1299
  C  C257  1  0.204600  0.465500  0.899600  1.0  -0.1171
  C  C258  1  0.679270  0.825330  0.443930  1.0  0.106
  C  C259  1  0.761270  0.912330  0.465330  1.0  0.1161
  C  C260  1  0.709170  0.831130  0.533630  1.0  0.1807
  C  C261  1  0.653270  0.810630  0.557330  1.0  -0.2033
  C  C262  1  0.644970  0.781630  0.604730  1.0  -0.123
  C  C263  1  0.756670  0.829130  0.556530  1.0  0.1098
  C  C264  1  0.694770  0.779430  0.625530  1.0  0.1327
  C  C265  1  0.853470  0.906230  0.314230  1.0  0.0849
  C  C266  1  0.772870  0.819830  0.291930  1.0  0.095
  C  C267  1  0.875970  0.827230  0.278830  1.0  0.1574
  C  C268  1  0.918970  0.831830  0.313830  1.0  0.1
  C  C269  1  0.956970  0.787630  0.259530  1.0  0.1343
  C  C270  1  0.913070  0.779430  0.224030  1.0  -0.1299
  C  C271  1  0.871270  0.798830  0.232930  1.0  -0.1171
  C  C272  1  0.345930  0.158670  0.777270  1.0  0.106
  C  C273  1  0.427930  0.245670  0.798670  1.0  0.1161
  C  C274  1  0.375830  0.164470  0.866970  1.0  0.1808
  C  C275  1  0.319930  0.143970  0.890670  1.0  -0.2033
  C  C276  1  0.311630  0.114970  0.938070  1.0  -0.1229
  C  C277  1  0.423330  0.162470  0.889870  1.0  0.1098
  C  C278  1  0.361430  0.112770  0.958870  1.0  0.1328
  C  C279  1  0.520130  0.239570  0.647570  1.0  0.0849
  C  C280  1  0.439530  0.153170  0.625270  1.0  0.095
  C  C281  1  0.542630  0.160570  0.612170  1.0  0.1574
  C  C282  1  0.585630  0.165170  0.647170  1.0  0.1
  C  C283  1  0.623630  0.120970  0.592870  1.0  0.1343
  C  C284  1  0.579730  0.112770  0.557370  1.0  -0.1299
  C  C285  1  0.537930  0.132170  0.566270  1.0  -0.1171
  C  C286  1  0.508000  0.520600  0.110600  1.0  0.1054
  C  C287  1  0.421000  0.515600  0.132000  1.0  0.1169
  C  C288  1  0.502200  0.544700  0.200300  1.0  0.1817
  C  C289  1  0.522700  0.509300  0.224000  1.0  -0.2057
  C  C290  1  0.551700  0.530000  0.271400  1.0  -0.1211
  C  C291  1  0.504200  0.594200  0.223200  1.0  0.1096
  C  C292  1  0.553900  0.582000  0.292200  1.0  0.1309
  C  C293  1  0.427100  0.613900  0.980900  1.0  0.0842
  C  C294  1  0.513500  0.619700  0.958600  1.0  0.0955
  C  C295  1  0.506100  0.715400  0.945500  1.0  0.1578
  C  C296  1  0.501500  0.753800  0.980500  1.0  0.1016
  C  C297  1  0.545700  0.836000  0.926200  1.0  0.127
  C  C298  1  0.553900  0.800300  0.890700  1.0  -0.129
  C  C299  1  0.534500  0.739100  0.899600  1.0  -0.1182
  C  C300  1  0.174670  0.853930  0.443930  1.0  0.1054
  C  C301  1  0.087670  0.848930  0.465330  1.0  0.1169
  C  C302  1  0.168870  0.878030  0.533630  1.0  0.1817
  C  C303  1  0.189370  0.842630  0.557330  1.0  -0.2058
  C  C304  1  0.218370  0.863330  0.604730  1.0  -0.1212
  C  C305  1  0.170870  0.927530  0.556530  1.0  0.1097
  C  C306  1  0.220570  0.915330  0.625530  1.0  0.1305
  C  C307  1  0.093770  0.947230  0.314230  1.0  0.0842
  C  C308  1  0.180170  0.953030  0.291930  1.0  0.0955
  C  C309  1  0.172770  0.048730  0.278830  1.0  0.1578
  C  C310  1  0.168170  0.087130  0.313830  1.0  0.1016
  C  C311  1  0.212370  0.169330  0.259530  1.0  0.127
  C  C312  1  0.220570  0.133630  0.224030  1.0  -0.129
  C  C313  1  0.201170  0.072430  0.232930  1.0  -0.1183
  C  C314  1  0.841330  0.187270  0.777270  1.0  0.1054
  C  C315  1  0.754330  0.182270  0.798670  1.0  0.1169
  C  C316  1  0.835530  0.211370  0.866970  1.0  0.1817
  C  C317  1  0.856030  0.175970  0.890670  1.0  -0.2057
  C  C318  1  0.885030  0.196670  0.938070  1.0  -0.1211
  C  C319  1  0.837530  0.260870  0.889870  1.0  0.1096
  C  C320  1  0.887230  0.248670  0.958870  1.0  0.1309
  C  C321  1  0.760430  0.280570  0.647570  1.0  0.0842
  C  C322  1  0.846830  0.286370  0.625270  1.0  0.0955
  C  C323  1  0.839430  0.382070  0.612170  1.0  0.1578
  C  C324  1  0.834830  0.420470  0.647170  1.0  0.1016
  C  C325  1  0.879030  0.502670  0.592870  1.0  0.127
  C  C326  1  0.887230  0.466970  0.557370  1.0  -0.129
  C  C327  1  0.867830  0.405770  0.566270  1.0  -0.1182
  C  C328  1  0.479400  0.987400  0.110600  1.0  0.1062
  C  C329  1  0.484400  0.905400  0.132000  1.0  0.1172
  C  C330  1  0.455300  0.957500  0.200300  1.0  0.1819
  C  C331  1  0.490700  0.013400  0.224000  1.0  -0.205
  C  C332  1  0.470000  0.021700  0.271400  1.0  -0.1181
  C  C333  1  0.405800  0.910000  0.223200  1.0  0.1101
  C  C334  1  0.418000  0.971900  0.292200  1.0  0.1276
  C  C335  1  0.386100  0.813200  0.980900  1.0  0.0856
  C  C336  1  0.380300  0.893800  0.958600  1.0  0.098
  C  C337  1  0.284600  0.790700  0.945500  1.0  0.1588
  C  C338  1  0.246200  0.747700  0.980500  1.0  0.1007
  C  C339  1  0.164000  0.709700  0.926200  1.0  0.1303
  C  C340  1  0.199700  0.753600  0.890700  1.0  -0.1278
  C  C341  1  0.260900  0.795400  0.899600  1.0  -0.1191
  C  C342  1  0.146070  0.320730  0.443930  1.0  0.1062
  C  C343  1  0.151070  0.238730  0.465330  1.0  0.1172
  C  C344  1  0.121970  0.290830  0.533630  1.0  0.1819
  C  C345  1  0.157370  0.346730  0.557330  1.0  -0.205
  C  C346  1  0.136670  0.355030  0.604730  1.0  -0.1181
  C  C347  1  0.072470  0.243330  0.556530  1.0  0.1102
  C  C348  1  0.084670  0.305230  0.625530  1.0  0.1276
  C  C349  1  0.052770  0.146530  0.314230  1.0  0.0856
  C  C350  1  0.046970  0.227130  0.291930  1.0  0.0979
  C  C351  1  0.951270  0.124030  0.278830  1.0  0.1588
  C  C352  1  0.912870  0.081030  0.313830  1.0  0.1005
  C  C353  1  0.830670  0.043030  0.259530  1.0  0.1302
  C  C354  1  0.866370  0.086930  0.224030  1.0  -0.1278
  C  C355  1  0.927570  0.128730  0.232930  1.0  -0.1191
  C  C356  1  0.812730  0.654070  0.777270  1.0  0.1062
  C  C357  1  0.817730  0.572070  0.798670  1.0  0.1172
  C  C358  1  0.788630  0.624170  0.866970  1.0  0.1819
  C  C359  1  0.824030  0.680070  0.890670  1.0  -0.205
  C  C360  1  0.803330  0.688370  0.938070  1.0  -0.1181
  C  C361  1  0.739130  0.576670  0.889870  1.0  0.1101
  C  C362  1  0.751330  0.638570  0.958870  1.0  0.1276
  C  C363  1  0.719430  0.479870  0.647570  1.0  0.0856
  C  C364  1  0.713630  0.560470  0.625270  1.0  0.098
  C  C365  1  0.617930  0.457370  0.612170  1.0  0.1588
  C  C366  1  0.579530  0.414370  0.647170  1.0  0.1007
  C  C367  1  0.497330  0.376370  0.592870  1.0  0.1303
  C  C368  1  0.533030  0.420270  0.557370  1.0  -0.1278
  C  C369  1  0.594230  0.462070  0.566270  1.0  -0.1191
  C  C370  1  0.987400  0.508000  0.889400  1.0  0.1061
  C  C371  1  0.905400  0.421000  0.868000  1.0  0.1161
  C  C372  1  0.957500  0.502200  0.799700  1.0  0.1807
  C  C373  1  0.013400  0.522700  0.776000  1.0  -0.2024
  C  C374  1  0.021700  0.551700  0.728600  1.0  -0.1222
  C  C375  1  0.910000  0.504200  0.776800  1.0  0.1106
  C  C376  1  0.971900  0.553900  0.707800  1.0  0.1314
  C  C377  1  0.813200  0.427100  0.019100  1.0  0.085
  C  C378  1  0.893800  0.513500  0.041400  1.0  0.0957
  C  C379  1  0.790700  0.506100  0.054500  1.0  0.1568
  C  C380  1  0.747700  0.501500  0.019500  1.0  0.1008
  C  C381  1  0.709700  0.545700  0.073800  1.0  0.132
  C  C382  1  0.753600  0.553900  0.109300  1.0  -0.1311
  C  C383  1  0.795400  0.534500  0.100400  1.0  -0.1198
  C  C384  1  0.654070  0.841330  0.222730  1.0  0.1061
  C  C385  1  0.572070  0.754330  0.201330  1.0  0.1161
  C  C386  1  0.624170  0.835530  0.133030  1.0  0.1807
  C  C387  1  0.680070  0.856030  0.109330  1.0  -0.2024
  C  C388  1  0.688370  0.885030  0.061930  1.0  -0.1222
  C  C389  1  0.576670  0.837530  0.110130  1.0  0.1106
  C  C390  1  0.638570  0.887230  0.041130  1.0  0.1314
  C  C391  1  0.479870  0.760430  0.352430  1.0  0.085
  C  C392  1  0.560470  0.846830  0.374730  1.0  0.0957
  C  C393  1  0.457370  0.839430  0.387830  1.0  0.1568
  C  C394  1  0.414370  0.834830  0.352830  1.0  0.1008
  C  C395  1  0.376370  0.879030  0.407130  1.0  0.132
  C  C396  1  0.420270  0.887230  0.442630  1.0  -0.1311
  C  C397  1  0.462070  0.867830  0.433730  1.0  -0.1198
  C  C398  1  0.320730  0.174670  0.556070  1.0  0.1061
  C  C399  1  0.238730  0.087670  0.534670  1.0  0.116
  C  C400  1  0.290830  0.168870  0.466370  1.0  0.1807
  C  C401  1  0.346730  0.189370  0.442670  1.0  -0.2024
  C  C402  1  0.355030  0.218370  0.395270  1.0  -0.1221
  C  C403  1  0.243330  0.170870  0.443470  1.0  0.1105
  C  C404  1  0.305230  0.220570  0.374470  1.0  0.1313
  C  C405  1  0.146530  0.093770  0.685770  1.0  0.085
  C  C406  1  0.227130  0.180170  0.708070  1.0  0.0957
  C  C407  1  0.124030  0.172770  0.721170  1.0  0.1568
  C  C408  1  0.081030  0.168170  0.686170  1.0  0.1008
  C  C409  1  0.043030  0.212370  0.740470  1.0  0.132
  C  C410  1  0.086930  0.220570  0.775970  1.0  -0.1311
  C  C411  1  0.128730  0.201170  0.767070  1.0  -0.1198
  C  C412  1  0.492000  0.479400  0.889400  1.0  0.1061
  C  C413  1  0.579000  0.484400  0.868000  1.0  0.1174
  C  C414  1  0.497800  0.455300  0.799700  1.0  0.1807
  C  C415  1  0.477300  0.490700  0.776000  1.0  -0.2061
  C  C416  1  0.448300  0.470000  0.728600  1.0  -0.1236
  C  C417  1  0.495800  0.405800  0.776800  1.0  0.1085
  C  C418  1  0.446100  0.418000  0.707800  1.0  0.1314
  C  C419  1  0.572900  0.386100  0.019100  1.0  0.0839
  C  C420  1  0.486500  0.380300  0.041400  1.0  0.0951
  C  C421  1  0.493900  0.284600  0.054500  1.0  0.1572
  C  C422  1  0.498500  0.246200  0.019500  1.0  0.1024
  C  C423  1  0.454300  0.164000  0.073800  1.0  0.1277
  C  C424  1  0.446100  0.199700  0.109300  1.0  -0.131
  C  C425  1  0.465500  0.260900  0.100400  1.0  -0.1208
  C  C426  1  0.158670  0.812730  0.222730  1.0  0.1061
  C  C427  1  0.245670  0.817730  0.201330  1.0  0.1174
  C  C428  1  0.164470  0.788630  0.133030  1.0  0.1807
  C  C429  1  0.143970  0.824030  0.109330  1.0  -0.2061
  C  C430  1  0.114970  0.803330  0.061930  1.0  -0.1236
  C  C431  1  0.162470  0.739130  0.110130  1.0  0.1085
  C  C432  1  0.112770  0.751330  0.041130  1.0  0.1314
  C  C433  1  0.239570  0.719430  0.352430  1.0  0.0839
  C  C434  1  0.153170  0.713630  0.374730  1.0  0.0951
  C  C435  1  0.160570  0.617930  0.387830  1.0  0.1572
  C  C436  1  0.165170  0.579530  0.352830  1.0  0.1024
  C  C437  1  0.120970  0.497330  0.407130  1.0  0.1277
  C  C438  1  0.112770  0.533030  0.442630  1.0  -0.131
  C  C439  1  0.132170  0.594230  0.433730  1.0  -0.1208
  C  C440  1  0.825330  0.146070  0.556070  1.0  0.1061
  C  C441  1  0.912330  0.151070  0.534670  1.0  0.1174
  C  C442  1  0.831130  0.121970  0.466370  1.0  0.1806
  C  C443  1  0.810630  0.157370  0.442670  1.0  -0.2061
  C  C444  1  0.781630  0.136670  0.395270  1.0  -0.1236
  C  C445  1  0.829130  0.072470  0.443470  1.0  0.1085
  C  C446  1  0.779430  0.084670  0.374470  1.0  0.1314
  C  C447  1  0.906230  0.052770  0.685770  1.0  0.0839
  C  C448  1  0.819830  0.046970  0.708070  1.0  0.0951
  C  C449  1  0.827230  0.951270  0.721170  1.0  0.1572
  C  C450  1  0.831830  0.912870  0.686170  1.0  0.1024
  C  C451  1  0.787630  0.830670  0.740470  1.0  0.1277
  C  C452  1  0.779430  0.866370  0.775970  1.0  -0.131
  C  C453  1  0.798830  0.927570  0.767070  1.0  -0.1209
  C  C454  1  0.520600  0.012600  0.889400  1.0  0.1071
  C  C455  1  0.515600  0.094600  0.868000  1.0  0.1163
  C  C456  1  0.544700  0.042500  0.799700  1.0  0.1818
  C  C457  1  0.509300  0.986600  0.776000  1.0  -0.2051
  C  C458  1  0.530000  0.978300  0.728600  1.0  -0.1207
  C  C459  1  0.594200  0.090000  0.776800  1.0  0.1086
  C  C460  1  0.582000  0.028100  0.707800  1.0  0.1284
  C  C461  1  0.613900  0.186800  0.019100  1.0  0.0857
  C  C462  1  0.619700  0.106200  0.041400  1.0  0.0986
  C  C463  1  0.715400  0.209300  0.054500  1.0  0.1578
  C  C464  1  0.753800  0.252300  0.019500  1.0  0.1021
  C  C465  1  0.836000  0.290300  0.073800  1.0  0.1309
  C  C466  1  0.800300  0.246400  0.109300  1.0  -0.1284
  C  C467  1  0.739100  0.204600  0.100400  1.0  -0.121
  C  C468  1  0.187270  0.345930  0.222730  1.0  0.1071
  C  C469  1  0.182270  0.427930  0.201330  1.0  0.1163
  C  C470  1  0.211370  0.375830  0.133030  1.0  0.1818
  C  C471  1  0.175970  0.319930  0.109330  1.0  -0.2051
  C  C472  1  0.196670  0.311630  0.061930  1.0  -0.1207
  C  C473  1  0.260870  0.423330  0.110130  1.0  0.1086
  C  C474  1  0.248670  0.361430  0.041130  1.0  0.1284
  C  C475  1  0.280570  0.520130  0.352430  1.0  0.0857
  C  C476  1  0.286370  0.439530  0.374730  1.0  0.0986
  C  C477  1  0.382070  0.542630  0.387830  1.0  0.1578
  C  C478  1  0.420470  0.585630  0.352830  1.0  0.1021
  C  C479  1  0.502670  0.623630  0.407130  1.0  0.1309
  C  C480  1  0.466970  0.579730  0.442630  1.0  -0.1284
  C  C481  1  0.405770  0.537930  0.433730  1.0  -0.121
  C  C482  1  0.853930  0.679270  0.556070  1.0  0.1071
  C  C483  1  0.848930  0.761270  0.534670  1.0  0.1163
  C  C484  1  0.878030  0.709170  0.466370  1.0  0.1818
  C  C485  1  0.842630  0.653270  0.442670  1.0  -0.2051
  C  C486  1  0.863330  0.644970  0.395270  1.0  -0.1206
  C  C487  1  0.927530  0.756670  0.443470  1.0  0.1086
  C  C488  1  0.915330  0.694770  0.374470  1.0  0.1284
  C  C489  1  0.947230  0.853470  0.685770  1.0  0.0857
  C  C490  1  0.953030  0.772870  0.708070  1.0  0.0985
  C  C491  1  0.048730  0.875970  0.721170  1.0  0.1578
  C  C492  1  0.087130  0.918970  0.686170  1.0  0.102
  C  C493  1  0.169330  0.956970  0.740470  1.0  0.1308
  C  C494  1  0.133630  0.913070  0.775970  1.0  -0.1284
  C  C495  1  0.072430  0.871270  0.767070  1.0  -0.121
  N  N496  1  0.032800  0.526600  0.070580  1.0  -0.2325
  N  N497  1  0.084500  0.582800  0.083600  1.0  -0.3077
  N  N498  1  0.049600  0.522800  0.150600  1.0  -0.005
  N  N499  1  0.083500  0.470000  0.268600  1.0  -0.3464
  N  N500  1  0.138500  0.577300  0.992690  1.0  -0.2831
  N  N501  1  0.086800  0.521700  0.978020  1.0  -0.2312
  N  N502  1  0.168800  0.516500  0.959200  1.0  -0.0011
  N  N503  1  0.293600  0.479700  0.971400  1.0  -0.3343
  N  N504  1  0.699470  0.859930  0.403910  1.0  -0.2325
  N  N505  1  0.751170  0.916130  0.416930  1.0  -0.3074
  N  N506  1  0.716270  0.856130  0.483930  1.0  -0.005
  N  N507  1  0.750170  0.803330  0.601930  1.0  -0.3464
  N  N508  1  0.805170  0.910630  0.326020  1.0  -0.2831
  N  N509  1  0.753470  0.855030  0.311350  1.0  -0.2312
  N  N510  1  0.835470  0.849830  0.292530  1.0  -0.0011
  N  N511  1  0.960270  0.813030  0.304730  1.0  -0.3343
  N  N512  1  0.366130  0.193270  0.737250  1.0  -0.2325
  N  N513  1  0.417830  0.249470  0.750270  1.0  -0.3077
  N  N514  1  0.382930  0.189470  0.817270  1.0  -0.005
  N  N515  1  0.416830  0.136670  0.935270  1.0  -0.3464
  N  N516  1  0.471830  0.243970  0.659360  1.0  -0.2831
  N  N517  1  0.420130  0.188370  0.644690  1.0  -0.2312
  N  N518  1  0.502130  0.183170  0.625870  1.0  -0.0011
  N  N519  1  0.626930  0.146370  0.638070  1.0  -0.3343
  N  N520  1  0.473400  0.506200  0.070580  1.0  -0.2344
  N  N521  1  0.417200  0.501700  0.083600  1.0  -0.3082
  N  N522  1  0.477200  0.526800  0.150600  1.0  -0.0044
  N  N523  1  0.530000  0.613500  0.268600  1.0  -0.3476
  N  N524  1  0.422700  0.561200  0.992690  1.0  -0.2819
  N  N525  1  0.478300  0.565100  0.978020  1.0  -0.2277
  N  N526  1  0.483500  0.652300  0.959200  1.0  0.0005
  N  N527  1  0.520300  0.813900  0.971400  1.0  -0.3353
  N  N528  1  0.140070  0.839530  0.403910  1.0  -0.2344
  N  N529  1  0.083870  0.835030  0.416930  1.0  -0.3082
  N  N530  1  0.143870  0.860130  0.483930  1.0  -0.0044
  N  N531  1  0.196670  0.946830  0.601930  1.0  -0.3476
  N  N532  1  0.089370  0.894530  0.326020  1.0  -0.2819
  N  N533  1  0.144970  0.898430  0.311350  1.0  -0.2277
  N  N534  1  0.150170  0.985630  0.292530  1.0  0.0005
  N  N535  1  0.186970  0.147230  0.304730  1.0  -0.3353
  N  N536  1  0.806730  0.172870  0.737250  1.0  -0.2344
  N  N537  1  0.750530  0.168370  0.750270  1.0  -0.3082
  N  N538  1  0.810530  0.193470  0.817270  1.0  -0.0044
  N  N539  1  0.863330  0.280170  0.935270  1.0  -0.3476
  N  N540  1  0.756030  0.227870  0.659360  1.0  -0.2819
  N  N541  1  0.811630  0.231770  0.644690  1.0  -0.2277
  N  N542  1  0.816830  0.318970  0.625870  1.0  0.0005
  N  N543  1  0.853630  0.480570  0.638070  1.0  -0.3353
  N  N544  1  0.493800  0.967200  0.070580  1.0  -0.2339
  N  N545  1  0.498300  0.915500  0.083600  1.0  -0.3058
  N  N546  1  0.473200  0.950400  0.150600  1.0  -0.0048
  N  N547  1  0.386500  0.916500  0.268600  1.0  -0.3467
  N  N548  1  0.438800  0.861500  0.992690  1.0  -0.2838
  N  N549  1  0.434900  0.913200  0.978020  1.0  -0.2317
  N  N550  1  0.347700  0.831200  0.959200  1.0  -1e-04
  N  N551  1  0.186100  0.706400  0.971400  1.0  -0.3354
  N  N552  1  0.160470  0.300530  0.403910  1.0  -0.234
  N  N553  1  0.164970  0.248830  0.416930  1.0  -0.3058
  N  N554  1  0.139870  0.283730  0.483930  1.0  -0.0048
  N  N555  1  0.053170  0.249830  0.601930  1.0  -0.3467
  N  N556  1  0.105470  0.194830  0.326020  1.0  -0.2838
  N  N557  1  0.101570  0.246530  0.311350  1.0  -0.2318
  N  N558  1  0.014370  0.164530  0.292530  1.0  -1e-04
  N  N559  1  0.852770  0.039730  0.304730  1.0  -0.3354
  N  N560  1  0.827130  0.633870  0.737250  1.0  -0.2339
  N  N561  1  0.831630  0.582170  0.750270  1.0  -0.3058
  N  N562  1  0.806530  0.617070  0.817270  1.0  -0.0048
  N  N563  1  0.719830  0.583170  0.935270  1.0  -0.3467
  N  N564  1  0.772130  0.528170  0.659360  1.0  -0.2838
  N  N565  1  0.768230  0.579870  0.644690  1.0  -0.2317
  N  N566  1  0.681030  0.497870  0.625870  1.0  -1e-04
  N  N567  1  0.519430  0.373070  0.638070  1.0  -0.3354
  N  N568  1  0.967200  0.473400  0.929420  1.0  -0.2324
  N  N569  1  0.915500  0.417200  0.916400  1.0  -0.305
  N  N570  1  0.950400  0.477200  0.849400  1.0  -0.0046
  N  N571  1  0.916500  0.530000  0.731400  1.0  -0.3442
  N  N572  1  0.861500  0.422700  0.007310  1.0  -0.2834
  N  N573  1  0.913200  0.478300  0.021980  1.0  -0.2307
  N  N574  1  0.831200  0.483500  0.040800  1.0  -0.0003
  N  N575  1  0.706400  0.520300  0.028600  1.0  -0.3358
  N  N576  1  0.633870  0.806730  0.262750  1.0  -0.2324
  N  N577  1  0.582170  0.750530  0.249730  1.0  -0.305
  N  N578  1  0.617070  0.810530  0.182730  1.0  -0.0046
  N  N579  1  0.583170  0.863330  0.064730  1.0  -0.3442
  N  N580  1  0.528170  0.756030  0.340640  1.0  -0.2834
  N  N581  1  0.579870  0.811630  0.355310  1.0  -0.2307
  N  N582  1  0.497870  0.816830  0.374130  1.0  -0.0003
  N  N583  1  0.373070  0.853630  0.361930  1.0  -0.3358
  N  N584  1  0.300530  0.140070  0.596090  1.0  -0.2324
  N  N585  1  0.248830  0.083870  0.583070  1.0  -0.3047
  N  N586  1  0.283730  0.143870  0.516070  1.0  -0.0046
  N  N587  1  0.249830  0.196670  0.398070  1.0  -0.3442
  N  N588  1  0.194830  0.089370  0.673980  1.0  -0.2834
  N  N589  1  0.246530  0.144970  0.688650  1.0  -0.2307
  N  N590  1  0.164530  0.150170  0.707470  1.0  -0.0003
  N  N591  1  0.039730  0.186970  0.695270  1.0  -0.3358
  N  N592  1  0.526600  0.493800  0.929420  1.0  -0.2344
  N  N593  1  0.582800  0.498300  0.916400  1.0  -0.3063
  N  N594  1  0.522800  0.473200  0.849400  1.0  -0.0047
  N  N595  1  0.470000  0.386500  0.731400  1.0  -0.3471
  N  N596  1  0.577300  0.438800  0.007310  1.0  -0.2809
  N  N597  1  0.521700  0.434900  0.021980  1.0  -0.2291
  N  N598  1  0.516500  0.347700  0.040800  1.0  0.0004
  N  N599  1  0.479700  0.186100  0.028600  1.0  -0.3362
  N  N600  1  0.193270  0.827130  0.262750  1.0  -0.2344
  N  N601  1  0.249470  0.831630  0.249730  1.0  -0.3063
  N  N602  1  0.189470  0.806530  0.182730  1.0  -0.0047
  N  N603  1  0.136670  0.719830  0.064730  1.0  -0.3471
  N  N604  1  0.243970  0.772130  0.340640  1.0  -0.2809
  N  N605  1  0.188370  0.768230  0.355310  1.0  -0.2291
  N  N606  1  0.183170  0.681030  0.374130  1.0  0.0004
  N  N607  1  0.146370  0.519430  0.361930  1.0  -0.3362
  N  N608  1  0.859930  0.160470  0.596090  1.0  -0.2344
  N  N609  1  0.916130  0.164970  0.583070  1.0  -0.3063
  N  N610  1  0.856130  0.139870  0.516070  1.0  -0.0047
  N  N611  1  0.803330  0.053170  0.398070  1.0  -0.3472
  N  N612  1  0.910630  0.105470  0.673980  1.0  -0.2809
  N  N613  1  0.855030  0.101570  0.688650  1.0  -0.2291
  N  N614  1  0.849830  0.014370  0.707470  1.0  0.0004
  N  N615  1  0.813030  0.852770  0.695270  1.0  -0.3362
  N  N616  1  0.506200  0.032800  0.929420  1.0  -0.2343
  N  N617  1  0.501700  0.084500  0.916400  1.0  -0.3052
  N  N618  1  0.526800  0.049600  0.849400  1.0  -0.0045
  N  N619  1  0.613500  0.083500  0.731400  1.0  -0.3456
  N  N620  1  0.561200  0.138500  0.007310  1.0  -0.2835
  N  N621  1  0.565100  0.086800  0.021980  1.0  -0.2309
  N  N622  1  0.652300  0.168800  0.040800  1.0  -0.0011
  N  N623  1  0.813900  0.293600  0.028600  1.0  -0.3378
  N  N624  1  0.172870  0.366130  0.262750  1.0  -0.2343
  N  N625  1  0.168370  0.417830  0.249730  1.0  -0.3052
  N  N626  1  0.193470  0.382930  0.182730  1.0  -0.0045
  N  N627  1  0.280170  0.416830  0.064730  1.0  -0.3456
  N  N628  1  0.227870  0.471830  0.340640  1.0  -0.2835
  N  N629  1  0.231770  0.420130  0.355310  1.0  -0.2309
  N  N630  1  0.318970  0.502130  0.374130  1.0  -0.0011
  N  N631  1  0.480570  0.626930  0.361930  1.0  -0.3378
  N  N632  1  0.839530  0.699470  0.596090  1.0  -0.2344
  N  N633  1  0.835030  0.751170  0.583070  1.0  -0.3052
  N  N634  1  0.860130  0.716270  0.516070  1.0  -0.0045
  N  N635  1  0.946830  0.750170  0.398070  1.0  -0.3456
  N  N636  1  0.894530  0.805170  0.673980  1.0  -0.2835
  N  N637  1  0.898430  0.753470  0.688650  1.0  -0.2309
  N  N638  1  0.985630  0.835470  0.707470  1.0  -0.0011
  N  N639  1  0.147230  0.960270  0.695270  1.0  -0.3379
  Cl  Cl640  1  0.028360  0.614780  0.982570  1.0  -0.5757
  Cl  Cl641  1  0.695030  0.948110  0.315900  1.0  -0.5757
  Cl  Cl642  1  0.361690  0.281450  0.649240  1.0  -0.5751
  Cl  Cl643  1  0.385220  0.413580  0.982570  1.0  -0.5732
  Cl  Cl644  1  0.051890  0.746910  0.315900  1.0  -0.5732
  Cl  Cl645  1  0.718550  0.080250  0.649240  1.0  -0.5724
  Cl  Cl646  1  0.586420  0.971640  0.982570  1.0  -0.5744
  Cl  Cl647  1  0.253090  0.304970  0.315900  1.0  -0.5744
  Cl  Cl648  1  0.919750  0.638310  0.649240  1.0  -0.5737
  Cl  Cl649  1  0.971640  0.385220  0.017430  1.0  -0.5753
  Cl  Cl650  1  0.638310  0.718550  0.350760  1.0  -0.575
  Cl  Cl651  1  0.304970  0.051890  0.684100  1.0  -0.5753
  Cl  Cl652  1  0.614780  0.586420  0.017430  1.0  -0.5723
  Cl  Cl653  1  0.281450  0.919750  0.350760  1.0  -0.5718
  Cl  Cl654  1  0.948110  0.253090  0.684100  1.0  -0.5723
  Cl  Cl655  1  0.413580  0.028360  0.017430  1.0  -0.5741
  Cl  Cl656  1  0.080250  0.361690  0.350760  1.0  -0.5738
  Cl  Cl657  1  0.746910  0.695030  0.684100  1.0  -0.5741
