# generated using pymatgen
data_Cu3H18C21N12O
_symmetry_space_group_name_H-M   'P 1'
_cell_length_a   21.13180000
_cell_length_b   21.13180000
_cell_length_c   21.13180000
_cell_angle_alpha   90.00000000
_cell_angle_beta   90.00000000
_cell_angle_gamma   90.00000000
_symmetry_Int_Tables_number   1
_chemical_formula_structural   Cu3H18C21N12O
_chemical_formula_sum   'Cu24 H144 C168 N96 O8'
_cell_volume   9436.46807765
_cell_formula_units_Z   8
loop_
 _symmetry_equiv_pos_site_id
 _symmetry_equiv_pos_as_xyz
  1  'x, y, z'
loop_
 _atom_site_type_symbol
 _atom_site_label
 _atom_site_symmetry_multiplicity
 _atom_site_fract_x
 _atom_site_fract_y
 _atom_site_fract_z
 _atom_site_occupancy
 _atom_site_charge
  Cu  Cu1  1  0.713900  0.828250  0.828250  1.0  0.6132
  Cu  Cu2  1  0.213900  0.328250  0.328250  1.0  0.6132
  Cu  Cu3  1  0.286100  0.171750  0.828250  1.0  0.612
  Cu  Cu4  1  0.786100  0.671750  0.328250  1.0  0.612
  Cu  Cu5  1  0.286100  0.828250  0.171750  1.0  0.6124
  Cu  Cu6  1  0.786100  0.328250  0.671750  1.0  0.6124
  Cu  Cu7  1  0.713900  0.171750  0.171750  1.0  0.6132
  Cu  Cu8  1  0.213900  0.671750  0.671750  1.0  0.6132
  Cu  Cu9  1  0.828250  0.713900  0.828250  1.0  0.6119
  Cu  Cu10  1  0.328250  0.213900  0.328250  1.0  0.6119
  Cu  Cu11  1  0.828250  0.286100  0.171750  1.0  0.6151
  Cu  Cu12  1  0.328250  0.786100  0.671750  1.0  0.6151
  Cu  Cu13  1  0.171750  0.286100  0.828250  1.0  0.615
  Cu  Cu14  1  0.671750  0.786100  0.328250  1.0  0.615
  Cu  Cu15  1  0.171750  0.713900  0.171750  1.0  0.6118
  Cu  Cu16  1  0.671750  0.213900  0.671750  1.0  0.6118
  Cu  Cu17  1  0.828250  0.828250  0.713900  1.0  0.6146
  Cu  Cu18  1  0.328250  0.328250  0.213900  1.0  0.6146
  Cu  Cu19  1  0.171750  0.828250  0.286100  1.0  0.6152
  Cu  Cu20  1  0.671750  0.328250  0.786100  1.0  0.6152
  Cu  Cu21  1  0.828250  0.171750  0.286100  1.0  0.6153
  Cu  Cu22  1  0.328250  0.671750  0.786100  1.0  0.6153
  Cu  Cu23  1  0.171750  0.171750  0.713900  1.0  0.614
  Cu  Cu24  1  0.671750  0.671750  0.213900  1.0  0.614
  H  H25  1  0.635400  0.943900  0.767200  1.0  0.0546
  H  H26  1  0.135400  0.443900  0.267200  1.0  0.0546
  H  H27  1  0.364600  0.056100  0.767200  1.0  0.055
  H  H28  1  0.864600  0.556100  0.267200  1.0  0.055
  H  H29  1  0.364600  0.943900  0.232800  1.0  0.0553
  H  H30  1  0.864600  0.443900  0.732800  1.0  0.0553
  H  H31  1  0.635400  0.056100  0.232800  1.0  0.0554
  H  H32  1  0.135400  0.556100  0.732800  1.0  0.0554
  H  H33  1  0.767200  0.635400  0.943900  1.0  0.0572
  H  H34  1  0.267200  0.135400  0.443900  1.0  0.0572
  H  H35  1  0.767200  0.364600  0.056100  1.0  0.057
  H  H36  1  0.267200  0.864600  0.556100  1.0  0.057
  H  H37  1  0.232800  0.364600  0.943900  1.0  0.0568
  H  H38  1  0.732800  0.864600  0.443900  1.0  0.0568
  H  H39  1  0.232800  0.635400  0.056100  1.0  0.0572
  H  H40  1  0.732800  0.135400  0.556100  1.0  0.0572
  H  H41  1  0.943900  0.767200  0.635400  1.0  0.0576
  H  H42  1  0.443900  0.267200  0.135400  1.0  0.0576
  H  H43  1  0.056100  0.767200  0.364600  1.0  0.0574
  H  H44  1  0.556100  0.267200  0.864600  1.0  0.0574
  H  H45  1  0.943900  0.232800  0.364600  1.0  0.0576
  H  H46  1  0.443900  0.732800  0.864600  1.0  0.0576
  H  H47  1  0.056100  0.232800  0.635400  1.0  0.0578
  H  H48  1  0.556100  0.732800  0.135400  1.0  0.0578
  H  H49  1  0.943900  0.635400  0.767200  1.0  0.0566
  H  H50  1  0.443900  0.135400  0.267200  1.0  0.0566
  H  H51  1  0.056100  0.364600  0.767200  1.0  0.0562
  H  H52  1  0.556100  0.864600  0.267200  1.0  0.0562
  H  H53  1  0.943900  0.364600  0.232800  1.0  0.0566
  H  H54  1  0.443900  0.864600  0.732800  1.0  0.0566
  H  H55  1  0.056100  0.635400  0.232800  1.0  0.0569
  H  H56  1  0.556100  0.135400  0.732800  1.0  0.0569
  H  H57  1  0.635400  0.767200  0.943900  1.0  0.0555
  H  H58  1  0.135400  0.267200  0.443900  1.0  0.0555
  H  H59  1  0.364600  0.767200  0.056100  1.0  0.0558
  H  H60  1  0.864600  0.267200  0.556100  1.0  0.0558
  H  H61  1  0.364600  0.232800  0.943900  1.0  0.0557
  H  H62  1  0.864600  0.732800  0.443900  1.0  0.0557
  H  H63  1  0.635400  0.232800  0.056100  1.0  0.0557
  H  H64  1  0.135400  0.732800  0.556100  1.0  0.0557
  H  H65  1  0.767200  0.943900  0.635400  1.0  0.0576
  H  H66  1  0.267200  0.443900  0.135400  1.0  0.0576
  H  H67  1  0.767200  0.056100  0.364600  1.0  0.0574
  H  H68  1  0.267200  0.556100  0.864600  1.0  0.0574
  H  H69  1  0.232800  0.943900  0.364600  1.0  0.0573
  H  H70  1  0.732800  0.443900  0.864600  1.0  0.0573
  H  H71  1  0.232800  0.056100  0.635400  1.0  0.0576
  H  H72  1  0.732800  0.556100  0.135400  1.0  0.0576
  H  H73  1  0.582300  0.149400  0.582300  1.0  0.0561
  H  H74  1  0.554000  0.050600  0.554000  1.0  0.0632
  H  H75  1  0.601300  0.962700  0.601300  1.0  0.0853
  H  H76  1  0.704600  0.082900  0.704600  1.0  0.0747
  H  H77  1  0.082300  0.649400  0.082300  1.0  0.0561
  H  H78  1  0.054000  0.550600  0.054000  1.0  0.0632
  H  H79  1  0.101300  0.462700  0.101300  1.0  0.0853
  H  H80  1  0.204600  0.582900  0.204600  1.0  0.0747
  H  H81  1  0.417700  0.850600  0.582300  1.0  0.0558
  H  H82  1  0.446000  0.949400  0.554000  1.0  0.0627
  H  H83  1  0.398700  0.037300  0.601300  1.0  0.0857
  H  H84  1  0.295400  0.917100  0.704600  1.0  0.0749
  H  H85  1  0.917700  0.350600  0.082300  1.0  0.0558
  H  H86  1  0.946000  0.449400  0.054000  1.0  0.0627
  H  H87  1  0.898700  0.537300  0.101300  1.0  0.0857
  H  H88  1  0.795400  0.417100  0.204600  1.0  0.0749
  H  H89  1  0.417700  0.149400  0.417700  1.0  0.0559
  H  H90  1  0.446000  0.050600  0.446000  1.0  0.0632
  H  H91  1  0.398700  0.962700  0.398700  1.0  0.0843
  H  H92  1  0.295400  0.082900  0.295400  1.0  0.074
  H  H93  1  0.917700  0.649400  0.917700  1.0  0.0559
  H  H94  1  0.946000  0.550600  0.946000  1.0  0.0632
  H  H95  1  0.898700  0.462700  0.898700  1.0  0.0843
  H  H96  1  0.795400  0.582900  0.795400  1.0  0.074
  H  H97  1  0.582300  0.850600  0.417700  1.0  0.0561
  H  H98  1  0.554000  0.949400  0.446000  1.0  0.0637
  H  H99  1  0.601300  0.037300  0.398700  1.0  0.0851
  H  H100  1  0.704600  0.917100  0.295400  1.0  0.0742
  H  H101  1  0.082300  0.350600  0.917700  1.0  0.0561
  H  H102  1  0.054000  0.449400  0.946000  1.0  0.0637
  H  H103  1  0.101300  0.537300  0.898700  1.0  0.0851
  H  H104  1  0.204600  0.417100  0.795400  1.0  0.0742
  H  H105  1  0.582300  0.582300  0.149400  1.0  0.0562
  H  H106  1  0.554000  0.554000  0.050600  1.0  0.0629
  H  H107  1  0.601300  0.601300  0.962700  1.0  0.085
  H  H108  1  0.704600  0.704600  0.082900  1.0  0.0744
  H  H109  1  0.082300  0.082300  0.649400  1.0  0.0562
  H  H110  1  0.054000  0.054000  0.550600  1.0  0.0629
  H  H111  1  0.101300  0.101300  0.462700  1.0  0.085
  H  H112  1  0.204600  0.204600  0.582900  1.0  0.0744
  H  H113  1  0.582300  0.417700  0.850600  1.0  0.0562
  H  H114  1  0.554000  0.446000  0.949400  1.0  0.0626
  H  H115  1  0.601300  0.398700  0.037300  1.0  0.0848
  H  H116  1  0.704600  0.295400  0.917100  1.0  0.0745
  H  H117  1  0.082300  0.917700  0.350600  1.0  0.0562
  H  H118  1  0.054000  0.946000  0.449400  1.0  0.0626
  H  H119  1  0.101300  0.898700  0.537300  1.0  0.0848
  H  H120  1  0.204600  0.795400  0.417100  1.0  0.0745
  H  H121  1  0.417700  0.417700  0.149400  1.0  0.0564
  H  H122  1  0.446000  0.446000  0.050600  1.0  0.0623
  H  H123  1  0.398700  0.398700  0.962700  1.0  0.0849
  H  H124  1  0.295400  0.295400  0.082900  1.0  0.0743
  H  H125  1  0.917700  0.917700  0.649400  1.0  0.0564
  H  H126  1  0.946000  0.946000  0.550600  1.0  0.0623
  H  H127  1  0.898700  0.898700  0.462700  1.0  0.0849
  H  H128  1  0.795400  0.795400  0.582900  1.0  0.0743
  H  H129  1  0.417700  0.582300  0.850600  1.0  0.0565
  H  H130  1  0.446000  0.554000  0.949400  1.0  0.0627
  H  H131  1  0.398700  0.601300  0.037300  1.0  0.0845
  H  H132  1  0.295400  0.704600  0.917100  1.0  0.0747
  H  H133  1  0.917700  0.082300  0.350600  1.0  0.0565
  H  H134  1  0.946000  0.054000  0.449400  1.0  0.0627
  H  H135  1  0.898700  0.101300  0.537300  1.0  0.0845
  H  H136  1  0.795400  0.204600  0.417100  1.0  0.0747
  H  H137  1  0.149400  0.582300  0.582300  1.0  0.0565
  H  H138  1  0.050600  0.554000  0.554000  1.0  0.0628
  H  H139  1  0.962700  0.601300  0.601300  1.0  0.0857
  H  H140  1  0.082900  0.704600  0.704600  1.0  0.0754
  H  H141  1  0.649400  0.082300  0.082300  1.0  0.0565
  H  H142  1  0.550600  0.054000  0.054000  1.0  0.0628
  H  H143  1  0.462700  0.101300  0.101300  1.0  0.0857
  H  H144  1  0.582900  0.204600  0.204600  1.0  0.0754
  H  H145  1  0.850600  0.582300  0.417700  1.0  0.0573
  H  H146  1  0.949400  0.554000  0.446000  1.0  0.0637
  H  H147  1  0.037300  0.601300  0.398700  1.0  0.0838
  H  H148  1  0.917100  0.704600  0.295400  1.0  0.0747
  H  H149  1  0.350600  0.082300  0.917700  1.0  0.0573
  H  H150  1  0.449400  0.054000  0.946000  1.0  0.0637
  H  H151  1  0.537300  0.101300  0.898700  1.0  0.0838
  H  H152  1  0.417100  0.204600  0.795400  1.0  0.0747
  H  H153  1  0.149400  0.417700  0.417700  1.0  0.0572
  H  H154  1  0.050600  0.446000  0.446000  1.0  0.0628
  H  H155  1  0.962700  0.398700  0.398700  1.0  0.0845
  H  H156  1  0.082900  0.295400  0.295400  1.0  0.0748
  H  H157  1  0.649400  0.917700  0.917700  1.0  0.0572
  H  H158  1  0.550600  0.946000  0.946000  1.0  0.0628
  H  H159  1  0.462700  0.898700  0.898700  1.0  0.0845
  H  H160  1  0.582900  0.795400  0.795400  1.0  0.0748
  H  H161  1  0.850600  0.417700  0.582300  1.0  0.0572
  H  H162  1  0.949400  0.446000  0.554000  1.0  0.0628
  H  H163  1  0.037300  0.398700  0.601300  1.0  0.0851
  H  H164  1  0.917100  0.295400  0.704600  1.0  0.0758
  H  H165  1  0.350600  0.917700  0.082300  1.0  0.0572
  H  H166  1  0.449400  0.946000  0.054000  1.0  0.0628
  H  H167  1  0.537300  0.898700  0.101300  1.0  0.0851
  H  H168  1  0.417100  0.795400  0.204600  1.0  0.0758
  C  C169  1  0.671100  0.934000  0.743500  1.0  0.0911
  C  C170  1  0.171100  0.434000  0.243500  1.0  0.0911
  C  C171  1  0.328900  0.066000  0.743500  1.0  0.0922
  C  C172  1  0.828900  0.566000  0.243500  1.0  0.0922
  C  C173  1  0.328900  0.934000  0.256500  1.0  0.092
  C  C174  1  0.828900  0.434000  0.756500  1.0  0.092
  C  C175  1  0.671100  0.066000  0.256500  1.0  0.0917
  C  C176  1  0.171100  0.566000  0.756500  1.0  0.0917
  C  C177  1  0.743500  0.671100  0.934000  1.0  0.0912
  C  C178  1  0.243500  0.171100  0.434000  1.0  0.0912
  C  C179  1  0.743500  0.328900  0.066000  1.0  0.0911
  C  C180  1  0.243500  0.828900  0.566000  1.0  0.0911
  C  C181  1  0.256500  0.328900  0.934000  1.0  0.0901
  C  C182  1  0.756500  0.828900  0.434000  1.0  0.0901
  C  C183  1  0.256500  0.671100  0.066000  1.0  0.0906
  C  C184  1  0.756500  0.171100  0.566000  1.0  0.0906
  C  C185  1  0.934000  0.743500  0.671100  1.0  0.0921
  C  C186  1  0.434000  0.243500  0.171100  1.0  0.0921
  C  C187  1  0.066000  0.743500  0.328900  1.0  0.0917
  C  C188  1  0.566000  0.243500  0.828900  1.0  0.0917
  C  C189  1  0.934000  0.256500  0.328900  1.0  0.0932
  C  C190  1  0.434000  0.756500  0.828900  1.0  0.0932
  C  C191  1  0.066000  0.256500  0.671100  1.0  0.0918
  C  C192  1  0.566000  0.756500  0.171100  1.0  0.0918
  C  C193  1  0.934000  0.671100  0.743500  1.0  0.0909
  C  C194  1  0.434000  0.171100  0.243500  1.0  0.0909
  C  C195  1  0.066000  0.328900  0.743500  1.0  0.0898
  C  C196  1  0.566000  0.828900  0.243500  1.0  0.0898
  C  C197  1  0.934000  0.328900  0.256500  1.0  0.0908
  C  C198  1  0.434000  0.828900  0.756500  1.0  0.0908
  C  C199  1  0.066000  0.671100  0.256500  1.0  0.0906
  C  C200  1  0.566000  0.171100  0.756500  1.0  0.0906
  C  C201  1  0.671100  0.743500  0.934000  1.0  0.0909
  C  C202  1  0.171100  0.243500  0.434000  1.0  0.0909
  C  C203  1  0.328900  0.743500  0.066000  1.0  0.0918
  C  C204  1  0.828900  0.243500  0.566000  1.0  0.0918
  C  C205  1  0.328900  0.256500  0.934000  1.0  0.092
  C  C206  1  0.828900  0.756500  0.434000  1.0  0.092
  C  C207  1  0.671100  0.256500  0.066000  1.0  0.0919
  C  C208  1  0.171100  0.756500  0.566000  1.0  0.0919
  C  C209  1  0.743500  0.934000  0.671100  1.0  0.0925
  C  C210  1  0.243500  0.434000  0.171100  1.0  0.0925
  C  C211  1  0.743500  0.066000  0.328900  1.0  0.0936
  C  C212  1  0.243500  0.566000  0.828900  1.0  0.0936
  C  C213  1  0.256500  0.934000  0.328900  1.0  0.0922
  C  C214  1  0.756500  0.434000  0.828900  1.0  0.0922
  C  C215  1  0.256500  0.066000  0.671100  1.0  0.0922
  C  C216  1  0.756500  0.566000  0.171100  1.0  0.0922
  C  C217  1  0.601800  0.115100  0.601800  1.0  0.1165
  C  C218  1  0.584900  0.056200  0.584900  1.0  -0.1552
  C  C219  1  0.612700  0.003600  0.612700  1.0  -0.191
  C  C220  1  0.657000  0.014800  0.657000  1.0  0.1498
  C  C221  1  0.673900  0.076000  0.673900  1.0  0.0775
  C  C222  1  0.101800  0.615100  0.101800  1.0  0.1165
  C  C223  1  0.084900  0.556200  0.084900  1.0  -0.1552
  C  C224  1  0.112700  0.503600  0.112700  1.0  -0.191
  C  C225  1  0.157000  0.514800  0.157000  1.0  0.1498
  C  C226  1  0.173900  0.576000  0.173900  1.0  0.0775
  C  C227  1  0.398200  0.884900  0.601800  1.0  0.1142
  C  C228  1  0.415100  0.943800  0.584900  1.0  -0.1528
  C  C229  1  0.387300  0.996400  0.612700  1.0  -0.1892
  C  C230  1  0.343000  0.985200  0.657000  1.0  0.1487
  C  C231  1  0.326100  0.924000  0.673900  1.0  0.0786
  C  C232  1  0.898200  0.384900  0.101800  1.0  0.1142
  C  C233  1  0.915100  0.443800  0.084900  1.0  -0.1528
  C  C234  1  0.887300  0.496400  0.112700  1.0  -0.1892
  C  C235  1  0.843000  0.485200  0.157000  1.0  0.1487
  C  C236  1  0.826100  0.424000  0.173900  1.0  0.0786
  C  C237  1  0.398200  0.115100  0.398200  1.0  0.1157
  C  C238  1  0.415100  0.056200  0.415100  1.0  -0.1535
  C  C239  1  0.387300  0.003600  0.387300  1.0  -0.1909
  C  C240  1  0.343000  0.014800  0.343000  1.0  0.149
  C  C241  1  0.326100  0.076000  0.326100  1.0  0.0796
  C  C242  1  0.898200  0.615100  0.898200  1.0  0.1157
  C  C243  1  0.915100  0.556200  0.915100  1.0  -0.1535
  C  C244  1  0.887300  0.503600  0.887300  1.0  -0.1909
  C  C245  1  0.843000  0.514800  0.843000  1.0  0.149
  C  C246  1  0.826100  0.576000  0.826100  1.0  0.0796
  C  C247  1  0.601800  0.884900  0.398200  1.0  0.115
  C  C248  1  0.584900  0.943800  0.415100  1.0  -0.156
  C  C249  1  0.612700  0.996400  0.387300  1.0  -0.1904
  C  C250  1  0.657000  0.985200  0.343000  1.0  0.1495
  C  C251  1  0.673900  0.924000  0.326100  1.0  0.0792
  C  C252  1  0.101800  0.384900  0.898200  1.0  0.115
  C  C253  1  0.084900  0.443800  0.915100  1.0  -0.156
  C  C254  1  0.112700  0.496400  0.887300  1.0  -0.1904
  C  C255  1  0.157000  0.485200  0.843000  1.0  0.1495
  C  C256  1  0.173900  0.424000  0.826100  1.0  0.0792
  C  C257  1  0.601800  0.601800  0.115100  1.0  0.1161
  C  C258  1  0.584900  0.584900  0.056200  1.0  -0.1569
  C  C259  1  0.612700  0.612700  0.003600  1.0  -0.1844
  C  C260  1  0.657000  0.657000  0.014800  1.0  0.1498
  C  C261  1  0.673900  0.673900  0.076000  1.0  0.0752
  C  C262  1  0.101800  0.101800  0.615100  1.0  0.1161
  C  C263  1  0.084900  0.084900  0.556200  1.0  -0.1569
  C  C264  1  0.112700  0.112700  0.503600  1.0  -0.1844
  C  C265  1  0.157000  0.157000  0.514800  1.0  0.1498
  C  C266  1  0.173900  0.173900  0.576000  1.0  0.0752
  C  C267  1  0.601800  0.398200  0.884900  1.0  0.1167
  C  C268  1  0.584900  0.415100  0.943800  1.0  -0.1572
  C  C269  1  0.612700  0.387300  0.996400  1.0  -0.1867
  C  C270  1  0.657000  0.343000  0.985200  1.0  0.1501
  C  C271  1  0.673900  0.326100  0.924000  1.0  0.0761
  C  C272  1  0.101800  0.898200  0.384900  1.0  0.1167
  C  C273  1  0.084900  0.915100  0.443800  1.0  -0.1572
  C  C274  1  0.112700  0.887300  0.496400  1.0  -0.1867
  C  C275  1  0.157000  0.843000  0.485200  1.0  0.1501
  C  C276  1  0.173900  0.826100  0.424000  1.0  0.0761
  C  C277  1  0.398200  0.398200  0.115100  1.0  0.1149
  C  C278  1  0.415100  0.415100  0.056200  1.0  -0.1544
  C  C279  1  0.387300  0.387300  0.003600  1.0  -0.1844
  C  C280  1  0.343000  0.343000  0.014800  1.0  0.1489
  C  C281  1  0.326100  0.326100  0.076000  1.0  0.0774
  C  C282  1  0.898200  0.898200  0.615100  1.0  0.1149
  C  C283  1  0.915100  0.915100  0.556200  1.0  -0.1544
  C  C284  1  0.887300  0.887300  0.503600  1.0  -0.1844
  C  C285  1  0.843000  0.843000  0.514800  1.0  0.1489
  C  C286  1  0.826100  0.826100  0.576000  1.0  0.0774
  C  C287  1  0.398200  0.601800  0.884900  1.0  0.1159
  C  C288  1  0.415100  0.584900  0.943800  1.0  -0.1553
  C  C289  1  0.387300  0.612700  0.996400  1.0  -0.1849
  C  C290  1  0.343000  0.657000  0.985200  1.0  0.1491
  C  C291  1  0.326100  0.673900  0.924000  1.0  0.0763
  C  C292  1  0.898200  0.101800  0.384900  1.0  0.1159
  C  C293  1  0.915100  0.084900  0.443800  1.0  -0.1553
  C  C294  1  0.887300  0.112700  0.496400  1.0  -0.1849
  C  C295  1  0.843000  0.157000  0.485200  1.0  0.1491
  C  C296  1  0.826100  0.173900  0.424000  1.0  0.0763
  C  C297  1  0.115100  0.601800  0.601800  1.0  0.115
  C  C298  1  0.056200  0.584900  0.584900  1.0  -0.1527
  C  C299  1  0.003600  0.612700  0.612700  1.0  -0.188
  C  C300  1  0.014800  0.657000  0.657000  1.0  0.1482
  C  C301  1  0.076000  0.673900  0.673900  1.0  0.077
  C  C302  1  0.615100  0.101800  0.101800  1.0  0.115
  C  C303  1  0.556200  0.084900  0.084900  1.0  -0.1527
  C  C304  1  0.503600  0.112700  0.112700  1.0  -0.188
  C  C305  1  0.514800  0.157000  0.157000  1.0  0.1482
  C  C306  1  0.576000  0.173900  0.173900  1.0  0.077
  C  C307  1  0.884900  0.601800  0.398200  1.0  0.114
  C  C308  1  0.943800  0.584900  0.415100  1.0  -0.1538
  C  C309  1  0.996400  0.612700  0.387300  1.0  -0.1866
  C  C310  1  0.985200  0.657000  0.343000  1.0  0.1485
  C  C311  1  0.924000  0.673900  0.326100  1.0  0.0787
  C  C312  1  0.384900  0.101800  0.898200  1.0  0.114
  C  C313  1  0.443800  0.084900  0.915100  1.0  -0.1538
  C  C314  1  0.496400  0.112700  0.887300  1.0  -0.1866
  C  C315  1  0.485200  0.157000  0.843000  1.0  0.1485
  C  C316  1  0.424000  0.173900  0.826100  1.0  0.0787
  C  C317  1  0.115100  0.398200  0.398200  1.0  0.1144
  C  C318  1  0.056200  0.415100  0.415100  1.0  -0.1538
  C  C319  1  0.003600  0.387300  0.387300  1.0  -0.1885
  C  C320  1  0.014800  0.343000  0.343000  1.0  0.1482
  C  C321  1  0.076000  0.326100  0.326100  1.0  0.0792
  C  C322  1  0.615100  0.898200  0.898200  1.0  0.1144
  C  C323  1  0.556200  0.915100  0.915100  1.0  -0.1538
  C  C324  1  0.503600  0.887300  0.887300  1.0  -0.1885
  C  C325  1  0.514800  0.843000  0.843000  1.0  0.1482
  C  C326  1  0.576000  0.826100  0.826100  1.0  0.0792
  C  C327  1  0.884900  0.398200  0.601800  1.0  0.1138
  C  C328  1  0.943800  0.415100  0.584900  1.0  -0.1522
  C  C329  1  0.996400  0.387300  0.612700  1.0  -0.1868
  C  C330  1  0.985200  0.343000  0.657000  1.0  0.1486
  C  C331  1  0.924000  0.326100  0.673900  1.0  0.0778
  C  C332  1  0.384900  0.898200  0.101800  1.0  0.1138
  C  C333  1  0.443800  0.915100  0.084900  1.0  -0.1522
  C  C334  1  0.496400  0.887300  0.112700  1.0  -0.1868
  C  C335  1  0.485200  0.843000  0.157000  1.0  0.1486
  C  C336  1  0.424000  0.826100  0.173900  1.0  0.0778
  N  N337  1  0.711800  0.890800  0.757300  1.0  -0.2721
  N  N338  1  0.211800  0.390800  0.257300  1.0  -0.2721
  N  N339  1  0.288200  0.109200  0.757300  1.0  -0.2738
  N  N340  1  0.788200  0.609200  0.257300  1.0  -0.2738
  N  N341  1  0.288200  0.890800  0.242700  1.0  -0.2736
  N  N342  1  0.788200  0.390800  0.742700  1.0  -0.2736
  N  N343  1  0.711800  0.109200  0.242700  1.0  -0.2749
  N  N344  1  0.211800  0.609200  0.742700  1.0  -0.2749
  N  N345  1  0.757300  0.711800  0.890800  1.0  -0.2696
  N  N346  1  0.257300  0.211800  0.390800  1.0  -0.2696
  N  N347  1  0.757300  0.288200  0.109200  1.0  -0.2677
  N  N348  1  0.257300  0.788200  0.609200  1.0  -0.2677
  N  N349  1  0.242700  0.288200  0.890800  1.0  -0.2698
  N  N350  1  0.742700  0.788200  0.390800  1.0  -0.2698
  N  N351  1  0.242700  0.711800  0.109200  1.0  -0.2686
  N  N352  1  0.742700  0.211800  0.609200  1.0  -0.2686
  N  N353  1  0.890800  0.757300  0.711800  1.0  -0.2669
  N  N354  1  0.390800  0.257300  0.211800  1.0  -0.2669
  N  N355  1  0.109200  0.757300  0.288200  1.0  -0.268
  N  N356  1  0.609200  0.257300  0.788200  1.0  -0.268
  N  N357  1  0.890800  0.242700  0.288200  1.0  -0.2671
  N  N358  1  0.390800  0.742700  0.788200  1.0  -0.2671
  N  N359  1  0.109200  0.242700  0.711800  1.0  -0.2658
  N  N360  1  0.609200  0.742700  0.211800  1.0  -0.2658
  N  N361  1  0.890800  0.711800  0.757300  1.0  -0.2728
  N  N362  1  0.390800  0.211800  0.257300  1.0  -0.2728
  N  N363  1  0.109200  0.288200  0.757300  1.0  -0.2725
  N  N364  1  0.609200  0.788200  0.257300  1.0  -0.2725
  N  N365  1  0.890800  0.288200  0.242700  1.0  -0.2733
  N  N366  1  0.390800  0.788200  0.742700  1.0  -0.2733
  N  N367  1  0.109200  0.711800  0.242700  1.0  -0.2742
  N  N368  1  0.609200  0.211800  0.742700  1.0  -0.2742
  N  N369  1  0.711800  0.757300  0.890800  1.0  -0.2736
  N  N370  1  0.211800  0.257300  0.390800  1.0  -0.2736
  N  N371  1  0.288200  0.757300  0.109200  1.0  -0.2716
  N  N372  1  0.788200  0.257300  0.609200  1.0  -0.2716
  N  N373  1  0.288200  0.242700  0.890800  1.0  -0.2719
  N  N374  1  0.788200  0.742700  0.390800  1.0  -0.2719
  N  N375  1  0.711800  0.242700  0.109200  1.0  -0.2697
  N  N376  1  0.211800  0.742700  0.609200  1.0  -0.2697
  N  N377  1  0.757300  0.890800  0.711800  1.0  -0.271
  N  N378  1  0.257300  0.390800  0.211800  1.0  -0.271
  N  N379  1  0.757300  0.109200  0.288200  1.0  -0.2736
  N  N380  1  0.257300  0.609200  0.788200  1.0  -0.2736
  N  N381  1  0.242700  0.890800  0.288200  1.0  -0.273
  N  N382  1  0.742700  0.390800  0.788200  1.0  -0.273
  N  N383  1  0.242700  0.109200  0.711800  1.0  -0.2731
  N  N384  1  0.742700  0.609200  0.211800  1.0  -0.2731
  N  N385  1  0.645400  0.125600  0.645400  1.0  -0.3246
  N  N386  1  0.688700  0.963100  0.688700  1.0  -0.0453
  N  N387  1  0.145400  0.625600  0.145400  1.0  -0.3246
  N  N388  1  0.188700  0.463100  0.188700  1.0  -0.0453
  N  N389  1  0.354600  0.874400  0.645400  1.0  -0.3274
  N  N390  1  0.311300  0.036900  0.688700  1.0  -0.0452
  N  N391  1  0.854600  0.374400  0.145400  1.0  -0.3274
  N  N392  1  0.811300  0.536900  0.188700  1.0  -0.0452
  N  N393  1  0.354600  0.125600  0.354600  1.0  -0.3254
  N  N394  1  0.311300  0.963100  0.311300  1.0  -0.0447
  N  N395  1  0.854600  0.625600  0.854600  1.0  -0.3254
  N  N396  1  0.811300  0.463100  0.811300  1.0  -0.0447
  N  N397  1  0.645400  0.874400  0.354600  1.0  -0.3253
  N  N398  1  0.688700  0.036900  0.311300  1.0  -0.0451
  N  N399  1  0.145400  0.374400  0.854600  1.0  -0.3253
  N  N400  1  0.188700  0.536900  0.811300  1.0  -0.0451
  N  N401  1  0.645400  0.645400  0.125600  1.0  -0.3269
  N  N402  1  0.688700  0.688700  0.963100  1.0  -0.0453
  N  N403  1  0.145400  0.145400  0.625600  1.0  -0.3269
  N  N404  1  0.188700  0.188700  0.463100  1.0  -0.0453
  N  N405  1  0.645400  0.354600  0.874400  1.0  -0.3305
  N  N406  1  0.688700  0.311300  0.036900  1.0  -0.0451
  N  N407  1  0.145400  0.854600  0.374400  1.0  -0.3305
  N  N408  1  0.188700  0.811300  0.536900  1.0  -0.0451
  N  N409  1  0.354600  0.354600  0.125600  1.0  -0.3291
  N  N410  1  0.311300  0.311300  0.963100  1.0  -0.045
  N  N411  1  0.854600  0.854600  0.625600  1.0  -0.3291
  N  N412  1  0.811300  0.811300  0.463100  1.0  -0.045
  N  N413  1  0.354600  0.645400  0.874400  1.0  -0.3312
  N  N414  1  0.311300  0.688700  0.036900  1.0  -0.0447
  N  N415  1  0.854600  0.145400  0.374400  1.0  -0.3312
  N  N416  1  0.811300  0.188700  0.536900  1.0  -0.0447
  N  N417  1  0.125600  0.645400  0.645400  1.0  -0.3279
  N  N418  1  0.963100  0.688700  0.688700  1.0  -0.0444
  N  N419  1  0.625600  0.145400  0.145400  1.0  -0.3279
  N  N420  1  0.463100  0.188700  0.188700  1.0  -0.0444
  N  N421  1  0.874400  0.645400  0.354600  1.0  -0.3283
  N  N422  1  0.036900  0.688700  0.311300  1.0  -0.0443
  N  N423  1  0.374400  0.145400  0.854600  1.0  -0.3283
  N  N424  1  0.536900  0.188700  0.811300  1.0  -0.0443
  N  N425  1  0.125600  0.354600  0.354600  1.0  -0.328
  N  N426  1  0.963100  0.311300  0.311300  1.0  -0.0438
  N  N427  1  0.625600  0.854600  0.854600  1.0  -0.328
  N  N428  1  0.463100  0.811300  0.811300  1.0  -0.0438
  N  N429  1  0.874400  0.354600  0.645400  1.0  -0.3293
  N  N430  1  0.036900  0.311300  0.688700  1.0  -0.0447
  N  N431  1  0.374400  0.854600  0.145400  1.0  -0.3293
  N  N432  1  0.536900  0.811300  0.188700  1.0  -0.0447
  O  O433  1  0.800700  0.800700  0.800700  1.0  -0.8211
  O  O434  1  0.300700  0.300700  0.300700  1.0  -0.8211
  O  O435  1  0.199300  0.199300  0.800700  1.0  -0.8204
  O  O436  1  0.699300  0.699300  0.300700  1.0  -0.8204
  O  O437  1  0.199300  0.800700  0.199300  1.0  -0.823
  O  O438  1  0.699300  0.300700  0.699300  1.0  -0.823
  O  O439  1  0.800700  0.199300  0.199300  1.0  -0.8213
  O  O440  1  0.300700  0.699300  0.699300  1.0  -0.8213
