# generated using pymatgen
data_AgH17C10SNO
_symmetry_space_group_name_H-M   'P 1'
_cell_length_a   9.87430000
_cell_length_b   17.73150000
_cell_length_c   17.73150000
_cell_angle_alpha   63.36440000
_cell_angle_beta   79.30240000
_cell_angle_gamma   100.69800000
_symmetry_Int_Tables_number   1
_chemical_formula_structural   AgH17C10SNO
_chemical_formula_sum   'Ag6 H102 C60 S6 N6 O6'
_cell_volume   2595.96316418
_cell_formula_units_Z   6
loop_
 _symmetry_equiv_pos_site_id
 _symmetry_equiv_pos_as_xyz
  1  'x, y, z'
loop_
 _atom_site_type_symbol
 _atom_site_label
 _atom_site_symmetry_multiplicity
 _atom_site_fract_x
 _atom_site_fract_y
 _atom_site_fract_z
 _atom_site_occupancy
 _atom_site_charge
  Ag  Ag1  1  0.205450  0.242170  0.425170  1.0  0.0779
  Ag  Ag2  1  0.630620  0.425170  0.332660  1.0  0.0657
  Ag  Ag3  1  0.963280  0.332660  0.242170  1.0  0.0727
  Ag  Ag4  1  0.794550  0.757830  0.574830  1.0  0.0765
  Ag  Ag5  1  0.369380  0.574830  0.667340  1.0  0.0718
  Ag  Ag6  1  0.036720  0.667340  0.757830  1.0  0.0695
  H  H7  1  0.115200  0.170300  0.180300  1.0  0.0682
  H  H8  1  0.958100  0.173300  0.220500  1.0  0.0836
  H  H9  1  0.869800  0.016900  0.303500  1.0  0.0539
  H  H10  1  0.939100  0.046200  0.201700  1.0  0.068
  H  H11  1  0.151400  0.015200  0.228900  1.0  0.0595
  H  H12  1  0.015600  0.928700  0.295700  1.0  0.0606
  H  H13  1  0.175100  0.955900  0.372400  1.0  0.0633
  H  H14  1  0.018600  0.960300  0.411000  1.0  0.066
  H  H15  1  0.194500  0.082300  0.392000  1.0  0.0638
  H  H16  1  0.267000  0.112000  0.290300  1.0  0.0683
  H  H17  1  0.981500  0.109200  0.362800  1.0  0.0682
  H  H18  1  0.381000  0.336900  0.208300  1.0  0.1436
  H  H19  1  0.333600  0.257900  0.188700  1.0  0.1063
  H  H20  1  0.593000  0.419100  0.988100  1.0  0.0691
  H  H21  1  0.542200  0.369300  0.094300  1.0  0.0666
  H  H22  1  0.278100  0.489900  0.968300  1.0  0.0601
  H  H23  1  0.426400  0.494300  0.908500  1.0  0.0735
  H  H24  1  0.295500  0.180300  0.649400  1.0  0.0676
  H  H25  1  0.178600  0.220500  0.606200  1.0  0.0868
  H  H26  1  0.173300  0.303500  0.679600  1.0  0.0597
  H  H27  1  0.140800  0.201700  0.752100  1.0  0.0743
  H  H28  1  0.380300  0.228900  0.755900  1.0  0.0593
  H  H29  1  0.311300  0.295700  0.775600  1.0  0.0618
  H  H30  1  0.547500  0.372400  0.671700  1.0  0.0606
  H  H31  1  0.429600  0.411000  0.628700  1.0  0.062
  H  H32  1  0.586500  0.392000  0.525700  1.0  0.066
  H  H33  1  0.557300  0.290300  0.597700  1.0  0.0676
  H  H34  1  0.344300  0.362800  0.528000  1.0  0.0697
  H  H35  1  0.589300  0.208300  0.454800  1.0  0.1412
  H  H36  1  0.522300  0.188700  0.553400  1.0  0.1065
  H  H37  1  0.581100  0.988100  0.592800  1.0  0.0706
  H  H38  1  0.636500  0.094300  0.536400  1.0  0.0659
  H  H39  1  0.246400  0.968300  0.541800  1.0  0.0599
  H  H40  1  0.334900  0.908500  0.597200  1.0  0.0728
  H  H41  1  0.944900  0.649400  0.170300  1.0  0.0671
  H  H42  1  0.784800  0.606200  0.173300  1.0  0.0811
  H  H43  1  0.852900  0.679600  0.016900  1.0  0.056
  H  H44  1  0.892900  0.752100  0.046200  1.0  0.0728
  H  H45  1  0.136200  0.755900  0.015200  1.0  0.0607
  H  H46  1  0.086900  0.775600  0.928700  1.0  0.0638
  H  H47  1  0.219200  0.671700  0.955900  1.0  0.0617
  H  H48  1  0.058300  0.628700  0.960300  1.0  0.0649
  H  H49  1  0.112200  0.525700  0.082300  1.0  0.0668
  H  H50  1  0.155000  0.597700  0.112000  1.0  0.0665
  H  H51  1  0.872300  0.528000  0.109200  1.0  0.067
  H  H52  1  0.044100  0.454800  0.336900  1.0  0.139
  H  H53  1  0.075700  0.553400  0.257900  1.0  0.1071
  H  H54  1  0.173900  0.592800  0.419100  1.0  0.0676
  H  H55  1  0.172900  0.536400  0.369300  1.0  0.0674
  H  H56  1  0.788200  0.541800  0.489900  1.0  0.0608
  H  H57  1  0.932100  0.597200  0.494300  1.0  0.072
  H  H58  1  0.884800  0.829700  0.819700  1.0  0.0682
  H  H59  1  0.041900  0.826700  0.779500  1.0  0.0801
  H  H60  1  0.130200  0.983100  0.696500  1.0  0.0556
  H  H61  1  0.060900  0.953800  0.798300  1.0  0.0691
  H  H62  1  0.848600  0.984800  0.771100  1.0  0.0605
  H  H63  1  0.984400  0.071300  0.704300  1.0  0.0607
  H  H64  1  0.824900  0.044100  0.627600  1.0  0.0626
  H  H65  1  0.981400  0.039700  0.589000  1.0  0.0651
  H  H66  1  0.805500  0.917700  0.608000  1.0  0.0659
  H  H67  1  0.733000  0.888000  0.709700  1.0  0.0663
  H  H68  1  0.018500  0.890800  0.637200  1.0  0.0692
  H  H69  1  0.619000  0.663100  0.791700  1.0  0.1445
  H  H70  1  0.666400  0.742100  0.811300  1.0  0.1068
  H  H71  1  0.407000  0.580900  0.011900  1.0  0.068
  H  H72  1  0.457800  0.630700  0.905700  1.0  0.0663
  H  H73  1  0.721900  0.510100  0.031700  1.0  0.0629
  H  H74  1  0.573600  0.505700  0.091500  1.0  0.0715
  H  H75  1  0.704500  0.819700  0.350600  1.0  0.0691
  H  H76  1  0.821400  0.779500  0.393800  1.0  0.0832
  H  H77  1  0.826700  0.696500  0.320400  1.0  0.0603
  H  H78  1  0.859200  0.798300  0.247900  1.0  0.0738
  H  H79  1  0.619700  0.771100  0.244100  1.0  0.0611
  H  H80  1  0.688700  0.704300  0.224400  1.0  0.0626
  H  H81  1  0.452500  0.627600  0.328300  1.0  0.0614
  H  H82  1  0.570400  0.589000  0.371300  1.0  0.0633
  H  H83  1  0.413500  0.608000  0.474300  1.0  0.0663
  H  H84  1  0.442700  0.709700  0.402300  1.0  0.0676
  H  H85  1  0.655700  0.637200  0.472000  1.0  0.0709
  H  H86  1  0.410700  0.791700  0.545200  1.0  0.1416
  H  H87  1  0.477700  0.811300  0.446600  1.0  0.1085
  H  H88  1  0.418900  0.011900  0.407200  1.0  0.0706
  H  H89  1  0.363500  0.905700  0.463600  1.0  0.0658
  H  H90  1  0.753600  0.031700  0.458200  1.0  0.062
  H  H91  1  0.665100  0.091500  0.402800  1.0  0.0731
  H  H92  1  0.055100  0.350600  0.829700  1.0  0.0682
  H  H93  1  0.215200  0.393800  0.826700  1.0  0.0772
  H  H94  1  0.147100  0.320400  0.983100  1.0  0.0573
  H  H95  1  0.107100  0.247900  0.953800  1.0  0.0721
  H  H96  1  0.863800  0.244100  0.984800  1.0  0.0588
  H  H97  1  0.913100  0.224400  0.071300  1.0  0.0643
  H  H98  1  0.780800  0.328300  0.044100  1.0  0.0614
  H  H99  1  0.941700  0.371300  0.039700  1.0  0.0637
  H  H100  1  0.887800  0.474300  0.917700  1.0  0.068
  H  H101  1  0.845000  0.402300  0.888000  1.0  0.067
  H  H102  1  0.127700  0.472000  0.890800  1.0  0.0668
  H  H103  1  0.955900  0.545200  0.663100  1.0  0.1392
  H  H104  1  0.924300  0.446600  0.742100  1.0  0.1078
  H  H105  1  0.826100  0.407200  0.580900  1.0  0.07
  H  H106  1  0.827100  0.463600  0.630700  1.0  0.0673
  H  H107  1  0.211800  0.458200  0.510100  1.0  0.0631
  H  H108  1  0.067900  0.402800  0.505700  1.0  0.0725
  C  C109  1  0.028870  0.140010  0.233500  1.0  -0.1751
  C  C110  1  0.961610  0.044880  0.254350  1.0  -0.1285
  C  C111  1  0.063200  0.990390  0.279990  1.0  -0.1141
  C  C112  1  0.105620  0.990020  0.358460  1.0  -0.133
  C  C113  1  0.174070  0.084150  0.338740  1.0  -0.1723
  C  C114  1  0.072270  0.139190  0.311580  1.0  -0.1508
  C  C115  1  0.301790  0.303980  0.197310  1.0  -0.2849
  C  C116  1  0.274830  0.367470  0.113080  1.0  0.5811
  C  C117  1  0.541660  0.421330  0.040250  1.0  -0.0316
  C  C118  1  0.381060  0.494130  0.963350  1.0  -0.0272
  C  C119  1  0.262370  0.233500  0.626490  1.0  -0.1748
  C  C120  1  0.215960  0.254350  0.700770  1.0  -0.1326
  C  C121  1  0.343190  0.279990  0.729620  1.0  -0.1105
  C  C122  1  0.464080  0.358460  0.651520  1.0  -0.1325
  C  C123  1  0.512810  0.338740  0.577110  1.0  -0.1703
  C  C124  1  0.383850  0.311580  0.549230  1.0  -0.1472
  C  C125  1  0.499100  0.197310  0.498710  1.0  -0.2858
  C  C126  1  0.387910  0.113080  0.519450  1.0  0.5803
  C  C127  1  0.581910  0.040250  0.538420  1.0  -0.0309
  C  C128  1  0.344410  0.963350  0.542520  1.0  -0.0268
  C  C129  1  0.888860  0.626490  0.140010  1.0  -0.1746
  C  C130  1  0.916730  0.700770  0.044880  1.0  -0.1339
  C  C131  1  0.072810  0.729620  0.990390  1.0  -0.1175
  C  C132  1  0.115600  0.651520  0.990020  1.0  -0.1339
  C  C133  1  0.089920  0.577110  0.084150  1.0  -0.1693
  C  C134  1  0.933080  0.549230  0.139190  1.0  -0.1534
  C  C135  1  0.997810  0.498710  0.303980  1.0  -0.2859
  C  C136  1  0.907360  0.519450  0.367470  1.0  0.5803
  C  C137  1  0.120330  0.538420  0.421330  1.0  -0.0316
  C  C138  1  0.886930  0.542520  0.494130  1.0  -0.0217
  C  C139  1  0.971130  0.859990  0.766500  1.0  -0.1749
  C  C140  1  0.038390  0.955120  0.745650  1.0  -0.1301
  C  C141  1  0.936800  0.009610  0.720010  1.0  -0.1134
  C  C142  1  0.894380  0.009980  0.641540  1.0  -0.1326
  C  C143  1  0.825930  0.915850  0.661260  1.0  -0.1735
  C  C144  1  0.927730  0.860810  0.688420  1.0  -0.1523
  C  C145  1  0.698210  0.696020  0.802690  1.0  -0.2861
  C  C146  1  0.725170  0.632530  0.886920  1.0  0.5817
  C  C147  1  0.458340  0.578670  0.959750  1.0  -0.0304
  C  C148  1  0.618940  0.505870  0.036650  1.0  -0.0272
  C  C149  1  0.737630  0.766500  0.373510  1.0  -0.1766
  C  C150  1  0.784040  0.745650  0.299230  1.0  -0.1351
  C  C151  1  0.656810  0.720010  0.270380  1.0  -0.1105
  C  C152  1  0.535920  0.641540  0.348480  1.0  -0.13
  C  C153  1  0.487190  0.661260  0.422890  1.0  -0.171
  C  C154  1  0.616150  0.688420  0.450770  1.0  -0.1467
  C  C155  1  0.500900  0.802690  0.501290  1.0  -0.2867
  C  C156  1  0.612090  0.886920  0.480550  1.0  0.5793
  C  C157  1  0.418090  0.959750  0.461580  1.0  -0.0288
  C  C158  1  0.655590  0.036650  0.457480  1.0  -0.0272
  C  C159  1  0.111140  0.373510  0.859990  1.0  -0.1749
  C  C160  1  0.083270  0.299230  0.955120  1.0  -0.1352
  C  C161  1  0.927190  0.270380  0.009610  1.0  -0.1112
  C  C162  1  0.884400  0.348480  0.009980  1.0  -0.1323
  C  C163  1  0.910080  0.422890  0.915850  1.0  -0.1719
  C  C164  1  0.066920  0.450770  0.860810  1.0  -0.1579
  C  C165  1  0.002190  0.501290  0.696020  1.0  -0.2882
  C  C166  1  0.092640  0.480550  0.632530  1.0  0.5803
  C  C167  1  0.879670  0.461580  0.578670  1.0  -0.0306
  C  C168  1  0.113070  0.457480  0.505870  1.0  -0.0244
  S  S169  1  0.142570  0.251160  0.293380  1.0  0.1068
  S  S170  1  0.435950  0.293380  0.455460  1.0  0.1124
  S  S171  1  0.891410  0.455460  0.251160  1.0  0.1032
  S  S172  1  0.857430  0.748840  0.706620  1.0  0.1073
  S  S173  1  0.564050  0.706620  0.544540  1.0  0.1095
  S  S174  1  0.108590  0.544540  0.748840  1.0  0.1066
  N  N175  1  0.391730  0.418020  0.041110  1.0  -0.1696
  N  N176  1  0.432840  0.041110  0.540870  1.0  -0.1701
  N  N177  1  0.973710  0.540870  0.418020  1.0  -0.1699
  N  N178  1  0.608270  0.581980  0.958890  1.0  -0.1694
  N  N179  1  0.567160  0.958890  0.459130  1.0  -0.1686
  N  N180  1  0.026290  0.459130  0.581980  1.0  -0.1703
  O  O181  1  0.152690  0.372640  0.109790  1.0  -0.6201
  O  O182  1  0.262480  0.109790  0.517570  1.0  -0.6208
  O  O183  1  0.780050  0.517570  0.372640  1.0  -0.6211
  O  O184  1  0.847310  0.627360  0.890210  1.0  -0.6189
  O  O185  1  0.737520  0.890210  0.482430  1.0  -0.6201
  O  O186  1  0.219950  0.482430  0.627360  1.0  -0.6201
