# generated using pymatgen
data_Ti2Zn6H42C79N2O33
_symmetry_space_group_name_H-M   'P 1'
_cell_length_a   20.17100000
_cell_length_b   20.17100000
_cell_length_c   26.19700000
_cell_angle_alpha   90.00000000
_cell_angle_beta   90.00000000
_cell_angle_gamma   120.00000000
_symmetry_Int_Tables_number   1
_chemical_formula_structural   Ti2Zn6H42C79N2O33
_chemical_formula_sum   'Ti4 Zn12 H84 C158 N4 O66'
_cell_volume   9230.75130929
_cell_formula_units_Z   2
loop_
 _symmetry_equiv_pos_site_id
 _symmetry_equiv_pos_as_xyz
  1  'x, y, z'
loop_
 _atom_site_type_symbol
 _atom_site_label
 _atom_site_symmetry_multiplicity
 _atom_site_fract_x
 _atom_site_fract_y
 _atom_site_fract_z
 _atom_site_occupancy
 _atom_site_charge
  Ti  Ti1  1  0.333333  0.666667  0.592940  1.0  1.8791
  Ti  Ti2  1  0.666667  0.333333  0.092940  1.0  1.8791
  Ti  Ti3  1  0.666667  0.333333  0.407060  1.0  1.8761
  Ti  Ti4  1  0.333333  0.666667  0.907060  1.0  1.8761
  Zn  Zn5  1  0.000000  0.000000  0.624050  1.0  0.8614
  Zn  Zn6  1  0.000000  0.000000  0.124050  1.0  0.8614
  Zn  Zn7  1  0.000000  0.000000  0.375950  1.0  0.8595
  Zn  Zn8  1  0.000000  0.000000  0.875950  1.0  0.8595
  Zn  Zn9  1  0.000000  0.000000  0.500000  1.0  1.0467
  Zn  Zn10  1  0.000000  0.000000  0.000000  1.0  1.0467
  Zn  Zn11  1  0.378110  0.565370  0.750000  1.0  1.0952
  Zn  Zn12  1  0.434630  0.812740  0.750000  1.0  1.0967
  Zn  Zn13  1  0.187260  0.621890  0.750000  1.0  1.0932
  Zn  Zn14  1  0.621890  0.434630  0.250000  1.0  1.092
  Zn  Zn15  1  0.565370  0.187260  0.250000  1.0  1.0963
  Zn  Zn16  1  0.812740  0.378110  0.250000  1.0  1.0926
  H  H17  1  0.142500  0.246400  0.626400  1.0  0.1037
  H  H18  1  0.232800  0.380000  0.651700  1.0  0.1038
  H  H19  1  0.180500  0.469100  0.500400  1.0  0.1171
  H  H20  1  0.091700  0.332900  0.473300  1.0  0.1093
  H  H21  1  0.030800  0.204500  0.491000  1.0  0.1045
  H  H22  1  0.991800  0.895600  0.707600  1.0  0.0723
  H  H23  1  0.910200  0.891300  0.707500  1.0  0.0755
  H  H24  1  0.753600  0.896100  0.626400  1.0  0.104
  H  H25  1  0.620000  0.852800  0.651700  1.0  0.105
  H  H26  1  0.530900  0.711400  0.500400  1.0  0.1168
  H  H27  1  0.667100  0.758800  0.473300  1.0  0.1094
  H  H28  1  0.795500  0.826300  0.491000  1.0  0.1023
  H  H29  1  0.104400  0.096200  0.707600  1.0  0.0704
  H  H30  1  0.108700  0.018900  0.707500  1.0  0.0681
  H  H31  1  0.103900  0.857500  0.626400  1.0  0.1041
  H  H32  1  0.147200  0.767200  0.651700  1.0  0.1041
  H  H33  1  0.288600  0.819500  0.500400  1.0  0.1173
  H  H34  1  0.241200  0.908300  0.473300  1.0  0.1096
  H  H35  1  0.173700  0.969200  0.491000  1.0  0.1042
  H  H36  1  0.903800  0.008200  0.707600  1.0  0.0679
  H  H37  1  0.981100  0.089800  0.707500  1.0  0.0732
  H  H38  1  0.857500  0.753600  0.126400  1.0  0.1036
  H  H39  1  0.767200  0.620000  0.151700  1.0  0.1039
  H  H40  1  0.819500  0.530900  0.000400  1.0  0.1176
  H  H41  1  0.908300  0.667100  0.973300  1.0  0.1093
  H  H42  1  0.969200  0.795500  0.991000  1.0  0.1045
  H  H43  1  0.008200  0.104400  0.207600  1.0  0.0727
  H  H44  1  0.089800  0.108700  0.207500  1.0  0.0763
  H  H45  1  0.246400  0.103900  0.126400  1.0  0.1036
  H  H46  1  0.380000  0.147200  0.151700  1.0  0.1052
  H  H47  1  0.469100  0.288600  0.000400  1.0  0.1166
  H  H48  1  0.332900  0.241200  0.973300  1.0  0.1094
  H  H49  1  0.204500  0.173700  0.991000  1.0  0.1026
  H  H50  1  0.895600  0.903800  0.207600  1.0  0.067
  H  H51  1  0.891300  0.981100  0.207500  1.0  0.0678
  H  H52  1  0.896100  0.142500  0.126400  1.0  0.105
  H  H53  1  0.852800  0.232800  0.151700  1.0  0.1042
  H  H54  1  0.711400  0.180500  0.000400  1.0  0.1166
  H  H55  1  0.758800  0.091700  0.973300  1.0  0.1091
  H  H56  1  0.826300  0.030800  0.991000  1.0  0.1031
  H  H57  1  0.096200  0.991800  0.207600  1.0  0.0672
  H  H58  1  0.018900  0.910200  0.207500  1.0  0.0707
  H  H59  1  0.857500  0.753600  0.373600  1.0  0.1044
  H  H60  1  0.767200  0.620000  0.348300  1.0  0.1048
  H  H61  1  0.819500  0.530900  0.499600  1.0  0.1179
  H  H62  1  0.908300  0.667100  0.526700  1.0  0.1091
  H  H63  1  0.969200  0.795500  0.509000  1.0  0.1046
  H  H64  1  0.008200  0.104400  0.292400  1.0  0.0718
  H  H65  1  0.089800  0.108700  0.292500  1.0  0.0739
  H  H66  1  0.246400  0.103900  0.373600  1.0  0.1045
  H  H67  1  0.380000  0.147200  0.348300  1.0  0.1065
  H  H68  1  0.469100  0.288600  0.499600  1.0  0.1176
  H  H69  1  0.332900  0.241200  0.526700  1.0  0.1095
  H  H70  1  0.204500  0.173700  0.509000  1.0  0.1026
  H  H71  1  0.895600  0.903800  0.292400  1.0  0.0672
  H  H72  1  0.891300  0.981100  0.292500  1.0  0.0675
  H  H73  1  0.896100  0.142500  0.373600  1.0  0.1056
  H  H74  1  0.852800  0.232800  0.348300  1.0  0.1052
  H  H75  1  0.711400  0.180500  0.499600  1.0  0.1174
  H  H76  1  0.758800  0.091700  0.526700  1.0  0.1094
  H  H77  1  0.826300  0.030800  0.509000  1.0  0.1034
  H  H78  1  0.096200  0.991800  0.292400  1.0  0.0658
  H  H79  1  0.018900  0.910200  0.292500  1.0  0.0707
  H  H80  1  0.142500  0.246400  0.873600  1.0  0.1045
  H  H81  1  0.232800  0.380000  0.848300  1.0  0.1049
  H  H82  1  0.180500  0.469100  0.999600  1.0  0.1182
  H  H83  1  0.091700  0.332900  0.026700  1.0  0.1094
  H  H84  1  0.030800  0.204500  0.009000  1.0  0.1046
  H  H85  1  0.991800  0.895600  0.792400  1.0  0.0715
  H  H86  1  0.910200  0.891300  0.792500  1.0  0.0739
  H  H87  1  0.753600  0.896100  0.873600  1.0  0.1046
  H  H88  1  0.620000  0.852800  0.848300  1.0  0.1058
  H  H89  1  0.530900  0.711400  0.999600  1.0  0.1181
  H  H90  1  0.667100  0.758800  0.026700  1.0  0.1094
  H  H91  1  0.795500  0.826300  0.009000  1.0  0.1025
  H  H92  1  0.104400  0.096200  0.792400  1.0  0.0691
  H  H93  1  0.108700  0.018900  0.792500  1.0  0.0669
  H  H94  1  0.103900  0.857500  0.873600  1.0  0.105
  H  H95  1  0.147200  0.767200  0.848300  1.0  0.1049
  H  H96  1  0.288600  0.819500  0.999600  1.0  0.1178
  H  H97  1  0.241200  0.908300  0.026700  1.0  0.1089
  H  H98  1  0.173700  0.969200  0.009000  1.0  0.1039
  H  H99  1  0.903800  0.008200  0.792400  1.0  0.0669
  H  H100  1  0.981100  0.089800  0.792500  1.0  0.0726
  C  C101  1  0.081390  0.213730  0.561530  1.0  -0.141
  C  C102  1  0.132400  0.264780  0.595680  1.0  -0.1429
  C  C103  1  0.170360  0.343990  0.586370  1.0  0.0438
  C  C104  1  0.221880  0.397650  0.620970  1.0  -0.0692
  C  C105  1  0.257260  0.474760  0.612150  1.0  -0.1589
  C  C106  1  0.241910  0.502220  0.565350  1.0  0.2935
  C  C107  1  0.191460  0.450820  0.530800  1.0  -0.0841
  C  C108  1  0.155600  0.371450  0.539560  1.0  0.015
  C  C109  1  0.102100  0.316000  0.504570  1.0  -0.1032
  C  C110  1  0.066150  0.240170  0.514840  1.0  -0.0696
  C  C111  1  0.041600  0.130580  0.572500  1.0  0.6925
  C  C112  1  0.312230  0.528110  0.650360  1.0  0.6907
  C  C113  1  0.963430  0.920490  0.720360  1.0  -0.0267
  C  C114  1  0.786270  0.867660  0.561530  1.0  -0.1387
  C  C115  1  0.735220  0.867620  0.595680  1.0  -0.1443
  C  C116  1  0.656010  0.826370  0.586370  1.0  0.044
  C  C117  1  0.602350  0.824230  0.620970  1.0  -0.0695
  C  C118  1  0.525240  0.782500  0.612150  1.0  -0.1598
  C  C119  1  0.497780  0.739690  0.565350  1.0  0.2952
  C  C120  1  0.549180  0.740640  0.530800  1.0  -0.0809
  C  C121  1  0.628550  0.784150  0.539560  1.0  0.0161
  C  C122  1  0.684000  0.786100  0.504570  1.0  -0.1032
  C  C123  1  0.759830  0.825980  0.514840  1.0  -0.0692
  C  C124  1  0.869420  0.911020  0.572500  1.0  0.6917
  C  C125  1  0.471890  0.784120  0.650360  1.0  0.688
  C  C126  1  0.079510  0.042940  0.720360  1.0  -0.029
  C  C127  1  0.132340  0.918610  0.561530  1.0  -0.1395
  C  C128  1  0.132380  0.867600  0.595680  1.0  -0.1444
  C  C129  1  0.173630  0.829640  0.586370  1.0  0.0435
  C  C130  1  0.175770  0.778120  0.620970  1.0  -0.0702
  C  C131  1  0.217500  0.742740  0.612150  1.0  -0.1596
  C  C132  1  0.260310  0.758090  0.565350  1.0  0.2942
  C  C133  1  0.259360  0.808540  0.530800  1.0  -0.0838
  C  C134  1  0.215850  0.844400  0.539560  1.0  0.0146
  C  C135  1  0.213900  0.897900  0.504570  1.0  -0.1013
  C  C136  1  0.174020  0.933850  0.514840  1.0  -0.0667
  C  C137  1  0.088980  0.958400  0.572500  1.0  0.6938
  C  C138  1  0.215880  0.687770  0.650360  1.0  0.6904
  C  C139  1  0.957060  0.036570  0.720360  1.0  -0.0296
  C  C140  1  0.918610  0.786270  0.061530  1.0  -0.1399
  C  C141  1  0.867600  0.735220  0.095680  1.0  -0.1445
  C  C142  1  0.829640  0.656010  0.086370  1.0  0.044
  C  C143  1  0.778120  0.602350  0.120970  1.0  -0.0707
  C  C144  1  0.742740  0.525240  0.112150  1.0  -0.1587
  C  C145  1  0.758090  0.497780  0.065350  1.0  0.2936
  C  C146  1  0.808540  0.549180  0.030800  1.0  -0.0834
  C  C147  1  0.844400  0.628550  0.039560  1.0  0.0148
  C  C148  1  0.897900  0.684000  0.004570  1.0  -0.1027
  C  C149  1  0.933850  0.759830  0.014840  1.0  -0.0691
  C  C150  1  0.958400  0.869420  0.072500  1.0  0.6927
  C  C151  1  0.687770  0.471890  0.150360  1.0  0.6897
  C  C152  1  0.036570  0.079510  0.220360  1.0  -0.0286
  C  C153  1  0.213730  0.132340  0.061530  1.0  -0.14
  C  C154  1  0.264780  0.132380  0.095680  1.0  -0.1447
  C  C155  1  0.343990  0.173630  0.086370  1.0  0.0431
  C  C156  1  0.397650  0.175770  0.120970  1.0  -0.0692
  C  C157  1  0.474760  0.217500  0.112150  1.0  -0.1609
  C  C158  1  0.502220  0.260310  0.065350  1.0  0.2953
  C  C159  1  0.450820  0.259360  0.030800  1.0  -0.0833
  C  C160  1  0.371450  0.215850  0.039560  1.0  0.0157
  C  C161  1  0.316000  0.213900  0.004570  1.0  -0.1024
  C  C162  1  0.240170  0.174020  0.014840  1.0  -0.0679
  C  C163  1  0.130580  0.088980  0.072500  1.0  0.6926
  C  C164  1  0.528110  0.215880  0.150360  1.0  0.6879
  C  C165  1  0.920490  0.957060  0.220360  1.0  -0.0301
  C  C166  1  0.867660  0.081390  0.061530  1.0  -0.1394
  C  C167  1  0.867620  0.132400  0.095680  1.0  -0.1437
  C  C168  1  0.826370  0.170360  0.086370  1.0  0.0436
  C  C169  1  0.824230  0.221880  0.120970  1.0  -0.0697
  C  C170  1  0.782500  0.257260  0.112150  1.0  -0.1591
  C  C171  1  0.739690  0.241910  0.065350  1.0  0.2948
  C  C172  1  0.740640  0.191460  0.030800  1.0  -0.0828
  C  C173  1  0.784150  0.155600  0.039560  1.0  0.0149
  C  C174  1  0.786100  0.102100  0.004570  1.0  -0.1019
  C  C175  1  0.825980  0.066150  0.014840  1.0  -0.0678
  C  C176  1  0.911020  0.041600  0.072500  1.0  0.6934
  C  C177  1  0.784120  0.312230  0.150360  1.0  0.691
  C  C178  1  0.042940  0.963430  0.220360  1.0  -0.0313
  C  C179  1  0.918610  0.786270  0.438470  1.0  -0.14
  C  C180  1  0.867600  0.735220  0.404320  1.0  -0.1433
  C  C181  1  0.829640  0.656010  0.413630  1.0  0.0436
  C  C182  1  0.778120  0.602350  0.379030  1.0  -0.0696
  C  C183  1  0.742740  0.525240  0.387850  1.0  -0.1587
  C  C184  1  0.758090  0.497780  0.434650  1.0  0.2952
  C  C185  1  0.808540  0.549180  0.469200  1.0  -0.0798
  C  C186  1  0.844400  0.628550  0.460440  1.0  0.0156
  C  C187  1  0.897900  0.684000  0.495430  1.0  -0.1
  C  C188  1  0.933850  0.759830  0.485160  1.0  -0.0694
  C  C189  1  0.958400  0.869420  0.427500  1.0  0.6931
  C  C190  1  0.687770  0.471890  0.349640  1.0  0.6901
  C  C191  1  0.036570  0.079510  0.279640  1.0  -0.0304
  C  C192  1  0.213730  0.132340  0.438470  1.0  -0.1399
  C  C193  1  0.264780  0.132380  0.404320  1.0  -0.1445
  C  C194  1  0.343990  0.173630  0.413630  1.0  0.0423
  C  C195  1  0.397650  0.175770  0.379030  1.0  -0.069
  C  C196  1  0.474760  0.217500  0.387850  1.0  -0.1605
  C  C197  1  0.502220  0.260310  0.434650  1.0  0.297
  C  C198  1  0.450820  0.259360  0.469200  1.0  -0.0801
  C  C199  1  0.371450  0.215850  0.460440  1.0  0.0169
  C  C200  1  0.316000  0.213900  0.495430  1.0  -0.1005
  C  C201  1  0.240170  0.174020  0.485160  1.0  -0.0681
  C  C202  1  0.130580  0.088980  0.427500  1.0  0.6928
  C  C203  1  0.528110  0.215880  0.349640  1.0  0.6872
  C  C204  1  0.920490  0.957060  0.279640  1.0  -0.0313
  C  C205  1  0.867660  0.081390  0.438470  1.0  -0.1396
  C  C206  1  0.867620  0.132400  0.404320  1.0  -0.1435
  C  C207  1  0.826370  0.170360  0.413630  1.0  0.0432
  C  C208  1  0.824230  0.221880  0.379030  1.0  -0.0696
  C  C209  1  0.782500  0.257260  0.387850  1.0  -0.1591
  C  C210  1  0.739690  0.241910  0.434650  1.0  0.2959
  C  C211  1  0.740640  0.191460  0.469200  1.0  -0.0814
  C  C212  1  0.784150  0.155600  0.460440  1.0  0.0156
  C  C213  1  0.786100  0.102100  0.495430  1.0  -0.1006
  C  C214  1  0.825980  0.066150  0.485160  1.0  -0.0682
  C  C215  1  0.911020  0.041600  0.427500  1.0  0.6934
  C  C216  1  0.784120  0.312230  0.349640  1.0  0.691
  C  C217  1  0.042940  0.963430  0.279640  1.0  -0.033
  C  C218  1  0.081390  0.213730  0.938470  1.0  -0.141
  C  C219  1  0.132400  0.264780  0.904320  1.0  -0.1429
  C  C220  1  0.170360  0.343990  0.913630  1.0  0.0434
  C  C221  1  0.221880  0.397650  0.879030  1.0  -0.0693
  C  C222  1  0.257260  0.474760  0.887850  1.0  -0.1586
  C  C223  1  0.241910  0.502220  0.934650  1.0  0.295
  C  C224  1  0.191460  0.450820  0.969200  1.0  -0.0827
  C  C225  1  0.155600  0.371450  0.960440  1.0  0.0153
  C  C226  1  0.102100  0.316000  0.995430  1.0  -0.1023
  C  C227  1  0.066150  0.240170  0.985160  1.0  -0.0699
  C  C228  1  0.041600  0.130580  0.927500  1.0  0.6929
  C  C229  1  0.312230  0.528110  0.849640  1.0  0.6899
  C  C230  1  0.963430  0.920490  0.779640  1.0  -0.0288
  C  C231  1  0.786270  0.867660  0.938470  1.0  -0.1391
  C  C232  1  0.735220  0.867620  0.904320  1.0  -0.1434
  C  C233  1  0.656010  0.826370  0.913630  1.0  0.0436
  C  C234  1  0.602350  0.824230  0.879030  1.0  -0.0689
  C  C235  1  0.525240  0.782500  0.887850  1.0  -0.1597
  C  C236  1  0.497780  0.739690  0.934650  1.0  0.2964
  C  C237  1  0.549180  0.740640  0.969200  1.0  -0.0793
  C  C238  1  0.628550  0.784150  0.960440  1.0  0.017
  C  C239  1  0.684000  0.786100  0.995430  1.0  -0.1024
  C  C240  1  0.759830  0.825980  0.985160  1.0  -0.0699
  C  C241  1  0.869420  0.911020  0.927500  1.0  0.6917
  C  C242  1  0.471890  0.784120  0.849640  1.0  0.688
  C  C243  1  0.079510  0.042940  0.779640  1.0  -0.0314
  C  C244  1  0.132340  0.918610  0.938470  1.0  -0.1396
  C  C245  1  0.132380  0.867600  0.904320  1.0  -0.1441
  C  C246  1  0.173630  0.829640  0.913630  1.0  0.0429
  C  C247  1  0.175770  0.778120  0.879030  1.0  -0.0693
  C  C248  1  0.217500  0.742740  0.887850  1.0  -0.1593
  C  C249  1  0.260310  0.758090  0.934650  1.0  0.2959
  C  C250  1  0.259360  0.808540  0.969200  1.0  -0.0805
  C  C251  1  0.215850  0.844400  0.960440  1.0  0.0154
  C  C252  1  0.213900  0.897900  0.995430  1.0  -0.0992
  C  C253  1  0.174020  0.933850  0.985160  1.0  -0.0671
  C  C254  1  0.088980  0.958400  0.927500  1.0  0.6939
  C  C255  1  0.215880  0.687770  0.849640  1.0  0.69
  C  C256  1  0.957060  0.036570  0.779640  1.0  -0.0327
  C  C257  1  0.333333  0.666667  0.750000  1.0  0.7658
  C  C258  1  0.666667  0.333333  0.250000  1.0  0.7658
  N  N259  1  0.000000  0.000000  0.701790  1.0  -0.23
  N  N260  1  0.000000  0.000000  0.201790  1.0  -0.23
  N  N261  1  0.000000  0.000000  0.298210  1.0  -0.23
  N  N262  1  0.000000  0.000000  0.798210  1.0  -0.23
  O  O263  1  0.058380  0.109850  0.614080  1.0  -0.5873
  O  O264  1  0.993650  0.083780  0.541600  1.0  -0.6098
  O  O265  1  0.322790  0.499830  0.691120  1.0  -0.6241
  O  O266  1  0.350890  0.599460  0.641770  1.0  -0.5888
  O  O267  1  0.272470  0.576390  0.557130  1.0  -0.5866
  O  O268  1  0.890150  0.948530  0.614080  1.0  -0.5881
  O  O269  1  0.916220  0.909870  0.541600  1.0  -0.6097
  O  O270  1  0.500170  0.822960  0.691120  1.0  -0.6218
  O  O271  1  0.400540  0.751430  0.641770  1.0  -0.5894
  O  O272  1  0.423610  0.696080  0.557130  1.0  -0.5852
  O  O273  1  0.051470  0.941620  0.614080  1.0  -0.5886
  O  O274  1  0.090130  0.006350  0.541600  1.0  -0.6107
  O  O275  1  0.177040  0.677210  0.691120  1.0  -0.6193
  O  O276  1  0.248570  0.649110  0.641770  1.0  -0.5881
  O  O277  1  0.303920  0.727530  0.557130  1.0  -0.5835
  O  O278  1  0.941620  0.890150  0.114080  1.0  -0.5874
  O  O279  1  0.006350  0.916220  0.041600  1.0  -0.6091
  O  O280  1  0.677210  0.500170  0.191120  1.0  -0.6203
  O  O281  1  0.649110  0.400540  0.141770  1.0  -0.5892
  O  O282  1  0.727530  0.423610  0.057130  1.0  -0.5863
  O  O283  1  0.109850  0.051470  0.114080  1.0  -0.5888
  O  O284  1  0.083780  0.090130  0.041600  1.0  -0.6093
  O  O285  1  0.499830  0.177040  0.191120  1.0  -0.6237
  O  O286  1  0.599460  0.248570  0.141770  1.0  -0.5906
  O  O287  1  0.576390  0.303920  0.057130  1.0  -0.5833
  O  O288  1  0.948530  0.058380  0.114080  1.0  -0.589
  O  O289  1  0.909870  0.993650  0.041600  1.0  -0.6116
  O  O290  1  0.822960  0.322790  0.191120  1.0  -0.6225
  O  O291  1  0.751430  0.350890  0.141770  1.0  -0.5879
  O  O292  1  0.696080  0.272470  0.057130  1.0  -0.5838
  O  O293  1  0.941620  0.890150  0.385920  1.0  -0.5881
  O  O294  1  0.006350  0.916220  0.458400  1.0  -0.6089
  O  O295  1  0.677210  0.500170  0.308880  1.0  -0.6224
  O  O296  1  0.649110  0.400540  0.358230  1.0  -0.589
  O  O297  1  0.727530  0.423610  0.442870  1.0  -0.5883
  O  O298  1  0.109850  0.051470  0.385920  1.0  -0.5884
  O  O299  1  0.083780  0.090130  0.458400  1.0  -0.6096
  O  O300  1  0.499830  0.177040  0.308880  1.0  -0.6235
  O  O301  1  0.599460  0.248570  0.358230  1.0  -0.5905
  O  O302  1  0.576390  0.303920  0.442870  1.0  -0.5851
  O  O303  1  0.948530  0.058380  0.385920  1.0  -0.5886
  O  O304  1  0.909870  0.993650  0.458400  1.0  -0.6117
  O  O305  1  0.822960  0.322790  0.308880  1.0  -0.6238
  O  O306  1  0.751430  0.350890  0.358230  1.0  -0.5879
  O  O307  1  0.696080  0.272470  0.442870  1.0  -0.5863
  O  O308  1  0.058380  0.109850  0.885920  1.0  -0.587
  O  O309  1  0.993650  0.083780  0.958400  1.0  -0.6101
  O  O310  1  0.322790  0.499830  0.808880  1.0  -0.6245
  O  O311  1  0.350890  0.599460  0.858230  1.0  -0.5891
  O  O312  1  0.272470  0.576390  0.942870  1.0  -0.5894
  O  O313  1  0.890150  0.948530  0.885920  1.0  -0.5886
  O  O314  1  0.916220  0.909870  0.958400  1.0  -0.6097
  O  O315  1  0.500170  0.822960  0.808880  1.0  -0.625
  O  O316  1  0.400540  0.751430  0.858230  1.0  -0.5892
  O  O317  1  0.423610  0.696080  0.942870  1.0  -0.587
  O  O318  1  0.051470  0.941620  0.885920  1.0  -0.5893
  O  O319  1  0.090130  0.006350  0.958400  1.0  -0.611
  O  O320  1  0.177040  0.677210  0.808880  1.0  -0.6211
  O  O321  1  0.248570  0.649110  0.858230  1.0  -0.5881
  O  O322  1  0.303920  0.727530  0.942870  1.0  -0.5855
  O  O323  1  0.397860  0.668810  0.750000  1.0  -0.623
  O  O324  1  0.331190  0.729050  0.750000  1.0  -0.6223
  O  O325  1  0.270950  0.602140  0.750000  1.0  -0.6228
  O  O326  1  0.602140  0.331190  0.250000  1.0  -0.624
  O  O327  1  0.668810  0.270950  0.250000  1.0  -0.6211
  O  O328  1  0.729050  0.397860  0.250000  1.0  -0.621
