# generated using pymatgen
data_Cd3H12(C9O4)4
_symmetry_space_group_name_H-M   'P 1'
_cell_length_a   9.89900000
_cell_length_b   10.36200000
_cell_length_c   13.18000000
_cell_angle_alpha   68.87000000
_cell_angle_beta   70.65000000
_cell_angle_gamma   80.77000000
_symmetry_Int_Tables_number   1
_chemical_formula_structural   Cd3H12(C9O4)4
_chemical_formula_sum   'Cd3 H12 C36 O16'
_cell_volume   1188.50018449
_cell_formula_units_Z   1
loop_
 _symmetry_equiv_pos_site_id
 _symmetry_equiv_pos_as_xyz
  1  'x, y, z'
loop_
 _atom_site_type_symbol
 _atom_site_label
 _atom_site_symmetry_multiplicity
 _atom_site_fract_x
 _atom_site_fract_y
 _atom_site_fract_z
 _atom_site_occupancy
 _atom_site_charge
  Cd  Cd1  1  0.014050  0.308150  0.763650  1.0  1.137
  Cd  Cd2  1  0.985950  0.691850  0.236350  1.0  1.1372
  Cd  Cd3  1  0.000000  0.000000  0.000000  1.0  1.0879
  H  H4  1  0.523700  0.272100  0.805600  1.0  0.1454
  H  H5  1  0.582300  0.093600  0.115000  1.0  0.1424
  H  H6  1  0.188200  0.137900  0.081400  1.0  0.1263
  H  H7  1  0.019800  0.765500  0.770000  1.0  0.1311
  H  H8  1  0.166800  0.735500  0.455200  1.0  0.1469
  H  H9  1  0.188100  0.091900  0.502800  1.0  0.1421
  H  H10  1  0.476300  0.727900  0.194400  1.0  0.1453
  H  H11  1  0.417700  0.906400  0.885000  1.0  0.1427
  H  H12  1  0.811800  0.862100  0.918600  1.0  0.1265
  H  H13  1  0.980200  0.234500  0.230000  1.0  0.1303
  H  H14  1  0.833200  0.264500  0.544800  1.0  0.1461
  H  H15  1  0.811900  0.908100  0.497200  1.0  0.1417
  C  C16  1  0.342800  0.206600  0.932400  1.0  -0.1242
  C  C17  1  0.487100  0.229000  0.883800  1.0  0.0408
  C  C18  1  0.577800  0.186700  0.952100  1.0  -0.1211
  C  C19  1  0.521400  0.123500  0.069500  1.0  -0.07
  C  C20  1  0.376000  0.105000  0.118800  1.0  0.014
  C  C21  1  0.286500  0.148300  0.049200  1.0  -0.0737
  C  C22  1  0.243900  0.247300  0.858500  1.0  0.7547
  C  C23  1  0.733900  0.208100  0.901900  1.0  0.7374
  C  C24  1  0.315900  0.040900  0.239500  1.0  -0.014
  C  C25  1  0.258700  0.986700  0.339300  1.0  0.0845
  C  C26  1  0.102100  0.942000  0.648400  1.0  -0.1497
  C  C27  1  0.062700  0.805500  0.692200  1.0  0.0384
  C  C28  1  0.087200  0.728100  0.620000  1.0  -0.1285
  C  C29  1  0.150900  0.787100  0.503400  1.0  -0.0751
  C  C30  1  0.190700  0.924400  0.459400  1.0  -0.0431
  C  C31  1  0.163800  0.999700  0.532600  1.0  -0.0756
  C  C32  1  0.075600  0.027100  0.726400  1.0  0.7649
  C  C33  1  0.050700  0.578600  0.669800  1.0  0.6809
  C  C34  1  0.657200  0.793400  0.067600  1.0  -0.1228
  C  C35  1  0.512900  0.771000  0.116200  1.0  0.0381
  C  C36  1  0.422200  0.813300  0.047900  1.0  -0.1224
  C  C37  1  0.478600  0.876500  0.930500  1.0  -0.0702
  C  C38  1  0.624000  0.895000  0.881200  1.0  0.0129
  C  C39  1  0.713500  0.851700  0.950800  1.0  -0.0724
  C  C40  1  0.756100  0.752700  0.141500  1.0  0.7533
  C  C41  1  0.266100  0.791900  0.098100  1.0  0.7381
  C  C42  1  0.684100  0.959100  0.760500  1.0  -0.0142
  C  C43  1  0.741300  0.013300  0.660700  1.0  0.0829
  C  C44  1  0.897900  0.058000  0.351600  1.0  -0.1487
  C  C45  1  0.937300  0.194500  0.307800  1.0  0.0368
  C  C46  1  0.912800  0.271900  0.380000  1.0  -0.129
  C  C47  1  0.849100  0.212900  0.496600  1.0  -0.0752
  C  C48  1  0.809300  0.075600  0.540600  1.0  -0.0435
  C  C49  1  0.836200  0.000300  0.467400  1.0  -0.0758
  C  C50  1  0.924400  0.972900  0.273600  1.0  0.7644
  C  C51  1  0.949300  0.421400  0.330200  1.0  0.679
  O  O52  1  0.116400  0.204900  0.905800  1.0  -0.6524
  O  O53  1  0.285000  0.319600  0.758100  1.0  -0.5539
  O  O54  1  0.779500  0.284800  0.800500  1.0  -0.5528
  O  O55  1  0.812900  0.151000  0.965100  1.0  -0.6933
  O  O56  1  0.087600  0.153700  0.677400  1.0  -0.5639
  O  O57  1  0.044900  0.963800  0.831800  1.0  -0.6289
  O  O58  1  0.991900  0.528600  0.774900  1.0  -0.5549
  O  O59  1  0.077800  0.507000  0.605800  1.0  -0.5486
  O  O60  1  0.883600  0.795100  0.094200  1.0  -0.6522
  O  O61  1  0.715000  0.680400  0.241900  1.0  -0.5535
  O  O62  1  0.220500  0.715200  0.199500  1.0  -0.5521
  O  O63  1  0.187100  0.849000  0.034900  1.0  -0.6931
  O  O64  1  0.912400  0.846300  0.322600  1.0  -0.5655
  O  O65  1  0.955100  0.036200  0.168200  1.0  -0.6295
  O  O66  1  0.008100  0.471400  0.225100  1.0  -0.5543
  O  O67  1  0.922200  0.493000  0.394200  1.0  -0.552
