# generated using pymatgen
data_ZnH8C12(IN2)2
_symmetry_space_group_name_H-M   'P 1'
_cell_length_a   14.87000000
_cell_length_b   19.11010000
_cell_length_c   30.65900000
_cell_angle_alpha   100.49300000
_cell_angle_beta   90.00000000
_cell_angle_gamma   112.89600000
_symmetry_Int_Tables_number   1
_chemical_formula_structural   ZnH8C12(IN2)2
_chemical_formula_sum   'Zn12 H96 C144 I24 N48'
_cell_volume   7867.46821862
_cell_formula_units_Z   12
loop_
 _symmetry_equiv_pos_site_id
 _symmetry_equiv_pos_as_xyz
  1  'x, y, z'
loop_
 _atom_site_type_symbol
 _atom_site_label
 _atom_site_symmetry_multiplicity
 _atom_site_fract_x
 _atom_site_fract_y
 _atom_site_fract_z
 _atom_site_occupancy
 _atom_site_charge
  Zn  Zn1  1  0.968440  0.222080  0.172700  1.0  0.8905
  Zn  Zn2  1  0.579090  0.410980  0.848470  1.0  0.8495
  Zn  Zn3  1  0.507520  0.818040  0.008200  1.0  0.8291
  Zn  Zn4  1  0.310520  0.818040  0.508200  1.0  0.826
  Zn  Zn5  1  0.831890  0.410980  0.348470  1.0  0.8511
  Zn  Zn6  1  0.253640  0.222080  0.672700  1.0  0.8906
  Zn  Zn7  1  0.987200  0.723600  0.042630  1.0  0.8928
  Zn  Zn8  1  0.736400  0.723600  0.542630  1.0  0.8928
  Zn  Zn9  1  0.601400  0.914400  0.720200  1.0  0.8662
  Zn  Zn10  1  0.313000  0.914400  0.220200  1.0  0.8637
  Zn  Zn11  1  0.058270  0.318940  0.880440  1.0  0.9448
  Zn  Zn12  1  0.260670  0.318940  0.380440  1.0  0.9449
  H  H13  1  0.693800  0.335800  0.409800  1.0  0.1088
  H  H14  1  0.377100  0.720200  0.072000  1.0  0.0989
  H  H15  1  0.457100  0.057400  0.624200  1.0  0.0925
  H  H16  1  0.256700  0.363600  0.643700  1.0  0.0869
  H  H17  1  0.795300  0.316000  0.748000  1.0  0.1035
  H  H18  1  0.951500  0.271400  0.711600  1.0  0.1185
  H  H19  1  0.600300  0.057400  0.124200  1.0  0.0927
  H  H20  1  0.171800  0.285000  0.218300  1.0  0.083
  H  H21  1  0.748900  0.385200  0.806700  1.0  0.0762
  H  H22  1  0.506800  0.182400  0.726000  1.0  0.0797
  H  H23  1  0.344000  0.215600  0.581300  1.0  0.0946
  H  H24  1  0.568000  0.347400  0.450900  1.0  0.107
  H  H25  1  0.230200  0.611000  0.066900  1.0  0.1165
  H  H26  1  0.653400  0.970600  0.577500  1.0  0.1004
  H  H27  1  0.871600  0.215600  0.081300  1.0  0.094
  H  H28  1  0.628600  0.557000  0.419900  1.0  0.1237
  H  H29  1  0.343100  0.720200  0.572000  1.0  0.0992
  H  H30  1  0.065500  0.117200  0.613900  1.0  0.0991
  H  H31  1  0.860500  0.298200  0.037200  1.0  0.1115
  H  H32  1  0.359100  0.461800  0.608800  1.0  0.1076
  H  H33  1  0.789500  0.534400  0.875300  1.0  0.0884
  H  H34  1  0.184900  0.619200  0.938900  1.0  0.1041
  H  H35  1  0.317200  0.970600  0.077500  1.0  0.101
  H  H36  1  0.636300  0.385200  0.306700  1.0  0.0764
  H  H37  1  0.106900  0.363600  0.143700  1.0  0.0879
  H  H38  1  0.744900  0.534400  0.375300  1.0  0.0881
  H  H39  1  0.437700  0.298200  0.537200  1.0  0.1117
  H  H40  1  0.373300  0.716400  0.443200  1.0  0.0996
  H  H41  1  0.348700  0.878600  0.027300  1.0  0.0967
  H  H42  1  0.178800  0.074400  0.120800  1.0  0.1119
  H  H43  1  0.779800  0.252200  0.288700  1.0  0.0894
  H  H44  1  0.343100  0.716400  0.943200  1.0  0.0985
  H  H45  1  0.102700  0.461800  0.108800  1.0  0.1074
  H  H46  1  0.113200  0.285000  0.718300  1.0  0.0824
  H  H47  1  0.895600  0.074400  0.620800  1.0  0.1115
  H  H48  1  0.319900  0.271400  0.211600  1.0  0.1182
  H  H49  1  0.380800  0.611000  0.566900  1.0  0.1167
  H  H50  1  0.597700  0.932800  0.099100  1.0  0.1066
  H  H51  1  0.529900  0.878600  0.527300  1.0  0.0964
  H  H52  1  0.051700  0.117200  0.113900  1.0  0.099
  H  H53  1  0.928400  0.557000  0.919900  1.0  0.1234
  H  H54  1  0.434300  0.619200  0.438900  1.0  0.1044
  H  H55  1  0.335100  0.932800  0.599100  1.0  0.1066
  H  H56  1  0.520700  0.316000  0.248000  1.0  0.103
  H  H57  1  0.779400  0.347400  0.950900  1.0  0.1069
  H  H58  1  0.472400  0.252200  0.788700  1.0  0.0895
  H  H59  1  0.642000  0.335800  0.909800  1.0  0.1088
  H  H60  1  0.675600  0.182400  0.226000  1.0  0.0801
  H  H61  1  0.164600  0.845400  0.361100  1.0  0.1058
  H  H62  1  0.256400  0.864200  0.686400  1.0  0.0928
  H  H63  1  0.431900  0.696400  0.793200  1.0  0.1084
  H  H64  1  0.187900  0.235200  0.873200  1.0  0.0803
  H  H65  1  0.986600  0.106400  0.747400  1.0  0.1067
  H  H66  1  0.923600  0.738000  0.580100  1.0  0.1055
  H  H67  1  0.783600  0.874600  0.612500  1.0  0.0677
  H  H68  1  0.918300  0.148600  0.323200  1.0  0.1136
  H  H69  1  0.054600  0.958600  0.165800  1.0  0.117
  H  H70  1  0.822100  0.762800  0.456100  1.0  0.089
  H  H71  1  0.168200  0.413200  0.451000  1.0  0.0789
  H  H72  1  0.140600  0.525800  0.454100  1.0  0.1045
  H  H73  1  0.809400  0.596400  0.512200  1.0  0.1128
  H  H74  1  0.787000  0.596400  0.012200  1.0  0.113
  H  H75  1  0.309300  0.525200  0.829300  1.0  0.1025
  H  H76  1  0.264500  0.696400  0.293200  1.0  0.1087
  H  H77  1  0.091000  0.874600  0.112500  1.0  0.0678
  H  H78  1  0.814400  0.738000  0.080100  1.0  0.1051
  H  H79  1  0.245000  0.413200  0.951000  1.0  0.0763
  H  H80  1  0.773000  0.819200  0.132500  1.0  0.0946
  H  H81  1  0.509900  0.044400  0.265400  1.0  0.0972
  H  H82  1  0.206000  0.918000  0.304500  1.0  0.1112
  H  H83  1  0.957000  0.194200  0.801500  1.0  0.0702
  H  H84  1  0.667100  0.047400  0.281200  1.0  0.0991
  H  H85  1  0.394300  0.838800  0.689100  1.0  0.0996
  H  H86  1  0.940700  0.762800  0.956100  1.0  0.0888
  H  H87  1  0.644300  0.585800  0.971600  1.0  0.0841
  H  H88  1  0.805500  0.762400  0.918400  1.0  0.1126
  H  H89  1  0.485100  0.755200  0.730100  1.0  0.1059
  H  H90  1  0.941500  0.585800  0.471600  1.0  0.0842
  H  H91  1  0.680800  0.845400  0.861100  1.0  0.106
  H  H92  1  0.215900  0.525200  0.329300  1.0  0.1023
  H  H93  1  0.380300  0.047400  0.781200  1.0  0.099
  H  H94  1  0.270100  0.755200  0.230100  1.0  0.106
  H  H95  1  0.119800  0.106400  0.247400  1.0  0.1067
  H  H96  1  0.444500  0.838800  0.189100  1.0  0.0995
  H  H97  1  0.237200  0.194200  0.301500  1.0  0.0702
  H  H98  1  0.534500  0.044400  0.765400  1.0  0.0966
  H  H99  1  0.168000  0.421600  0.831800  1.0  0.0761
  H  H100  1  0.253600  0.421600  0.331800  1.0  0.0757
  H  H101  1  0.712000  0.918000  0.804500  1.0  0.1118
  H  H102  1  0.385200  0.525800  0.954100  1.0  0.104
  H  H103  1  0.956900  0.762400  0.418400  1.0  0.1127
  H  H104  1  0.047300  0.235200  0.373200  1.0  0.0805
  H  H105  1  0.046200  0.819200  0.632500  1.0  0.094
  H  H106  1  0.607800  0.864200  0.186400  1.0  0.0934
  H  H107  1  0.230300  0.148600  0.823200  1.0  0.1124
  H  H108  1  0.904000  0.958600  0.665800  1.0  0.1175
  C  C109  1  0.398200  0.913200  0.049600  1.0  0.1308
  C  C110  1  0.385500  0.381000  0.562300  1.0  -0.0896
  C  C111  1  0.804600  0.162000  0.664900  1.0  0.2969
  C  C112  1  0.645200  0.091800  0.641100  1.0  0.2988
  C  C113  1  0.652900  0.238600  0.731400  1.0  -0.1255
  C  C114  1  0.302400  0.352800  0.624500  1.0  0.0866
  C  C115  1  0.642200  0.341000  0.289200  1.0  0.1448
  C  C116  1  0.265700  0.175600  0.161200  1.0  -0.0363
  C  C117  1  0.252800  0.633600  0.041700  1.0  -0.1134
  C  C118  1  0.506500  0.192000  0.195600  1.0  0.2908
  C  C119  1  0.861300  0.459200  0.947600  1.0  -0.0948
  C  C120  1  0.588900  0.969800  0.578200  1.0  -0.0974
  C  C121  1  0.340200  0.696400  0.044200  1.0  0.1199
  C  C122  1  0.349900  0.267800  0.588100  1.0  0.1423
  C  C123  1  0.456700  0.027200  0.108800  1.0  -0.1108
  C  C124  1  0.786000  0.500800  0.895200  1.0  0.1211
  C  C125  1  0.103500  0.144200  0.136500  1.0  0.1356
  C  C126  1  0.409600  0.636400  0.465400  1.0  -0.1405
  C  C127  1  0.570500  0.027200  0.608800  1.0  -0.111
  C  C128  1  0.010500  0.433000  0.030100  1.0  0.3528
  C  C129  1  0.698800  0.341000  0.789200  1.0  0.1447
  C  C130  1  0.433100  0.538200  0.501500  1.0  0.3192
  C  C131  1  0.995500  0.381000  0.062300  1.0  -0.0897
  C  C132  1  0.069300  0.245800  0.695500  1.0  0.1339
  C  C133  1  0.404900  0.604800  0.500800  1.0  -0.0166
  C  C134  1  0.644900  0.513800  0.420500  1.0  -0.1176
  C  C135  1  0.398500  0.313000  0.558500  1.0  -0.1117
  C  C136  1  0.357400  0.162000  0.164900  1.0  0.2974
  C  C137  1  0.550100  0.949000  0.088800  1.0  0.1026
  C  C138  1  0.698600  0.383000  0.914600  1.0  0.1137
  C  C139  1  0.318500  0.695800  0.968800  1.0  0.1135
  C  C140  1  0.422500  0.433000  0.530100  1.0  0.3518
  C  C141  1  0.380900  0.969800  0.078200  1.0  -0.0995
  C  C142  1  0.949300  0.468200  0.974600  1.0  0.3756
  C  C143  1  0.597900  0.459200  0.447600  1.0  -0.0948
  C  C144  1  0.729100  0.301600  0.754900  1.0  -0.1017
  C  C145  1  0.226800  0.636400  0.965400  1.0  -0.1413
  C  C146  1  0.917900  0.267800  0.088100  1.0  0.1426
  C  C147  1  0.572500  0.301600  0.254900  1.0  -0.1016
  C  C148  1  0.543200  0.016400  0.109200  1.0  -0.1017
  C  C149  1  0.714800  0.500800  0.395200  1.0  0.1223
  C  C150  1  0.176500  0.245800  0.195500  1.0  0.1308
  C  C151  1  0.350600  0.409200  0.600300  1.0  -0.1012
  C  C152  1  0.685500  0.192000  0.695600  1.0  0.2915
  C  C153  1  0.058600  0.409200  0.100300  1.0  -0.0974
  C  C154  1  0.380800  0.633600  0.541700  1.0  -0.1136
  C  C155  1  0.914500  0.313000  0.058500  1.0  -0.113
  C  C156  1  0.518900  0.468200  0.474600  1.0  0.376
  C  C157  1  0.779500  0.390200  0.939300  1.0  -0.1062
  C  C158  1  0.537400  0.266400  0.780000  1.0  0.1167
  C  C159  1  0.940700  0.123000  0.636800  1.0  -0.0643
  C  C160  1  0.868900  0.513800  0.920500  1.0  -0.117
  C  C161  1  0.182300  0.123000  0.136800  1.0  -0.064
  C  C162  1  0.377300  0.695800  0.468800  1.0  0.1105
  C  C163  1  0.729000  0.266400  0.280000  1.0  0.1166
  C  C164  1  0.446600  0.091800  0.141100  1.0  0.2991
  C  C165  1  0.909900  0.175600  0.661200  1.0  -0.0356
  C  C166  1  0.610700  0.390200  0.439300  1.0  -0.1059
  C  C167  1  0.040700  0.144200  0.636500  1.0  0.1365
  C  C168  1  0.684400  0.383000  0.414600  1.0  0.1124
  C  C169  1  0.263500  0.237000  0.192700  1.0  -0.162
  C  C170  1  0.973500  0.237000  0.692700  1.0  -0.1629
  C  C171  1  0.050400  0.352800  0.124500  1.0  0.0874
  C  C172  1  0.473200  0.016400  0.609200  1.0  -0.1053
  C  C173  1  0.398900  0.949000  0.588800  1.0  0.1017
  C  C174  1  0.105100  0.538200  0.001500  1.0  0.3171
  C  C175  1  0.559500  0.224400  0.743800  1.0  -0.0635
  C  C176  1  0.585700  0.238600  0.231400  1.0  -0.1252
  C  C177  1  0.515000  0.913200  0.549600  1.0  0.1243
  C  C178  1  0.664900  0.224400  0.243800  1.0  -0.0622
  C  C179  1  0.356200  0.696400  0.544200  1.0  0.1187
  C  C180  1  0.199900  0.604800  0.000800  1.0  -0.0154
  C  C181  1  0.661500  0.967000  0.228100  1.0  -0.0551
  C  C182  1  0.847000  0.636000  0.497000  1.0  0.1064
  C  C183  1  0.840100  0.832200  0.128500  1.0  -0.0697
  C  C184  1  0.213700  0.442000  0.857200  1.0  0.1459
  C  C185  1  0.260600  0.777200  0.259200  1.0  0.101
  C  C186  1  0.797900  0.729000  0.938900  1.0  -0.1315
  C  C187  1  0.151800  0.213400  0.845000  1.0  0.1486
  C  C188  1  0.553600  0.703200  0.860100  1.0  0.3549
  C  C189  1  0.312500  0.901600  0.704400  1.0  -0.1082
  C  C190  1  0.385500  0.010800  0.756900  1.0  -0.1034
  C  C191  1  0.066500  0.947400  0.693700  1.0  0.3576
  C  C192  1  0.922800  0.627600  0.470100  1.0  -0.1089
  C  C193  1  0.880900  0.947400  0.193700  1.0  0.3582
  C  C194  1  0.006100  0.116200  0.281100  1.0  -0.0711
  C  C195  1  0.992100  0.832200  0.628500  1.0  -0.071
  C  C196  1  0.918900  0.783000  0.597200  1.0  0.1197
  C  C197  1  0.343400  0.503600  0.927400  1.0  -0.1444
  C  C198  1  0.140900  0.603800  0.391400  1.0  0.4405
  C  C199  1  0.171500  0.189800  0.303500  1.0  0.1372
  C  C200  1  0.864100  0.783000  0.097200  1.0  0.1205
  C  C201  1  0.187300  0.826600  0.334300  1.0  -0.1124
  C  C202  1  0.102100  0.133000  0.273000  1.0  -0.2048
  C  C203  1  0.654100  0.872200  0.802600  1.0  0.1088
  C  C204  1  0.030900  0.133000  0.773000  1.0  -0.207
  C  C205  1  0.189000  0.754000  0.327200  1.0  -0.0306
  C  C206  1  0.205600  0.504000  0.355500  1.0  -0.1675
  C  C207  1  0.877100  0.734400  0.964200  1.0  0.1362
  C  C208  1  0.491300  0.886800  0.205100  1.0  0.1028
  C  C209  1  0.625300  0.010800  0.256900  1.0  -0.1064
  C  C210  1  0.018300  0.189800  0.803500  1.0  0.1358
  C  C211  1  0.906900  0.900000  0.155300  1.0  -0.0669
  C  C212  1  0.298400  0.504000  0.855500  1.0  -0.1672
  C  C213  1  0.125300  0.050600  0.751500  1.0  0.2913
  C  C214  1  0.993100  0.900000  0.655300  1.0  -0.0658
  C  C215  1  0.495200  0.736400  0.793300  1.0  -0.1018
  C  C216  1  0.213100  0.980800  0.730400  1.0  0.1283
  C  C217  1  0.931100  0.729000  0.438900  1.0  -0.1305
  C  C218  1  0.967100  0.674800  0.443800  1.0  -0.0285
  C  C219  1  0.911000  0.914400  0.648800  1.0  -0.1674
  C  C220  1  0.061600  0.213400  0.345000  1.0  0.1474
  C  C221  1  0.475500  0.003400  0.751800  1.0  0.1047
  C  C222  1  0.984200  0.157600  0.317300  1.0  -0.1631
  C  C223  1  0.857300  0.734400  0.464200  1.0  0.1337
  C  C224  1  0.043900  0.667400  0.414100  1.0  0.3378
  C  C225  1  0.462900  0.603800  0.891400  1.0  0.4408
  C  C226  1  0.160200  0.503600  0.427400  1.0  -0.1453
  C  C227  1  0.789000  0.636000  0.997000  1.0  0.1076
  C  C228  1  0.218100  0.872200  0.302600  1.0  0.1097
  C  C229  1  0.149600  0.703200  0.360100  1.0  0.3546
  C  C230  1  0.704800  0.627600  0.970100  1.0  -0.1098
  C  C231  1  0.110100  0.116200  0.781100  1.0  -0.0722
  C  C232  1  0.168100  0.536200  0.390700  1.0  0.0049
  C  C233  1  0.368100  0.536200  0.890700  1.0  0.0057
  C  C234  1  0.527900  0.003400  0.251800  1.0  0.1026
  C  C235  1  0.516600  0.777200  0.759200  1.0  0.1006
  C  C236  1  0.589100  0.901600  0.204400  1.0  -0.1058
  C  C237  1  0.181100  0.437800  0.426100  1.0  0.1058
  C  C238  1  0.256700  0.437800  0.926100  1.0  0.1062
  C  C239  1  0.839300  0.863200  0.616700  1.0  0.1502
  C  C240  1  0.395500  0.886800  0.705100  1.0  0.1036
  C  C241  1  0.707700  0.674800  0.943800  1.0  -0.0309
  C  C242  1  0.228300  0.442000  0.357200  1.0  0.1439
  C  C243  1  0.925300  0.050600  0.251500  1.0  0.291
  C  C244  1  0.623500  0.667400  0.914100  1.0  0.3373
  C  C245  1  0.305500  0.967000  0.728100  1.0  -0.0565
  C  C246  1  0.173400  0.157600  0.817300  1.0  -0.1601
  C  C247  1  0.003400  0.914400  0.148800  1.0  -0.1681
  C  C248  1  0.767700  0.980800  0.230400  1.0  0.1282
  C  C249  1  0.241200  0.736400  0.293300  1.0  -0.1007
  C  C250  1  0.565000  0.754000  0.827200  1.0  -0.0309
  C  C251  1  0.639300  0.826600  0.834300  1.0  -0.1116
  C  C252  1  0.023900  0.863200  0.116700  1.0  0.1468
  I  I253  1  0.429210  0.337880  0.885650  1.0  -0.3821
  I  I254  1  0.630510  0.783220  0.045100  1.0  -0.4038
  I  I255  1  0.607520  0.524440  0.811440  1.0  -0.3582
  I  I256  1  0.526410  0.863820  0.936130  1.0  -0.3702
  I  I257  1  0.321280  0.314360  0.747270  1.0  -0.4385
  I  I258  1  0.337410  0.863820  0.436130  1.0  -0.3708
  I  I259  1  0.817440  0.100280  0.149370  1.0  -0.4752
  I  I260  1  0.916920  0.524440  0.311440  1.0  -0.3581
  I  I261  1  0.152710  0.783220  0.545100  1.0  -0.4035
  I  I262  1  0.282840  0.100280  0.649370  1.0  -0.4754
  I  I263  1  0.993080  0.314360  0.247270  1.0  -0.4384
  I  I264  1  0.908670  0.337880  0.385650  1.0  -0.3822
  I  I265  1  0.577650  0.824100  0.644780  1.0  -0.4252
  I  I266  1  0.246450  0.824100  0.144780  1.0  -0.424
  I  I267  1  0.419190  0.358780  0.340680  1.0  -0.4008
  I  I268  1  0.288130  0.039460  0.244800  1.0  -0.4531
  I  I269  1  0.036530  0.275460  0.953500  1.0  -0.3349
  I  I270  1  0.137790  0.796660  0.005000  1.0  -0.3403
  I  I271  1  0.751330  0.039460  0.744800  1.0  -0.4543
  I  I272  1  0.652440  0.610080  0.580540  1.0  -0.369
  I  I273  1  0.939590  0.358780  0.840680  1.0  -0.4008
  I  I274  1  0.238930  0.275460  0.453500  1.0  -0.3344
  I  I275  1  0.658870  0.796660  0.505000  1.0  -0.3409
  I  I276  1  0.957640  0.610080  0.080540  1.0  -0.3687
  N  N277  1  0.742800  0.442200  0.397300  1.0  -0.3317
  N  N278  1  0.608400  0.325800  0.801600  1.0  -0.3268
  N  N279  1  0.031000  0.529000  0.971200  1.0  -0.3842
  N  N280  1  0.393700  0.490000  0.528900  1.0  -0.3668
  N  N281  1  0.373200  0.724400  0.007600  1.0  -0.2969
  N  N282  1  0.363700  0.101000  0.136400  1.0  -0.3064
  N  N283  1  0.975900  0.285800  0.124900  1.0  -0.2935
  N  N284  1  0.309900  0.285800  0.624900  1.0  -0.2933
  N  N285  1  0.612100  0.126400  0.675000  1.0  -0.3174
  N  N286  1  0.717400  0.325800  0.301600  1.0  -0.3273
  N  N287  1  0.429300  0.211200  0.195400  1.0  -0.4337
  N  N288  1  0.098000  0.202000  0.167400  1.0  -0.3312
  N  N289  1  0.096300  0.490000  0.028900  1.0  -0.3677
  N  N290  1  0.699400  0.442200  0.897300  1.0  -0.3324
  N  N291  1  0.351200  0.724400  0.507600  1.0  -0.2939
  N  N292  1  0.514300  0.126400  0.175000  1.0  -0.3174
  N  N293  1  0.737300  0.101000  0.636400  1.0  -0.3077
  N  N294  1  0.781900  0.211200  0.695400  1.0  -0.4344
  N  N295  1  0.930100  0.422800  0.004300  1.0  -0.4365
  N  N296  1  0.492700  0.422800  0.504300  1.0  -0.4355
  N  N297  1  0.421100  0.905600  0.552500  1.0  -0.3467
  N  N298  1  0.484500  0.905600  0.052500  1.0  -0.3527
  N  N299  1  0.498000  0.529000  0.471200  1.0  -0.3863
  N  N300  1  0.104000  0.202000  0.667400  1.0  -0.3292
  N  N301  1  0.585200  0.849400  0.769300  1.0  -0.2896
  N  N302  1  0.952500  0.006200  0.220400  1.0  -0.4831
  N  N303  1  0.469600  0.645000  0.859900  1.0  -0.4441
  N  N304  1  0.830600  0.038600  0.260400  1.0  -0.2465
  N  N305  1  0.831700  0.701000  0.500200  1.0  -0.2891
  N  N306  1  0.217600  0.408600  0.391900  1.0  -0.3089
  N  N307  1  0.536200  0.612800  0.917600  1.0  -0.4197
  N  N308  1  0.175400  0.645000  0.359900  1.0  -0.4366
  N  N309  1  0.958900  0.799600  0.091200  1.0  -0.3364
  N  N310  1  0.869300  0.701000  0.000200  1.0  -0.2882
  N  N311  1  0.053700  0.006200  0.720400  1.0  -0.4919
  N  N312  1  0.083600  0.239000  0.835300  1.0  -0.3002
  N  N313  1  0.145100  0.933000  0.699000  1.0  -0.4133
  N  N314  1  0.081800  0.717400  0.385300  1.0  -0.4252
  N  N315  1  0.155400  0.239000  0.335300  1.0  -0.3004
  N  N316  1  0.264200  0.849400  0.269300  1.0  -0.2882
  N  N317  1  0.477300  0.938800  0.727900  1.0  -0.2943
  N  N318  1  0.191000  0.408600  0.891900  1.0  -0.3118
  N  N319  1  0.635600  0.717400  0.885300  1.0  -0.4257
  N  N320  1  0.208000  0.038600  0.760400  1.0  -0.2549
  N  N321  1  0.787900  0.933000  0.199000  1.0  -0.4157
  N  N322  1  0.840700  0.799600  0.591200  1.0  -0.3369
  N  N323  1  0.076600  0.612800  0.417600  1.0  -0.4198
  N  N324  1  0.461500  0.938800  0.227900  1.0  -0.2947
