# generated using pymatgen
data_NaCr(CO2)6
_symmetry_space_group_name_H-M   'P 1'
_cell_length_a   15.95200000
_cell_length_b   15.95200000
_cell_length_c   15.95200000
_cell_angle_alpha   90.00000000
_cell_angle_beta   90.00000000
_cell_angle_gamma   90.00000000
_symmetry_Int_Tables_number   1
_chemical_formula_structural   NaCr(CO2)6
_chemical_formula_sum   'Na4 Cr4 C24 O48'
_cell_volume   4059.24648141
_cell_formula_units_Z   4
loop_
 _symmetry_equiv_pos_site_id
 _symmetry_equiv_pos_as_xyz
  1  'x, y, z'
loop_
 _atom_site_type_symbol
 _atom_site_label
 _atom_site_symmetry_multiplicity
 _atom_site_fract_x
 _atom_site_fract_y
 _atom_site_fract_z
 _atom_site_occupancy
 _atom_site_charge
  Na  Na1  1  0.133700  0.866300  0.366300  1.0  0.9549
  Na  Na2  1  0.366300  0.133700  0.866300  1.0  0.9563
  Na  Na3  1  0.866300  0.366300  0.133700  1.0  0.9576
  Na  Na4  1  0.633700  0.633700  0.633700  1.0  0.9567
  Cr  Cr5  1  0.131950  0.131950  0.131950  1.0  1.4192
  Cr  Cr6  1  0.368050  0.868050  0.631950  1.0  1.4202
  Cr  Cr7  1  0.868050  0.631950  0.368050  1.0  1.4214
  Cr  Cr8  1  0.631950  0.368050  0.868050  1.0  1.4216
  C  C9  1  0.138900  0.040100  0.278200  1.0  0.5599
  C  C10  1  0.138500  0.974800  0.204600  1.0  0.5596
  C  C11  1  0.361100  0.959900  0.778200  1.0  0.5593
  C  C12  1  0.361500  0.025200  0.704600  1.0  0.558
  C  C13  1  0.861100  0.540100  0.221800  1.0  0.5566
  C  C14  1  0.861500  0.474800  0.295400  1.0  0.5595
  C  C15  1  0.638900  0.459900  0.721800  1.0  0.5563
  C  C16  1  0.638500  0.525200  0.795400  1.0  0.5571
  C  C17  1  0.278200  0.138900  0.040100  1.0  0.5579
  C  C18  1  0.204600  0.138500  0.974800  1.0  0.5607
  C  C19  1  0.778200  0.361100  0.959900  1.0  0.5566
  C  C20  1  0.704600  0.361500  0.025200  1.0  0.5607
  C  C21  1  0.221800  0.861100  0.540100  1.0  0.5571
  C  C22  1  0.295400  0.861500  0.474800  1.0  0.561
  C  C23  1  0.721800  0.638900  0.459900  1.0  0.5558
  C  C24  1  0.795400  0.638500  0.525200  1.0  0.5629
  C  C25  1  0.040100  0.278200  0.138900  1.0  0.5555
  C  C26  1  0.974800  0.204600  0.138500  1.0  0.5587
  C  C27  1  0.959900  0.778200  0.361100  1.0  0.5547
  C  C28  1  0.025200  0.704600  0.361500  1.0  0.5602
  C  C29  1  0.540100  0.221800  0.861100  1.0  0.5567
  C  C30  1  0.474800  0.295400  0.861500  1.0  0.5591
  C  C31  1  0.459900  0.721800  0.638900  1.0  0.5557
  C  C32  1  0.525200  0.795400  0.638500  1.0  0.5599
  O  O33  1  0.140000  0.116500  0.254500  1.0  -0.4682
  O  O34  1  0.136700  0.014800  0.350200  1.0  -0.4922
  O  O35  1  0.136000  0.008400  0.131900  1.0  -0.4497
  O  O36  1  0.140200  0.900200  0.219700  1.0  -0.4985
  O  O37  1  0.360000  0.883500  0.754500  1.0  -0.4674
  O  O38  1  0.363300  0.985200  0.850200  1.0  -0.4902
  O  O39  1  0.364000  0.991600  0.631900  1.0  -0.4507
  O  O40  1  0.359800  0.099800  0.719700  1.0  -0.496
  O  O41  1  0.860000  0.616500  0.245500  1.0  -0.4709
  O  O42  1  0.863300  0.514800  0.149800  1.0  -0.4841
  O  O43  1  0.864000  0.508400  0.368100  1.0  -0.4521
  O  O44  1  0.859800  0.400200  0.280300  1.0  -0.4999
  O  O45  1  0.640000  0.383500  0.745500  1.0  -0.4677
  O  O46  1  0.636700  0.485200  0.649800  1.0  -0.4889
  O  O47  1  0.636000  0.491600  0.868100  1.0  -0.453
  O  O48  1  0.640200  0.599800  0.780300  1.0  -0.4968
  O  O49  1  0.254500  0.140000  0.116500  1.0  -0.4622
  O  O50  1  0.350200  0.136700  0.014800  1.0  -0.4965
  O  O51  1  0.131900  0.136000  0.008400  1.0  -0.452
  O  O52  1  0.219700  0.140200  0.900200  1.0  -0.4933
  O  O53  1  0.754500  0.360000  0.883500  1.0  -0.4617
  O  O54  1  0.850200  0.363300  0.985200  1.0  -0.4955
  O  O55  1  0.631900  0.364000  0.991600  1.0  -0.4509
  O  O56  1  0.719700  0.359800  0.099800  1.0  -0.496
  O  O57  1  0.245500  0.860000  0.616500  1.0  -0.4632
  O  O58  1  0.149800  0.863300  0.514800  1.0  -0.4938
  O  O59  1  0.368100  0.864000  0.508400  1.0  -0.4517
  O  O60  1  0.280300  0.859800  0.400200  1.0  -0.4929
  O  O61  1  0.745500  0.640000  0.383500  1.0  -0.4629
  O  O62  1  0.649800  0.636700  0.485200  1.0  -0.4973
  O  O63  1  0.868100  0.636000  0.491600  1.0  -0.451
  O  O64  1  0.780300  0.640200  0.599800  1.0  -0.4951
  O  O65  1  0.116500  0.254500  0.140000  1.0  -0.4661
  O  O66  1  0.014800  0.350200  0.136700  1.0  -0.496
  O  O67  1  0.008400  0.131900  0.136000  1.0  -0.4538
  O  O68  1  0.900200  0.219700  0.140200  1.0  -0.5001
  O  O69  1  0.883500  0.754500  0.360000  1.0  -0.4692
  O  O70  1  0.985200  0.850200  0.363300  1.0  -0.4966
  O  O71  1  0.991600  0.631900  0.364000  1.0  -0.4548
  O  O72  1  0.099800  0.719700  0.359800  1.0  -0.4971
  O  O73  1  0.616500  0.245500  0.860000  1.0  -0.4639
  O  O74  1  0.514800  0.149800  0.863300  1.0  -0.4929
  O  O75  1  0.508400  0.368100  0.864000  1.0  -0.4573
  O  O76  1  0.400200  0.280300  0.859800  1.0  -0.5012
  O  O77  1  0.383500  0.745500  0.640000  1.0  -0.4672
  O  O78  1  0.485200  0.649800  0.636700  1.0  -0.4971
  O  O79  1  0.491600  0.868100  0.636000  1.0  -0.455
  O  O80  1  0.599800  0.780300  0.640200  1.0  -0.4968
