# generated using pymatgen
data_Cd4H57C40O17
_symmetry_space_group_name_H-M   'P 1'
_cell_length_a   12.03280000
_cell_length_b   12.03280000
_cell_length_c   12.03280000
_cell_angle_alpha   109.18090000
_cell_angle_beta   112.06190000
_cell_angle_gamma   107.20790000
_symmetry_Int_Tables_number   1
_chemical_formula_structural   Cd4H57C40O17
_chemical_formula_sum   'Cd4 H57 C40 O17'
_cell_volume   1338.70762306
_cell_formula_units_Z   1
loop_
 _symmetry_equiv_pos_site_id
 _symmetry_equiv_pos_as_xyz
  1  'x, y, z'
loop_
 _atom_site_type_symbol
 _atom_site_label
 _atom_site_symmetry_multiplicity
 _atom_site_fract_x
 _atom_site_fract_y
 _atom_site_fract_z
 _atom_site_occupancy
 _atom_site_charge
  Cd  Cd1  1  0.000000  0.330190  0.330190  1.0  1.0819
  Cd  Cd2  1  0.000000  0.669810  0.669810  1.0  1.0803
  Cd  Cd3  1  0.174780  0.500000  0.674780  1.0  1.0307
  Cd  Cd4  1  0.825220  0.500000  0.325220  1.0  1.0255
  H  H5  1  0.579300  0.696000  0.390300  1.0  0.0813
  H  H6  1  0.747000  0.826000  0.677600  1.0  0.0783
  H  H7  1  0.696800  0.888800  0.585400  1.0  0.0896
  H  H8  1  0.571300  0.797100  0.712600  1.0  0.0986
  H  H9  1  0.530100  0.873100  0.633000  1.0  0.0821
  H  H10  1  0.287800  0.627600  0.306000  1.0  0.1125
  H  H11  1  0.344300  0.771800  0.424900  1.0  0.1256
  H  H12  1  0.437300  0.738300  0.371800  1.0  0.1213
  H  H13  1  0.323300  0.395800  0.312300  1.0  0.1154
  H  H14  1  0.360300  0.482800  0.246300  1.0  0.119
  H  H15  1  0.448400  0.415500  0.293300  1.0  0.1207
  H  H16  1  0.463400  0.474700  0.556900  1.0  0.1287
  H  H17  1  0.589200  0.489900  0.540100  1.0  0.1192
  H  H18  1  0.599300  0.611500  0.652600  1.0  0.1204
  H  H19  1  0.305700  0.189000  0.609700  1.0  0.0812
  H  H20  1  0.148400  0.069400  0.322400  1.0  0.0845
  H  H21  1  0.303400  0.111400  0.414600  1.0  0.0913
  H  H22  1  0.084500  0.858700  0.287400  1.0  0.0982
  H  H23  1  0.240100  0.897100  0.367000  1.0  0.0794
  H  H24  1  0.321600  0.981800  0.694000  1.0  0.1161
  H  H25  1  0.346900  0.919400  0.575100  1.0  0.1254
  H  H26  1  0.366500  0.065500  0.628200  1.0  0.1214
  H  H27  1  0.083500  0.011000  0.687700  1.0  0.1189
  H  H28  1  0.236500  0.114000  0.753700  1.0  0.119
  H  H29  1  0.122200  0.155100  0.706700  1.0  0.1215
  H  H30  1  0.917800  0.906500  0.443100  1.0  0.1262
  H  H31  1  0.949800  0.049100  0.459900  1.0  0.1175
  H  H32  1  0.958900  0.946700  0.347400  1.0  0.1223
  H  H33  1  0.694300  0.304000  0.883300  1.0  0.0803
  H  H34  1  0.851600  0.174000  0.921000  1.0  0.0819
  H  H35  1  0.696600  0.111200  0.808000  1.0  0.0917
  H  H36  1  0.915500  0.202900  0.774200  1.0  0.1007
  H  H37  1  0.759900  0.126900  0.657000  1.0  0.079
  H  H38  1  0.678400  0.372400  0.660200  1.0  0.1134
  H  H39  1  0.653100  0.228200  0.572500  1.0  0.1236
  H  H40  1  0.633500  0.261700  0.699000  1.0  0.1209
  H  H41  1  0.916500  0.604200  0.927500  1.0  0.1187
  H  H42  1  0.763500  0.517200  0.877500  1.0  0.1231
  H  H43  1  0.877800  0.584500  0.032900  1.0  0.1211
  H  H44  1  0.082200  0.525300  0.988700  1.0  0.1278
  H  H45  1  0.050200  0.510100  0.099300  1.0  0.1197
  H  H46  1  0.041100  0.388500  0.987800  1.0  0.1242
  H  H47  1  0.420700  0.811000  0.116700  1.0  0.0836
  H  H48  1  0.253000  0.930600  0.079000  1.0  0.0815
  H  H49  1  0.303200  0.888600  0.192000  1.0  0.0907
  H  H50  1  0.428700  0.141300  0.225800  1.0  0.0992
  H  H51  1  0.469900  0.102900  0.343000  1.0  0.0796
  H  H52  1  0.712200  0.018200  0.339800  1.0  0.1183
  H  H53  1  0.655700  0.080600  0.427500  1.0  0.1237
  H  H54  1  0.562700  0.934500  0.301000  1.0  0.1231
  H  H55  1  0.676700  0.989000  0.072500  1.0  0.1188
  H  H56  1  0.639700  0.886000  0.122500  1.0  0.1203
  H  H57  1  0.551600  0.844900  0.967100  1.0  0.1218
  H  H58  1  0.536600  0.093500  0.011300  1.0  0.1285
  H  H59  1  0.410800  0.950900  0.900700  1.0  0.1194
  H  H60  1  0.400700  0.053300  0.012200  1.0  0.1248
  H  H61  1  0.070030  0.570030  0.500000  1.0  0.3862
  C  C62  1  0.303100  0.580300  0.506400  1.0  0.6387
  C  C63  1  0.721300  0.637900  0.472000  1.0  0.5297
  C  C64  1  0.419900  0.660400  0.498300  1.0  0.0411
  C  C65  1  0.489100  0.581100  0.456000  1.0  0.1846
  C  C66  1  0.612400  0.681800  0.469600  1.0  -0.1492
  C  C67  1  0.669100  0.813100  0.600000  1.0  -0.1231
  C  C68  1  0.548700  0.798800  0.627100  1.0  -0.1451
  C  C69  1  0.367400  0.703600  0.390000  1.0  -0.3459
  C  C70  1  0.396700  0.457300  0.314000  1.0  -0.3749
  C  C71  1  0.540000  0.534900  0.561300  1.0  -0.3386
  C  C72  1  0.073900  0.796700  0.493600  1.0  0.636
  C  C73  1  0.165900  0.249300  0.528000  1.0  0.5224
  C  C74  1  0.162100  0.921600  0.501700  1.0  0.0428
  C  C75  1  0.125100  0.033100  0.544000  1.0  0.187
  C  C76  1  0.212200  0.142800  0.530400  1.0  -0.1519
  C  C77  1  0.213100  0.069100  0.400000  1.0  -0.1229
  C  C78  1  0.171700  0.921600  0.372900  1.0  -0.1451
  C  C79  1  0.313600  0.977400  0.610000  1.0  -0.3426
  C  C80  1  0.143300  0.082700  0.686000  1.0  -0.3765
  C  C81  1  0.973600  0.978700  0.438700  1.0  -0.3379
  C  C82  1  0.926100  0.419700  0.722800  1.0  0.6329
  C  C83  1  0.834100  0.362100  0.083400  1.0  0.5307
  C  C84  1  0.837900  0.339600  0.759500  1.0  0.0392
  C  C85  1  0.874900  0.418900  0.908000  1.0  0.1845
  C  C86  1  0.787800  0.318200  0.930600  1.0  -0.1486
  C  C87  1  0.786900  0.186900  0.856000  1.0  -0.1273
  C  C88  1  0.828300  0.201200  0.749900  1.0  -0.1507
  C  C89  1  0.686400  0.296400  0.663800  1.0  -0.3461
  C  C90  1  0.856700  0.542700  0.939400  1.0  -0.3781
  C  C91  1  0.026400  0.465100  0.005100  1.0  -0.3385
  C  C92  1  0.696900  0.203300  0.277200  1.0  0.632
  C  C93  1  0.278700  0.750700  0.916600  1.0  0.5263
  C  C94  1  0.580100  0.078400  0.240500  1.0  0.0396
  C  C95  1  0.510900  0.966900  0.092000  1.0  0.185
  C  C96  1  0.387600  0.857200  0.069400  1.0  -0.1475
  C  C97  1  0.330900  0.930900  0.144000  1.0  -0.1257
  C  C98  1  0.451300  0.078400  0.250100  1.0  -0.1509
  C  C99  1  0.632600  0.022600  0.336200  1.0  -0.3451
  C  C100  1  0.603300  0.917300  0.060600  1.0  -0.3778
  C  C101  1  0.460000  0.021300  0.994900  1.0  -0.3375
  O  O102  1  0.192600  0.475000  0.383600  1.0  -0.6162
  O  O103  1  0.312500  0.600000  0.613500  1.0  -0.5582
  O  O104  1  0.808000  0.658000  0.580000  1.0  -0.5669
  O  O105  1  0.689300  0.585800  0.352300  1.0  -0.6566
  O  O106  1  0.091400  0.809000  0.616400  1.0  -0.6186
  O  O107  1  0.986500  0.699000  0.386500  1.0  -0.5615
  O  O108  1  0.078000  0.228000  0.420000  1.0  -0.5676
  O  O109  1  0.233500  0.337000  0.647700  1.0  -0.6448
  O  O110  1  0.908600  0.525000  0.717600  1.0  -0.6186
  O  O111  1  0.013500  0.400000  0.712500  1.0  -0.5633
  O  O112  1  0.922000  0.342000  0.150000  1.0  -0.5664
  O  O113  1  0.766500  0.414200  0.103500  1.0  -0.6563
  O  O114  1  0.807400  0.191000  0.282400  1.0  -0.6171
  O  O115  1  0.687500  0.301000  0.287500  1.0  -0.5621
  O  O116  1  0.192000  0.772000  0.850000  1.0  -0.5663
  O  O117  1  0.310700  0.663000  0.896500  1.0  -0.6504
  O  O118  1  0.000000  0.500000  0.500000  1.0  -0.7335
