# generated using pymatgen
data_Cu2H59C60(NO)8
_symmetry_space_group_name_H-M   'P 1'
_cell_length_a   11.55570000
_cell_length_b   14.09990000
_cell_length_c   25.62780000
_cell_angle_alpha   90.00000000
_cell_angle_beta   90.00000000
_cell_angle_gamma   94.14400000
_symmetry_Int_Tables_number   1
_chemical_formula_structural   Cu2H59C60(NO)8
_chemical_formula_sum   'Cu4 H118 C120 N16 O16'
_cell_volume   4164.72858095
_cell_formula_units_Z   2
loop_
 _symmetry_equiv_pos_site_id
 _symmetry_equiv_pos_as_xyz
  1  'x, y, z'
loop_
 _atom_site_type_symbol
 _atom_site_label
 _atom_site_symmetry_multiplicity
 _atom_site_fract_x
 _atom_site_fract_y
 _atom_site_fract_z
 _atom_site_occupancy
 _atom_site_charge
  Cu  Cu1  1  0.026660  0.012570  0.645300  1.0  0.5252
  Cu  Cu2  1  0.481840  0.482290  0.877860  1.0  0.5161
  Cu  Cu3  1  0.973340  0.987430  0.145300  1.0  0.5246
  Cu  Cu4  1  0.518160  0.517710  0.377860  1.0  0.5155
  H  H5  1  0.252000  0.498400  0.822700  1.0  0.0828
  H  H6  1  0.528700  0.664400  0.826600  1.0  0.0756
  H  H7  1  0.978800  0.852000  0.716100  1.0  0.0896
  H  H8  1  0.371400  0.852700  0.714800  1.0  0.122
  H  H9  1  0.279400  0.968500  0.670900  1.0  0.1022
  H  H10  1  0.894400  0.165800  0.803800  1.0  0.1068
  H  H11  1  0.492200  0.398400  0.772800  1.0  0.0794
  H  H12  1  0.568100  0.356400  0.447800  1.0  0.0821
  H  H13  1  0.600500  0.304600  0.720300  1.0  0.1217
  H  H14  1  0.985900  0.063100  0.758300  1.0  0.0861
  H  H15  1  0.066800  0.847000  0.576500  1.0  0.0746
  H  H16  1  0.064600  0.740200  0.762600  1.0  0.1221
  H  H17  1  0.442700  0.784100  0.786800  1.0  0.1337
  H  H18  1  0.230600  0.011400  0.574800  1.0  0.077
  H  H19  1  0.047500  0.217400  0.620300  1.0  0.0867
  H  H20  1  0.533800  0.720500  0.415500  1.0  0.0787
  H  H21  1  0.476700  0.250100  0.505700  1.0  0.1107
  H  H22  1  0.738800  0.517300  0.439900  1.0  0.0869
  H  H23  1  0.974300  0.745700  0.519000  1.0  0.1282
  H  H24  1  0.778000  0.954700  0.614200  1.0  0.0929
  H  H25  1  0.147000  0.323200  0.561500  1.0  0.1294
  H  H26  1  0.634800  0.816800  0.467400  1.0  0.1104
  H  H27  1  0.275400  0.455900  0.411500  1.0  0.0809
  H  H28  1  0.349000  0.112200  0.523200  1.0  0.1361
  H  H29  1  0.175000  0.356100  0.467800  1.0  0.1328
  H  H30  1  0.692200  0.370500  0.891900  1.0  0.0788
  H  H31  1  0.837500  0.610300  0.501200  1.0  0.1109
  H  H32  1  0.823700  0.129000  0.632100  1.0  0.079
  H  H33  1  0.677300  0.855300  0.556800  1.0  0.1241
  H  H34  1  0.804400  0.271200  0.846900  1.0  0.126
  H  H35  1  0.713600  0.226400  0.676700  1.0  0.1123
  H  H36  1  0.159300  0.602400  0.772100  1.0  0.129
  H  H37  1  0.748000  0.501600  0.322700  1.0  0.0831
  H  H38  1  0.471300  0.335600  0.326600  1.0  0.0767
  H  H39  1  0.021200  0.148000  0.216100  1.0  0.0895
  H  H40  1  0.628600  0.147300  0.214800  1.0  0.1213
  H  H41  1  0.720600  0.031500  0.170900  1.0  0.1008
  H  H42  1  0.105600  0.834200  0.303800  1.0  0.1067
  H  H43  1  0.507800  0.601600  0.272800  1.0  0.0789
  H  H44  1  0.431900  0.643600  0.947800  1.0  0.0821
  H  H45  1  0.399500  0.695400  0.220300  1.0  0.1211
  H  H46  1  0.014100  0.936900  0.258300  1.0  0.0858
  H  H47  1  0.933200  0.153000  0.076500  1.0  0.0742
  H  H48  1  0.935400  0.259800  0.262600  1.0  0.1229
  H  H49  1  0.557300  0.215900  0.286800  1.0  0.1335
  H  H50  1  0.769400  0.988600  0.074800  1.0  0.0762
  H  H51  1  0.952500  0.782600  0.120300  1.0  0.0872
  H  H52  1  0.466200  0.279500  0.915500  1.0  0.0786
  H  H53  1  0.523300  0.749900  0.005700  1.0  0.1103
  H  H54  1  0.261200  0.482700  0.939900  1.0  0.088
  H  H55  1  0.025700  0.254300  0.019000  1.0  0.1288
  H  H56  1  0.222000  0.045300  0.114200  1.0  0.0927
  H  H57  1  0.853000  0.676800  0.061500  1.0  0.1289
  H  H58  1  0.365200  0.183200  0.967400  1.0  0.1108
  H  H59  1  0.724600  0.544100  0.911500  1.0  0.0803
  H  H60  1  0.651000  0.887800  0.023200  1.0  0.1367
  H  H61  1  0.825000  0.643900  0.967800  1.0  0.1317
  H  H62  1  0.307800  0.629500  0.391900  1.0  0.08
  H  H63  1  0.162500  0.389700  0.001200  1.0  0.1112
  H  H64  1  0.176300  0.871000  0.132100  1.0  0.0789
  H  H65  1  0.322700  0.144700  0.056800  1.0  0.1237
  H  H66  1  0.195600  0.728800  0.346900  1.0  0.1263
  H  H67  1  0.286400  0.773600  0.176700  1.0  0.1121
  H  H68  1  0.840700  0.397600  0.272100  1.0  0.1294
  H  H69  1  0.668600  0.296800  0.132800  1.0  0.083
  H  H70  1  0.706000  0.556000  0.132100  1.0  0.0846
  H  H71  1  0.681200  0.514400  0.188200  1.0  0.0824
  H  H72  1  0.828200  0.448500  0.122200  1.0  0.0713
  H  H73  1  0.785300  0.395900  0.173600  1.0  0.0741
  H  H74  1  0.541900  0.482400  0.031300  1.0  0.1092
  H  H75  1  0.635100  0.413000  0.014400  1.0  0.1195
  H  H76  1  0.671700  0.502900  0.048200  1.0  0.1152
  H  H77  1  0.429400  0.356200  0.077200  1.0  0.1102
  H  H78  1  0.487800  0.303200  0.122900  1.0  0.1177
  H  H79  1  0.517200  0.279500  0.064900  1.0  0.1008
  H  H80  1  0.486300  0.454200  0.205400  1.0  0.1265
  H  H81  1  0.553000  0.365500  0.189700  1.0  0.1112
  H  H82  1  0.431300  0.380300  0.165100  1.0  0.1102
  H  H83  1  0.189000  0.050700  0.860100  1.0  0.0912
  H  H84  1  0.134200  0.969100  0.823700  1.0  0.0934
  H  H85  1  0.289500  0.888000  0.847300  1.0  0.0773
  H  H86  1  0.315500  0.953100  0.896700  1.0  0.082
  H  H87  1  0.097600  0.790400  0.850800  1.0  0.1167
  H  H88  1  0.091300  0.722800  0.899500  1.0  0.1157
  H  H89  1  0.203900  0.732500  0.865200  1.0  0.1011
  H  H90  1  0.956500  0.782200  0.936000  1.0  0.1181
  H  H91  1  0.924600  0.871200  0.968300  1.0  0.1115
  H  H92  1  0.016100  0.804600  0.990000  1.0  0.1146
  H  H93  1  0.182700  0.004900  0.960700  1.0  0.1119
  H  H94  1  0.139800  0.933900  0.004900  1.0  0.1158
  H  H95  1  0.054500  0.003800  0.980900  1.0  0.0939
  H  H96  1  0.331400  0.703200  0.632800  1.0  0.0819
  H  H97  1  0.294000  0.444000  0.632100  1.0  0.0804
  H  H98  1  0.318800  0.485600  0.688200  1.0  0.0861
  H  H99  1  0.171800  0.551500  0.622200  1.0  0.0741
  H  H100  1  0.214700  0.604100  0.673600  1.0  0.0742
  H  H101  1  0.458100  0.517600  0.531300  1.0  0.1108
  H  H102  1  0.364900  0.587000  0.514400  1.0  0.1198
  H  H103  1  0.328300  0.497100  0.548200  1.0  0.1143
  H  H104  1  0.570600  0.643800  0.577200  1.0  0.1118
  H  H105  1  0.512200  0.696800  0.622900  1.0  0.1181
  H  H106  1  0.482800  0.720500  0.564900  1.0  0.1
  H  H107  1  0.513700  0.545800  0.705400  1.0  0.1275
  H  H108  1  0.447000  0.634500  0.689700  1.0  0.1128
  H  H109  1  0.568700  0.619700  0.665100  1.0  0.114
  H  H110  1  0.811000  0.949300  0.360100  1.0  0.0874
  H  H111  1  0.865800  0.030900  0.323700  1.0  0.0928
  H  H112  1  0.710500  0.112000  0.347300  1.0  0.0762
  H  H113  1  0.684500  0.046900  0.396700  1.0  0.0811
  H  H114  1  0.902400  0.209600  0.350800  1.0  0.117
  H  H115  1  0.908700  0.277200  0.399500  1.0  0.1138
  H  H116  1  0.796100  0.267500  0.365200  1.0  0.1002
  H  H117  1  0.043500  0.217800  0.436000  1.0  0.1178
  H  H118  1  0.075400  0.128800  0.468300  1.0  0.1131
  H  H119  1  0.983900  0.195400  0.490000  1.0  0.1138
  H  H120  1  0.817300  0.995100  0.460700  1.0  0.1131
  H  H121  1  0.860200  0.066100  0.504900  1.0  0.116
  H  H122  1  0.945500  0.996200  0.480900  1.0  0.0955
  C  C123  1  0.291300  0.556000  0.813800  1.0  0.1871
  C  C124  1  0.451000  0.654300  0.817300  1.0  0.1836
  C  C125  1  0.059400  0.854600  0.716600  1.0  0.1588
  C  C126  1  0.291000  0.852800  0.716100  1.0  -0.1663
  C  C127  1  0.234900  0.922700  0.689600  1.0  0.1638
  C  C128  1  0.876000  0.157700  0.768700  1.0  -0.1263
  C  C129  1  0.558500  0.375000  0.787000  1.0  0.1911
  C  C130  1  0.488200  0.356600  0.452300  1.0  0.1489
  C  C131  1  0.621500  0.315700  0.754900  1.0  -0.2169
  C  C132  1  0.934500  0.100000  0.741000  1.0  0.1703
  C  C133  1  0.987000  0.849200  0.572600  1.0  0.168
  C  C134  1  0.226200  0.782800  0.744500  1.0  0.0946
  C  C135  1  0.110500  0.785500  0.744100  1.0  -0.2069
  C  C136  1  0.401600  0.725700  0.792000  1.0  -0.2244
  C  C137  1  0.286500  0.709400  0.773900  1.0  0.0537
  C  C138  1  0.215700  0.075300  0.572900  1.0  0.1825
  C  C139  1  0.105100  0.195700  0.599000  1.0  0.1701
  C  C140  1  0.782100  0.210400  0.746600  1.0  0.0227
  C  C141  1  0.597600  0.697200  0.432000  1.0  0.1833
  C  C142  1  0.433200  0.292300  0.487600  1.0  -0.1616
  C  C143  1  0.714800  0.577600  0.446700  1.0  0.1497
  C  C144  1  0.932500  0.787900  0.537900  1.0  -0.2025
  C  C145  1  0.818400  0.912400  0.594700  1.0  0.1743
  C  C146  1  0.166300  0.260500  0.564200  1.0  -0.1505
  C  C147  1  0.655900  0.754700  0.464000  1.0  -0.2172
  C  C148  1  0.316800  0.414700  0.431300  1.0  0.1683
  C  C149  1  0.285300  0.134200  0.540400  1.0  -0.176
  C  C150  1  0.255200  0.354900  0.465000  1.0  -0.229
  C  C151  1  0.674900  0.357900  0.857100  1.0  0.1867
  C  C152  1  0.776400  0.634700  0.483200  1.0  -0.1612
  C  C153  1  0.838500  0.137000  0.667600  1.0  0.1582
  C  C154  1  0.255400  0.227300  0.534800  1.0  0.0577
  C  C155  1  0.757100  0.852400  0.560200  1.0  -0.1963
  C  C156  1  0.316700  0.290800  0.495800  1.0  0.0696
  C  C157  1  0.748700  0.725900  0.493200  1.0  0.094
  C  C158  1  0.812800  0.789500  0.531400  1.0  0.1065
  C  C159  1  0.742200  0.297600  0.830700  1.0  -0.1774
  C  C160  1  0.770000  0.195800  0.694600  1.0  -0.1945
  C  C161  1  0.233500  0.619400  0.784700  1.0  -0.2199
  C  C162  1  0.712700  0.276000  0.775900  1.0  -0.0121
  C  C163  1  0.708700  0.444000  0.313800  1.0  0.1864
  C  C164  1  0.549000  0.345700  0.317300  1.0  0.1816
  C  C165  1  0.940600  0.145400  0.216600  1.0  0.1587
  C  C166  1  0.709000  0.147200  0.216100  1.0  -0.1679
  C  C167  1  0.765100  0.077300  0.189600  1.0  0.1619
  C  C168  1  0.124000  0.842300  0.268700  1.0  -0.1259
  C  C169  1  0.441500  0.625000  0.287000  1.0  0.1914
  C  C170  1  0.511800  0.643400  0.952300  1.0  0.1489
  C  C171  1  0.378500  0.684300  0.254900  1.0  -0.2167
  C  C172  1  0.065500  0.900000  0.241000  1.0  0.1685
  C  C173  1  0.013000  0.150800  0.072600  1.0  0.166
  C  C174  1  0.773800  0.217200  0.244500  1.0  0.0942
  C  C175  1  0.889500  0.214500  0.244100  1.0  -0.2037
  C  C176  1  0.598400  0.274300  0.292000  1.0  -0.2248
  C  C177  1  0.713500  0.290600  0.273900  1.0  0.0538
  C  C178  1  0.784300  0.924700  0.072900  1.0  0.1808
  C  C179  1  0.894900  0.804300  0.099000  1.0  0.1708
  C  C180  1  0.217900  0.789600  0.246600  1.0  0.0221
  C  C181  1  0.402400  0.302800  0.932000  1.0  0.1821
  C  C182  1  0.566800  0.707700  0.987600  1.0  -0.1623
  C  C183  1  0.285200  0.422400  0.946700  1.0  0.1497
  C  C184  1  0.067500  0.212100  0.037900  1.0  -0.205
  C  C185  1  0.181600  0.087600  0.094700  1.0  0.1736
  C  C186  1  0.833700  0.739500  0.064200  1.0  -0.1474
  C  C187  1  0.344100  0.245300  0.964000  1.0  -0.2183
  C  C188  1  0.683200  0.585300  0.931300  1.0  0.1687
  C  C189  1  0.714700  0.865800  0.040400  1.0  -0.1768
  C  C190  1  0.744800  0.645100  0.965000  1.0  -0.2283
  C  C191  1  0.325100  0.642100  0.357100  1.0  0.1872
  C  C192  1  0.223600  0.365300  0.983200  1.0  -0.1645
  C  C193  1  0.161500  0.863000  0.167600  1.0  0.158
  C  C194  1  0.744600  0.772700  0.034800  1.0  0.0564
  C  C195  1  0.242900  0.147600  0.060200  1.0  -0.1962
  C  C196  1  0.683300  0.709200  0.995800  1.0  0.0696
  C  C197  1  0.251300  0.274100  0.993200  1.0  0.0924
  C  C198  1  0.187200  0.210500  0.031400  1.0  0.1073
  C  C199  1  0.257800  0.702400  0.330700  1.0  -0.1781
  C  C200  1  0.230000  0.804200  0.194600  1.0  -0.1948
  C  C201  1  0.766500  0.380600  0.284700  1.0  -0.221
  C  C202  1  0.287300  0.724000  0.275900  1.0  -0.0131
  C  C203  1  0.696400  0.348400  0.109300  1.0  -0.1528
  C  C204  1  0.588700  0.398300  0.089200  1.0  0.2142
  C  C205  1  0.558800  0.466000  0.134800  1.0  0.0968
  C  C206  1  0.680200  0.499100  0.151300  1.0  -0.1968
  C  C207  1  0.760200  0.422700  0.140900  1.0  -0.1094
  C  C208  1  0.611300  0.453900  0.041700  1.0  -0.3803
  C  C209  1  0.499100  0.329100  0.088500  1.0  -0.3795
  C  C210  1  0.489300  0.545000  0.119200  1.0  0.602
  C  C211  1  0.761800  0.306700  0.066800  1.0  0.6806
  C  C212  1  0.502600  0.411900  0.177400  1.0  -0.3878
  C  C213  1  0.187100  0.843600  0.911600  1.0  0.0718
  C  C214  1  0.080300  0.891000  0.932300  1.0  0.1612
  C  C215  1  0.059800  0.967300  0.896800  1.0  0.0612
  C  C216  1  0.159200  0.984600  0.859000  1.0  -0.1878
  C  C217  1  0.254900  0.917900  0.877000  1.0  -0.2047
  C  C218  1  0.141100  0.765800  0.879000  1.0  -0.3716
  C  C219  1  0.986000  0.832000  0.959000  1.0  -0.3739
  C  C220  1  0.259800  0.802400  0.958300  1.0  0.6618
  C  C221  1  0.971400  0.036100  0.899600  1.0  0.2858
  C  C222  1  0.118000  0.965000  0.973500  1.0  -0.3708
  C  C223  1  0.303600  0.651600  0.609300  1.0  -0.1526
  C  C224  1  0.411300  0.601700  0.589200  1.0  0.2129
  C  C225  1  0.441200  0.534000  0.634800  1.0  0.1008
  C  C226  1  0.319800  0.500900  0.651300  1.0  -0.1955
  C  C227  1  0.239800  0.577300  0.640900  1.0  -0.1095
  C  C228  1  0.388700  0.546100  0.541700  1.0  -0.3792
  C  C229  1  0.500900  0.670900  0.588500  1.0  -0.379
  C  C230  1  0.510700  0.455000  0.619200  1.0  0.6043
  C  C231  1  0.238200  0.693300  0.566800  1.0  0.6811
  C  C232  1  0.497400  0.588100  0.677400  1.0  -0.3871
  C  C233  1  0.812900  0.156400  0.411600  1.0  0.0718
  C  C234  1  0.919700  0.109000  0.432300  1.0  0.1613
  C  C235  1  0.940200  0.032700  0.396800  1.0  0.0582
  C  C236  1  0.840800  0.015400  0.359000  1.0  -0.1883
  C  C237  1  0.745100  0.082100  0.377000  1.0  -0.2061
  C  C238  1  0.858900  0.234200  0.379000  1.0  -0.3724
  C  C239  1  0.014000  0.168000  0.459000  1.0  -0.3741
  C  C240  1  0.740200  0.197600  0.458300  1.0  0.6583
  C  C241  1  0.028600  0.963900  0.399600  1.0  0.2784
  C  C242  1  0.882000  0.035000  0.473500  1.0  -0.3705
  N  N243  1  0.585100  0.400200  0.835700  1.0  -0.323
  N  N244  1  0.397500  0.571900  0.829700  1.0  -0.3157
  N  N245  1  0.621500  0.606300  0.420500  1.0  -0.3352
  N  N246  1  0.117400  0.926400  0.690000  1.0  -0.3328
  N  N247  1  0.128800  0.105000  0.601600  1.0  -0.3142
  N  N248  1  0.924800  0.090400  0.688000  1.0  -0.2971
  N  N249  1  0.934400  0.912100  0.601200  1.0  -0.3263
  N  N250  1  0.430100  0.418400  0.424700  1.0  -0.3324
  N  N251  1  0.414900  0.599800  0.335700  1.0  -0.3226
  N  N252  1  0.602500  0.428100  0.329700  1.0  -0.3185
  N  N253  1  0.378500  0.393700  0.920500  1.0  -0.3356
  N  N254  1  0.882600  0.073600  0.190000  1.0  -0.3328
  N  N255  1  0.871200  0.895000  0.101600  1.0  -0.3148
  N  N256  1  0.075200  0.909600  0.188000  1.0  -0.2974
  N  N257  1  0.065600  0.087900  0.101200  1.0  -0.3254
  N  N258  1  0.569900  0.581600  0.924700  1.0  -0.3321
  O  O259  1  0.848200  0.354300  0.046500  1.0  -0.5892
  O  O260  1  0.725500  0.223700  0.051800  1.0  -0.6138
  O  O261  1  0.389900  0.521900  0.097700  1.0  -0.5697
  O  O262  1  0.518800  0.631100  0.130900  1.0  -0.5672
  O  O263  1  0.233300  0.717700  0.973700  1.0  -0.5571
  O  O264  1  0.342400  0.852900  0.976300  1.0  -0.5629
  O  O265  1  0.894600  0.028100  0.938700  1.0  -0.5645
  O  O266  1  0.004500  0.116200  0.895200  1.0  -0.4024
  O  O267  1  0.151800  0.645700  0.546500  1.0  -0.5898
  O  O268  1  0.274500  0.776300  0.551800  1.0  -0.6115
  O  O269  1  0.610100  0.478100  0.597700  1.0  -0.5692
  O  O270  1  0.481200  0.368900  0.630900  1.0  -0.5641
  O  O271  1  0.766700  0.282300  0.473700  1.0  -0.559
  O  O272  1  0.657600  0.147100  0.476300  1.0  -0.5626
  O  O273  1  0.105400  0.971900  0.438700  1.0  -0.5645
  O  O274  1  0.995500  0.883800  0.395200  1.0  -0.4015
