# generated using pymatgen
data_LiYH8(C2O)8
_symmetry_space_group_name_H-M   'P 1'
_cell_length_a   10.17210000
_cell_length_b   11.64150000
_cell_length_c   16.09200000
_cell_angle_alpha   90.00000000
_cell_angle_beta   90.00000000
_cell_angle_gamma   105.70600000
_symmetry_Int_Tables_number   1
_chemical_formula_structural   LiYH8(C2O)8
_chemical_formula_sum   'Li4 Y4 H32 C64 O32'
_cell_volume   1834.44227247
_cell_formula_units_Z   4
loop_
 _symmetry_equiv_pos_site_id
 _symmetry_equiv_pos_as_xyz
  1  'x, y, z'
loop_
 _atom_site_type_symbol
 _atom_site_label
 _atom_site_symmetry_multiplicity
 _atom_site_fract_x
 _atom_site_fract_y
 _atom_site_fract_z
 _atom_site_occupancy
 _atom_site_charge
  Li  Li1  1  0.405100  0.318600  0.399500  1.0  0.8685
  Li  Li2  1  0.594900  0.681400  0.600500  1.0  0.8831
  Li  Li3  1  0.094900  0.181400  0.899500  1.0  0.8681
  Li  Li4  1  0.905100  0.818600  0.100500  1.0  0.8826
  Y  Y5  1  0.749270  0.999150  0.997020  1.0  2.0168
  Y  Y6  1  0.250730  0.000850  0.002980  1.0  2.0158
  Y  Y7  1  0.249270  0.499150  0.502980  1.0  2.0175
  Y  Y8  1  0.750730  0.500850  0.497020  1.0  2.0126
  H  H9  1  0.216600  0.765500  0.687800  1.0  0.099
  H  H10  1  0.732400  0.077200  0.519900  1.0  0.0912
  H  H11  1  0.767600  0.422800  0.019900  1.0  0.0908
  H  H12  1  0.465400  0.403500  0.127400  1.0  0.1093
  H  H13  1  0.138600  0.373300  0.986200  1.0  0.0886
  H  H14  1  0.638600  0.873300  0.513800  1.0  0.0894
  H  H15  1  0.716600  0.265500  0.812200  1.0  0.0993
  H  H16  1  0.701400  0.404400  0.713600  1.0  0.094
  H  H17  1  0.918200  0.895700  0.620400  1.0  0.0992
  H  H18  1  0.298600  0.595600  0.286400  1.0  0.0938
  H  H19  1  0.200100  0.252800  0.189700  1.0  0.1011
  H  H20  1  0.184600  0.389700  0.290100  1.0  0.099
  H  H21  1  0.581800  0.604300  0.120400  1.0  0.099
  H  H22  1  0.081800  0.104300  0.379600  1.0  0.0993
  H  H23  1  0.965400  0.903500  0.372600  1.0  0.1093
  H  H24  1  0.361400  0.126700  0.486200  1.0  0.0886
  H  H25  1  0.861400  0.626700  0.013800  1.0  0.0894
  H  H26  1  0.299900  0.247200  0.689700  1.0  0.1008
  H  H27  1  0.815400  0.610300  0.709900  1.0  0.0988
  H  H28  1  0.315400  0.110300  0.790100  1.0  0.0983
  H  H29  1  0.798600  0.095600  0.213600  1.0  0.0942
  H  H30  1  0.799900  0.747200  0.810300  1.0  0.101
  H  H31  1  0.283400  0.734500  0.187800  1.0  0.0997
  H  H32  1  0.267600  0.922800  0.480100  1.0  0.0909
  H  H33  1  0.783400  0.234500  0.312200  1.0  0.0997
  H  H34  1  0.534600  0.596500  0.872600  1.0  0.1093
  H  H35  1  0.700100  0.752800  0.310300  1.0  0.1014
  H  H36  1  0.418200  0.395700  0.879600  1.0  0.0993
  H  H37  1  0.232400  0.577200  0.980100  1.0  0.0909
  H  H38  1  0.684600  0.889700  0.209900  1.0  0.099
  H  H39  1  0.201400  0.904400  0.786400  1.0  0.0938
  H  H40  1  0.034600  0.096500  0.627400  1.0  0.1094
  C  C41  1  0.067700  0.119900  0.504100  1.0  -0.1189
  C  C42  1  0.443300  0.876700  0.497300  1.0  -0.1301
  C  C43  1  0.512500  0.568400  0.371500  1.0  0.678
  C  C44  1  0.881200  0.244400  0.005080  1.0  0.6852
  C  C45  1  0.132800  0.761900  0.712300  1.0  -0.0302
  C  C46  1  0.376300  0.654700  0.271100  1.0  -0.0233
  C  C47  1  0.116500  0.248400  0.214770  1.0  -0.0335
  C  C48  1  0.018300  0.672500  0.689420  1.0  -0.1564
  C  C49  1  0.567700  0.619900  0.995900  1.0  -0.1195
  C  C50  1  0.883500  0.751600  0.785230  1.0  -0.0328
  C  C51  1  0.979700  0.942200  0.423700  1.0  -0.0794
  C  C52  1  0.520300  0.557800  0.923700  1.0  -0.0768
  C  C53  1  0.470800  0.916900  0.124290  1.0  0.7107
  C  C54  1  0.876300  0.154700  0.228900  1.0  -0.0235
  C  C55  1  0.381200  0.744400  0.494920  1.0  0.6864
  C  C56  1  0.432300  0.380100  0.004100  1.0  -0.1193
  C  C57  1  0.618800  0.255600  0.505080  1.0  0.6841
  C  C58  1  0.479700  0.442200  0.076300  1.0  -0.0787
  C  C59  1  0.951500  0.937600  0.572200  1.0  -0.0529
  C  C60  1  0.138900  0.546400  0.988300  1.0  -0.0588
  C  C61  1  0.917500  0.575900  0.008400  1.0  -0.0706
  C  C62  1  0.861100  0.453600  0.011700  1.0  -0.058
  C  C63  1  0.987500  0.931600  0.871500  1.0  0.6793
  C  C64  1  0.548500  0.562400  0.072200  1.0  -0.0512
  C  C65  1  0.029200  0.583100  0.624290  1.0  0.7097
  C  C66  1  0.606800  0.831000  0.225820  1.0  -0.0318
  C  C67  1  0.970800  0.416900  0.375710  1.0  0.7091
  C  C68  1  0.867200  0.238100  0.287700  1.0  -0.0305
  C  C69  1  0.498500  0.341700  0.692150  1.0  -0.1559
  C  C70  1  0.363000  0.249300  0.006890  1.0  0.6864
  C  C71  1  0.943300  0.376700  0.002700  1.0  -0.1303
  C  C72  1  0.451500  0.437600  0.927800  1.0  -0.052
  C  C73  1  0.632800  0.261900  0.787700  1.0  -0.0292
  C  C74  1  0.001500  0.158300  0.192150  1.0  -0.1572
  C  C75  1  0.932300  0.880100  0.495900  1.0  -0.1195
  C  C76  1  0.361100  0.953600  0.488300  1.0  -0.0603
  C  C77  1  0.367200  0.738100  0.212300  1.0  -0.0298
  C  C78  1  0.616500  0.748400  0.285230  1.0  -0.0334
  C  C79  1  0.383500  0.251600  0.714770  1.0  -0.0328
  C  C80  1  0.863000  0.749300  0.493110  1.0  0.6842
  C  C81  1  0.020300  0.057800  0.576300  1.0  -0.0803
  C  C82  1  0.393200  0.169000  0.774180  1.0  -0.0324
  C  C83  1  0.518300  0.172500  0.810580  1.0  -0.1568
  C  C84  1  0.638900  0.046400  0.511700  1.0  -0.0584
  C  C85  1  0.998500  0.841700  0.807850  1.0  -0.1558
  C  C86  1  0.012500  0.068400  0.128500  1.0  0.6774
  C  C87  1  0.582500  0.924100  0.508400  1.0  -0.0679
  C  C88  1  0.501500  0.658300  0.307850  1.0  -0.1572
  C  C89  1  0.056700  0.623300  0.997300  1.0  -0.1311
  C  C90  1  0.481700  0.827500  0.189420  1.0  -0.1558
  C  C91  1  0.981700  0.327500  0.310580  1.0  -0.1553
  C  C92  1  0.137000  0.250700  0.506890  1.0  0.6857
  C  C93  1  0.123700  0.845300  0.771100  1.0  -0.0225
  C  C94  1  0.893200  0.669000  0.725820  1.0  -0.0314
  C  C95  1  0.637000  0.750700  0.993110  1.0  0.6857
  C  C96  1  0.487500  0.431600  0.628500  1.0  0.6831
  C  C97  1  0.082500  0.424100  0.991600  1.0  -0.069
  C  C98  1  0.556700  0.123300  0.502700  1.0  -0.1311
  C  C99  1  0.529200  0.083100  0.875710  1.0  0.7093
  C  C100  1  0.106800  0.331000  0.274180  1.0  -0.0312
  C  C101  1  0.048500  0.062400  0.427800  1.0  -0.0576
  C  C102  1  0.118800  0.755600  0.994920  1.0  0.6826
  C  C103  1  0.417500  0.075900  0.491600  1.0  -0.0678
  C  C104  1  0.623700  0.345300  0.728900  1.0  -0.023
  O  O105  1  0.733000  0.794900  0.042940  1.0  -0.7043
  O  O106  1  0.903100  0.683400  0.442560  1.0  -0.6592
  O  O107  1  0.559500  0.324700  0.468870  1.0  -0.7087
  O  O108  1  0.628500  0.566500  0.396290  1.0  -0.7028
  O  O109  1  0.353500  0.928700  0.109050  1.0  -0.687
  O  O110  1  0.730300  0.298700  0.541400  1.0  -0.6403
  O  O111  1  0.371500  0.433500  0.603710  1.0  -0.6995
  O  O112  1  0.903300  0.994400  0.103520  1.0  -0.664
  O  O113  1  0.940500  0.175300  0.968870  1.0  -0.708
  O  O114  1  0.422600  0.024700  0.911640  1.0  -0.7265
  O  O115  1  0.767000  0.705100  0.542940  1.0  -0.7038
  O  O116  1  0.096700  0.005600  0.896480  1.0  -0.6648
  O  O117  1  0.403100  0.183400  0.057440  1.0  -0.6579
  O  O118  1  0.577400  0.975300  0.088360  1.0  -0.7265
  O  O119  1  0.646500  0.071300  0.890950  1.0  -0.6858
  O  O120  1  0.128500  0.066500  0.103710  1.0  -0.7025
  O  O121  1  0.440500  0.675300  0.531130  1.0  -0.7084
  O  O122  1  0.096900  0.316600  0.557440  1.0  -0.6612
  O  O123  1  0.059500  0.824700  0.031130  1.0  -0.7092
  O  O124  1  0.922600  0.524700  0.588360  1.0  -0.7267
  O  O125  1  0.230300  0.798700  0.958600  1.0  -0.6413
  O  O126  1  0.233000  0.294900  0.457060  1.0  -0.7048
  O  O127  1  0.871500  0.933500  0.896290  1.0  -0.703
  O  O128  1  0.077400  0.475300  0.411640  1.0  -0.7263
  O  O129  1  0.267000  0.205100  0.957060  1.0  -0.705
  O  O130  1  0.269700  0.701300  0.458600  1.0  -0.6394
  O  O131  1  0.596700  0.505600  0.603520  1.0  -0.6652
  O  O132  1  0.769700  0.201300  0.041400  1.0  -0.6405
  O  O133  1  0.596900  0.816600  0.942560  1.0  -0.6594
  O  O134  1  0.853500  0.428700  0.390950  1.0  -0.6864
  O  O135  1  0.403300  0.494400  0.396480  1.0  -0.6635
  O  O136  1  0.146500  0.571300  0.609050  1.0  -0.6859
