# generated using pymatgen
data_CdH11C17O6
_symmetry_space_group_name_H-M   'P 1'
_cell_length_a   15.46760000
_cell_length_b   13.19620000
_cell_length_c   26.49700000
_cell_angle_alpha   90.00000000
_cell_angle_beta   98.72900000
_cell_angle_gamma   90.00000000
_symmetry_Int_Tables_number   1
_chemical_formula_structural   CdH11C17O6
_chemical_formula_sum   'Cd8 H88 C136 O48'
_cell_volume   5345.75217762
_cell_formula_units_Z   8
loop_
 _symmetry_equiv_pos_site_id
 _symmetry_equiv_pos_as_xyz
  1  'x, y, z'
loop_
 _atom_site_type_symbol
 _atom_site_label
 _atom_site_symmetry_multiplicity
 _atom_site_fract_x
 _atom_site_fract_y
 _atom_site_fract_z
 _atom_site_occupancy
 _atom_site_charge
  Cd  Cd1  1  0.254070  0.815050  0.239370  1.0  1.0948
  Cd  Cd2  1  0.211260  0.677550  0.345510  1.0  0.7845
  Cd  Cd3  1  0.745930  0.315050  0.260630  1.0  1.0955
  Cd  Cd4  1  0.788740  0.177550  0.154490  1.0  0.7926
  Cd  Cd5  1  0.745930  0.184950  0.760630  1.0  1.0949
  Cd  Cd6  1  0.788740  0.322450  0.654490  1.0  0.7914
  Cd  Cd7  1  0.254070  0.684950  0.739370  1.0  1.0964
  Cd  Cd8  1  0.211260  0.822450  0.845510  1.0  0.7847
  H  H9  1  0.377600  0.963300  0.108600  1.0  0.1092
  H  H10  1  0.105100  0.596500  0.125200  1.0  0.1178
  H  H11  1  0.590000  0.137900  0.119800  1.0  0.1069
  H  H12  1  0.470000  0.093800  0.241900  1.0  0.1073
  H  H13  1  0.003800  0.513600  0.250100  1.0  0.1111
  H  H14  1  0.129400  0.379200  0.096700  1.0  0.0901
  H  H15  1  0.903700  0.402300  0.112500  1.0  0.1138
  H  H16  1  0.873000  0.611500  0.078700  1.0  0.0991
  H  H17  1  0.530300  0.780000  0.938500  1.0  0.0964
  H  H18  1  0.513800  0.856400  0.108000  1.0  0.0959
  H  H19  1  0.485700  0.716000  0.151200  1.0  0.1027
  H  H20  1  0.587600  0.725900  0.155800  1.0  0.1124
  H  H21  1  0.545200  0.620400  0.163900  1.0  0.1466
  H  H22  1  0.486800  0.617300  0.923800  1.0  0.091
  H  H23  1  0.541100  0.520500  0.942500  1.0  0.1112
  H  H24  1  0.589200  0.622600  0.934700  1.0  0.093
  H  H25  1  0.194200  0.267300  0.896900  1.0  0.1034
  H  H26  1  0.288900  0.221900  0.906100  1.0  0.1276
  H  H27  1  0.275500  0.339600  0.906300  1.0  0.1056
  H  H28  1  0.194900  0.222400  0.123100  1.0  0.088
  H  H29  1  0.263200  0.310000  0.135500  1.0  0.0981
  H  H30  1  0.295300  0.198600  0.129300  1.0  0.1306
  H  H31  1  0.622400  0.463300  0.391400  1.0  0.1079
  H  H32  1  0.894900  0.096500  0.374800  1.0  0.1176
  H  H33  1  0.410000  0.637900  0.380200  1.0  0.1061
  H  H34  1  0.530000  0.593800  0.258100  1.0  0.1074
  H  H35  1  0.996200  0.013600  0.249900  1.0  0.111
  H  H36  1  0.870600  0.879200  0.403300  1.0  0.0921
  H  H37  1  0.096300  0.902300  0.387500  1.0  0.1131
  H  H38  1  0.127000  0.111500  0.421300  1.0  0.1
  H  H39  1  0.469700  0.280000  0.561500  1.0  0.0962
  H  H40  1  0.486200  0.356400  0.392000  1.0  0.0963
  H  H41  1  0.514300  0.216000  0.348800  1.0  0.1001
  H  H42  1  0.412400  0.225900  0.344200  1.0  0.1118
  H  H43  1  0.454800  0.120400  0.336100  1.0  0.1466
  H  H44  1  0.513200  0.117300  0.576200  1.0  0.0895
  H  H45  1  0.458900  0.020500  0.557500  1.0  0.1112
  H  H46  1  0.410800  0.122600  0.565300  1.0  0.0926
  H  H47  1  0.805800  0.767300  0.603100  1.0  0.1011
  H  H48  1  0.711100  0.721900  0.593900  1.0  0.1291
  H  H49  1  0.724500  0.839600  0.593700  1.0  0.1041
  H  H50  1  0.805100  0.722400  0.376900  1.0  0.0873
  H  H51  1  0.736800  0.810000  0.364500  1.0  0.0969
  H  H52  1  0.704700  0.698600  0.370700  1.0  0.1321
  H  H53  1  0.622400  0.036700  0.891400  1.0  0.1079
  H  H54  1  0.894900  0.403500  0.874800  1.0  0.1178
  H  H55  1  0.410000  0.862100  0.880200  1.0  0.1064
  H  H56  1  0.530000  0.906200  0.758100  1.0  0.1073
  H  H57  1  0.996200  0.486400  0.749900  1.0  0.1108
  H  H58  1  0.870600  0.620800  0.903300  1.0  0.0923
  H  H59  1  0.096300  0.597700  0.887500  1.0  0.1133
  H  H60  1  0.127000  0.388500  0.921300  1.0  0.1
  H  H61  1  0.469700  0.220000  0.061500  1.0  0.096
  H  H62  1  0.486200  0.143600  0.892000  1.0  0.0965
  H  H63  1  0.514300  0.284000  0.848800  1.0  0.1004
  H  H64  1  0.412400  0.274100  0.844200  1.0  0.1119
  H  H65  1  0.454800  0.379600  0.836100  1.0  0.146
  H  H66  1  0.513200  0.382700  0.076200  1.0  0.0897
  H  H67  1  0.458900  0.479500  0.057500  1.0  0.1122
  H  H68  1  0.410800  0.377400  0.065300  1.0  0.092
  H  H69  1  0.805800  0.732700  0.103100  1.0  0.1003
  H  H70  1  0.711100  0.778100  0.093900  1.0  0.1292
  H  H71  1  0.724500  0.660400  0.093700  1.0  0.1039
  H  H72  1  0.805100  0.777600  0.876900  1.0  0.0889
  H  H73  1  0.736800  0.690000  0.864500  1.0  0.0949
  H  H74  1  0.704700  0.801400  0.870700  1.0  0.1315
  H  H75  1  0.377600  0.536700  0.608600  1.0  0.1096
  H  H76  1  0.105100  0.903500  0.625200  1.0  0.1179
  H  H77  1  0.590000  0.362100  0.619800  1.0  0.1068
  H  H78  1  0.470000  0.406200  0.741900  1.0  0.1074
  H  H79  1  0.003800  0.986400  0.750100  1.0  0.1111
  H  H80  1  0.129400  0.120800  0.596700  1.0  0.09
  H  H81  1  0.903700  0.097700  0.612500  1.0  0.1144
  H  H82  1  0.873000  0.888500  0.578700  1.0  0.0997
  H  H83  1  0.530300  0.720000  0.438500  1.0  0.0968
  H  H84  1  0.513800  0.643600  0.608000  1.0  0.0959
  H  H85  1  0.485700  0.784000  0.651200  1.0  0.1027
  H  H86  1  0.587600  0.774100  0.655800  1.0  0.1129
  H  H87  1  0.545200  0.879600  0.663900  1.0  0.1458
  H  H88  1  0.486800  0.882700  0.423800  1.0  0.0922
  H  H89  1  0.541100  0.979500  0.442500  1.0  0.1132
  H  H90  1  0.589200  0.877400  0.434700  1.0  0.0925
  H  H91  1  0.194200  0.232700  0.396900  1.0  0.1023
  H  H92  1  0.288900  0.278100  0.406100  1.0  0.1268
  H  H93  1  0.275500  0.160400  0.406300  1.0  0.1034
  H  H94  1  0.194900  0.277600  0.623100  1.0  0.0886
  H  H95  1  0.263200  0.190000  0.635500  1.0  0.0971
  H  H96  1  0.295300  0.301400  0.629300  1.0  0.1289
  C  C97  1  0.608900  0.190200  0.216950  1.0  0.7201
  C  C98  1  0.348400  0.958300  0.203250  1.0  0.6578
  C  C99  1  0.003900  0.499300  0.109850  1.0  0.0022
  C  C100  1  0.419200  0.003800  0.128050  1.0  -0.0687
  C  C101  1  0.064600  0.559200  0.140110  1.0  -0.0349
  C  C102  1  0.540900  0.126000  0.185510  1.0  -0.1519
  C  C103  1  0.874700  0.392700  0.207680  1.0  0.7083
  C  C104  1  0.413900  0.019200  0.179110  1.0  -0.1761
  C  C105  1  0.545500  0.108300  0.134670  1.0  -0.0644
  C  C106  1  0.484600  0.047100  0.105360  1.0  0.0628
  C  C107  1  0.943000  0.449800  0.185000  1.0  -0.1443
  C  C108  1  0.474000  0.081500  0.207750  1.0  -0.0166
  C  C109  1  0.002500  0.497800  0.052980  1.0  -0.0609
  C  C110  1  0.492900  0.023000  0.051230  1.0  -0.0728
  C  C111  1  0.064000  0.442600  0.031400  1.0  -0.0139
  C  C112  1  0.004100  0.509900  0.215100  1.0  0.0284
  C  C113  1  0.937800  0.554400  0.022400  1.0  0.0435
  C  C114  1  0.128000  0.381500  0.061460  1.0  -0.1593
  C  C115  1  0.943800  0.443800  0.132520  1.0  -0.0221
  C  C116  1  0.524300  0.744400  0.059140  1.0  0.2338
  C  C117  1  0.527000  0.719500  0.007140  1.0  0.2471
  C  C118  1  0.065300  0.564100  0.193370  1.0  -0.1505
  C  C119  1  0.186800  0.326800  0.039950  1.0  0.2013
  C  C120  1  0.506400  0.922500  0.037240  1.0  0.0149
  C  C121  1  0.873400  0.612900  0.043670  1.0  -0.1518
  C  C122  1  0.524200  0.795900  0.972010  1.0  -0.1836
  C  C123  1  0.514800  0.841900  0.073780  1.0  -0.162
  C  C124  1  0.487800  0.101200  0.014790  1.0  0.041
  C  C125  1  0.538300  0.682800  0.145010  1.0  -0.0161
  C  C126  1  0.186000  0.330700  0.986120  1.0  0.1833
  C  C127  1  0.129300  0.631300  0.225480  1.0  0.7085
  C  C128  1  0.538200  0.592900  0.945300  1.0  -0.0122
  C  C129  1  0.252300  0.275600  0.915100  1.0  -0.041
  C  C130  1  0.250800  0.247500  0.117400  1.0  -0.0366
  C  C131  1  0.391100  0.690200  0.283050  1.0  0.7213
  C  C132  1  0.651600  0.458300  0.296750  1.0  0.6559
  C  C133  1  0.996100  0.999300  0.390150  1.0  0.0029
  C  C134  1  0.580800  0.503800  0.371950  1.0  -0.0703
  C  C135  1  0.935400  0.059200  0.359890  1.0  -0.0355
  C  C136  1  0.459100  0.626000  0.314490  1.0  -0.1508
  C  C137  1  0.125300  0.892700  0.292320  1.0  0.7091
  C  C138  1  0.586100  0.519200  0.320890  1.0  -0.1778
  C  C139  1  0.454500  0.608300  0.365330  1.0  -0.0611
  C  C140  1  0.515400  0.547100  0.394640  1.0  0.0625
  C  C141  1  0.057000  0.949800  0.315000  1.0  -0.1446
  C  C142  1  0.526000  0.581500  0.292250  1.0  -0.0194
  C  C143  1  0.997500  0.997800  0.447020  1.0  -0.0605
  C  C144  1  0.507100  0.523000  0.448770  1.0  -0.0729
  C  C145  1  0.936000  0.942600  0.468600  1.0  -0.0137
  C  C146  1  0.995900  0.009900  0.284900  1.0  0.0294
  C  C147  1  0.062200  0.054400  0.477600  1.0  0.0435
  C  C148  1  0.872000  0.881500  0.438540  1.0  -0.1608
  C  C149  1  0.056200  0.943800  0.367480  1.0  -0.0222
  C  C150  1  0.475700  0.244400  0.440860  1.0  0.2315
  C  C151  1  0.473000  0.219500  0.492860  1.0  0.2487
  C  C152  1  0.934700  0.064100  0.306630  1.0  -0.1494
  C  C153  1  0.813200  0.826800  0.460050  1.0  0.2002
  C  C154  1  0.493600  0.422500  0.462760  1.0  0.0154
  C  C155  1  0.126600  0.112900  0.456330  1.0  -0.151
  C  C156  1  0.475800  0.295900  0.527990  1.0  -0.1852
  C  C157  1  0.485200  0.341900  0.426220  1.0  -0.1625
  C  C158  1  0.512200  0.601200  0.485210  1.0  0.0419
  C  C159  1  0.461700  0.182800  0.354990  1.0  -0.0152
  C  C160  1  0.814000  0.830700  0.513880  1.0  0.184
  C  C161  1  0.870700  0.131300  0.274520  1.0  0.7091
  C  C162  1  0.461800  0.092900  0.554700  1.0  -0.0121
  C  C163  1  0.747700  0.775600  0.584900  1.0  -0.04
  C  C164  1  0.749200  0.747500  0.382600  1.0  -0.0349
  C  C165  1  0.391100  0.809800  0.783050  1.0  0.7211
  C  C166  1  0.651600  0.041700  0.796750  1.0  0.6559
  C  C167  1  0.996100  0.500700  0.890150  1.0  0.0029
  C  C168  1  0.580800  0.996200  0.871950  1.0  -0.0701
  C  C169  1  0.935400  0.440800  0.859890  1.0  -0.0359
  C  C170  1  0.459100  0.874000  0.814490  1.0  -0.1518
  C  C171  1  0.125300  0.607300  0.792320  1.0  0.7097
  C  C172  1  0.586100  0.980800  0.820890  1.0  -0.1775
  C  C173  1  0.454500  0.891700  0.865330  1.0  -0.0613
  C  C174  1  0.515400  0.952900  0.894640  1.0  0.0625
  C  C175  1  0.057000  0.550200  0.815000  1.0  -0.1439
  C  C176  1  0.526000  0.918500  0.792250  1.0  -0.0187
  C  C177  1  0.997500  0.502200  0.947020  1.0  -0.0605
  C  C178  1  0.507100  0.977000  0.948770  1.0  -0.073
  C  C179  1  0.936000  0.557400  0.968600  1.0  -0.0144
  C  C180  1  0.995900  0.490100  0.784900  1.0  0.029
  C  C181  1  0.062200  0.445600  0.977600  1.0  0.0389
  C  C182  1  0.872000  0.618500  0.938540  1.0  -0.1607
  C  C183  1  0.056200  0.556200  0.867480  1.0  -0.0221
  C  C184  1  0.475700  0.255600  0.940860  1.0  0.2311
  C  C185  1  0.473000  0.280500  0.992860  1.0  0.2408
  C  C186  1  0.934700  0.435900  0.806630  1.0  -0.1501
  C  C187  1  0.813200  0.673200  0.960050  1.0  0.2009
  C  C188  1  0.493600  0.077500  0.962760  1.0  0.0155
  C  C189  1  0.126600  0.387100  0.956330  1.0  -0.157
  C  C190  1  0.475800  0.204100  0.027990  1.0  -0.1796
  C  C191  1  0.485200  0.158100  0.926220  1.0  -0.1623
  C  C192  1  0.512200  0.898800  0.985210  1.0  0.0396
  C  C193  1  0.461700  0.317200  0.854990  1.0  -0.0151
  C  C194  1  0.814000  0.669300  0.013880  1.0  0.1769
  C  C195  1  0.870700  0.368700  0.774520  1.0  0.709
  C  C196  1  0.461800  0.407100  0.054700  1.0  -0.0115
  C  C197  1  0.747700  0.724400  0.084900  1.0  -0.0425
  C  C198  1  0.749200  0.752500  0.882600  1.0  -0.0353
  C  C199  1  0.608900  0.309800  0.716950  1.0  0.7198
  C  C200  1  0.348400  0.541700  0.703250  1.0  0.6577
  C  C201  1  0.003900  0.000700  0.609850  1.0  0.0024
  C  C202  1  0.419200  0.496200  0.628050  1.0  -0.068
  C  C203  1  0.064600  0.940800  0.640110  1.0  -0.0347
  C  C204  1  0.540900  0.374000  0.685510  1.0  -0.1511
  C  C205  1  0.874700  0.107300  0.707680  1.0  0.7081
  C  C206  1  0.413900  0.480800  0.679110  1.0  -0.1759
  C  C207  1  0.545500  0.391700  0.634670  1.0  -0.0646
  C  C208  1  0.484600  0.452900  0.605360  1.0  0.0627
  C  C209  1  0.943000  0.050200  0.685000  1.0  -0.1442
  C  C210  1  0.474000  0.418500  0.707750  1.0  -0.0165
  C  C211  1  0.002500  0.002200  0.552980  1.0  -0.0608
  C  C212  1  0.492900  0.477000  0.551230  1.0  -0.0729
  C  C213  1  0.064000  0.057400  0.531400  1.0  -0.0144
  C  C214  1  0.004100  0.990100  0.715100  1.0  0.0282
  C  C215  1  0.937800  0.945600  0.522400  1.0  0.0389
  C  C216  1  0.128000  0.118500  0.561460  1.0  -0.1593
  C  C217  1  0.943800  0.056200  0.632520  1.0  -0.0222
  C  C218  1  0.524300  0.755600  0.559140  1.0  0.2337
  C  C219  1  0.527000  0.780500  0.507140  1.0  0.2393
  C  C220  1  0.065300  0.935900  0.693370  1.0  -0.1501
  C  C221  1  0.186800  0.173200  0.539950  1.0  0.2014
  C  C222  1  0.506400  0.577500  0.537240  1.0  0.0151
  C  C223  1  0.873400  0.887100  0.543670  1.0  -0.1577
  C  C224  1  0.524200  0.704100  0.472010  1.0  -0.1779
  C  C225  1  0.514800  0.658100  0.573780  1.0  -0.1619
  C  C226  1  0.487800  0.398800  0.514790  1.0  0.0385
  C  C227  1  0.538300  0.817200  0.645010  1.0  -0.0174
  C  C228  1  0.186000  0.169300  0.486120  1.0  0.176
  C  C229  1  0.129300  0.868700  0.725480  1.0  0.7084
  C  C230  1  0.538200  0.907100  0.445300  1.0  -0.0101
  C  C231  1  0.252300  0.224400  0.415100  1.0  -0.0418
  C  C232  1  0.250800  0.252500  0.617400  1.0  -0.0377
  O  O233  1  0.351520  0.961400  0.251140  1.0  -0.6187
  O  O234  1  0.295620  0.903500  0.174310  1.0  -0.6383
  O  O235  1  0.818900  0.343000  0.178840  1.0  -0.7278
  O  O236  1  0.601300  0.214000  0.261300  1.0  -0.6604
  O  O237  1  0.674040  0.218700  0.196450  1.0  -0.6808
  O  O238  1  0.533000  0.661500  0.091160  1.0  -0.2771
  O  O239  1  0.534400  0.620000  0.996810  1.0  -0.2694
  O  O240  1  0.873000  0.401200  0.254300  1.0  -0.6132
  O  O241  1  0.249600  0.264100  0.065120  1.0  -0.2617
  O  O242  1  0.249800  0.272500  0.969320  1.0  -0.2666
  O  O243  1  0.177900  0.685500  0.202430  1.0  -0.612
  O  O244  1  0.129900  0.629200  0.272640  1.0  -0.716
  O  O245  1  0.648480  0.461400  0.248860  1.0  -0.6164
  O  O246  1  0.704380  0.403500  0.325690  1.0  -0.6392
  O  O247  1  0.181100  0.843000  0.321160  1.0  -0.7249
  O  O248  1  0.398700  0.714000  0.238700  1.0  -0.6604
  O  O249  1  0.325960  0.718700  0.303550  1.0  -0.6825
  O  O250  1  0.467000  0.161500  0.408840  1.0  -0.2775
  O  O251  1  0.465600  0.120000  0.503190  1.0  -0.2702
  O  O252  1  0.127000  0.901200  0.245700  1.0  -0.6125
  O  O253  1  0.750400  0.764100  0.434880  1.0  -0.2638
  O  O254  1  0.750200  0.772500  0.530680  1.0  -0.2656
  O  O255  1  0.822100  0.185500  0.297570  1.0  -0.6099
  O  O256  1  0.870100  0.129200  0.227360  1.0  -0.7172
  O  O257  1  0.648480  0.038600  0.748860  1.0  -0.6157
  O  O258  1  0.704380  0.096500  0.825690  1.0  -0.6399
  O  O259  1  0.181100  0.657000  0.821160  1.0  -0.7249
  O  O260  1  0.398700  0.786000  0.738700  1.0  -0.6601
  O  O261  1  0.325960  0.781300  0.803550  1.0  -0.6817
  O  O262  1  0.467000  0.338500  0.908840  1.0  -0.2762
  O  O263  1  0.465600  0.380000  0.003190  1.0  -0.2702
  O  O264  1  0.127000  0.598800  0.745700  1.0  -0.6122
  O  O265  1  0.750400  0.735900  0.934880  1.0  -0.262
  O  O266  1  0.750200  0.727500  0.030680  1.0  -0.2657
  O  O267  1  0.822100  0.314500  0.797570  1.0  -0.6087
  O  O268  1  0.870100  0.370800  0.727360  1.0  -0.7175
  O  O269  1  0.351520  0.538600  0.751140  1.0  -0.6194
  O  O270  1  0.295620  0.596500  0.674310  1.0  -0.6386
  O  O271  1  0.818900  0.157000  0.678840  1.0  -0.7268
  O  O272  1  0.601300  0.286000  0.761300  1.0  -0.6602
  O  O273  1  0.674040  0.281300  0.696450  1.0  -0.6806
  O  O274  1  0.533000  0.838500  0.591160  1.0  -0.2756
  O  O275  1  0.534400  0.880000  0.496810  1.0  -0.2696
  O  O276  1  0.873000  0.098800  0.754300  1.0  -0.6139
  O  O277  1  0.249600  0.235900  0.565120  1.0  -0.2623
  O  O278  1  0.249800  0.227500  0.469320  1.0  -0.2674
  O  O279  1  0.177900  0.814500  0.702430  1.0  -0.6113
  O  O280  1  0.129900  0.870800  0.772640  1.0  -0.7158
