# generated using pymatgen
data_CoH13C17O7
_symmetry_space_group_name_H-M   'P 1'
_cell_length_a   10.16800000
_cell_length_b   18.03500000
_cell_length_c   27.05400000
_cell_angle_alpha   90.00000000
_cell_angle_beta   99.32100000
_cell_angle_gamma   90.00000000
_symmetry_Int_Tables_number   1
_chemical_formula_structural   CoH13C17O7
_chemical_formula_sum   'Co8 H104 C136 O56'
_cell_volume   4895.65420633
_cell_formula_units_Z   8
loop_
 _symmetry_equiv_pos_site_id
 _symmetry_equiv_pos_as_xyz
  1  'x, y, z'
loop_
 _atom_site_type_symbol
 _atom_site_label
 _atom_site_symmetry_multiplicity
 _atom_site_fract_x
 _atom_site_fract_y
 _atom_site_fract_z
 _atom_site_occupancy
 _atom_site_charge
  Co  Co1  1  0.469300  0.690840  0.309510  1.0  1.0911
  Co  Co2  1  0.640850  0.765710  0.216910  1.0  0.9941
  Co  Co3  1  0.530700  0.190840  0.190490  1.0  1.0935
  Co  Co4  1  0.359150  0.265710  0.283090  1.0  0.9954
  Co  Co5  1  0.530700  0.309160  0.690490  1.0  1.0925
  Co  Co6  1  0.359150  0.234290  0.783090  1.0  0.9945
  Co  Co7  1  0.469300  0.809160  0.809510  1.0  1.0906
  Co  Co8  1  0.640850  0.734290  0.716910  1.0  0.9937
  H  H9  1  0.204900  0.583500  0.406900  1.0  0.0938
  H  H10  1  0.812600  0.604500  0.399400  1.0  0.1104
  H  H11  1  0.995600  0.703300  0.297600  1.0  0.1008
  H  H12  1  0.536600  0.984900  0.259100  1.0  0.1069
  H  H13  1  0.515000  0.883200  0.388200  1.0  0.0988
  H  H14  1  0.504000  0.104300  0.380800  1.0  0.1067
  H  H15  1  0.165400  0.657100  0.477900  1.0  0.0883
  H  H16  1  0.128900  0.526600  0.622000  1.0  0.0905
  H  H17  1  0.284100  0.939300  0.400400  1.0  0.127
  H  H18  1  0.738000  0.041800  0.430800  1.0  0.0916
  H  H19  1  0.376400  0.724300  0.494900  1.0  0.0856
  H  H20  1  0.372200  0.797900  0.525500  1.0  0.1119
  H  H21  1  0.240000  0.764200  0.496200  1.0  0.0765
  H  H22  1  0.908400  0.119700  0.413000  1.0  0.1223
  H  H23  1  0.059200  0.099800  0.429700  1.0  0.14
  H  H24  1  0.952100  0.036600  0.421300  1.0  0.0855
  H  H25  1  0.116500  0.909800  0.358800  1.0  0.1115
  H  H26  1  0.980900  0.867000  0.354200  1.0  0.1323
  H  H27  1  0.115500  0.825000  0.371600  1.0  0.1133
  H  H28  1  0.316400  0.554800  0.682800  1.0  0.1096
  H  H29  1  0.182400  0.596400  0.685400  1.0  0.109
  H  H30  1  0.318100  0.631000  0.710700  1.0  0.1316
  H  H31  1  0.806000  0.831700  0.175900  1.0  0.3618
  H  H32  1  0.877000  0.799700  0.222800  1.0  0.3517
  H  H33  1  0.833500  0.684900  0.192000  1.0  0.2417
  H  H34  1  0.753200  0.723200  0.141200  1.0  0.2356
  H  H35  1  0.795100  0.083500  0.093100  1.0  0.094
  H  H36  1  0.187400  0.104500  0.100600  1.0  0.1098
  H  H37  1  0.004400  0.203300  0.202400  1.0  0.1009
  H  H38  1  0.463400  0.484900  0.240900  1.0  0.1074
  H  H39  1  0.485000  0.383200  0.111800  1.0  0.0991
  H  H40  1  0.496000  0.604300  0.119200  1.0  0.1067
  H  H41  1  0.834600  0.157100  0.022100  1.0  0.0867
  H  H42  1  0.871100  0.026600  0.878000  1.0  0.0909
  H  H43  1  0.715900  0.439300  0.099600  1.0  0.1267
  H  H44  1  0.262000  0.541800  0.069200  1.0  0.0918
  H  H45  1  0.623600  0.224300  0.005100  1.0  0.0863
  H  H46  1  0.627800  0.297900  0.974500  1.0  0.1116
  H  H47  1  0.760000  0.264200  0.003800  1.0  0.0741
  H  H48  1  0.091600  0.619700  0.087000  1.0  0.1197
  H  H49  1  0.940800  0.599800  0.070300  1.0  0.1395
  H  H50  1  0.047900  0.536600  0.078700  1.0  0.0852
  H  H51  1  0.883500  0.409800  0.141200  1.0  0.1121
  H  H52  1  0.019100  0.367000  0.145800  1.0  0.1341
  H  H53  1  0.884500  0.325000  0.128400  1.0  0.1152
  H  H54  1  0.683600  0.054800  0.817200  1.0  0.1085
  H  H55  1  0.817600  0.096400  0.814600  1.0  0.1072
  H  H56  1  0.681900  0.131000  0.789300  1.0  0.1337
  H  H57  1  0.194000  0.331700  0.324100  1.0  0.3617
  H  H58  1  0.123000  0.299700  0.277200  1.0  0.3498
  H  H59  1  0.166500  0.184900  0.308000  1.0  0.243
  H  H60  1  0.246800  0.223200  0.358800  1.0  0.2371
  H  H61  1  0.795100  0.416500  0.593100  1.0  0.0934
  H  H62  1  0.187400  0.395500  0.600600  1.0  0.1099
  H  H63  1  0.004400  0.296700  0.702400  1.0  0.1005
  H  H64  1  0.463400  0.015100  0.740900  1.0  0.1073
  H  H65  1  0.485000  0.116800  0.611800  1.0  0.0989
  H  H66  1  0.496000  0.895700  0.619200  1.0  0.107
  H  H67  1  0.834600  0.342900  0.522100  1.0  0.0867
  H  H68  1  0.871100  0.473400  0.378000  1.0  0.0906
  H  H69  1  0.715900  0.060700  0.599600  1.0  0.1267
  H  H70  1  0.262000  0.958200  0.569200  1.0  0.0916
  H  H71  1  0.623600  0.275700  0.505100  1.0  0.0864
  H  H72  1  0.627800  0.202100  0.474500  1.0  0.1113
  H  H73  1  0.760000  0.235800  0.503800  1.0  0.0742
  H  H74  1  0.091600  0.880300  0.587000  1.0  0.1215
  H  H75  1  0.940800  0.900200  0.570300  1.0  0.1395
  H  H76  1  0.047900  0.963400  0.578700  1.0  0.0857
  H  H77  1  0.883500  0.090200  0.641200  1.0  0.1126
  H  H78  1  0.019100  0.133000  0.645800  1.0  0.1342
  H  H79  1  0.884500  0.175000  0.628400  1.0  0.1175
  H  H80  1  0.683600  0.445200  0.317200  1.0  0.1105
  H  H81  1  0.817600  0.403600  0.314600  1.0  0.1072
  H  H82  1  0.681900  0.369000  0.289300  1.0  0.132
  H  H83  1  0.194000  0.168300  0.824100  1.0  0.3611
  H  H84  1  0.123000  0.200300  0.777200  1.0  0.3484
  H  H85  1  0.166500  0.315100  0.808000  1.0  0.2427
  H  H86  1  0.246800  0.276800  0.858800  1.0  0.2372
  H  H87  1  0.204900  0.916500  0.906900  1.0  0.094
  H  H88  1  0.812600  0.895500  0.899400  1.0  0.1105
  H  H89  1  0.995600  0.796700  0.797600  1.0  0.1008
  H  H90  1  0.536600  0.515100  0.759100  1.0  0.1069
  H  H91  1  0.515000  0.616800  0.888200  1.0  0.0982
  H  H92  1  0.504000  0.395700  0.880800  1.0  0.1072
  H  H93  1  0.165400  0.842900  0.977900  1.0  0.0879
  H  H94  1  0.128900  0.973400  0.122000  1.0  0.09
  H  H95  1  0.284100  0.560700  0.900400  1.0  0.127
  H  H96  1  0.738000  0.458200  0.930800  1.0  0.0919
  H  H97  1  0.376400  0.775700  0.994900  1.0  0.0868
  H  H98  1  0.372200  0.702100  0.025500  1.0  0.1117
  H  H99  1  0.240000  0.735800  0.996200  1.0  0.0767
  H  H100  1  0.908400  0.380300  0.913000  1.0  0.1225
  H  H101  1  0.059200  0.400200  0.929700  1.0  0.1395
  H  H102  1  0.952100  0.463400  0.921300  1.0  0.0867
  H  H103  1  0.116500  0.590200  0.858800  1.0  0.1115
  H  H104  1  0.980900  0.633000  0.854200  1.0  0.1323
  H  H105  1  0.115500  0.675000  0.871600  1.0  0.1157
  H  H106  1  0.316400  0.945200  0.182800  1.0  0.1097
  H  H107  1  0.182400  0.903600  0.185400  1.0  0.1088
  H  H108  1  0.318100  0.869000  0.210700  1.0  0.1308
  H  H109  1  0.806000  0.668300  0.675900  1.0  0.3614
  H  H110  1  0.877000  0.700300  0.722800  1.0  0.3517
  H  H111  1  0.833500  0.815100  0.692000  1.0  0.2406
  H  H112  1  0.753200  0.776800  0.641200  1.0  0.236
  C  C113  1  0.752000  0.683300  0.318150  1.0  0.7102
  C  C114  1  0.245400  0.667600  0.331750  1.0  0.6572
  C  C115  1  0.120000  0.647400  0.350200  1.0  -0.1717
  C  C116  1  0.123700  0.602700  0.391450  1.0  -0.078
  C  C117  1  0.504100  0.997100  0.448490  1.0  -0.078
  C  C118  1  0.883900  0.657100  0.344050  1.0  -0.1465
  C  C119  1  0.523300  0.922650  0.319800  1.0  -0.1792
  C  C120  1  0.890200  0.614300  0.386560  1.0  -0.0886
  C  C121  1  0.519400  0.054160  0.315370  1.0  -0.1501
  C  C122  1  0.080800  0.563200  0.501890  1.0  0.004
  C  C123  1  0.009700  0.540000  0.456190  1.0  -0.0801
  C  C124  1  0.999100  0.673900  0.326050  1.0  -0.0319
  C  C125  1  0.009600  0.585700  0.410310  1.0  0.0544
  C  C126  1  0.509300  0.993900  0.393970  1.0  0.0757
  C  C127  1  0.527800  0.987100  0.292750  1.0  -0.0358
  C  C128  1  0.515800  0.926790  0.369900  1.0  -0.0726
  C  C129  1  0.524300  0.848900  0.295430  1.0  0.7226
  C  C130  1  0.069100  0.522900  0.546500  1.0  0.0487
  C  C131  1  0.510000  0.058300  0.365740  1.0  -0.0608
  C  C132  1  0.613900  0.024200  0.481130  1.0  0.0081
  C  C133  1  0.160500  0.628800  0.506280  1.0  -0.1363
  C  C134  1  0.391700  0.972200  0.466280  1.0  -0.0022
  C  C135  1  0.137600  0.550800  0.592380  1.0  -0.216
  C  C136  1  0.281000  0.943100  0.434450  1.0  -0.1903
  C  C137  1  0.228100  0.650200  0.550330  1.0  0.1895
  C  C138  1  0.732700  0.045800  0.464730  1.0  -0.2055
  C  C139  1  0.169000  0.920100  0.451750  1.0  0.2454
  C  C140  1  0.215000  0.611200  0.594180  1.0  0.1764
  C  C141  1  0.839100  0.072100  0.496010  1.0  0.2671
  C  C142  1  0.325700  0.752700  0.515200  1.0  -0.0189
  C  C143  1  0.969500  0.086500  0.432800  1.0  -0.0274
  C  C144  1  0.069200  0.871200  0.372900  1.0  -0.042
  C  C145  1  0.274800  0.602600  0.682800  1.0  -0.0532
  C  C146  1  0.514200  0.124300  0.285120  1.0  0.7195
  C  C147  1  0.248000  0.183300  0.181850  1.0  0.7118
  C  C148  1  0.754600  0.167600  0.168250  1.0  0.6573
  C  C149  1  0.880000  0.147400  0.149800  1.0  -0.1722
  C  C150  1  0.876300  0.102700  0.108550  1.0  -0.0747
  C  C151  1  0.495900  0.497100  0.051510  1.0  -0.0783
  C  C152  1  0.116100  0.157100  0.155950  1.0  -0.146
  C  C153  1  0.476700  0.422650  0.180200  1.0  -0.1801
  C  C154  1  0.109800  0.114300  0.113440  1.0  -0.0899
  C  C155  1  0.480600  0.554160  0.184630  1.0  -0.1508
  C  C156  1  0.919200  0.063200  0.998110  1.0  0.0042
  C  C157  1  0.990300  0.040000  0.043810  1.0  -0.0804
  C  C158  1  0.000900  0.173900  0.173950  1.0  -0.0332
  C  C159  1  0.990400  0.085700  0.089690  1.0  0.0552
  C  C160  1  0.490700  0.493900  0.106030  1.0  0.0761
  C  C161  1  0.472200  0.487100  0.207250  1.0  -0.0349
  C  C162  1  0.484200  0.426790  0.130100  1.0  -0.0725
  C  C163  1  0.475700  0.348900  0.204570  1.0  0.7239
  C  C164  1  0.930900  0.022900  0.953500  1.0  0.0486
  C  C165  1  0.490000  0.558300  0.134260  1.0  -0.0605
  C  C166  1  0.386100  0.524200  0.018870  1.0  0.0085
  C  C167  1  0.839500  0.128800  0.993720  1.0  -0.1354
  C  C168  1  0.608300  0.472200  0.033720  1.0  -0.0021
  C  C169  1  0.862400  0.050800  0.907620  1.0  -0.216
  C  C170  1  0.719000  0.443100  0.065550  1.0  -0.1893
  C  C171  1  0.771900  0.150200  0.949670  1.0  0.1937
  C  C172  1  0.267300  0.545800  0.035270  1.0  -0.2065
  C  C173  1  0.831000  0.420100  0.048250  1.0  0.2449
  C  C174  1  0.785000  0.111200  0.905820  1.0  0.1784
  C  C175  1  0.160900  0.572100  0.003990  1.0  0.2667
  C  C176  1  0.674300  0.252700  0.984800  1.0  -0.0189
  C  C177  1  0.030500  0.586500  0.067200  1.0  -0.0278
  C  C178  1  0.930800  0.371200  0.127100  1.0  -0.043
  C  C179  1  0.725200  0.102600  0.817200  1.0  -0.052
  C  C180  1  0.485800  0.624300  0.214880  1.0  0.7191
  C  C181  1  0.248000  0.316700  0.681850  1.0  0.7115
  C  C182  1  0.754600  0.332400  0.668250  1.0  0.6569
  C  C183  1  0.880000  0.352600  0.649800  1.0  -0.1721
  C  C184  1  0.876300  0.397300  0.608550  1.0  -0.0744
  C  C185  1  0.495900  0.002900  0.551510  1.0  -0.0783
  C  C186  1  0.116100  0.342900  0.655950  1.0  -0.1459
  C  C187  1  0.476700  0.077350  0.680200  1.0  -0.1795
  C  C188  1  0.109800  0.385700  0.613440  1.0  -0.0902
  C  C189  1  0.480600  0.945840  0.684630  1.0  -0.1507
  C  C190  1  0.919200  0.436800  0.498110  1.0  0.004
  C  C191  1  0.990300  0.460000  0.543810  1.0  -0.0801
  C  C192  1  0.000900  0.326100  0.673950  1.0  -0.0335
  C  C193  1  0.990400  0.414300  0.589690  1.0  0.0548
  C  C194  1  0.490700  0.006100  0.606030  1.0  0.0758
  C  C195  1  0.472200  0.012900  0.707250  1.0  -0.035
  C  C196  1  0.484200  0.073210  0.630100  1.0  -0.0728
  C  C197  1  0.475700  0.151100  0.704570  1.0  0.7244
  C  C198  1  0.930900  0.477100  0.453500  1.0  0.0485
  C  C199  1  0.490000  0.941700  0.634260  1.0  -0.0617
  C  C200  1  0.386100  0.975800  0.518870  1.0  0.0076
  C  C201  1  0.839500  0.371200  0.493720  1.0  -0.135
  C  C202  1  0.608300  0.027800  0.533720  1.0  -0.0021
  C  C203  1  0.862400  0.449200  0.407620  1.0  -0.2146
  C  C204  1  0.719000  0.056900  0.565550  1.0  -0.1914
  C  C205  1  0.771900  0.349800  0.449670  1.0  0.1934
  C  C206  1  0.267300  0.954200  0.535270  1.0  -0.2086
  C  C207  1  0.831000  0.079900  0.548250  1.0  0.2477
  C  C208  1  0.785000  0.388800  0.405820  1.0  0.1778
  C  C209  1  0.160900  0.927900  0.503990  1.0  0.2693
  C  C210  1  0.674300  0.247300  0.484800  1.0  -0.0183
  C  C211  1  0.030500  0.913500  0.567200  1.0  -0.0271
  C  C212  1  0.930800  0.128800  0.627100  1.0  -0.0433
  C  C213  1  0.725200  0.397400  0.317200  1.0  -0.0519
  C  C214  1  0.485800  0.875700  0.714880  1.0  0.7185
  C  C215  1  0.752000  0.816700  0.818150  1.0  0.71
  C  C216  1  0.245400  0.832400  0.831750  1.0  0.6569
  C  C217  1  0.120000  0.852600  0.850200  1.0  -0.1716
  C  C218  1  0.123700  0.897300  0.891450  1.0  -0.0768
  C  C219  1  0.504100  0.502900  0.948490  1.0  -0.078
  C  C220  1  0.883900  0.842900  0.844050  1.0  -0.1469
  C  C221  1  0.523300  0.577350  0.819800  1.0  -0.1789
  C  C222  1  0.890200  0.885700  0.886560  1.0  -0.0884
  C  C223  1  0.519400  0.445840  0.815370  1.0  -0.1511
  C  C224  1  0.080800  0.936800  0.001890  1.0  0.0038
  C  C225  1  0.009700  0.960000  0.956190  1.0  -0.0799
  C  C226  1  0.999100  0.826100  0.826050  1.0  -0.0318
  C  C227  1  0.009600  0.914300  0.910310  1.0  0.0541
  C  C228  1  0.509300  0.506100  0.893970  1.0  0.0755
  C  C229  1  0.527800  0.512900  0.792750  1.0  -0.0359
  C  C230  1  0.515800  0.573210  0.869900  1.0  -0.0736
  C  C231  1  0.524300  0.651100  0.795430  1.0  0.7229
  C  C232  1  0.069100  0.977100  0.046500  1.0  0.0485
  C  C233  1  0.510000  0.441700  0.865740  1.0  -0.0617
  C  C234  1  0.613900  0.475800  0.981130  1.0  0.0073
  C  C235  1  0.160500  0.871200  0.006280  1.0  -0.1363
  C  C236  1  0.391700  0.527800  0.966280  1.0  -0.0022
  C  C237  1  0.137600  0.949200  0.092380  1.0  -0.2147
  C  C238  1  0.281000  0.556900  0.934450  1.0  -0.1923
  C  C239  1  0.228100  0.849800  0.050330  1.0  0.1895
  C  C240  1  0.732700  0.454200  0.964730  1.0  -0.2081
  C  C241  1  0.169000  0.579900  0.951750  1.0  0.2483
  C  C242  1  0.215000  0.888800  0.094180  1.0  0.1763
  C  C243  1  0.839100  0.427900  0.996010  1.0  0.27
  C  C244  1  0.325700  0.747300  0.015200  1.0  -0.019
  C  C245  1  0.969500  0.413500  0.932800  1.0  -0.0275
  C  C246  1  0.069200  0.628800  0.872900  1.0  -0.0426
  C  C247  1  0.274800  0.897400  0.182800  1.0  -0.052
  C  C248  1  0.514200  0.375700  0.785120  1.0  0.7193
  O  O249  1  0.355000  0.647810  0.356580  1.0  -0.5702
  O  O250  1  0.241800  0.704930  0.293300  1.0  -0.5698
  O  O251  1  0.654900  0.668510  0.338740  1.0  -0.6032
  O  O252  1  0.562600  0.844800  0.253990  1.0  -0.6089
  O  O253  1  0.748300  0.716960  0.278670  1.0  -0.6455
  O  O254  1  0.481700  0.797150  0.318030  1.0  -0.6001
  O  O255  1  0.545100  0.117490  0.242960  1.0  -0.5947
  O  O256  1  0.061400  0.889000  0.424210  1.0  -0.2594
  O  O257  1  0.308800  0.711100  0.558120  1.0  -0.2652
  O  O258  1  0.285800  0.640800  0.636940  1.0  -0.2854
  O  O259  1  0.954500  0.093500  0.484490  1.0  -0.2736
  O  O260  1  0.483700  0.182830  0.303310  1.0  -0.6128
  O  O261  1  0.805300  0.806200  0.202300  1.0  -0.8339
  O  O262  1  0.777800  0.725500  0.177400  1.0  -0.7124
  O  O263  1  0.645000  0.147810  0.143420  1.0  -0.5699
  O  O264  1  0.758200  0.204930  0.206700  1.0  -0.5726
  O  O265  1  0.345100  0.168510  0.161260  1.0  -0.6035
  O  O266  1  0.437400  0.344800  0.246010  1.0  -0.6076
  O  O267  1  0.251700  0.216960  0.221330  1.0  -0.6466
  O  O268  1  0.518300  0.297150  0.181970  1.0  -0.5995
  O  O269  1  0.454900  0.617490  0.257040  1.0  -0.5957
  O  O270  1  0.938600  0.389000  0.075790  1.0  -0.2591
  O  O271  1  0.691200  0.211100  0.941880  1.0  -0.2655
  O  O272  1  0.714200  0.140800  0.863060  1.0  -0.2856
  O  O273  1  0.045500  0.593500  0.015510  1.0  -0.2734
  O  O274  1  0.516300  0.682830  0.196690  1.0  -0.6123
  O  O275  1  0.194700  0.306200  0.297700  1.0  -0.836
  O  O276  1  0.222200  0.225500  0.322600  1.0  -0.7142
  O  O277  1  0.645000  0.352190  0.643420  1.0  -0.5709
  O  O278  1  0.758200  0.295070  0.706700  1.0  -0.5722
  O  O279  1  0.345100  0.331490  0.661260  1.0  -0.6032
  O  O280  1  0.437400  0.155200  0.746010  1.0  -0.6076
  O  O281  1  0.251700  0.283040  0.721330  1.0  -0.6467
  O  O282  1  0.518300  0.202850  0.681970  1.0  -0.5992
  O  O283  1  0.454900  0.882510  0.757040  1.0  -0.5964
  O  O284  1  0.938600  0.111000  0.575790  1.0  -0.2601
  O  O285  1  0.691200  0.288900  0.441880  1.0  -0.2662
  O  O286  1  0.714200  0.359200  0.363060  1.0  -0.2867
  O  O287  1  0.045500  0.906500  0.515510  1.0  -0.2748
  O  O288  1  0.516300  0.817170  0.696690  1.0  -0.6121
  O  O289  1  0.194700  0.193800  0.797700  1.0  -0.8346
  O  O290  1  0.222200  0.274500  0.822600  1.0  -0.715
  O  O291  1  0.355000  0.852190  0.856580  1.0  -0.5708
  O  O292  1  0.241800  0.795070  0.793300  1.0  -0.5703
  O  O293  1  0.654900  0.831490  0.838740  1.0  -0.6026
  O  O294  1  0.562600  0.655200  0.753990  1.0  -0.609
  O  O295  1  0.748300  0.783040  0.778670  1.0  -0.6453
  O  O296  1  0.481700  0.702850  0.818030  1.0  -0.5999
  O  O297  1  0.545100  0.382510  0.742960  1.0  -0.5949
  O  O298  1  0.061400  0.611000  0.924210  1.0  -0.2595
  O  O299  1  0.308800  0.788900  0.058120  1.0  -0.2653
  O  O300  1  0.285800  0.859200  0.136940  1.0  -0.2864
  O  O301  1  0.954500  0.406500  0.984490  1.0  -0.274
  O  O302  1  0.483700  0.317170  0.803310  1.0  -0.6121
  O  O303  1  0.805300  0.693800  0.702300  1.0  -0.835
  O  O304  1  0.777800  0.774500  0.677400  1.0  -0.7116
