# generated using pymatgen
data_Ni2H24C34O13
_symmetry_space_group_name_H-M   'P 1'
_cell_length_a   11.08000000
_cell_length_b   16.58300000
_cell_length_c   16.60000000
_cell_angle_alpha   68.53300000
_cell_angle_beta   89.20800000
_cell_angle_gamma   89.16700000
_symmetry_Int_Tables_number   1
_chemical_formula_structural   Ni2H24C34O13
_chemical_formula_sum   'Ni4 H48 C68 O26'
_cell_volume   2838.07109273
_cell_formula_units_Z   2
loop_
 _symmetry_equiv_pos_site_id
 _symmetry_equiv_pos_as_xyz
  1  'x, y, z'
loop_
 _atom_site_type_symbol
 _atom_site_label
 _atom_site_symmetry_multiplicity
 _atom_site_fract_x
 _atom_site_fract_y
 _atom_site_fract_z
 _atom_site_occupancy
 _atom_site_charge
  Ni  Ni1  1  0.640140  0.004590  0.496580  1.0  1.0343
  Ni  Ni2  1  0.498270  0.812260  0.504460  1.0  0.8309
  Ni  Ni3  1  0.359860  0.995410  0.503420  1.0  1.0375
  Ni  Ni4  1  0.501730  0.187740  0.495540  1.0  0.8328
  H  H5  1  0.181200  0.693500  0.486700  1.0  0.1121
  H  H6  1  0.448000  0.676100  0.777700  1.0  0.0976
  H  H7  1  0.066000  0.307900  0.659900  1.0  0.081
  H  H8  1  0.082300  0.591900  0.643800  1.0  0.0799
  H  H9  1  0.339400  0.906500  0.779000  1.0  0.1052
  H  H10  1  0.386800  0.707600  0.002200  1.0  0.1094
  H  H11  1  0.768500  0.392700  0.019400  1.0  0.104
  H  H12  1  0.640700  0.668300  0.844900  1.0  0.0859
  H  H13  1  0.867200  0.724200  0.688800  1.0  0.144
  H  H14  1  0.792100  0.750800  0.756100  1.0  0.1241
  H  H15  1  0.735700  0.689600  0.714000  1.0  0.1192
  H  H16  1  0.262500  0.971100  0.939700  1.0  0.3789
  H  H17  1  0.220000  0.597500  0.741500  1.0  0.1012
  H  H18  1  0.201400  0.564700  0.842100  1.0  0.1089
  H  H19  1  0.089700  0.592900  0.780800  1.0  0.0934
  H  H20  1  0.060700  0.392400  0.954800  1.0  0.11
  H  H21  1  0.934700  0.354300  0.946800  1.0  0.1048
  H  H22  1  0.958400  0.386900  0.022700  1.0  0.0944
  H  H23  1  0.174300  0.217900  0.779800  1.0  0.0963
  H  H24  1  0.036900  0.225900  0.799900  1.0  0.0827
  H  H25  1  0.130800  0.199200  0.875100  1.0  0.1168
  H  H26  1  0.819400  0.691600  0.497300  1.0  0.1089
  H  H27  1  0.998800  0.905100  0.482900  1.0  0.1021
  H  H28  1  0.500100  0.961500  0.401700  1.0  0.3977
  H  H29  1  0.818800  0.306500  0.513300  1.0  0.1124
  H  H30  1  0.552000  0.323900  0.222300  1.0  0.0973
  H  H31  1  0.934000  0.692100  0.340100  1.0  0.0808
  H  H32  1  0.917700  0.408100  0.356200  1.0  0.0792
  H  H33  1  0.660600  0.093500  0.221000  1.0  0.106
  H  H34  1  0.613200  0.292400  0.997800  1.0  0.1107
  H  H35  1  0.231500  0.607300  0.980600  1.0  0.1048
  H  H36  1  0.359300  0.331700  0.155100  1.0  0.0862
  H  H37  1  0.132800  0.275800  0.311200  1.0  0.1445
  H  H38  1  0.207900  0.249200  0.243900  1.0  0.123
  H  H39  1  0.264300  0.310400  0.286000  1.0  0.1187
  H  H40  1  0.737500  0.028900  0.060300  1.0  0.3816
  H  H41  1  0.780000  0.402500  0.258500  1.0  0.102
  H  H42  1  0.798600  0.435300  0.157900  1.0  0.1083
  H  H43  1  0.910300  0.407100  0.219200  1.0  0.0937
  H  H44  1  0.939300  0.607600  0.045200  1.0  0.1125
  H  H45  1  0.065300  0.645700  0.053200  1.0  0.1053
  H  H46  1  0.041600  0.613100  0.977300  1.0  0.0931
  H  H47  1  0.825700  0.782100  0.220200  1.0  0.0972
  H  H48  1  0.963100  0.774100  0.200100  1.0  0.0783
  H  H49  1  0.869200  0.800800  0.124900  1.0  0.1149
  H  H50  1  0.180600  0.308400  0.502700  1.0  0.1082
  H  H51  1  0.001200  0.094900  0.517100  1.0  0.1022
  H  H52  1  0.499900  0.038500  0.598300  1.0  0.3965
  C  C53  1  0.108200  0.721700  0.487200  1.0  -0.042
  C  C54  1  0.037900  0.520400  0.571200  1.0  -0.0694
  C  C55  1  0.002100  0.585700  0.496400  1.0  -0.12
  C  C56  1  0.035100  0.431000  0.576100  1.0  0.0461
  C  C57  1  0.408100  0.836100  0.666800  1.0  0.7025
  C  C58  1  0.395100  0.797300  0.763000  1.0  -0.1668
  C  C59  1  0.578500  0.556900  0.939800  1.0  0.0267
  C  C60  1  0.425400  0.711000  0.808400  1.0  -0.0534
  C  C61  1  0.460600  0.583700  0.949200  1.0  -0.0595
  C  C62  1  0.000400  0.677400  0.492100  1.0  0.0709
  C  C63  1  0.069600  0.365400  0.655400  1.0  -0.1948
  C  C64  1  0.078800  0.535200  0.645700  1.0  -0.19
  C  C65  1  0.618700  0.472800  0.991800  1.0  -0.0006
  C  C66  1  0.422900  0.675400  0.897700  1.0  0.0301
  C  C67  1  0.359000  0.848500  0.808900  1.0  0.008
  C  C68  1  0.112600  0.470500  0.718500  1.0  0.2011
  C  C69  1  0.387000  0.729600  0.942000  1.0  -0.0939
  C  C70  1  0.107000  0.382100  0.724100  1.0  0.2049
  C  C71  1  0.741000  0.447000  0.983300  1.0  -0.1809
  C  C72  1  0.663600  0.611800  0.878100  1.0  -0.186
  C  C73  1  0.312600  0.867300  0.950500  1.0  0.6632
  C  C74  1  0.775400  0.583700  0.867300  1.0  0.2284
  C  C75  1  0.817200  0.500900  0.923100  1.0  0.2022
  C  C76  1  0.808800  0.705000  0.735000  1.0  -0.1012
  C  C77  1  0.167900  0.565600  0.788800  1.0  -0.0194
  C  C78  1  0.975300  0.396800  0.963000  1.0  -0.0266
  C  C79  1  0.351600  0.815300  0.898300  1.0  -0.2036
  C  C80  1  0.117600  0.234300  0.815400  1.0  -0.0233
  C  C81  1  0.891800  0.720400  0.493800  1.0  -0.0317
  C  C82  1  0.889600  0.805500  0.490200  1.0  -0.1669
  C  C83  1  0.999400  0.848200  0.485000  1.0  0.0185
  C  C84  1  0.108900  0.807300  0.483100  1.0  -0.159
  C  C85  1  0.771000  0.848200  0.492900  1.0  0.7002
  C  C86  1  0.225900  0.850600  0.482000  1.0  0.7212
  C  C87  1  0.891800  0.278300  0.512800  1.0  -0.0405
  C  C88  1  0.962100  0.479600  0.428800  1.0  -0.0698
  C  C89  1  0.997900  0.414300  0.503600  1.0  -0.1195
  C  C90  1  0.964900  0.569000  0.423900  1.0  0.0457
  C  C91  1  0.591900  0.163900  0.333200  1.0  0.7035
  C  C92  1  0.604900  0.202700  0.237000  1.0  -0.1683
  C  C93  1  0.421500  0.443100  0.060200  1.0  0.0268
  C  C94  1  0.574600  0.289000  0.191600  1.0  -0.0526
  C  C95  1  0.539400  0.416300  0.050800  1.0  -0.0598
  C  C96  1  0.999600  0.322600  0.507900  1.0  0.071
  C  C97  1  0.930400  0.634600  0.344600  1.0  -0.1928
  C  C98  1  0.921200  0.464800  0.354300  1.0  -0.1921
  C  C99  1  0.381300  0.527200  0.008200  1.0  -0.0007
  C  C100  1  0.577100  0.324600  0.102300  1.0  0.0297
  C  C101  1  0.641000  0.151500  0.191100  1.0  0.0063
  C  C102  1  0.887400  0.529500  0.281500  1.0  0.2022
  C  C103  1  0.613000  0.270400  0.058000  1.0  -0.0947
  C  C104  1  0.893000  0.617900  0.275900  1.0  0.2056
  C  C105  1  0.259000  0.553000  0.016700  1.0  -0.1802
  C  C106  1  0.336400  0.388200  0.121900  1.0  -0.1848
  C  C107  1  0.687400  0.132700  0.049500  1.0  0.6656
  C  C108  1  0.224600  0.416300  0.132700  1.0  0.2285
  C  C109  1  0.182800  0.499100  0.076900  1.0  0.2028
  C  C110  1  0.191200  0.295000  0.265000  1.0  -0.1008
  C  C111  1  0.832100  0.434400  0.211200  1.0  -0.019
  C  C112  1  0.024700  0.603200  0.037000  1.0  -0.0253
  C  C113  1  0.648400  0.184700  0.101700  1.0  -0.2037
  C  C114  1  0.882400  0.765700  0.184600  1.0  -0.0241
  C  C115  1  0.108200  0.279600  0.506200  1.0  -0.0333
  C  C116  1  0.110400  0.194500  0.509800  1.0  -0.1672
  C  C117  1  0.000600  0.151800  0.515000  1.0  0.0168
  C  C118  1  0.891100  0.192700  0.516900  1.0  -0.1574
  C  C119  1  0.229000  0.151800  0.507100  1.0  0.6995
  C  C120  1  0.774100  0.149400  0.518000  1.0  0.7207
  O  O121  1  0.356800  0.908450  0.628620  1.0  -0.6108
  O  O122  1  0.857300  0.628300  0.806500  1.0  -0.2851
  O  O123  1  0.157000  0.479000  0.791500  1.0  -0.2614
  O  O124  1  0.933500  0.481900  0.910000  1.0  -0.2598
  O  O125  1  0.318900  0.805850  0.485300  1.0  -0.6742
  O  O126  1  0.133500  0.322800  0.802900  1.0  -0.2617
  O  O127  1  0.283100  0.947000  0.906500  1.0  -0.4558
  O  O128  1  0.300900  0.834100  0.029000  1.0  -0.4296
  O  O129  1  0.470100  0.794920  0.631600  1.0  -0.6058
  O  O130  1  0.502400  0.939930  0.465130  1.0  -0.9766
  O  O131  1  0.223300  0.928000  0.475400  1.0  -0.6155
  O  O132  1  0.769900  0.930230  0.466100  1.0  -0.5949
  O  O133  1  0.682900  0.799490  0.524000  1.0  -0.6321
  O  O134  1  0.643200  0.091550  0.371380  1.0  -0.611
  O  O135  1  0.142700  0.371700  0.193500  1.0  -0.2863
  O  O136  1  0.843000  0.521000  0.208500  1.0  -0.2628
  O  O137  1  0.066500  0.518100  0.090000  1.0  -0.2586
  O  O138  1  0.681100  0.194150  0.514700  1.0  -0.677
  O  O139  1  0.866500  0.677200  0.197100  1.0  -0.2607
  O  O140  1  0.716900  0.053000  0.093500  1.0  -0.4548
  O  O141  1  0.699100  0.165900  0.971000  1.0  -0.4281
  O  O142  1  0.529900  0.205080  0.368400  1.0  -0.6046
  O  O143  1  0.497600  0.060070  0.534870  1.0  -0.9769
  O  O144  1  0.776700  0.072000  0.524600  1.0  -0.6143
  O  O145  1  0.230100  0.069770  0.533900  1.0  -0.5934
  O  O146  1  0.317100  0.200510  0.476000  1.0  -0.6322
