# generated using pymatgen
data_ZnH11C17O6
_symmetry_space_group_name_H-M   'P 1'
_cell_length_a   10.10700000
_cell_length_b   18.33800000
_cell_length_c   27.08400000
_cell_angle_alpha   90.00000000
_cell_angle_beta   99.28500000
_cell_angle_gamma   90.00000000
_symmetry_Int_Tables_number   1
_chemical_formula_structural   ZnH11C17O6
_chemical_formula_sum   'Zn8 H88 C136 O48'
_cell_volume   4954.03766135
_cell_formula_units_Z   8
loop_
 _symmetry_equiv_pos_site_id
 _symmetry_equiv_pos_as_xyz
  1  'x, y, z'
loop_
 _atom_site_type_symbol
 _atom_site_label
 _atom_site_symmetry_multiplicity
 _atom_site_fract_x
 _atom_site_fract_y
 _atom_site_fract_z
 _atom_site_occupancy
 _atom_site_charge
  Zn  Zn1  1  0.464270  0.803930  0.307580  1.0  1.0654
  Zn  Zn2  1  0.636670  0.730130  0.219180  1.0  1.0703
  Zn  Zn3  1  0.535730  0.303930  0.192420  1.0  1.0654
  Zn  Zn4  1  0.363330  0.230130  0.280820  1.0  1.0681
  Zn  Zn5  1  0.535730  0.196070  0.692420  1.0  1.0661
  Zn  Zn6  1  0.363330  0.269870  0.780820  1.0  1.0676
  Zn  Zn7  1  0.464270  0.696070  0.807580  1.0  1.066
  Zn  Zn8  1  0.636670  0.769870  0.719180  1.0  1.069
  H  H9  1  0.808800  0.893300  0.401100  1.0  0.1002
  H  H10  1  0.990700  0.789000  0.301600  1.0  0.1026
  H  H11  1  0.490500  0.398500  0.381600  1.0  0.1025
  H  H12  1  0.511100  0.615700  0.385300  1.0  0.089
  H  H13  1  0.205900  0.908800  0.409800  1.0  0.1077
  H  H14  1  0.536200  0.510000  0.258700  1.0  0.1055
  H  H15  1  0.155600  0.839200  0.483200  1.0  0.0681
  H  H16  1  0.738800  0.462300  0.429200  1.0  0.0764
  H  H17  1  0.277000  0.565600  0.401800  1.0  0.0814
  H  H18  1  0.121000  0.976900  0.624000  1.0  0.0844
  H  H19  1  0.907800  0.391200  0.407300  1.0  0.1081
  H  H20  1  0.058900  0.412200  0.423700  1.0  0.1307
  H  H21  1  0.947600  0.472200  0.420800  1.0  0.0966
  H  H22  1  0.338000  0.773500  0.497800  1.0  0.0983
  H  H23  1  0.223200  0.721800  0.509300  1.0  0.0775
  H  H24  1  0.372500  0.705700  0.532800  1.0  0.1152
  H  H25  1  0.074700  0.597800  0.358300  1.0  0.0932
  H  H26  1  0.140800  0.671300  0.379200  1.0  0.0856
  H  H27  1  0.984400  0.665000  0.366100  1.0  0.1133
  H  H28  1  0.150800  0.900500  0.688200  1.0  0.0884
  H  H29  1  0.286500  0.942600  0.690100  1.0  0.1008
  H  H30  1  0.284300  0.866500  0.716300  1.0  0.1108
  H  H31  1  0.191200  0.393300  0.098900  1.0  0.0998
  H  H32  1  0.009300  0.289000  0.198400  1.0  0.1028
  H  H33  1  0.509500  0.898500  0.118400  1.0  0.1027
  H  H34  1  0.488900  0.115700  0.114700  1.0  0.0899
  H  H35  1  0.794100  0.408800  0.090200  1.0  0.1078
  H  H36  1  0.463800  0.010000  0.241300  1.0  0.1056
  H  H37  1  0.844400  0.339200  0.016800  1.0  0.0673
  H  H38  1  0.261200  0.962300  0.070800  1.0  0.0765
  H  H39  1  0.723000  0.065600  0.098200  1.0  0.082
  H  H40  1  0.879000  0.476900  0.876000  1.0  0.0847
  H  H41  1  0.092200  0.891200  0.092700  1.0  0.107
  H  H42  1  0.941100  0.912200  0.076300  1.0  0.1318
  H  H43  1  0.052400  0.972200  0.079200  1.0  0.0962
  H  H44  1  0.662000  0.273500  0.002200  1.0  0.0975
  H  H45  1  0.776800  0.221800  0.990700  1.0  0.0779
  H  H46  1  0.627500  0.205700  0.967200  1.0  0.1145
  H  H47  1  0.925300  0.097800  0.141700  1.0  0.0925
  H  H48  1  0.859200  0.171300  0.120800  1.0  0.0866
  H  H49  1  0.015600  0.165000  0.133900  1.0  0.1121
  H  H50  1  0.849200  0.400500  0.811800  1.0  0.0878
  H  H51  1  0.713500  0.442600  0.809900  1.0  0.1022
  H  H52  1  0.715700  0.366500  0.783700  1.0  0.1103
  H  H53  1  0.191200  0.106700  0.598900  1.0  0.0999
  H  H54  1  0.009300  0.211000  0.698400  1.0  0.103
  H  H55  1  0.509500  0.601500  0.618400  1.0  0.1029
  H  H56  1  0.488900  0.384300  0.614700  1.0  0.0895
  H  H57  1  0.794100  0.091200  0.590200  1.0  0.1078
  H  H58  1  0.463800  0.490000  0.741300  1.0  0.1056
  H  H59  1  0.844400  0.160800  0.516800  1.0  0.0668
  H  H60  1  0.261200  0.537700  0.570800  1.0  0.0765
  H  H61  1  0.723000  0.434400  0.598200  1.0  0.0812
  H  H62  1  0.879000  0.023100  0.376000  1.0  0.0848
  H  H63  1  0.092200  0.608800  0.592700  1.0  0.1058
  H  H64  1  0.941100  0.587800  0.576300  1.0  0.1315
  H  H65  1  0.052400  0.527800  0.579200  1.0  0.0943
  H  H66  1  0.662000  0.226500  0.502200  1.0  0.0976
  H  H67  1  0.776800  0.278200  0.490700  1.0  0.0776
  H  H68  1  0.627500  0.294300  0.467200  1.0  0.1148
  H  H69  1  0.925300  0.402200  0.641700  1.0  0.093
  H  H70  1  0.859200  0.328700  0.620800  1.0  0.0864
  H  H71  1  0.015600  0.335000  0.633900  1.0  0.1131
  H  H72  1  0.849200  0.099500  0.311800  1.0  0.088
  H  H73  1  0.713500  0.057400  0.309900  1.0  0.1
  H  H74  1  0.715700  0.133500  0.283700  1.0  0.111
  H  H75  1  0.808800  0.606700  0.901100  1.0  0.1005
  H  H76  1  0.990700  0.711000  0.801600  1.0  0.1022
  H  H77  1  0.490500  0.101500  0.881600  1.0  0.1024
  H  H78  1  0.511100  0.884300  0.885300  1.0  0.0896
  H  H79  1  0.205900  0.591200  0.909800  1.0  0.1072
  H  H80  1  0.536200  0.990000  0.758700  1.0  0.1054
  H  H81  1  0.155600  0.660800  0.983200  1.0  0.0681
  H  H82  1  0.738800  0.037700  0.929200  1.0  0.0762
  H  H83  1  0.277000  0.934400  0.901800  1.0  0.0812
  H  H84  1  0.121000  0.523100  0.124000  1.0  0.0851
  H  H85  1  0.907800  0.108800  0.907300  1.0  0.1086
  H  H86  1  0.058900  0.087800  0.923700  1.0  0.1308
  H  H87  1  0.947600  0.027800  0.920800  1.0  0.0943
  H  H88  1  0.338000  0.726500  0.997800  1.0  0.0979
  H  H89  1  0.223200  0.778200  0.009300  1.0  0.0769
  H  H90  1  0.372500  0.794300  0.032800  1.0  0.1146
  H  H91  1  0.074700  0.902200  0.858300  1.0  0.0942
  H  H92  1  0.140800  0.828700  0.879200  1.0  0.0858
  H  H93  1  0.984400  0.835000  0.866100  1.0  0.1139
  H  H94  1  0.150800  0.599500  0.188200  1.0  0.0881
  H  H95  1  0.286500  0.557400  0.190100  1.0  0.0994
  H  H96  1  0.284300  0.633500  0.216300  1.0  0.1103
  C  C97  1  0.886800  0.881770  0.388730  1.0  -0.0683
  C  C98  1  0.878600  0.837380  0.347020  1.0  -0.1897
  C  C99  1  0.994600  0.819190  0.329400  1.0  -0.0178
  C  C100  1  0.509900  0.443960  0.315530  1.0  -0.1433
  C  C101  1  0.747500  0.810400  0.321070  1.0  0.72
  C  C102  1  0.501600  0.504930  0.448260  1.0  -0.0586
  C  C103  1  0.525700  0.645190  0.292280  1.0  0.6875
  C  C104  1  0.074000  0.934700  0.504030  1.0  -0.0045
  C  C105  1  0.008600  0.957200  0.457560  1.0  -0.0802
  C  C106  1  0.116300  0.845500  0.352840  1.0  -0.1625
  C  C107  1  0.064600  0.977300  0.547690  1.0  0.0303
  C  C108  1  0.500700  0.442770  0.365950  1.0  -0.0471
  C  C109  1  0.007600  0.909500  0.412510  1.0  0.0468
  C  C110  1  0.506500  0.507270  0.393490  1.0  0.0331
  C  C111  1  0.522300  0.573610  0.318180  1.0  -0.1529
  C  C112  1  0.513000  0.571910  0.368050  1.0  -0.0768
  C  C113  1  0.123400  0.890900  0.394330  1.0  -0.0758
  C  C114  1  0.613100  0.476730  0.480710  1.0  0.0219
  C  C115  1  0.524700  0.509250  0.292110  1.0  -0.0076
  C  C116  1  0.389900  0.529190  0.467520  1.0  -0.0132
  C  C117  1  0.150500  0.868500  0.510820  1.0  -0.2149
  C  C118  1  0.733600  0.456200  0.462890  1.0  -0.2079
  C  C119  1  0.201200  0.888700  0.599450  1.0  0.1758
  C  C120  1  0.275600  0.560300  0.435820  1.0  -0.1907
  C  C121  1  0.129200  0.950700  0.595300  1.0  -0.1643
  C  C122  1  0.215000  0.847600  0.555900  1.0  0.1724
  C  C123  1  0.968800  0.422100  0.428700  1.0  -0.0416
  C  C124  1  0.838700  0.428800  0.493280  1.0  0.2123
  C  C125  1  0.307900  0.743500  0.522800  1.0  -0.0195
  C  C126  1  0.167900  0.581700  0.454640  1.0  0.2592
  C  C127  1  0.241700  0.824100  0.333000  1.0  0.6416
  C  C128  1  0.065400  0.639400  0.379000  1.0  -0.0159
  C  C129  1  0.500500  0.373800  0.286740  1.0  0.7382
  C  C130  1  0.245200  0.895300  0.688120  1.0  -0.0334
  C  C131  1  0.113200  0.381770  0.111270  1.0  -0.0709
  C  C132  1  0.121400  0.337380  0.152980  1.0  -0.1907
  C  C133  1  0.005400  0.319190  0.170600  1.0  -0.0188
  C  C134  1  0.490100  0.943960  0.184470  1.0  -0.1423
  C  C135  1  0.252500  0.310400  0.178930  1.0  0.7195
  C  C136  1  0.498400  0.004930  0.051740  1.0  -0.0587
  C  C137  1  0.474300  0.145190  0.207720  1.0  0.6876
  C  C138  1  0.926000  0.434700  0.995970  1.0  -0.0047
  C  C139  1  0.991400  0.457200  0.042440  1.0  -0.0802
  C  C140  1  0.883700  0.345500  0.147160  1.0  -0.1618
  C  C141  1  0.935400  0.477300  0.952310  1.0  0.0304
  C  C142  1  0.499300  0.942770  0.134050  1.0  -0.0477
  C  C143  1  0.992400  0.409500  0.087490  1.0  0.0474
  C  C144  1  0.493500  0.007270  0.106510  1.0  0.0335
  C  C145  1  0.477700  0.073610  0.181820  1.0  -0.152
  C  C146  1  0.487000  0.071910  0.131950  1.0  -0.0763
  C  C147  1  0.876600  0.390900  0.105670  1.0  -0.0767
  C  C148  1  0.386900  0.976730  0.019290  1.0  0.0222
  C  C149  1  0.475300  0.009250  0.207890  1.0  -0.0084
  C  C150  1  0.610100  0.029190  0.032480  1.0  -0.0132
  C  C151  1  0.849500  0.368500  0.989180  1.0  -0.2159
  C  C152  1  0.266400  0.956200  0.037110  1.0  -0.2097
  C  C153  1  0.798800  0.388700  0.900550  1.0  0.1767
  C  C154  1  0.724400  0.060300  0.064180  1.0  -0.1908
  C  C155  1  0.870800  0.450700  0.904700  1.0  -0.1628
  C  C156  1  0.785000  0.347600  0.944100  1.0  0.1756
  C  C157  1  0.031200  0.922100  0.071300  1.0  -0.0418
  C  C158  1  0.161300  0.928800  0.006720  1.0  0.2116
  C  C159  1  0.692100  0.243500  0.977200  1.0  -0.0179
  C  C160  1  0.832100  0.081700  0.045360  1.0  0.2602
  C  C161  1  0.758300  0.324100  0.167000  1.0  0.6414
  C  C162  1  0.934600  0.139400  0.121000  1.0  -0.016
  C  C163  1  0.499500  0.873800  0.213260  1.0  0.7384
  C  C164  1  0.754800  0.395300  0.811880  1.0  -0.036
  C  C165  1  0.113200  0.118230  0.611270  1.0  -0.0703
  C  C166  1  0.121400  0.162620  0.652980  1.0  -0.1909
  C  C167  1  0.005400  0.180810  0.670600  1.0  -0.0188
  C  C168  1  0.490100  0.556040  0.684470  1.0  -0.1428
  C  C169  1  0.252500  0.189600  0.678930  1.0  0.7198
  C  C170  1  0.498400  0.495070  0.551740  1.0  -0.0587
  C  C171  1  0.474300  0.354810  0.707720  1.0  0.687
  C  C172  1  0.926000  0.065300  0.495970  1.0  -0.0046
  C  C173  1  0.991400  0.042800  0.542440  1.0  -0.0807
  C  C174  1  0.883700  0.154500  0.647160  1.0  -0.1619
  C  C175  1  0.935400  0.022700  0.452310  1.0  0.0309
  C  C176  1  0.499300  0.557230  0.634050  1.0  -0.0478
  C  C177  1  0.992400  0.090500  0.587490  1.0  0.0476
  C  C178  1  0.493500  0.492730  0.606510  1.0  0.0336
  C  C179  1  0.477700  0.426390  0.681820  1.0  -0.1524
  C  C180  1  0.487000  0.428090  0.631950  1.0  -0.0766
  C  C181  1  0.876600  0.109100  0.605670  1.0  -0.0761
  C  C182  1  0.386900  0.523270  0.519290  1.0  0.0218
  C  C183  1  0.475300  0.490750  0.707890  1.0  -0.0084
  C  C184  1  0.610100  0.470810  0.532480  1.0  -0.0132
  C  C185  1  0.849500  0.131500  0.489180  1.0  -0.2155
  C  C186  1  0.266400  0.543800  0.537110  1.0  -0.2117
  C  C187  1  0.798800  0.111300  0.400550  1.0  0.1776
  C  C188  1  0.724400  0.439700  0.564180  1.0  -0.191
  C  C189  1  0.870800  0.049300  0.404700  1.0  -0.1619
  C  C190  1  0.785000  0.152400  0.444100  1.0  0.1752
  C  C191  1  0.031200  0.577900  0.571300  1.0  -0.0425
  C  C192  1  0.161300  0.571200  0.506720  1.0  0.2123
  C  C193  1  0.692100  0.256500  0.477200  1.0  -0.0184
  C  C194  1  0.832100  0.418300  0.545360  1.0  0.2599
  C  C195  1  0.758300  0.175900  0.667000  1.0  0.6418
  C  C196  1  0.934600  0.360600  0.621000  1.0  -0.0159
  C  C197  1  0.499500  0.626200  0.713260  1.0  0.7391
  C  C198  1  0.754800  0.104700  0.311880  1.0  -0.0353
  C  C199  1  0.886800  0.618230  0.888730  1.0  -0.0683
  C  C200  1  0.878600  0.662620  0.847020  1.0  -0.1893
  C  C201  1  0.994600  0.680810  0.829400  1.0  -0.0178
  C  C202  1  0.509900  0.056040  0.815530  1.0  -0.1426
  C  C203  1  0.747500  0.689600  0.821070  1.0  0.7203
  C  C204  1  0.501600  0.995070  0.948260  1.0  -0.0587
  C  C205  1  0.525700  0.854810  0.792280  1.0  0.6872
  C  C206  1  0.074000  0.565300  0.004030  1.0  -0.0044
  C  C207  1  0.008600  0.542800  0.957560  1.0  -0.0805
  C  C208  1  0.116300  0.654500  0.852840  1.0  -0.1624
  C  C209  1  0.064600  0.522700  0.047690  1.0  0.0308
  C  C210  1  0.500700  0.057230  0.865950  1.0  -0.0481
  C  C211  1  0.007600  0.590500  0.912510  1.0  0.0471
  C  C212  1  0.506500  0.992730  0.893490  1.0  0.0332
  C  C213  1  0.522300  0.926390  0.818180  1.0  -0.1532
  C  C214  1  0.513000  0.928090  0.868050  1.0  -0.0761
  C  C215  1  0.123400  0.609100  0.894330  1.0  -0.0753
  C  C216  1  0.613100  0.023270  0.980710  1.0  0.0214
  C  C217  1  0.524700  0.990750  0.792110  1.0  -0.0077
  C  C218  1  0.389900  0.970810  0.967520  1.0  -0.0132
  C  C219  1  0.150500  0.631500  0.010820  1.0  -0.2144
  C  C220  1  0.733600  0.043800  0.962890  1.0  -0.2097
  C  C221  1  0.201200  0.611300  0.099450  1.0  0.1762
  C  C222  1  0.275600  0.939700  0.935820  1.0  -0.1904
  C  C223  1  0.129200  0.549300  0.095300  1.0  -0.1633
  C  C224  1  0.215000  0.652400  0.055900  1.0  0.1719
  C  C225  1  0.968800  0.077900  0.928700  1.0  -0.0401
  C  C226  1  0.838700  0.071200  0.993280  1.0  0.2128
  C  C227  1  0.307900  0.756500  0.022800  1.0  -0.0189
  C  C228  1  0.167900  0.918300  0.954640  1.0  0.2588
  C  C229  1  0.241700  0.675900  0.833000  1.0  0.6417
  C  C230  1  0.065400  0.860600  0.879000  1.0  -0.0157
  C  C231  1  0.500500  0.126200  0.786740  1.0  0.7389
  C  C232  1  0.245200  0.604700  0.188120  1.0  -0.0339
  O  O233  1  0.646800  0.829580  0.339330  1.0  -0.6005
  O  O234  1  0.483500  0.698710  0.313770  1.0  -0.6234
  O  O235  1  0.566400  0.646910  0.251190  1.0  -0.6341
  O  O236  1  0.746000  0.772770  0.283560  1.0  -0.648
  O  O237  1  0.292800  0.787130  0.565200  1.0  -0.2737
  O  O238  1  0.059900  0.615700  0.428830  1.0  -0.2706
  O  O239  1  0.956800  0.408300  0.480400  1.0  -0.2621
  O  O240  1  0.353300  0.845650  0.356130  1.0  -0.5773
  O  O241  1  0.235500  0.786690  0.294850  1.0  -0.585
  O  O242  1  0.551800  0.372420  0.248430  1.0  -0.6198
  O  O243  1  0.442300  0.323230  0.303570  1.0  -0.658
  O  O244  1  0.266300  0.860030  0.642790  1.0  -0.2647
  O  O245  1  0.353200  0.329580  0.160670  1.0  -0.6012
  O  O246  1  0.516500  0.198710  0.186230  1.0  -0.6234
  O  O247  1  0.433600  0.146910  0.248810  1.0  -0.6347
  O  O248  1  0.254000  0.272770  0.216440  1.0  -0.6501
  O  O249  1  0.707200  0.287130  0.934800  1.0  -0.2765
  O  O250  1  0.940100  0.115700  0.071170  1.0  -0.2721
  O  O251  1  0.043200  0.908300  0.019600  1.0  -0.2654
  O  O252  1  0.646700  0.345650  0.143870  1.0  -0.5773
  O  O253  1  0.764500  0.286690  0.205150  1.0  -0.5856
  O  O254  1  0.448200  0.872420  0.251570  1.0  -0.6187
  O  O255  1  0.557700  0.823230  0.196430  1.0  -0.6579
  O  O256  1  0.733700  0.360030  0.857210  1.0  -0.2643
  O  O257  1  0.353200  0.170420  0.660670  1.0  -0.6008
  O  O258  1  0.516500  0.301290  0.686230  1.0  -0.6231
  O  O259  1  0.433600  0.353090  0.748810  1.0  -0.6342
  O  O260  1  0.254000  0.227230  0.716440  1.0  -0.6506
  O  O261  1  0.707200  0.212870  0.434800  1.0  -0.2761
  O  O262  1  0.940100  0.384300  0.571170  1.0  -0.2717
  O  O263  1  0.043200  0.591700  0.519600  1.0  -0.2634
  O  O264  1  0.646700  0.154350  0.643870  1.0  -0.5754
  O  O265  1  0.764500  0.213310  0.705150  1.0  -0.5866
  O  O266  1  0.448200  0.627580  0.751570  1.0  -0.62
  O  O267  1  0.557700  0.676770  0.696430  1.0  -0.6576
  O  O268  1  0.733700  0.139970  0.357210  1.0  -0.2645
  O  O269  1  0.646800  0.670420  0.839330  1.0  -0.6002
  O  O270  1  0.483500  0.801290  0.813770  1.0  -0.6236
  O  O271  1  0.566400  0.853090  0.751190  1.0  -0.6337
  O  O272  1  0.746000  0.727230  0.783560  1.0  -0.6479
  O  O273  1  0.292800  0.712870  0.065200  1.0  -0.274
  O  O274  1  0.059900  0.884300  0.928830  1.0  -0.27
  O  O275  1  0.956800  0.091700  0.980400  1.0  -0.2609
  O  O276  1  0.353300  0.654350  0.856130  1.0  -0.5781
  O  O277  1  0.235500  0.713310  0.794850  1.0  -0.5853
  O  O278  1  0.551800  0.127580  0.748430  1.0  -0.6188
  O  O279  1  0.442300  0.176770  0.803570  1.0  -0.658
  O  O280  1  0.266300  0.639970  0.142790  1.0  -0.2658
