# generated using pymatgen
data_Cu4WC4(SeN)4
_symmetry_space_group_name_H-M   'P 1'
_cell_length_a   11.09000000
_cell_length_b   23.20600000
_cell_length_c   23.91000000
_cell_angle_alpha   90.00000000
_cell_angle_beta   90.00000000
_cell_angle_gamma   90.00000000
_symmetry_Int_Tables_number   1
_chemical_formula_structural   Cu4WC4(SeN)4
_chemical_formula_sum   'Cu32 W8 C32 Se32 N32'
_cell_volume   6153.34705140
_cell_formula_units_Z   8
loop_
 _symmetry_equiv_pos_site_id
 _symmetry_equiv_pos_as_xyz
  1  'x, y, z'
loop_
 _atom_site_type_symbol
 _atom_site_label
 _atom_site_symmetry_multiplicity
 _atom_site_fract_x
 _atom_site_fract_y
 _atom_site_fract_z
 _atom_site_occupancy
 _atom_site_charge
  Cu  Cu1  1  0.375000  0.875000  0.255790  1.0  0.3151
  Cu  Cu2  1  0.375000  0.375000  0.755790  1.0  0.3151
  Cu  Cu3  1  0.875000  0.875000  0.755790  1.0  0.3151
  Cu  Cu4  1  0.875000  0.375000  0.255790  1.0  0.3151
  Cu  Cu5  1  0.375000  0.875000  0.494210  1.0  0.3158
  Cu  Cu6  1  0.375000  0.375000  0.994210  1.0  0.3158
  Cu  Cu7  1  0.875000  0.875000  0.994210  1.0  0.3158
  Cu  Cu8  1  0.875000  0.375000  0.494210  1.0  0.3158
  Cu  Cu9  1  0.625000  0.125000  0.744210  1.0  0.3158
  Cu  Cu10  1  0.625000  0.625000  0.244210  1.0  0.3158
  Cu  Cu11  1  0.125000  0.125000  0.244210  1.0  0.3158
  Cu  Cu12  1  0.125000  0.625000  0.744210  1.0  0.3158
  Cu  Cu13  1  0.625000  0.125000  0.505790  1.0  0.3151
  Cu  Cu14  1  0.625000  0.625000  0.005790  1.0  0.3151
  Cu  Cu15  1  0.125000  0.125000  0.005790  1.0  0.3151
  Cu  Cu16  1  0.125000  0.625000  0.505790  1.0  0.3151
  Cu  Cu17  1  0.375000  0.000270  0.375000  1.0  0.3398
  Cu  Cu18  1  0.375000  0.500270  0.875000  1.0  0.3398
  Cu  Cu19  1  0.875000  0.000270  0.875000  1.0  0.3398
  Cu  Cu20  1  0.875000  0.500270  0.375000  1.0  0.3398
  Cu  Cu21  1  0.375000  0.749730  0.375000  1.0  0.3408
  Cu  Cu22  1  0.375000  0.249730  0.875000  1.0  0.3408
  Cu  Cu23  1  0.875000  0.749730  0.875000  1.0  0.3408
  Cu  Cu24  1  0.875000  0.249730  0.375000  1.0  0.3408
  Cu  Cu25  1  0.625000  0.999730  0.625000  1.0  0.3408
  Cu  Cu26  1  0.625000  0.499730  0.125000  1.0  0.3408
  Cu  Cu27  1  0.125000  0.999730  0.125000  1.0  0.3408
  Cu  Cu28  1  0.125000  0.499730  0.625000  1.0  0.3408
  Cu  Cu29  1  0.625000  0.250270  0.625000  1.0  0.3398
  Cu  Cu30  1  0.625000  0.750270  0.125000  1.0  0.3398
  Cu  Cu31  1  0.125000  0.250270  0.125000  1.0  0.3398
  Cu  Cu32  1  0.125000  0.750270  0.625000  1.0  0.3398
  W  W33  1  0.375000  0.875000  0.375000  1.0  0.4517
  W  W34  1  0.375000  0.375000  0.875000  1.0  0.4517
  W  W35  1  0.875000  0.875000  0.875000  1.0  0.4517
  W  W36  1  0.875000  0.375000  0.375000  1.0  0.4517
  W  W37  1  0.625000  0.125000  0.625000  1.0  0.4517
  W  W38  1  0.625000  0.625000  0.125000  1.0  0.4517
  W  W39  1  0.125000  0.125000  0.125000  1.0  0.4517
  W  W40  1  0.125000  0.625000  0.625000  1.0  0.4517
  C  C41  1  0.277900  0.044900  0.323000  1.0  0.047
  C  C42  1  0.277900  0.544900  0.823000  1.0  0.047
  C  C43  1  0.777900  0.044900  0.823000  1.0  0.047
  C  C44  1  0.777900  0.544900  0.323000  1.0  0.047
  C  C45  1  0.472100  0.705100  0.323000  1.0  0.0478
  C  C46  1  0.472100  0.205100  0.823000  1.0  0.0478
  C  C47  1  0.972100  0.705100  0.823000  1.0  0.0478
  C  C48  1  0.972100  0.205100  0.323000  1.0  0.0478
  C  C49  1  0.472100  0.044900  0.427000  1.0  0.0482
  C  C50  1  0.472100  0.544900  0.927000  1.0  0.0482
  C  C51  1  0.972100  0.044900  0.927000  1.0  0.0482
  C  C52  1  0.972100  0.544900  0.427000  1.0  0.0482
  C  C53  1  0.277900  0.705100  0.427000  1.0  0.046
  C  C54  1  0.277900  0.205100  0.927000  1.0  0.046
  C  C55  1  0.777900  0.705100  0.927000  1.0  0.046
  C  C56  1  0.777900  0.205100  0.427000  1.0  0.046
  C  C57  1  0.722100  0.955100  0.677000  1.0  0.0472
  C  C58  1  0.722100  0.455100  0.177000  1.0  0.0472
  C  C59  1  0.222100  0.955100  0.177000  1.0  0.0472
  C  C60  1  0.222100  0.455100  0.677000  1.0  0.0472
  C  C61  1  0.527900  0.294900  0.677000  1.0  0.0464
  C  C62  1  0.527900  0.794900  0.177000  1.0  0.0464
  C  C63  1  0.027900  0.294900  0.177000  1.0  0.0464
  C  C64  1  0.027900  0.794900  0.677000  1.0  0.0464
  C  C65  1  0.527900  0.955100  0.573000  1.0  0.0464
  C  C66  1  0.527900  0.455100  0.073000  1.0  0.0464
  C  C67  1  0.027900  0.955100  0.073000  1.0  0.0464
  C  C68  1  0.027900  0.455100  0.573000  1.0  0.0464
  C  C69  1  0.722100  0.294900  0.573000  1.0  0.0481
  C  C70  1  0.722100  0.794900  0.073000  1.0  0.0481
  C  C71  1  0.222100  0.294900  0.073000  1.0  0.0481
  C  C72  1  0.222100  0.794900  0.573000  1.0  0.0481
  Se  Se73  1  0.252260  0.933020  0.431140  1.0  -0.1125
  Se  Se74  1  0.252260  0.433020  0.931140  1.0  -0.1125
  Se  Se75  1  0.752260  0.933020  0.931140  1.0  -0.1125
  Se  Se76  1  0.752260  0.433020  0.431140  1.0  -0.1125
  Se  Se77  1  0.497740  0.816980  0.431140  1.0  -0.1144
  Se  Se78  1  0.497740  0.316980  0.931140  1.0  -0.1144
  Se  Se79  1  0.997740  0.816980  0.931140  1.0  -0.1144
  Se  Se80  1  0.997740  0.316980  0.431140  1.0  -0.1144
  Se  Se81  1  0.497740  0.933020  0.318860  1.0  -0.1147
  Se  Se82  1  0.497740  0.433020  0.818860  1.0  -0.1147
  Se  Se83  1  0.997740  0.933020  0.818860  1.0  -0.1147
  Se  Se84  1  0.997740  0.433020  0.318860  1.0  -0.1147
  Se  Se85  1  0.252260  0.816980  0.318860  1.0  -0.113
  Se  Se86  1  0.252260  0.316980  0.818860  1.0  -0.113
  Se  Se87  1  0.752260  0.816980  0.818860  1.0  -0.113
  Se  Se88  1  0.752260  0.316980  0.318860  1.0  -0.113
  Se  Se89  1  0.747740  0.066980  0.568860  1.0  -0.1147
  Se  Se90  1  0.747740  0.566980  0.068860  1.0  -0.1147
  Se  Se91  1  0.247740  0.066980  0.068860  1.0  -0.1147
  Se  Se92  1  0.247740  0.566980  0.568860  1.0  -0.1147
  Se  Se93  1  0.502260  0.183020  0.568860  1.0  -0.1127
  Se  Se94  1  0.502260  0.683020  0.068860  1.0  -0.1127
  Se  Se95  1  0.002260  0.183020  0.068860  1.0  -0.1127
  Se  Se96  1  0.002260  0.683020  0.568860  1.0  -0.1127
  Se  Se97  1  0.502260  0.066980  0.681140  1.0  -0.1128
  Se  Se98  1  0.502260  0.566980  0.181140  1.0  -0.1128
  Se  Se99  1  0.002260  0.066980  0.181140  1.0  -0.1128
  Se  Se100  1  0.002260  0.566980  0.681140  1.0  -0.1128
  Se  Se101  1  0.747740  0.183020  0.681140  1.0  -0.1144
  Se  Se102  1  0.747740  0.683020  0.181140  1.0  -0.1144
  Se  Se103  1  0.247740  0.183020  0.181140  1.0  -0.1144
  Se  Se104  1  0.247740  0.683020  0.681140  1.0  -0.1144
  N  N105  1  0.225900  0.074000  0.291900  1.0  -0.3739
  N  N106  1  0.225900  0.574000  0.791900  1.0  -0.3739
  N  N107  1  0.725900  0.074000  0.791900  1.0  -0.3739
  N  N108  1  0.725900  0.574000  0.291900  1.0  -0.3739
  N  N109  1  0.524100  0.676000  0.291900  1.0  -0.3747
  N  N110  1  0.524100  0.176000  0.791900  1.0  -0.3747
  N  N111  1  0.024100  0.676000  0.791900  1.0  -0.3747
  N  N112  1  0.024100  0.176000  0.291900  1.0  -0.3747
  N  N113  1  0.524100  0.074000  0.458100  1.0  -0.3748
  N  N114  1  0.524100  0.574000  0.958100  1.0  -0.3748
  N  N115  1  0.024100  0.074000  0.958100  1.0  -0.3748
  N  N116  1  0.024100  0.574000  0.458100  1.0  -0.3748
  N  N117  1  0.225900  0.676000  0.458100  1.0  -0.3735
  N  N118  1  0.225900  0.176000  0.958100  1.0  -0.3735
  N  N119  1  0.725900  0.676000  0.958100  1.0  -0.3735
  N  N120  1  0.725900  0.176000  0.458100  1.0  -0.3735
  N  N121  1  0.774100  0.926000  0.708100  1.0  -0.3745
  N  N122  1  0.774100  0.426000  0.208100  1.0  -0.3745
  N  N123  1  0.274100  0.926000  0.208100  1.0  -0.3745
  N  N124  1  0.274100  0.426000  0.708100  1.0  -0.3745
  N  N125  1  0.475900  0.324000  0.708100  1.0  -0.374
  N  N126  1  0.475900  0.824000  0.208100  1.0  -0.374
  N  N127  1  0.975900  0.324000  0.208100  1.0  -0.374
  N  N128  1  0.975900  0.824000  0.708100  1.0  -0.374
  N  N129  1  0.475900  0.926000  0.541900  1.0  -0.3736
  N  N130  1  0.475900  0.426000  0.041900  1.0  -0.3736
  N  N131  1  0.975900  0.926000  0.041900  1.0  -0.3736
  N  N132  1  0.975900  0.426000  0.541900  1.0  -0.3736
  N  N133  1  0.774100  0.324000  0.541900  1.0  -0.3753
  N  N134  1  0.774100  0.824000  0.041900  1.0  -0.3753
  N  N135  1  0.274100  0.324000  0.041900  1.0  -0.3753
  N  N136  1  0.274100  0.824000  0.541900  1.0  -0.3753
