# generated using pymatgen
data_CoPO4
_symmetry_space_group_name_H-M   'P 1'
_cell_length_a   10.17240000
_cell_length_b   10.17240000
_cell_length_c   9.60600000
_cell_angle_alpha   90.00000000
_cell_angle_beta   90.00000000
_cell_angle_gamma   90.00000000
_symmetry_Int_Tables_number   1
_chemical_formula_structural   CoPO4
_chemical_formula_sum   'Co8 P8 O32'
_cell_volume   994.00699523
_cell_formula_units_Z   8
loop_
 _symmetry_equiv_pos_site_id
 _symmetry_equiv_pos_as_xyz
  1  'x, y, z'
loop_
 _atom_site_type_symbol
 _atom_site_label
 _atom_site_symmetry_multiplicity
 _atom_site_fract_x
 _atom_site_fract_y
 _atom_site_fract_z
 _atom_site_occupancy
 _atom_site_charge
  Co  Co1  1  0.633200  0.366800  0.868400  1.0  1.1037
  Co  Co2  1  0.133200  0.866800  0.368400  1.0  1.1037
  Co  Co3  1  0.366800  0.633200  0.868400  1.0  1.1073
  Co  Co4  1  0.866800  0.133200  0.368400  1.0  1.1073
  Co  Co5  1  0.366800  0.366800  0.131600  1.0  1.1084
  Co  Co6  1  0.866800  0.866800  0.631600  1.0  1.1084
  Co  Co7  1  0.633200  0.633200  0.131600  1.0  1.1055
  Co  Co8  1  0.133200  0.133200  0.631600  1.0  1.1055
  P  P9  1  0.664600  0.335400  0.191800  1.0  1.7106
  P  P10  1  0.164600  0.835400  0.691800  1.0  1.7106
  P  P11  1  0.335400  0.664600  0.191800  1.0  1.7154
  P  P12  1  0.835400  0.164600  0.691800  1.0  1.7154
  P  P13  1  0.335400  0.335400  0.808200  1.0  1.7038
  P  P14  1  0.835400  0.835400  0.308200  1.0  1.7038
  P  P15  1  0.664600  0.664600  0.808200  1.0  1.7065
  P  P16  1  0.164600  0.164600  0.308200  1.0  1.7065
  O  O17  1  0.697000  0.480000  0.218400  1.0  -0.6913
  O  O18  1  0.197000  0.980000  0.718400  1.0  -0.691
  O  O19  1  0.303000  0.520000  0.218400  1.0  -0.6905
  O  O20  1  0.803000  0.020000  0.718400  1.0  -0.6905
  O  O21  1  0.480000  0.303000  0.781600  1.0  -0.689
  O  O22  1  0.980000  0.803000  0.281600  1.0  -0.689
  O  O23  1  0.520000  0.697000  0.781600  1.0  -0.6905
  O  O24  1  0.020000  0.197000  0.281600  1.0  -0.6902
  O  O25  1  0.303000  0.480000  0.781600  1.0  -0.6898
  O  O26  1  0.803000  0.980000  0.281600  1.0  -0.6898
  O  O27  1  0.697000  0.520000  0.781600  1.0  -0.6903
  O  O28  1  0.197000  0.020000  0.281600  1.0  -0.6902
  O  O29  1  0.520000  0.303000  0.218400  1.0  -0.6909
  O  O30  1  0.020000  0.803000  0.718400  1.0  -0.6909
  O  O31  1  0.480000  0.697000  0.218400  1.0  -0.6901
  O  O32  1  0.980000  0.197000  0.718400  1.0  -0.6896
  O  O33  1  0.700100  0.299900  0.038000  1.0  -0.71
  O  O34  1  0.741500  0.258500  0.286000  1.0  -0.7236
  O  O35  1  0.200100  0.799900  0.538000  1.0  -0.71
  O  O36  1  0.241500  0.758500  0.786000  1.0  -0.7236
  O  O37  1  0.299900  0.700100  0.038000  1.0  -0.7112
  O  O38  1  0.258500  0.741500  0.286000  1.0  -0.7247
  O  O39  1  0.799900  0.200100  0.538000  1.0  -0.7112
  O  O40  1  0.758500  0.241500  0.786000  1.0  -0.7247
  O  O41  1  0.299900  0.299900  0.962000  1.0  -0.7104
  O  O42  1  0.258500  0.258500  0.714000  1.0  -0.7247
  O  O43  1  0.799900  0.799900  0.462000  1.0  -0.7104
  O  O44  1  0.758500  0.758500  0.214000  1.0  -0.7247
  O  O45  1  0.700100  0.700100  0.962000  1.0  -0.7095
  O  O46  1  0.741500  0.741500  0.714000  1.0  -0.7253
  O  O47  1  0.200100  0.200100  0.462000  1.0  -0.7095
  O  O48  1  0.241500  0.241500  0.214000  1.0  -0.7253
