# generated using pymatgen
data_CdH12C18(N3O2)2
_symmetry_space_group_name_H-M   'P 1'
_cell_length_a   8.25400000
_cell_length_b   18.89600000
_cell_length_c   18.00600000
_cell_angle_alpha   90.00000000
_cell_angle_beta   90.00000000
_cell_angle_gamma   90.00000000
_symmetry_Int_Tables_number   1
_chemical_formula_structural   CdH12C18(N3O2)2
_chemical_formula_sum   'Cd4 H48 C72 N24 O16'
_cell_volume   2808.35231750
_cell_formula_units_Z   4
loop_
 _symmetry_equiv_pos_site_id
 _symmetry_equiv_pos_as_xyz
  1  'x, y, z'
loop_
 _atom_site_type_symbol
 _atom_site_label
 _atom_site_symmetry_multiplicity
 _atom_site_fract_x
 _atom_site_fract_y
 _atom_site_fract_z
 _atom_site_occupancy
 _atom_site_charge
  Cd  Cd1  1  0.512690  0.972730  0.906630  1.0  0.9707
  Cd  Cd2  1  0.487310  0.027270  0.406630  1.0  0.9723
  Cd  Cd3  1  0.487310  0.472730  0.906630  1.0  0.9715
  Cd  Cd4  1  0.512690  0.527270  0.406630  1.0  0.9728
  H  H5  1  0.351100  0.135900  0.915100  1.0  0.1018
  H  H6  1  0.816000  0.094600  0.891500  1.0  0.1015
  H  H7  1  0.998500  0.172000  0.965800  1.0  0.1055
  H  H8  1  0.215800  0.249400  0.963000  1.0  0.1038
  H  H9  1  0.933600  0.397800  0.868500  1.0  0.0878
  H  H10  1  0.715900  0.319900  0.870200  1.0  0.1104
  H  H11  1  0.582000  0.869900  0.747500  1.0  0.125
  H  H12  1  0.213700  0.996400  0.789300  1.0  0.0932
  H  H13  1  0.258000  0.961300  0.555600  1.0  0.117
  H  H14  1  0.042400  0.987400  0.476700  1.0  0.094
  H  H15  1  0.733900  0.976000  0.648700  1.0  0.0963
  H  H16  1  0.947600  0.950200  0.728700  1.0  0.1239
  H  H17  1  0.648900  0.864100  0.415100  1.0  0.1012
  H  H18  1  0.184000  0.905400  0.391500  1.0  0.1013
  H  H19  1  0.001500  0.828000  0.465800  1.0  0.105
  H  H20  1  0.784200  0.750600  0.463000  1.0  0.1035
  H  H21  1  0.066400  0.602200  0.368500  1.0  0.0879
  H  H22  1  0.284100  0.680100  0.370200  1.0  0.1107
  H  H23  1  0.418000  0.130100  0.247500  1.0  0.1246
  H  H24  1  0.786300  0.003600  0.289300  1.0  0.0932
  H  H25  1  0.742000  0.038700  0.055600  1.0  0.1166
  H  H26  1  0.957600  0.012600  0.976700  1.0  0.094
  H  H27  1  0.266100  0.024000  0.148700  1.0  0.0964
  H  H28  1  0.052400  0.049800  0.228700  1.0  0.124
  H  H29  1  0.648900  0.635900  0.915100  1.0  0.1016
  H  H30  1  0.184000  0.594600  0.891500  1.0  0.1014
  H  H31  1  0.001500  0.672000  0.965800  1.0  0.1054
  H  H32  1  0.784200  0.749400  0.963000  1.0  0.1035
  H  H33  1  0.066400  0.897800  0.868500  1.0  0.0876
  H  H34  1  0.284100  0.819900  0.870200  1.0  0.1107
  H  H35  1  0.418000  0.369900  0.747500  1.0  0.1254
  H  H36  1  0.786300  0.496400  0.789300  1.0  0.0946
  H  H37  1  0.742000  0.461300  0.555600  1.0  0.1167
  H  H38  1  0.957600  0.487400  0.476700  1.0  0.0941
  H  H39  1  0.266100  0.476000  0.648700  1.0  0.0962
  H  H40  1  0.052400  0.450200  0.728700  1.0  0.1237
  H  H41  1  0.351100  0.364100  0.415100  1.0  0.1015
  H  H42  1  0.816000  0.405400  0.391500  1.0  0.1015
  H  H43  1  0.998500  0.328000  0.465800  1.0  0.1052
  H  H44  1  0.215800  0.250600  0.463000  1.0  0.1037
  H  H45  1  0.933600  0.102200  0.368500  1.0  0.0883
  H  H46  1  0.715900  0.180100  0.370200  1.0  0.1104
  H  H47  1  0.582000  0.630100  0.247500  1.0  0.1242
  H  H48  1  0.213700  0.503600  0.289300  1.0  0.0942
  H  H49  1  0.258000  0.538700  0.055600  1.0  0.117
  H  H50  1  0.042400  0.512600  0.976700  1.0  0.0939
  H  H51  1  0.733900  0.524000  0.148700  1.0  0.0965
  H  H52  1  0.947600  0.549800  0.228700  1.0  0.1242
  C  C53  1  0.462700  0.141900  0.912100  1.0  0.1163
  C  C54  1  0.719100  0.118500  0.899400  1.0  0.1508
  C  C55  1  0.838500  0.237500  0.914200  1.0  0.1606
  C  C56  1  0.986800  0.216800  0.945100  1.0  -0.1817
  C  C57  1  0.115800  0.263600  0.944500  1.0  -0.0401
  C  C58  1  0.097500  0.331900  0.916300  1.0  -0.1393
  C  C59  1  0.946800  0.352500  0.887700  1.0  -0.0165
  C  C60  1  0.816700  0.305600  0.887800  1.0  -0.0913
  C  C61  1  0.237000  0.382800  0.911800  1.0  0.6606
  C  C62  1  0.485400  0.894700  0.742100  1.0  0.134
  C  C63  1  0.282600  0.964800  0.765500  1.0  0.1762
  C  C64  1  0.122000  0.952200  0.648900  1.0  0.1702
  C  C65  1  0.152900  0.963900  0.574100  1.0  -0.1159
  C  C66  1  0.023400  0.979700  0.526900  1.0  -0.0101
  C  C67  1  0.866000  0.983900  0.554500  1.0  -0.1291
  C  C68  1  0.838800  0.972900  0.630100  1.0  -0.0256
  C  C69  1  0.966100  0.957200  0.678300  1.0  -0.1866
  C  C70  1  0.727500  0.999800  0.502700  1.0  0.6533
  C  C71  1  0.537300  0.858100  0.412100  1.0  0.1182
  C  C72  1  0.280900  0.881500  0.399400  1.0  0.1516
  C  C73  1  0.161500  0.762500  0.414200  1.0  0.1606
  C  C74  1  0.013200  0.783200  0.445100  1.0  -0.1825
  C  C75  1  0.884200  0.736400  0.444500  1.0  -0.0395
  C  C76  1  0.902500  0.668100  0.416300  1.0  -0.1388
  C  C77  1  0.053200  0.647500  0.387700  1.0  -0.0167
  C  C78  1  0.183300  0.694400  0.387800  1.0  -0.0911
  C  C79  1  0.763000  0.617200  0.411800  1.0  0.6612
  C  C80  1  0.514600  0.105300  0.242100  1.0  0.1335
  C  C81  1  0.717400  0.035200  0.265500  1.0  0.176
  C  C82  1  0.878000  0.047800  0.148900  1.0  0.1703
  C  C83  1  0.847100  0.036100  0.074100  1.0  -0.1168
  C  C84  1  0.976600  0.020300  0.026900  1.0  -0.0094
  C  C85  1  0.134000  0.016100  0.054500  1.0  -0.1278
  C  C86  1  0.161200  0.027100  0.130100  1.0  -0.0248
  C  C87  1  0.033900  0.042800  0.178300  1.0  -0.1865
  C  C88  1  0.272500  0.000200  0.002700  1.0  0.6537
  C  C89  1  0.537300  0.641900  0.912100  1.0  0.1179
  C  C90  1  0.280900  0.618500  0.899400  1.0  0.1516
  C  C91  1  0.161500  0.737500  0.914200  1.0  0.1609
  C  C92  1  0.013200  0.716800  0.945100  1.0  -0.1823
  C  C93  1  0.884200  0.763600  0.944500  1.0  -0.0399
  C  C94  1  0.902500  0.831900  0.916300  1.0  -0.14
  C  C95  1  0.053200  0.852500  0.887700  1.0  -0.0164
  C  C96  1  0.183300  0.805600  0.887800  1.0  -0.0912
  C  C97  1  0.763000  0.882800  0.911800  1.0  0.661
  C  C98  1  0.514600  0.394700  0.742100  1.0  0.1322
  C  C99  1  0.717400  0.464800  0.765500  1.0  0.1765
  C  C100  1  0.878000  0.452200  0.648900  1.0  0.1703
  C  C101  1  0.847100  0.463900  0.574100  1.0  -0.1167
  C  C102  1  0.976600  0.479700  0.526900  1.0  -0.01
  C  C103  1  0.134000  0.483900  0.554500  1.0  -0.1272
  C  C104  1  0.161200  0.472900  0.630100  1.0  -0.0253
  C  C105  1  0.033900  0.457200  0.678300  1.0  -0.1863
  C  C106  1  0.272500  0.499800  0.502700  1.0  0.6541
  C  C107  1  0.462700  0.358100  0.412100  1.0  0.1169
  C  C108  1  0.719100  0.381500  0.399400  1.0  0.1509
  C  C109  1  0.838500  0.262500  0.414200  1.0  0.1603
  C  C110  1  0.986800  0.283200  0.445100  1.0  -0.1821
  C  C111  1  0.115800  0.236400  0.444500  1.0  -0.04
  C  C112  1  0.097500  0.168100  0.416300  1.0  -0.1387
  C  C113  1  0.946800  0.147500  0.387700  1.0  -0.0167
  C  C114  1  0.816700  0.194400  0.387800  1.0  -0.0913
  C  C115  1  0.237000  0.117200  0.411800  1.0  0.6606
  C  C116  1  0.485400  0.605300  0.242100  1.0  0.1349
  C  C117  1  0.282600  0.535200  0.265500  1.0  0.176
  C  C118  1  0.122000  0.547800  0.148900  1.0  0.1703
  C  C119  1  0.152900  0.536100  0.074100  1.0  -0.1163
  C  C120  1  0.023400  0.520300  0.026900  1.0  -0.0094
  C  C121  1  0.866000  0.516100  0.054500  1.0  -0.1297
  C  C122  1  0.838800  0.527100  0.130100  1.0  -0.0249
  C  C123  1  0.966100  0.542800  0.178300  1.0  -0.1868
  C  C124  1  0.727500  0.500200  0.002700  1.0  0.6532
  N  N125  1  0.575100  0.088900  0.899000  1.0  -0.3375
  N  N126  1  0.706800  0.188900  0.912800  1.0  0.0857
  N  N127  1  0.543900  0.205100  0.919800  1.0  -0.3193
  N  N128  1  0.418400  0.941200  0.794000  1.0  -0.3496
  N  N129  1  0.254900  0.937400  0.696800  1.0  0.0312
  N  N130  1  0.384600  0.892000  0.681900  1.0  -0.2698
  N  N131  1  0.424900  0.911100  0.399000  1.0  -0.3371
  N  N132  1  0.293200  0.811100  0.412800  1.0  0.0862
  N  N133  1  0.456100  0.794900  0.419800  1.0  -0.3197
  N  N134  1  0.581600  0.058800  0.294000  1.0  -0.3477
  N  N135  1  0.745100  0.062600  0.196800  1.0  0.0313
  N  N136  1  0.615400  0.108000  0.181900  1.0  -0.2699
  N  N137  1  0.424900  0.588900  0.899000  1.0  -0.3378
  N  N138  1  0.293200  0.688900  0.912800  1.0  0.086
  N  N139  1  0.456100  0.705100  0.919800  1.0  -0.3199
  N  N140  1  0.581600  0.441200  0.794000  1.0  -0.3483
  N  N141  1  0.745100  0.437400  0.696800  1.0  0.0313
  N  N142  1  0.615400  0.392000  0.681900  1.0  -0.2691
  N  N143  1  0.575100  0.411100  0.399000  1.0  -0.3363
  N  N144  1  0.706800  0.311100  0.412800  1.0  0.086
  N  N145  1  0.543900  0.294900  0.419800  1.0  -0.3194
  N  N146  1  0.418400  0.558800  0.294000  1.0  -0.3491
  N  N147  1  0.254900  0.562600  0.196800  1.0  0.0315
  N  N148  1  0.384600  0.608000  0.181900  1.0  -0.2708
  O  O149  1  0.373200  0.363900  0.938800  1.0  -0.5805
  O  O150  1  0.214800  0.442600  0.882300  1.0  -0.5947
  O  O151  1  0.758300  0.001600  0.433900  1.0  -0.5971
  O  O152  1  0.586800  0.011000  0.528000  1.0  -0.5881
  O  O153  1  0.626800  0.636100  0.438800  1.0  -0.5811
  O  O154  1  0.785200  0.557400  0.382300  1.0  -0.5961
  O  O155  1  0.241700  0.998400  0.933900  1.0  -0.5979
  O  O156  1  0.413200  0.989000  0.028000  1.0  -0.5877
  O  O157  1  0.626800  0.863900  0.938800  1.0  -0.5807
  O  O158  1  0.785200  0.942600  0.882300  1.0  -0.5963
  O  O159  1  0.241700  0.501600  0.433900  1.0  -0.5979
  O  O160  1  0.413200  0.511000  0.528000  1.0  -0.587
  O  O161  1  0.373200  0.136100  0.438800  1.0  -0.5807
  O  O162  1  0.214800  0.057400  0.382300  1.0  -0.5974
  O  O163  1  0.758300  0.498400  0.933900  1.0  -0.5972
  O  O164  1  0.586800  0.489000  0.028000  1.0  -0.5885
