# generated using pymatgen
data_ZnH8(C4O)4
_symmetry_space_group_name_H-M   'P 1'
_cell_length_a   7.30530000
_cell_length_b   17.50560000
_cell_length_c   12.67310000
_cell_angle_alpha   90.00000000
_cell_angle_beta   90.00000000
_cell_angle_gamma   90.00000000
_symmetry_Int_Tables_number   1
_chemical_formula_structural   ZnH8(C4O)4
_chemical_formula_sum   'Zn4 H32 C64 O16'
_cell_volume   1620.68240749
_cell_formula_units_Z   4
loop_
 _symmetry_equiv_pos_site_id
 _symmetry_equiv_pos_as_xyz
  1  'x, y, z'
loop_
 _atom_site_type_symbol
 _atom_site_label
 _atom_site_symmetry_multiplicity
 _atom_site_fract_x
 _atom_site_fract_y
 _atom_site_fract_z
 _atom_site_occupancy
 _atom_site_charge
  Zn  Zn1  1  0.243800  0.250000  0.746420  1.0  1.1035
  Zn  Zn2  1  0.256200  0.750000  0.246420  1.0  1.103
  Zn  Zn3  1  0.756200  0.750000  0.253580  1.0  1.1027
  Zn  Zn4  1  0.743800  0.250000  0.753580  1.0  1.1033
  H  H5  1  0.617000  0.184100  0.447800  1.0  0.1008
  H  H6  1  0.715400  0.186900  0.277100  1.0  0.0917
  H  H7  1  0.728000  0.074900  0.176600  1.0  0.1019
  H  H8  1  0.634800  0.961700  0.247300  1.0  0.0957
  H  H9  1  0.883000  0.815900  0.947800  1.0  0.1012
  H  H10  1  0.784600  0.813100  0.777100  1.0  0.0914
  H  H11  1  0.772000  0.925100  0.676600  1.0  0.1019
  H  H12  1  0.865200  0.038300  0.747300  1.0  0.0962
  H  H13  1  0.383000  0.684100  0.552200  1.0  0.101
  H  H14  1  0.284600  0.686900  0.722900  1.0  0.0919
  H  H15  1  0.272000  0.574900  0.823400  1.0  0.102
  H  H16  1  0.365200  0.461700  0.752700  1.0  0.096
  H  H17  1  0.117000  0.315900  0.052200  1.0  0.1006
  H  H18  1  0.215400  0.313100  0.222900  1.0  0.0925
  H  H19  1  0.228000  0.425100  0.323400  1.0  0.1021
  H  H20  1  0.134800  0.538300  0.252700  1.0  0.096
  H  H21  1  0.383000  0.815900  0.552200  1.0  0.1009
  H  H22  1  0.284600  0.813100  0.722900  1.0  0.0921
  H  H23  1  0.272000  0.925100  0.823400  1.0  0.1022
  H  H24  1  0.365200  0.038300  0.752700  1.0  0.0961
  H  H25  1  0.117000  0.184100  0.052200  1.0  0.1011
  H  H26  1  0.215400  0.186900  0.222900  1.0  0.0923
  H  H27  1  0.228000  0.074900  0.323400  1.0  0.1018
  H  H28  1  0.134800  0.961700  0.252700  1.0  0.096
  H  H29  1  0.617000  0.315900  0.447800  1.0  0.1008
  H  H30  1  0.715400  0.313100  0.277100  1.0  0.0916
  H  H31  1  0.728000  0.425100  0.176600  1.0  0.102
  H  H32  1  0.634800  0.538300  0.247300  1.0  0.0962
  H  H33  1  0.883000  0.684100  0.947800  1.0  0.1007
  H  H34  1  0.784600  0.686900  0.777100  1.0  0.0914
  H  H35  1  0.772000  0.574900  0.676600  1.0  0.1019
  H  H36  1  0.865200  0.461700  0.747300  1.0  0.0958
  C  C37  1  0.497500  0.067270  0.561300  1.0  -0.0416
  C  C38  1  0.559100  0.069630  0.456700  1.0  0.0201
  C  C39  1  0.618200  0.139110  0.407900  1.0  -0.12
  C  C40  1  0.677800  0.140400  0.307300  1.0  -0.0835
  C  C41  1  0.685100  0.073000  0.246700  1.0  -0.0978
  C  C42  1  0.630300  0.006280  0.288500  1.0  -0.1059
  C  C43  1  0.564700  0.001200  0.394400  1.0  -0.0065
  C  C44  1  0.497800  0.138900  0.628700  1.0  0.7339
  C  C45  1  0.002500  0.932730  0.061300  1.0  -0.0418
  C  C46  1  0.940900  0.930370  0.956700  1.0  0.0206
  C  C47  1  0.881800  0.860890  0.907900  1.0  -0.1191
  C  C48  1  0.822200  0.859600  0.807300  1.0  -0.0847
  C  C49  1  0.814900  0.927000  0.746700  1.0  -0.098
  C  C50  1  0.869700  0.993720  0.788500  1.0  -0.1059
  C  C51  1  0.935300  0.998800  0.894400  1.0  -0.0064
  C  C52  1  0.002200  0.861100  0.128700  1.0  0.7343
  C  C53  1  0.502500  0.567270  0.438700  1.0  -0.0413
  C  C54  1  0.440900  0.569630  0.543300  1.0  0.0203
  C  C55  1  0.381800  0.639110  0.592100  1.0  -0.1199
  C  C56  1  0.322200  0.640400  0.692700  1.0  -0.0839
  C  C57  1  0.314900  0.573000  0.753300  1.0  -0.0973
  C  C58  1  0.369700  0.506280  0.711500  1.0  -0.1044
  C  C59  1  0.435300  0.501200  0.605600  1.0  -0.0061
  C  C60  1  0.502200  0.638900  0.371300  1.0  0.7335
  C  C61  1  0.997500  0.432730  0.938700  1.0  -0.0414
  C  C62  1  0.059100  0.430370  0.043300  1.0  0.0203
  C  C63  1  0.118200  0.360890  0.092100  1.0  -0.1193
  C  C64  1  0.177800  0.359600  0.192700  1.0  -0.0836
  C  C65  1  0.185100  0.427000  0.253300  1.0  -0.0969
  C  C66  1  0.130300  0.493720  0.211500  1.0  -0.1057
  C  C67  1  0.064700  0.498800  0.105600  1.0  -0.0062
  C  C68  1  0.997800  0.361100  0.871300  1.0  0.7338
  C  C69  1  0.502500  0.932730  0.438700  1.0  -0.0414
  C  C70  1  0.440900  0.930370  0.543300  1.0  0.0206
  C  C71  1  0.381800  0.860890  0.592100  1.0  -0.1194
  C  C72  1  0.322200  0.859600  0.692700  1.0  -0.0841
  C  C73  1  0.314900  0.927000  0.753300  1.0  -0.0969
  C  C74  1  0.369700  0.993720  0.711500  1.0  -0.1048
  C  C75  1  0.435300  0.998800  0.605600  1.0  -0.0059
  C  C76  1  0.502200  0.861100  0.371300  1.0  0.7335
  C  C77  1  0.997500  0.067270  0.938700  1.0  -0.0412
  C  C78  1  0.059100  0.069630  0.043300  1.0  0.0201
  C  C79  1  0.118200  0.139110  0.092100  1.0  -0.1201
  C  C80  1  0.177800  0.140400  0.192700  1.0  -0.0837
  C  C81  1  0.185100  0.073000  0.253300  1.0  -0.0973
  C  C82  1  0.130300  0.006280  0.211500  1.0  -0.1044
  C  C83  1  0.064700  0.001200  0.105600  1.0  -0.0062
  C  C84  1  0.997800  0.138900  0.871300  1.0  0.7336
  C  C85  1  0.497500  0.432730  0.561300  1.0  -0.0417
  C  C86  1  0.559100  0.430370  0.456700  1.0  0.0204
  C  C87  1  0.618200  0.360890  0.407900  1.0  -0.119
  C  C88  1  0.677800  0.359600  0.307300  1.0  -0.0841
  C  C89  1  0.685100  0.427000  0.246700  1.0  -0.0982
  C  C90  1  0.630300  0.493720  0.288500  1.0  -0.1055
  C  C91  1  0.564700  0.498800  0.394400  1.0  -0.0065
  C  C92  1  0.497800  0.361100  0.628700  1.0  0.7346
  C  C93  1  0.002500  0.567270  0.061300  1.0  -0.0417
  C  C94  1  0.940900  0.569630  0.956700  1.0  0.0202
  C  C95  1  0.881800  0.639110  0.907900  1.0  -0.1201
  C  C96  1  0.822200  0.640400  0.807300  1.0  -0.0838
  C  C97  1  0.814900  0.573000  0.746700  1.0  -0.0977
  C  C98  1  0.869700  0.506280  0.788500  1.0  -0.1048
  C  C99  1  0.935300  0.501200  0.894400  1.0  -0.0066
  C  C100  1  0.002200  0.638900  0.128700  1.0  0.7337
  O  O101  1  0.344000  0.166310  0.649930  1.0  -0.6289
  O  O102  1  0.650800  0.163820  0.656470  1.0  -0.6145
  O  O103  1  0.156000  0.833690  0.149930  1.0  -0.6278
  O  O104  1  0.849200  0.836180  0.156470  1.0  -0.614
  O  O105  1  0.656000  0.666310  0.350070  1.0  -0.628
  O  O106  1  0.349200  0.663820  0.343530  1.0  -0.6142
  O  O107  1  0.844000  0.333690  0.850070  1.0  -0.6285
  O  O108  1  0.150800  0.336180  0.843530  1.0  -0.6136
  O  O109  1  0.656000  0.833690  0.350070  1.0  -0.6276
  O  O110  1  0.349200  0.836180  0.343530  1.0  -0.6138
  O  O111  1  0.844000  0.166310  0.850070  1.0  -0.629
  O  O112  1  0.150800  0.163820  0.843530  1.0  -0.6141
  O  O113  1  0.344000  0.333690  0.649930  1.0  -0.6287
  O  O114  1  0.650800  0.336180  0.656470  1.0  -0.614
  O  O115  1  0.156000  0.666310  0.149930  1.0  -0.6285
  O  O116  1  0.849200  0.663820  0.156470  1.0  -0.6144
