# generated using pymatgen
data_Cu(C5N2)2
_symmetry_space_group_name_H-M   'P 1'
_cell_length_a   21.61700000
_cell_length_b   11.12700000
_cell_length_c   16.29400000
_cell_angle_alpha   90.00000000
_cell_angle_beta   111.61000000
_cell_angle_gamma   90.00000000
_symmetry_Int_Tables_number   1
_chemical_formula_structural   Cu(C5N2)2
_chemical_formula_sum   'Cu8 C80 N32'
_cell_volume   3643.75998962
_cell_formula_units_Z   8
loop_
 _symmetry_equiv_pos_site_id
 _symmetry_equiv_pos_as_xyz
  1  'x, y, z'
loop_
 _atom_site_type_symbol
 _atom_site_label
 _atom_site_symmetry_multiplicity
 _atom_site_fract_x
 _atom_site_fract_y
 _atom_site_fract_z
 _atom_site_occupancy
 _atom_site_charge
  Cu  Cu1  1  0.975360  0.006370  0.677890  1.0  0.5027
  Cu  Cu2  1  0.520290  0.007920  0.696660  1.0  0.4902
  Cu  Cu3  1  0.024640  0.506370  0.822110  1.0  0.5035
  Cu  Cu4  1  0.479710  0.507920  0.803340  1.0  0.4901
  Cu  Cu5  1  0.024640  0.993630  0.322110  1.0  0.5032
  Cu  Cu6  1  0.479710  0.992080  0.303340  1.0  0.4899
  Cu  Cu7  1  0.975360  0.493630  0.177890  1.0  0.5024
  Cu  Cu8  1  0.520290  0.492080  0.196660  1.0  0.4903
  C  C9  1  0.823700  0.334700  0.743700  1.0  -0.0249
  C  C10  1  0.820500  0.207600  0.737500  1.0  -0.057
  C  C11  1  0.762100  0.149100  0.721800  1.0  -0.0134
  C  C12  1  0.705100  0.214800  0.710700  1.0  -0.0444
  C  C13  1  0.707000  0.340600  0.713100  1.0  -0.052
  C  C14  1  0.766400  0.399900  0.732100  1.0  0.0291
  C  C15  1  0.886700  0.394100  0.762600  1.0  0.3622
  C  C16  1  0.879500  0.141500  0.741400  1.0  0.3236
  C  C17  1  0.643100  0.151900  0.694400  1.0  0.3222
  C  C18  1  0.646000  0.406500  0.699800  1.0  0.3626
  C  C19  1  0.791800  0.798000  0.509800  1.0  -0.0065
  C  C20  1  0.791500  0.673100  0.505900  1.0  -0.0376
  C  C21  1  0.734000  0.612700  0.458500  1.0  0.0243
  C  C22  1  0.676200  0.676100  0.416400  1.0  -0.0655
  C  C23  1  0.675700  0.801800  0.422500  1.0  -0.008
  C  C24  1  0.733800  0.862900  0.469200  1.0  -0.0188
  C  C25  1  0.853800  0.860800  0.557600  1.0  0.2848
  C  C26  1  0.851800  0.606700  0.551100  1.0  0.3665
  C  C27  1  0.616700  0.614700  0.360000  1.0  0.3386
  C  C28  1  0.614600  0.868500  0.379400  1.0  0.3247
  C  C29  1  0.176300  0.834700  0.756300  1.0  -0.025
  C  C30  1  0.179500  0.707600  0.762500  1.0  -0.0569
  C  C31  1  0.237900  0.649100  0.778200  1.0  -0.0131
  C  C32  1  0.294900  0.714800  0.789300  1.0  -0.0437
  C  C33  1  0.293000  0.840600  0.786900  1.0  -0.0516
  C  C34  1  0.233600  0.899900  0.767900  1.0  0.029
  C  C35  1  0.113300  0.894100  0.737400  1.0  0.3613
  C  C36  1  0.120500  0.641500  0.758600  1.0  0.3229
  C  C37  1  0.356900  0.651900  0.805600  1.0  0.3229
  C  C38  1  0.354000  0.906500  0.800200  1.0  0.3638
  C  C39  1  0.208200  0.298000  0.990200  1.0  -0.0057
  C  C40  1  0.208500  0.173100  0.994100  1.0  -0.0376
  C  C41  1  0.266000  0.112700  0.041500  1.0  0.0242
  C  C42  1  0.323800  0.176100  0.083600  1.0  -0.064
  C  C43  1  0.324300  0.301800  0.077500  1.0  -0.0071
  C  C44  1  0.266200  0.362900  0.030800  1.0  -0.019
  C  C45  1  0.146200  0.360800  0.942400  1.0  0.2831
  C  C46  1  0.148200  0.106700  0.948900  1.0  0.3666
  C  C47  1  0.383300  0.114700  0.140000  1.0  0.3401
  C  C48  1  0.385400  0.368500  0.120600  1.0  0.3272
  C  C49  1  0.176300  0.665300  0.256300  1.0  -0.0256
  C  C50  1  0.179500  0.792400  0.262500  1.0  -0.0568
  C  C51  1  0.237900  0.850900  0.278200  1.0  -0.0155
  C  C52  1  0.294900  0.785200  0.289300  1.0  -0.0445
  C  C53  1  0.293000  0.659400  0.286900  1.0  -0.0521
  C  C54  1  0.233600  0.600100  0.267900  1.0  0.0279
  C  C55  1  0.113300  0.605900  0.237400  1.0  0.3624
  C  C56  1  0.120500  0.858500  0.258600  1.0  0.322
  C  C57  1  0.356900  0.848100  0.305600  1.0  0.3227
  C  C58  1  0.354000  0.593500  0.300200  1.0  0.3638
  C  C59  1  0.208200  0.202000  0.490200  1.0  -0.0064
  C  C60  1  0.208500  0.326900  0.494100  1.0  -0.0364
  C  C61  1  0.266000  0.387300  0.541500  1.0  0.025
  C  C62  1  0.323800  0.323900  0.583600  1.0  -0.0631
  C  C63  1  0.324300  0.198200  0.577500  1.0  -0.0079
  C  C64  1  0.266200  0.137100  0.530800  1.0  -0.0171
  C  C65  1  0.146200  0.139200  0.442400  1.0  0.2838
  C  C66  1  0.148200  0.393300  0.448900  1.0  0.3657
  C  C67  1  0.383300  0.385300  0.640000  1.0  0.3399
  C  C68  1  0.385400  0.131500  0.620600  1.0  0.3283
  C  C69  1  0.823700  0.165300  0.243700  1.0  -0.0248
  C  C70  1  0.820500  0.292400  0.237500  1.0  -0.0568
  C  C71  1  0.762100  0.350900  0.221800  1.0  -0.0156
  C  C72  1  0.705100  0.285200  0.210700  1.0  -0.0445
  C  C73  1  0.707000  0.159400  0.213100  1.0  -0.0527
  C  C74  1  0.766400  0.100100  0.232100  1.0  0.0282
  C  C75  1  0.886700  0.105900  0.262600  1.0  0.3631
  C  C76  1  0.879500  0.358500  0.241400  1.0  0.3231
  C  C77  1  0.643100  0.348100  0.194400  1.0  0.3225
  C  C78  1  0.646000  0.093500  0.199800  1.0  0.3633
  C  C79  1  0.791800  0.702000  0.009800  1.0  -0.0065
  C  C80  1  0.791500  0.826900  0.005900  1.0  -0.0366
  C  C81  1  0.734000  0.887300  0.958500  1.0  0.0252
  C  C82  1  0.676200  0.823900  0.916400  1.0  -0.0639
  C  C83  1  0.675700  0.698200  0.922500  1.0  -0.0093
  C  C84  1  0.733800  0.637100  0.969200  1.0  -0.0171
  C  C85  1  0.853800  0.639200  0.057600  1.0  0.2852
  C  C86  1  0.851800  0.893300  0.051100  1.0  0.3655
  C  C87  1  0.616700  0.885300  0.860000  1.0  0.3383
  C  C88  1  0.614600  0.631500  0.879400  1.0  0.326
  N  N89  1  0.937700  0.435900  0.780700  1.0  -0.4025
  N  N90  1  0.924700  0.089300  0.740100  1.0  -0.4532
  N  N91  1  0.594100  0.103600  0.682800  1.0  -0.4395
  N  N92  1  0.596900  0.455100  0.685900  1.0  -0.3902
  N  N93  1  0.902000  0.908500  0.594200  1.0  -0.463
  N  N94  1  0.901100  0.556900  0.585400  1.0  -0.3803
  N  N95  1  0.571000  0.567500  0.311800  1.0  -0.4843
  N  N96  1  0.565500  0.916700  0.347500  1.0  -0.3935
  N  N97  1  0.062300  0.935900  0.719300  1.0  -0.4026
  N  N98  1  0.075300  0.589300  0.759900  1.0  -0.4532
  N  N99  1  0.405900  0.603600  0.817200  1.0  -0.4454
  N  N100  1  0.403100  0.955100  0.814100  1.0  -0.3921
  N  N101  1  0.098000  0.408500  0.905800  1.0  -0.4618
  N  N102  1  0.098900  0.056900  0.914600  1.0  -0.3789
  N  N103  1  0.429000  0.067500  0.188200  1.0  -0.4845
  N  N104  1  0.434500  0.416700  0.152500  1.0  -0.3913
  N  N105  1  0.062300  0.564100  0.219300  1.0  -0.4024
  N  N106  1  0.075300  0.910700  0.259900  1.0  -0.453
  N  N107  1  0.405900  0.896400  0.317200  1.0  -0.4409
  N  N108  1  0.403100  0.544900  0.314100  1.0  -0.3903
  N  N109  1  0.098000  0.091500  0.405800  1.0  -0.4615
  N  N110  1  0.098900  0.443100  0.414600  1.0  -0.38
  N  N111  1  0.429000  0.432500  0.688200  1.0  -0.4852
  N  N112  1  0.434500  0.083300  0.652500  1.0  -0.3901
  N  N113  1  0.937700  0.064100  0.280700  1.0  -0.4008
  N  N114  1  0.924700  0.410700  0.240100  1.0  -0.4533
  N  N115  1  0.594100  0.396400  0.182800  1.0  -0.4448
  N  N116  1  0.596900  0.044900  0.185900  1.0  -0.3895
  N  N117  1  0.902000  0.591500  0.094200  1.0  -0.4627
  N  N118  1  0.901100  0.943100  0.085400  1.0  -0.3815
  N  N119  1  0.571000  0.932500  0.811800  1.0  -0.4844
  N  N120  1  0.565500  0.583300  0.847500  1.0  -0.3926
