# generated using pymatgen
data_CuPH2C10(N2F3)2
_symmetry_space_group_name_H-M   'P 1'
_cell_length_a   8.15700000
_cell_length_b   10.17060000
_cell_length_c   11.61300000
_cell_angle_alpha   90.00000000
_cell_angle_beta   90.00000000
_cell_angle_gamma   113.64100000
_symmetry_Int_Tables_number   1
_chemical_formula_structural   CuPH2C10(N2F3)2
_chemical_formula_sum   'Cu2 P2 H4 C20 N8 F12'
_cell_volume   882.57774732
_cell_formula_units_Z   2
loop_
 _symmetry_equiv_pos_site_id
 _symmetry_equiv_pos_as_xyz
  1  'x, y, z'
loop_
 _atom_site_type_symbol
 _atom_site_label
 _atom_site_symmetry_multiplicity
 _atom_site_fract_x
 _atom_site_fract_y
 _atom_site_fract_z
 _atom_site_occupancy
 _atom_site_charge
  Cu  Cu1  1  0.500000  0.000000  0.250000  1.0  0.647
  Cu  Cu2  1  0.500000  0.000000  0.750000  1.0  0.647
  P  P3  1  0.500000  0.500000  0.000000  1.0  1.6732
  P  P4  1  0.000000  0.500000  0.500000  1.0  1.6732
  H  H5  1  0.000000  0.500000  0.798300  1.0  0.129
  H  H6  1  0.500000  0.500000  0.701700  1.0  0.1295
  H  H7  1  0.000000  0.500000  0.201700  1.0  0.1295
  H  H8  1  0.500000  0.500000  0.298300  1.0  0.1291
  C  C9  1  0.791100  0.247000  0.880600  1.0  0.3722
  C  C10  1  0.900500  0.376400  0.940300  1.0  0.0036
  C  C11  1  0.208900  0.753000  0.880600  1.0  0.3723
  C  C12  1  0.099500  0.623600  0.940300  1.0  0.0048
  C  C13  1  0.455900  0.247000  0.619400  1.0  0.3724
  C  C14  1  0.475900  0.376400  0.559700  1.0  0.0046
  C  C15  1  0.544100  0.753000  0.619400  1.0  0.3715
  C  C16  1  0.524100  0.623600  0.559700  1.0  0.0052
  C  C17  1  0.208900  0.753000  0.119400  1.0  0.3719
  C  C18  1  0.099500  0.623600  0.059700  1.0  0.0037
  C  C19  1  0.791100  0.247000  0.119400  1.0  0.3724
  C  C20  1  0.900500  0.376400  0.059700  1.0  0.0023
  C  C21  1  0.544100  0.753000  0.380600  1.0  0.3722
  C  C22  1  0.524100  0.623600  0.440300  1.0  0.0027
  C  C23  1  0.455900  0.247000  0.380600  1.0  0.3721
  C  C24  1  0.475900  0.376400  0.440300  1.0  0.0024
  C  C25  1  0.000000  0.500000  0.878400  1.0  -0.0189
  C  C26  1  0.500000  0.500000  0.621600  1.0  -0.0195
  C  C27  1  0.000000  0.500000  0.121600  1.0  -0.0195
  C  C28  1  0.500000  0.500000  0.378400  1.0  -0.0189
  N  N29  1  0.697600  0.142400  0.838400  1.0  -0.3816
  N  N30  1  0.302400  0.857600  0.838400  1.0  -0.3797
  N  N31  1  0.444800  0.142400  0.661600  1.0  -0.3803
  N  N32  1  0.555200  0.857600  0.661600  1.0  -0.381
  N  N33  1  0.302400  0.857600  0.161600  1.0  -0.3867
  N  N34  1  0.697600  0.142400  0.161600  1.0  -0.3834
  N  N35  1  0.555200  0.857600  0.338400  1.0  -0.3872
  N  N36  1  0.444800  0.142400  0.338400  1.0  -0.3815
  F  F37  1  0.543600  0.408800  0.904400  1.0  -0.4161
  F  F38  1  0.456400  0.591200  0.904400  1.0  -0.4167
  F  F39  1  0.456400  0.591200  0.095600  1.0  -0.417
  F  F40  1  0.543600  0.408800  0.095600  1.0  -0.4162
  F  F41  1  0.702300  0.603600  0.000000  1.0  -0.4248
  F  F42  1  0.297700  0.396400  0.000000  1.0  -0.4221
  F  F43  1  0.865200  0.408800  0.595600  1.0  -0.4166
  F  F44  1  0.134800  0.591200  0.595600  1.0  -0.4168
  F  F45  1  0.134800  0.591200  0.404400  1.0  -0.4165
  F  F46  1  0.865200  0.408800  0.404400  1.0  -0.4163
  F  F47  1  0.901300  0.603600  0.500000  1.0  -0.4233
  F  F48  1  0.098700  0.396400  0.500000  1.0  -0.4231
