# generated using pymatgen
data_Zn3P4(HO3)4
_symmetry_space_group_name_H-M   'P 1'
_cell_length_a   10.09450000
_cell_length_b   14.73560000
_cell_length_c   14.49640000
_cell_angle_alpha   90.00000000
_cell_angle_beta   97.49700000
_cell_angle_gamma   90.00000000
_symmetry_Int_Tables_number   1
_chemical_formula_structural   Zn3P4(HO3)4
_chemical_formula_sum   'Zn12 P16 H16 O48'
_cell_volume   2137.88509624
_cell_formula_units_Z   4
loop_
 _symmetry_equiv_pos_site_id
 _symmetry_equiv_pos_as_xyz
  1  'x, y, z'
loop_
 _atom_site_type_symbol
 _atom_site_label
 _atom_site_symmetry_multiplicity
 _atom_site_fract_x
 _atom_site_fract_y
 _atom_site_fract_z
 _atom_site_occupancy
 _atom_site_charge
  Zn  Zn1  1  0.958890  0.098780  0.899010  1.0  1.1364
  Zn  Zn2  1  0.966960  0.260450  0.264710  1.0  1.0986
  Zn  Zn3  1  0.517100  0.128960  0.439780  1.0  1.1086
  Zn  Zn4  1  0.541110  0.598780  0.600990  1.0  1.1376
  Zn  Zn5  1  0.533040  0.760450  0.235290  1.0  1.0973
  Zn  Zn6  1  0.982900  0.628960  0.060220  1.0  1.1082
  Zn  Zn7  1  0.041110  0.901220  0.100990  1.0  1.1373
  Zn  Zn8  1  0.033040  0.739550  0.735290  1.0  1.0973
  Zn  Zn9  1  0.482900  0.871040  0.560220  1.0  1.1083
  Zn  Zn10  1  0.458890  0.401220  0.399010  1.0  1.139
  Zn  Zn11  1  0.466960  0.239550  0.764710  1.0  1.0986
  Zn  Zn12  1  0.017100  0.371040  0.939780  1.0  1.1084
  P  P13  1  0.001500  0.107130  0.117620  1.0  1.505
  P  P14  1  0.685680  0.276050  0.340780  1.0  1.538
  P  P15  1  0.270810  0.233100  0.341780  1.0  1.6044
  P  P16  1  0.557030  0.073720  0.643700  1.0  1.5937
  P  P17  1  0.498500  0.607130  0.382380  1.0  1.5053
  P  P18  1  0.814320  0.776050  0.159220  1.0  1.5369
  P  P19  1  0.229190  0.733100  0.158220  1.0  1.6038
  P  P20  1  0.942970  0.573720  0.856300  1.0  1.5932
  P  P21  1  0.998500  0.892870  0.882380  1.0  1.5046
  P  P22  1  0.314320  0.723950  0.659220  1.0  1.5368
  P  P23  1  0.729190  0.766900  0.658220  1.0  1.6037
  P  P24  1  0.442970  0.926280  0.356300  1.0  1.5908
  P  P25  1  0.501500  0.392870  0.617620  1.0  1.5043
  P  P26  1  0.185680  0.223950  0.840780  1.0  1.538
  P  P27  1  0.770810  0.266900  0.841780  1.0  1.6042
  P  P28  1  0.057030  0.426280  0.143700  1.0  1.5912
  H  H29  1  0.130900  0.170100  0.105800  1.0  -0.0324
  H  H30  1  0.645200  0.284100  0.254100  1.0  -0.0549
  H  H31  1  0.276600  0.188200  0.265100  1.0  -0.096
  H  H32  1  0.688000  0.040300  0.698400  1.0  -0.0548
  H  H33  1  0.369100  0.670100  0.394200  1.0  -0.0327
  H  H34  1  0.854800  0.784100  0.245900  1.0  -0.0534
  H  H35  1  0.223400  0.688200  0.234900  1.0  -0.0978
  H  H36  1  0.812000  0.540300  0.801600  1.0  -0.0545
  H  H37  1  0.869100  0.829900  0.894200  1.0  -0.0351
  H  H38  1  0.354800  0.715900  0.745900  1.0  -0.0538
  H  H39  1  0.723400  0.811800  0.734900  1.0  -0.0967
  H  H40  1  0.312000  0.959700  0.301600  1.0  -0.0536
  H  H41  1  0.630900  0.329900  0.605800  1.0  -0.0352
  H  H42  1  0.145200  0.215900  0.754100  1.0  -0.0554
  H  H43  1  0.776600  0.311800  0.765100  1.0  -0.0946
  H  H44  1  0.188000  0.459700  0.198400  1.0  -0.0538
  O  O45  1  0.636300  0.353800  0.394900  1.0  -0.7727
  O  O46  1  0.058100  0.019700  0.159400  1.0  -0.7322
  O  O47  1  0.331500  0.322800  0.323500  1.0  -0.7772
  O  O48  1  0.915900  0.093500  0.025300  1.0  -0.7676
  O  O49  1  0.923600  0.158000  0.184400  1.0  -0.7558
  O  O50  1  0.480900  0.122700  0.710200  1.0  -0.8347
  O  O51  1  0.835300  0.278100  0.347600  1.0  -0.7534
  O  O52  1  0.124300  0.238500  0.352800  1.0  -0.7632
  O  O53  1  0.342700  0.182500  0.423700  1.0  -0.7898
  O  O54  1  0.476900  0.992800  0.606000  1.0  -0.8372
  O  O55  1  0.635900  0.184800  0.364100  1.0  -0.8102
  O  O56  1  0.598400  0.133500  0.568300  1.0  -0.748
  O  O57  1  0.863700  0.853800  0.105100  1.0  -0.7733
  O  O58  1  0.441900  0.519700  0.340600  1.0  -0.7337
  O  O59  1  0.168500  0.822800  0.176500  1.0  -0.7765
  O  O60  1  0.584100  0.593500  0.474700  1.0  -0.7695
  O  O61  1  0.576400  0.658000  0.315600  1.0  -0.7569
  O  O62  1  0.019100  0.622700  0.789800  1.0  -0.8362
  O  O63  1  0.664700  0.778100  0.152400  1.0  -0.7539
  O  O64  1  0.375700  0.738500  0.147200  1.0  -0.7628
  O  O65  1  0.157300  0.682500  0.076300  1.0  -0.7885
  O  O66  1  0.023100  0.492800  0.894000  1.0  -0.8374
  O  O67  1  0.864100  0.684800  0.135900  1.0  -0.809
  O  O68  1  0.901600  0.633500  0.931700  1.0  -0.7474
  O  O69  1  0.363700  0.646200  0.605100  1.0  -0.7728
  O  O70  1  0.941900  0.980300  0.840600  1.0  -0.7334
  O  O71  1  0.668500  0.677200  0.676500  1.0  -0.7775
  O  O72  1  0.084100  0.906500  0.974700  1.0  -0.7692
  O  O73  1  0.076400  0.842000  0.815600  1.0  -0.7572
  O  O74  1  0.519100  0.877300  0.289800  1.0  -0.8371
  O  O75  1  0.164700  0.721900  0.652400  1.0  -0.7537
  O  O76  1  0.875700  0.761500  0.647200  1.0  -0.7628
  O  O77  1  0.657300  0.817500  0.576300  1.0  -0.7879
  O  O78  1  0.523100  0.007200  0.394000  1.0  -0.8369
  O  O79  1  0.364100  0.815200  0.635900  1.0  -0.808
  O  O80  1  0.401600  0.866500  0.431700  1.0  -0.7477
  O  O81  1  0.136300  0.146200  0.894900  1.0  -0.7723
  O  O82  1  0.558100  0.480300  0.659400  1.0  -0.7312
  O  O83  1  0.831500  0.177200  0.823500  1.0  -0.7786
  O  O84  1  0.415900  0.406500  0.525300  1.0  -0.7674
  O  O85  1  0.423600  0.342000  0.684400  1.0  -0.7565
  O  O86  1  0.980900  0.377300  0.210200  1.0  -0.8361
  O  O87  1  0.335300  0.221900  0.847600  1.0  -0.753
  O  O88  1  0.624300  0.261500  0.852800  1.0  -0.7636
  O  O89  1  0.842700  0.317500  0.923700  1.0  -0.79
  O  O90  1  0.976900  0.507200  0.106000  1.0  -0.8373
  O  O91  1  0.135900  0.315200  0.864100  1.0  -0.8089
  O  O92  1  0.098400  0.366500  0.068300  1.0  -0.7487
