# generated using pymatgen
data_V5P4H4(CO8)2
_symmetry_space_group_name_H-M   'P 1'
_cell_length_a   13.51200000
_cell_length_b   16.19400000
_cell_length_c   4.67700000
_cell_angle_alpha   90.00000000
_cell_angle_beta   90.00000000
_cell_angle_gamma   90.00000000
_symmetry_Int_Tables_number   1
_chemical_formula_structural   V5P4H4(CO8)2
_chemical_formula_sum   'V10 P8 H8 C4 O32'
_cell_volume   1023.38993506
_cell_formula_units_Z   2
loop_
 _symmetry_equiv_pos_site_id
 _symmetry_equiv_pos_as_xyz
  1  'x, y, z'
loop_
 _atom_site_type_symbol
 _atom_site_label
 _atom_site_symmetry_multiplicity
 _atom_site_fract_x
 _atom_site_fract_y
 _atom_site_fract_z
 _atom_site_occupancy
 _atom_site_charge
  V  V1  1  0.511100  0.485100  0.978400  1.0  1.0019
  V  V2  1  0.988900  0.014900  0.978400  1.0  1.0114
  V  V3  1  0.488900  0.985100  0.021600  1.0  0.9997
  V  V4  1  0.011100  0.514900  0.021600  1.0  1.0077
  V  V5  1  0.488900  0.514900  0.021600  1.0  1.0082
  V  V6  1  0.011100  0.985100  0.021600  1.0  0.9994
  V  V7  1  0.511100  0.014900  0.978400  1.0  1.0112
  V  V8  1  0.988900  0.485100  0.978400  1.0  1.0027
  V  V9  1  0.750000  0.750000  0.285300  1.0  1.3673
  V  V10  1  0.250000  0.250000  0.714700  1.0  1.361
  P  P11  1  0.636200  0.580300  0.493000  1.0  1.6578
  P  P12  1  0.863800  0.919700  0.493000  1.0  1.6577
  P  P13  1  0.363800  0.080300  0.507000  1.0  1.6574
  P  P14  1  0.136200  0.419700  0.507000  1.0  1.658
  P  P15  1  0.363800  0.419700  0.507000  1.0  1.6579
  P  P16  1  0.136200  0.080300  0.507000  1.0  1.6577
  P  P17  1  0.636200  0.919700  0.493000  1.0  1.6579
  P  P18  1  0.863800  0.580300  0.493000  1.0  1.6574
  H  H19  1  0.750000  0.492600  0.693000  1.0  0.2927
  H  H20  1  0.750000  0.576700  0.856300  1.0  0.2793
  H  H21  1  0.750000  0.007400  0.693000  1.0  0.289
  H  H22  1  0.750000  0.923300  0.856300  1.0  0.2801
  H  H23  1  0.250000  0.992600  0.307000  1.0  0.2929
  H  H24  1  0.250000  0.076700  0.143700  1.0  0.2795
  H  H25  1  0.250000  0.507400  0.307000  1.0  0.2892
  H  H26  1  0.250000  0.423300  0.143700  1.0  0.2795
  C  C27  1  0.750000  0.552000  0.667400  1.0  -0.8549
  C  C28  1  0.750000  0.948000  0.667400  1.0  -0.855
  C  C29  1  0.250000  0.052000  0.332600  1.0  -0.8501
  C  C30  1  0.250000  0.448000  0.332600  1.0  -0.851
  O  O31  1  0.553500  0.579000  0.716000  1.0  -0.8484
  O  O32  1  0.617500  0.519300  0.251800  1.0  -0.7382
  O  O33  1  0.646800  0.669200  0.385300  1.0  -0.7712
  O  O34  1  0.429800  0.592200  0.175100  1.0  -0.5068
  O  O35  1  0.946500  0.921000  0.716000  1.0  -0.8482
  O  O36  1  0.882500  0.980700  0.251800  1.0  -0.7387
  O  O37  1  0.853200  0.830800  0.385300  1.0  -0.769
  O  O38  1  0.070200  0.907800  0.175100  1.0  -0.5052
  O  O39  1  0.446500  0.079000  0.284000  1.0  -0.8473
  O  O40  1  0.382500  0.019300  0.748200  1.0  -0.7382
  O  O41  1  0.353200  0.169200  0.614700  1.0  -0.7712
  O  O42  1  0.570200  0.092200  0.824900  1.0  -0.5051
  O  O43  1  0.053500  0.421000  0.284000  1.0  -0.8479
  O  O44  1  0.117500  0.480700  0.748200  1.0  -0.7385
  O  O45  1  0.146800  0.330800  0.614700  1.0  -0.7718
  O  O46  1  0.929800  0.407800  0.824900  1.0  -0.5056
  O  O47  1  0.446500  0.421000  0.284000  1.0  -0.8478
  O  O48  1  0.382500  0.480700  0.748200  1.0  -0.7387
  O  O49  1  0.353200  0.330800  0.614700  1.0  -0.7718
  O  O50  1  0.570200  0.407800  0.824900  1.0  -0.505
  O  O51  1  0.053500  0.079000  0.284000  1.0  -0.8481
  O  O52  1  0.117500  0.019300  0.748200  1.0  -0.7382
  O  O53  1  0.146800  0.169200  0.614700  1.0  -0.7717
  O  O54  1  0.929800  0.092200  0.824900  1.0  -0.506
  O  O55  1  0.553500  0.921000  0.716000  1.0  -0.8482
  O  O56  1  0.617500  0.980700  0.251800  1.0  -0.7383
  O  O57  1  0.646800  0.830800  0.385300  1.0  -0.771
  O  O58  1  0.429800  0.907800  0.175100  1.0  -0.5057
  O  O59  1  0.946500  0.579000  0.716000  1.0  -0.8476
  O  O60  1  0.882500  0.519300  0.251800  1.0  -0.7383
  O  O61  1  0.853200  0.669200  0.385300  1.0  -0.7705
  O  O62  1  0.070200  0.592200  0.175100  1.0  -0.5054
