# generated using pymatgen
data_Fe4(PO4)7
_symmetry_space_group_name_H-M   'P 1'
_cell_length_a   13.49500000
_cell_length_b   13.49500000
_cell_length_c   9.39600000
_cell_angle_alpha   90.00000000
_cell_angle_beta   90.00000000
_cell_angle_gamma   120.00000000
_symmetry_Int_Tables_number   1
_chemical_formula_structural   Fe4(PO4)7
_chemical_formula_sum   'Fe8 P14 O56'
_cell_volume   1481.90177282
_cell_formula_units_Z   2
loop_
 _symmetry_equiv_pos_site_id
 _symmetry_equiv_pos_as_xyz
  1  'x, y, z'
loop_
 _atom_site_type_symbol
 _atom_site_label
 _atom_site_symmetry_multiplicity
 _atom_site_fract_x
 _atom_site_fract_y
 _atom_site_fract_z
 _atom_site_occupancy
 _atom_site_charge
  Fe  Fe1  1  0.146000  0.440800  0.901800  1.0  1.4123
  Fe  Fe2  1  0.559200  0.705200  0.901800  1.0  1.4109
  Fe  Fe3  1  0.294800  0.854000  0.901800  1.0  1.4138
  Fe  Fe4  1  0.854000  0.559200  0.098200  1.0  1.4146
  Fe  Fe5  1  0.440800  0.294800  0.098200  1.0  1.415
  Fe  Fe6  1  0.705200  0.146000  0.098200  1.0  1.4119
  Fe  Fe7  1  0.000000  0.000000  0.500000  1.0  1.0726
  Fe  Fe8  1  0.000000  0.000000  0.000000  1.0  0.6674
  P  P9  1  0.367700  0.495500  0.096000  1.0  1.7868
  P  P10  1  0.036200  0.189800  0.741000  1.0  1.8662
  P  P11  1  0.504500  0.872200  0.096000  1.0  1.7865
  P  P12  1  0.810200  0.846400  0.741000  1.0  1.8634
  P  P13  1  0.127800  0.632300  0.096000  1.0  1.7867
  P  P14  1  0.153600  0.963800  0.741000  1.0  1.8639
  P  P15  1  0.632300  0.504500  0.904000  1.0  1.7861
  P  P16  1  0.963800  0.810200  0.259000  1.0  1.8652
  P  P17  1  0.495500  0.127800  0.904000  1.0  1.7861
  P  P18  1  0.189800  0.153600  0.259000  1.0  1.8641
  P  P19  1  0.872200  0.367700  0.904000  1.0  1.7864
  P  P20  1  0.846400  0.036200  0.259000  1.0  1.8616
  P  P21  1  0.333333  0.666667  0.714000  1.0  1.8945
  P  P22  1  0.666667  0.333333  0.286000  1.0  1.893
  O  O23  1  0.285000  0.436700  0.971600  1.0  -0.668
  O  O24  1  0.164200  0.544000  0.062500  1.0  -0.685
  O  O25  1  0.994900  0.423000  0.856500  1.0  -0.7312
  O  O26  1  0.117500  0.317800  0.758000  1.0  -0.664
  O  O27  1  0.022700  0.131000  0.884900  1.0  -0.7399
  O  O28  1  0.074500  0.142100  0.622100  1.0  -0.6722
  O  O29  1  0.227200  0.557000  0.766400  1.0  -0.7774
  O  O30  1  0.299000  0.501900  0.228300  1.0  -0.4157
  O  O31  1  0.915000  0.171800  0.699200  1.0  -0.4746
  O  O32  1  0.563300  0.848300  0.971600  1.0  -0.667
  O  O33  1  0.456000  0.620200  0.062500  1.0  -0.6834
  O  O34  1  0.577000  0.571900  0.856500  1.0  -0.7309
  O  O35  1  0.682200  0.799700  0.758000  1.0  -0.6653
  O  O36  1  0.869000  0.891700  0.884900  1.0  -0.7399
  O  O37  1  0.857900  0.932400  0.622100  1.0  -0.6706
  O  O38  1  0.443000  0.670200  0.766400  1.0  -0.7761
  O  O39  1  0.498100  0.797100  0.228300  1.0  -0.4154
  O  O40  1  0.828200  0.743200  0.699200  1.0  -0.4801
  O  O41  1  0.151700  0.715000  0.971600  1.0  -0.6662
  O  O42  1  0.379800  0.835800  0.062500  1.0  -0.683
  O  O43  1  0.428100  0.005100  0.856500  1.0  -0.7317
  O  O44  1  0.200300  0.882500  0.758000  1.0  -0.6651
  O  O45  1  0.108300  0.977300  0.884900  1.0  -0.7385
  O  O46  1  0.067600  0.925500  0.622100  1.0  -0.6713
  O  O47  1  0.329800  0.772800  0.766400  1.0  -0.7793
  O  O48  1  0.202900  0.701000  0.228300  1.0  -0.4154
  O  O49  1  0.256800  0.085000  0.699200  1.0  -0.4785
  O  O50  1  0.715000  0.563300  0.028400  1.0  -0.6673
  O  O51  1  0.835800  0.456000  0.937500  1.0  -0.6853
  O  O52  1  0.005100  0.577000  0.143500  1.0  -0.7333
  O  O53  1  0.882500  0.682200  0.242000  1.0  -0.6646
  O  O54  1  0.977300  0.869000  0.115100  1.0  -0.7395
  O  O55  1  0.925500  0.857900  0.377900  1.0  -0.6732
  O  O56  1  0.772800  0.443000  0.233600  1.0  -0.7761
  O  O57  1  0.701000  0.498100  0.771700  1.0  -0.4167
  O  O58  1  0.085000  0.828200  0.300800  1.0  -0.4771
  O  O59  1  0.436700  0.151700  0.028400  1.0  -0.6663
  O  O60  1  0.544000  0.379800  0.937500  1.0  -0.6848
  O  O61  1  0.423000  0.428100  0.143500  1.0  -0.7304
  O  O62  1  0.317800  0.200300  0.242000  1.0  -0.6641
  O  O63  1  0.131000  0.108300  0.115100  1.0  -0.739
  O  O64  1  0.142100  0.067600  0.377900  1.0  -0.6698
  O  O65  1  0.557000  0.329800  0.233600  1.0  -0.7766
  O  O66  1  0.501900  0.202900  0.771700  1.0  -0.4172
  O  O67  1  0.171800  0.256800  0.300800  1.0  -0.4785
  O  O68  1  0.848300  0.285000  0.028400  1.0  -0.6668
  O  O69  1  0.620200  0.164200  0.937500  1.0  -0.684
  O  O70  1  0.571900  0.994900  0.143500  1.0  -0.7313
  O  O71  1  0.799700  0.117500  0.242000  1.0  -0.6656
  O  O72  1  0.891700  0.022700  0.115100  1.0  -0.7396
  O  O73  1  0.932400  0.074500  0.377900  1.0  -0.6729
  O  O74  1  0.670200  0.227200  0.233600  1.0  -0.7777
  O  O75  1  0.797100  0.299000  0.771700  1.0  -0.4182
  O  O76  1  0.743200  0.915000  0.300800  1.0  -0.4803
  O  O77  1  0.333333  0.666667  0.551000  1.0  -0.4617
  O  O78  1  0.666667  0.333333  0.449000  1.0  -0.4653
