# generated using pymatgen
data_V2P2H4C2O7
_symmetry_space_group_name_H-M   'P 1'
_cell_length_a   7.45480000
_cell_length_b   8.08250000
_cell_length_c   10.16600000
_cell_angle_alpha   75.24400000
_cell_angle_beta   68.88300000
_cell_angle_gamma   80.64800000
_symmetry_Int_Tables_number   1
_chemical_formula_structural   V2P2H4C2O7
_chemical_formula_sum   'V4 P4 H8 C4 O14'
_cell_volume   550.85573814
_cell_formula_units_Z   2
loop_
 _symmetry_equiv_pos_site_id
 _symmetry_equiv_pos_as_xyz
  1  'x, y, z'
loop_
 _atom_site_type_symbol
 _atom_site_label
 _atom_site_symmetry_multiplicity
 _atom_site_fract_x
 _atom_site_fract_y
 _atom_site_fract_z
 _atom_site_occupancy
 _atom_site_charge
  V  V1  1  0.244000  0.516400  0.262200  1.0  1.3969
  V  V2  1  0.307400  0.761400  0.747200  1.0  1.1788
  V  V3  1  0.756000  0.483600  0.737800  1.0  1.3948
  V  V4  1  0.692600  0.238600  0.252800  1.0  1.1656
  P  P5  1  0.532300  0.735200  0.968800  1.0  1.5982
  P  P6  1  0.902700  0.277000  0.478500  1.0  1.6219
  P  P7  1  0.467700  0.264800  0.031200  1.0  1.5972
  P  P8  1  0.097300  0.723000  0.521500  1.0  1.6237
  H  H9  1  0.691400  0.939400  0.996600  1.0  0.1598
  H  H10  1  0.632800  0.007100  0.857600  1.0  0.1544
  H  H11  1  0.798300  0.004400  0.575300  1.0  0.1499
  H  H12  1  0.949900  0.030700  0.640800  1.0  0.1508
  H  H13  1  0.308600  0.060600  0.003400  1.0  0.1588
  H  H14  1  0.367200  0.992900  0.142400  1.0  0.155
  H  H15  1  0.201700  0.995600  0.424700  1.0  0.1453
  H  H16  1  0.050100  0.969300  0.359200  1.0  0.151
  C  C17  1  0.587900  0.947700  0.958000  1.0  -0.431
  C  C18  1  0.921600  0.049500  0.551900  1.0  -0.3956
  C  C19  1  0.412100  0.052300  0.042000  1.0  -0.4337
  C  C20  1  0.078400  0.950500  0.448100  1.0  -0.3941
  O  O21  1  0.478300  0.639200  0.126100  1.0  -0.7676
  O  O22  1  0.711300  0.651200  0.869000  1.0  -0.8078
  O  O23  1  0.099300  0.344800  0.434000  1.0  -0.7677
  O  O24  1  0.743400  0.358600  0.594600  1.0  -0.792
  O  O25  1  0.356300  0.759400  0.919400  1.0  -0.8276
  O  O26  1  0.840700  0.309700  0.344700  1.0  -0.8696
  O  O27  1  0.486600  0.341600  0.328500  1.0  -0.7426
  O  O28  1  0.521700  0.360800  0.873900  1.0  -0.7677
  O  O29  1  0.288700  0.348800  0.131000  1.0  -0.8068
  O  O30  1  0.900700  0.655200  0.566000  1.0  -0.7677
  O  O31  1  0.256600  0.641400  0.405400  1.0  -0.7907
  O  O32  1  0.643700  0.240600  0.080600  1.0  -0.8278
  O  O33  1  0.159300  0.690300  0.655300  1.0  -0.8683
  O  O34  1  0.513400  0.658400  0.671500  1.0  -0.7439
