# generated using pymatgen
data_Ag3H12C16(SN4)2
_symmetry_space_group_name_H-M   'P 1'
_cell_length_a   11.13500000
_cell_length_b   12.38000000
_cell_length_c   14.60700000
_cell_angle_alpha   84.66200000
_cell_angle_beta   89.53700000
_cell_angle_gamma   67.26100000
_symmetry_Int_Tables_number   1
_chemical_formula_structural   Ag3H12C16(SN4)2
_chemical_formula_sum   'Ag6 H24 C32 S4 N16'
_cell_volume   1848.18161102
_cell_formula_units_Z   2
loop_
 _symmetry_equiv_pos_site_id
 _symmetry_equiv_pos_as_xyz
  1  'x, y, z'
loop_
 _atom_site_type_symbol
 _atom_site_label
 _atom_site_symmetry_multiplicity
 _atom_site_fract_x
 _atom_site_fract_y
 _atom_site_fract_z
 _atom_site_occupancy
 _atom_site_charge
  Ag  Ag1  1  0.270920  0.518810  0.739960  1.0  0.1072
  Ag  Ag2  1  0.822230  0.903410  0.915850  1.0  0.2842
  Ag  Ag3  1  0.241090  0.092280  0.596210  1.0  0.282
  Ag  Ag4  1  0.729080  0.481190  0.260040  1.0  0.1053
  Ag  Ag5  1  0.177770  0.096590  0.084150  1.0  0.2821
  Ag  Ag6  1  0.758910  0.907720  0.403790  1.0  0.2814
  H  H7  1  0.143900  0.534200  0.528900  1.0  0.0495
  H  H8  1  0.980500  0.654300  0.429500  1.0  0.0673
  H  H9  1  0.841400  0.866400  0.618600  1.0  0.0275
  H  H10  1  0.141400  0.877200  0.658700  1.0  0.0483
  H  H11  1  0.046100  0.174100  0.767300  1.0  0.0519
  H  H12  1  0.929300  0.114700  0.875000  1.0  0.0722
  H  H13  1  0.670200  0.797500  0.772100  1.0  0.0504
  H  H14  1  0.498000  0.854600  0.668800  1.0  0.0747
  H  H15  1  0.557600  0.118200  0.839800  1.0  0.0578
  H  H16  1  0.269500  0.123800  0.881900  1.0  0.0435
  H  H17  1  0.170900  0.498300  0.945600  1.0  0.0668
  H  H18  1  0.136500  0.368000  0.050100  1.0  0.0557
  H  H19  1  0.856100  0.465800  0.471100  1.0  0.0491
  H  H20  1  0.019500  0.345700  0.570500  1.0  0.0672
  H  H21  1  0.158600  0.133600  0.381400  1.0  0.0272
  H  H22  1  0.858600  0.122800  0.341300  1.0  0.0489
  H  H23  1  0.953900  0.825900  0.232700  1.0  0.0526
  H  H24  1  0.070700  0.885300  0.125000  1.0  0.0725
  H  H25  1  0.329800  0.202500  0.227900  1.0  0.051
  H  H26  1  0.502000  0.145400  0.331200  1.0  0.0762
  H  H27  1  0.442400  0.881800  0.160200  1.0  0.0583
  H  H28  1  0.730500  0.876200  0.118100  1.0  0.0419
  H  H29  1  0.829100  0.501700  0.054400  1.0  0.0672
  H  H30  1  0.863500  0.632000  0.949900  1.0  0.0561
  C  C31  1  0.083400  0.603200  0.548600  1.0  0.0865
  C  C32  1  0.985000  0.675500  0.488400  1.0  0.0824
  C  C33  1  0.904300  0.799000  0.598400  1.0  0.152
  C  C34  1  0.002700  0.727400  0.658200  1.0  0.0551
  C  C35  1  0.023700  0.893700  0.764600  1.0  0.1385
  C  C36  1  0.096400  0.928000  0.701600  1.0  0.1181
  C  C37  1  0.041600  0.100900  0.765500  1.0  0.0996
  C  C38  1  0.970600  0.065700  0.830000  1.0  0.0698
  C  C39  1  0.612700  0.876000  0.765600  1.0  0.1093
  C  C40  1  0.508700  0.909800  0.703400  1.0  0.0604
  C  C41  1  0.442500  0.096300  0.745000  1.0  0.1155
  C  C42  1  0.547000  0.062600  0.805600  1.0  0.1104
  C  C43  1  0.249800  0.200200  0.896500  1.0  0.1072
  C  C44  1  0.274700  0.278700  0.834300  1.0  0.0858
  C  C45  1  0.193500  0.421200  0.931900  1.0  0.0878
  C  C46  1  0.171300  0.343100  0.994000  1.0  0.0944
  C  C47  1  0.916600  0.396800  0.451400  1.0  0.0866
  C  C48  1  0.015000  0.324500  0.511600  1.0  0.0827
  C  C49  1  0.095700  0.201000  0.401600  1.0  0.1511
  C  C50  1  0.997300  0.272600  0.341800  1.0  0.0527
  C  C51  1  0.976300  0.106300  0.235400  1.0  0.1389
  C  C52  1  0.903600  0.072000  0.298400  1.0  0.1192
  C  C53  1  0.958400  0.899100  0.234500  1.0  0.0999
  C  C54  1  0.029400  0.934300  0.170000  1.0  0.0709
  C  C55  1  0.387300  0.124000  0.234400  1.0  0.1082
  C  C56  1  0.491300  0.090200  0.296600  1.0  0.0579
  C  C57  1  0.557500  0.903700  0.255000  1.0  0.116
  C  C58  1  0.453000  0.937400  0.194400  1.0  0.1104
  C  C59  1  0.750200  0.799800  0.103500  1.0  0.1087
  C  C60  1  0.725300  0.721300  0.165700  1.0  0.0863
  C  C61  1  0.806500  0.578800  0.068100  1.0  0.0867
  C  C62  1  0.828700  0.656900  0.006000  1.0  0.0948
  S  S63  1  0.011570  0.754360  0.775450  1.0  0.0332
  S  S64  1  0.332270  0.245160  0.723830  1.0  -0.0014
  S  S65  1  0.988430  0.245640  0.224550  1.0  0.0325
  S  S66  1  0.667730  0.754840  0.276170  1.0  -0.0022
  N  N67  1  0.096000  0.627600  0.633700  1.0  -0.4187
  N  N68  1  0.895500  0.776000  0.513300  1.0  -0.3409
  N  N69  1  0.104400  0.033400  0.700300  1.0  -0.3857
  N  N70  1  0.960000  0.961500  0.829100  1.0  -0.3438
  N  N71  1  0.634200  0.951000  0.816500  1.0  -0.3685
  N  N72  1  0.422700  0.022700  0.693000  1.0  -0.3829
  N  N73  1  0.247200  0.390000  0.851100  1.0  -0.3558
  N  N74  1  0.197600  0.231100  0.978000  1.0  -0.3459
  N  N75  1  0.904000  0.372400  0.366300  1.0  -0.4168
  N  N76  1  0.104500  0.224000  0.486700  1.0  -0.3415
  N  N77  1  0.895600  0.966600  0.299700  1.0  -0.3837
  N  N78  1  0.040000  0.038500  0.170900  1.0  -0.3451
  N  N79  1  0.365800  0.049000  0.183500  1.0  -0.37
  N  N80  1  0.577300  0.977300  0.307000  1.0  -0.3798
  N  N81  1  0.752800  0.610000  0.148900  1.0  -0.3566
  N  N82  1  0.802400  0.768900  0.022000  1.0  -0.3463
