# generated using pymatgen
data_Ag3H12C16(SN4)2
_symmetry_space_group_name_H-M   'P 1'
_cell_length_a   22.25490000
_cell_length_b   9.48680000
_cell_length_c   15.71840000
_cell_angle_alpha   90.00000000
_cell_angle_beta   91.47600000
_cell_angle_gamma   90.00000000
_symmetry_Int_Tables_number   1
_chemical_formula_structural   Ag3H12C16(SN4)2
_chemical_formula_sum   'Ag12 H48 C64 S8 N32'
_cell_volume   3317.48987975
_cell_formula_units_Z   4
loop_
 _symmetry_equiv_pos_site_id
 _symmetry_equiv_pos_as_xyz
  1  'x, y, z'
loop_
 _atom_site_type_symbol
 _atom_site_label
 _atom_site_symmetry_multiplicity
 _atom_site_fract_x
 _atom_site_fract_y
 _atom_site_fract_z
 _atom_site_occupancy
 _atom_site_charge
  Ag  Ag1  1  0.329650  0.186690  0.608420  1.0  0.3134
  Ag  Ag2  1  0.829650  0.686690  0.608420  1.0  0.3134
  Ag  Ag3  1  0.670350  0.186690  0.891580  1.0  0.312
  Ag  Ag4  1  0.170350  0.686690  0.891580  1.0  0.312
  Ag  Ag5  1  0.670350  0.813310  0.391580  1.0  0.3121
  Ag  Ag6  1  0.170350  0.313310  0.391580  1.0  0.3121
  Ag  Ag7  1  0.329650  0.813310  0.108420  1.0  0.3135
  Ag  Ag8  1  0.829650  0.313310  0.108420  1.0  0.3135
  Ag  Ag9  1  0.500000  0.424750  0.250000  1.0  0.2178
  Ag  Ag10  1  0.000000  0.924750  0.250000  1.0  0.2178
  Ag  Ag11  1  0.500000  0.575250  0.750000  1.0  0.2185
  Ag  Ag12  1  0.000000  0.075250  0.750000  1.0  0.2185
  H  H13  1  0.369300  0.276900  0.293100  1.0  0.0519
  H  H14  1  0.502300  0.397900  0.442100  1.0  0.0632
  H  H15  1  0.454600  0.309300  0.557200  1.0  0.0635
  H  H16  1  0.337600  0.985800  0.280200  1.0  0.0651
  H  H17  1  0.216500  0.027200  0.098400  1.0  0.0602
  H  H18  1  0.159800  0.162900  0.185800  1.0  0.0575
  H  H19  1  0.869300  0.776900  0.293100  1.0  0.0519
  H  H20  1  0.002300  0.897900  0.442100  1.0  0.0632
  H  H21  1  0.954600  0.809300  0.557200  1.0  0.0635
  H  H22  1  0.837600  0.485800  0.280200  1.0  0.0651
  H  H23  1  0.716500  0.527200  0.098400  1.0  0.0602
  H  H24  1  0.659800  0.662900  0.185800  1.0  0.0575
  H  H25  1  0.630700  0.276900  0.206900  1.0  0.0517
  H  H26  1  0.497700  0.397900  0.057900  1.0  0.0628
  H  H27  1  0.545400  0.309300  0.942800  1.0  0.0634
  H  H28  1  0.662400  0.985800  0.219800  1.0  0.0654
  H  H29  1  0.783500  0.027200  0.401600  1.0  0.0604
  H  H30  1  0.840200  0.162900  0.314200  1.0  0.0582
  H  H31  1  0.130700  0.776900  0.206900  1.0  0.0517
  H  H32  1  0.997700  0.897900  0.057900  1.0  0.0628
  H  H33  1  0.045400  0.809300  0.942800  1.0  0.0634
  H  H34  1  0.162400  0.485800  0.219800  1.0  0.0654
  H  H35  1  0.283500  0.527200  0.401600  1.0  0.0604
  H  H36  1  0.340200  0.662900  0.314200  1.0  0.0582
  H  H37  1  0.630700  0.723100  0.706900  1.0  0.0513
  H  H38  1  0.497700  0.602100  0.557900  1.0  0.063
  H  H39  1  0.545400  0.690700  0.442800  1.0  0.0638
  H  H40  1  0.662400  0.014200  0.719800  1.0  0.0657
  H  H41  1  0.783500  0.972800  0.901600  1.0  0.0608
  H  H42  1  0.840200  0.837100  0.814200  1.0  0.0574
  H  H43  1  0.130700  0.223100  0.706900  1.0  0.0513
  H  H44  1  0.997700  0.102100  0.557900  1.0  0.063
  H  H45  1  0.045400  0.190700  0.442800  1.0  0.0638
  H  H46  1  0.162400  0.514200  0.719800  1.0  0.0657
  H  H47  1  0.283500  0.472800  0.901600  1.0  0.0608
  H  H48  1  0.340200  0.337100  0.814200  1.0  0.0574
  H  H49  1  0.369300  0.723100  0.793100  1.0  0.0517
  H  H50  1  0.502300  0.602100  0.942100  1.0  0.0632
  H  H51  1  0.454600  0.690700  0.057200  1.0  0.0637
  H  H52  1  0.337600  0.014200  0.780200  1.0  0.0655
  H  H53  1  0.216500  0.972800  0.598400  1.0  0.0606
  H  H54  1  0.159800  0.837100  0.685800  1.0  0.0574
  H  H55  1  0.869300  0.223100  0.793100  1.0  0.0517
  H  H56  1  0.002300  0.102100  0.942100  1.0  0.0632
  H  H57  1  0.954600  0.190700  0.057200  1.0  0.0637
  H  H58  1  0.837600  0.514200  0.780200  1.0  0.0655
  H  H59  1  0.716500  0.472800  0.598400  1.0  0.0606
  H  H60  1  0.659800  0.337100  0.685800  1.0  0.0574
  C  C61  1  0.358950  0.227000  0.416220  1.0  -0.0416
  C  C62  1  0.387680  0.283000  0.346790  1.0  0.1074
  C  C63  1  0.465180  0.354400  0.434020  1.0  0.107
  C  C64  1  0.436480  0.301000  0.503460  1.0  0.077
  C  C65  1  0.268490  0.110700  0.310290  1.0  0.1434
  C  C66  1  0.301530  0.023200  0.259290  1.0  0.12
  C  C67  1  0.230480  0.045800  0.153530  1.0  0.0776
  C  C68  1  0.196760  0.129500  0.205920  1.0  0.0885
  C  C69  1  0.858950  0.727000  0.416220  1.0  -0.0416
  C  C70  1  0.887680  0.783000  0.346790  1.0  0.1074
  C  C71  1  0.965180  0.854400  0.434020  1.0  0.107
  C  C72  1  0.936480  0.801000  0.503460  1.0  0.077
  C  C73  1  0.768490  0.610700  0.310290  1.0  0.1434
  C  C74  1  0.801530  0.523200  0.259290  1.0  0.12
  C  C75  1  0.730480  0.545800  0.153530  1.0  0.0776
  C  C76  1  0.696760  0.629500  0.205920  1.0  0.0885
  C  C77  1  0.641050  0.227000  0.083780  1.0  -0.042
  C  C78  1  0.612320  0.283000  0.153210  1.0  0.1083
  C  C79  1  0.534820  0.354400  0.065980  1.0  0.1078
  C  C80  1  0.563520  0.301000  0.996540  1.0  0.078
  C  C81  1  0.731510  0.110700  0.189710  1.0  0.1431
  C  C82  1  0.698470  0.023200  0.240710  1.0  0.1202
  C  C83  1  0.769520  0.045800  0.346470  1.0  0.078
  C  C84  1  0.803240  0.129500  0.294080  1.0  0.0884
  C  C85  1  0.141050  0.727000  0.083780  1.0  -0.042
  C  C86  1  0.112320  0.783000  0.153210  1.0  0.1083
  C  C87  1  0.034820  0.854400  0.065980  1.0  0.1078
  C  C88  1  0.063520  0.801000  0.996540  1.0  0.078
  C  C89  1  0.231510  0.610700  0.189710  1.0  0.1431
  C  C90  1  0.198470  0.523200  0.240710  1.0  0.1202
  C  C91  1  0.269520  0.545800  0.346470  1.0  0.078
  C  C92  1  0.303240  0.629500  0.294080  1.0  0.0884
  C  C93  1  0.641050  0.773000  0.583780  1.0  -0.0419
  C  C94  1  0.612320  0.717000  0.653210  1.0  0.1081
  C  C95  1  0.534820  0.645600  0.565980  1.0  0.1081
  C  C96  1  0.563520  0.699000  0.496540  1.0  0.078
  C  C97  1  0.731510  0.889300  0.689710  1.0  0.1426
  C  C98  1  0.698470  0.976800  0.740710  1.0  0.1192
  C  C99  1  0.769520  0.954200  0.846470  1.0  0.0777
  C  C100  1  0.803240  0.870500  0.794080  1.0  0.089
  C  C101  1  0.141050  0.273000  0.583780  1.0  -0.0419
  C  C102  1  0.112320  0.217000  0.653210  1.0  0.1081
  C  C103  1  0.034820  0.145600  0.565980  1.0  0.1081
  C  C104  1  0.063520  0.199000  0.496540  1.0  0.078
  C  C105  1  0.231510  0.389300  0.689710  1.0  0.1426
  C  C106  1  0.198470  0.476800  0.740710  1.0  0.1192
  C  C107  1  0.269520  0.454200  0.846470  1.0  0.0777
  C  C108  1  0.303240  0.370500  0.794080  1.0  0.089
  C  C109  1  0.358950  0.773000  0.916220  1.0  -0.0425
  C  C110  1  0.387680  0.717000  0.846790  1.0  0.1081
  C  C111  1  0.465180  0.645600  0.934020  1.0  0.107
  C  C112  1  0.436480  0.699000  0.003460  1.0  0.0768
  C  C113  1  0.268490  0.889300  0.810290  1.0  0.1431
  C  C114  1  0.301530  0.976800  0.759290  1.0  0.1192
  C  C115  1  0.230480  0.954200  0.653530  1.0  0.0779
  C  C116  1  0.196760  0.870500  0.705920  1.0  0.0892
  C  C117  1  0.858950  0.273000  0.916220  1.0  -0.0425
  C  C118  1  0.887680  0.217000  0.846790  1.0  0.1081
  C  C119  1  0.965180  0.145600  0.934020  1.0  0.107
  C  C120  1  0.936480  0.199000  0.003460  1.0  0.0768
  C  C121  1  0.768490  0.389300  0.810290  1.0  0.1431
  C  C122  1  0.801530  0.476800  0.759290  1.0  0.1192
  C  C123  1  0.730480  0.454200  0.653530  1.0  0.0779
  C  C124  1  0.696760  0.370500  0.705920  1.0  0.0892
  S  S125  1  0.288220  0.145330  0.418150  1.0  0.0285
  S  S126  1  0.788220  0.645330  0.418150  1.0  0.0285
  S  S127  1  0.711780  0.145330  0.081850  1.0  0.0284
  S  S128  1  0.211780  0.645330  0.081850  1.0  0.0284
  S  S129  1  0.711780  0.854670  0.581850  1.0  0.0288
  S  S130  1  0.211780  0.354670  0.581850  1.0  0.0288
  S  S131  1  0.288220  0.854670  0.918150  1.0  0.0304
  S  S132  1  0.788220  0.354670  0.918150  1.0  0.0304
  N  N133  1  0.383490  0.237800  0.495310  1.0  -0.3739
  N  N134  1  0.441310  0.345600  0.355570  1.0  -0.362
  N  N135  1  0.215530  0.163990  0.284650  1.0  -0.3894
  N  N136  1  0.282550  0.991200  0.180230  1.0  -0.369
  N  N137  1  0.883490  0.737800  0.495310  1.0  -0.3739
  N  N138  1  0.941310  0.845600  0.355570  1.0  -0.362
  N  N139  1  0.715530  0.663990  0.284650  1.0  -0.3894
  N  N140  1  0.782550  0.491200  0.180230  1.0  -0.369
  N  N141  1  0.616510  0.237800  0.004690  1.0  -0.3756
  N  N142  1  0.558690  0.345600  0.144430  1.0  -0.3597
  N  N143  1  0.784470  0.163990  0.215350  1.0  -0.3884
  N  N144  1  0.717450  0.991200  0.319770  1.0  -0.3645
  N  N145  1  0.116510  0.737800  0.004690  1.0  -0.3756
  N  N146  1  0.058690  0.845600  0.144430  1.0  -0.3597
  N  N147  1  0.284470  0.663990  0.215350  1.0  -0.3884
  N  N148  1  0.217450  0.491200  0.319770  1.0  -0.3645
  N  N149  1  0.616510  0.762200  0.504690  1.0  -0.3786
  N  N150  1  0.558690  0.654400  0.644430  1.0  -0.36
  N  N151  1  0.784470  0.836010  0.715350  1.0  -0.3892
  N  N152  1  0.717450  0.008800  0.819770  1.0  -0.3645
  N  N153  1  0.116510  0.262200  0.504690  1.0  -0.3786
  N  N154  1  0.058690  0.154400  0.644430  1.0  -0.36
  N  N155  1  0.284470  0.336010  0.715350  1.0  -0.3892
  N  N156  1  0.217450  0.508800  0.819770  1.0  -0.3645
  N  N157  1  0.383490  0.762200  0.995310  1.0  -0.3766
  N  N158  1  0.441310  0.654400  0.855570  1.0  -0.3638
  N  N159  1  0.215530  0.836010  0.784650  1.0  -0.389
  N  N160  1  0.282550  0.008800  0.680230  1.0  -0.3673
  N  N161  1  0.883490  0.262200  0.995310  1.0  -0.3766
  N  N162  1  0.941310  0.154400  0.855570  1.0  -0.3638
  N  N163  1  0.715530  0.336010  0.784650  1.0  -0.389
  N  N164  1  0.782550  0.508800  0.680230  1.0  -0.3673
