# generated using pymatgen
data_Zn2H20C31N4O9
_symmetry_space_group_name_H-M   'P 1'
_cell_length_a   4.78900000
_cell_length_b   11.77100000
_cell_length_c   26.32900000
_cell_angle_alpha   96.82200000
_cell_angle_beta   90.00000000
_cell_angle_gamma   90.00000000
_symmetry_Int_Tables_number   1
_chemical_formula_structural   Zn2H20C31N4O9
_chemical_formula_sum   'Zn4 H40 C62 N8 O18'
_cell_volume   1473.69227574
_cell_formula_units_Z   2
loop_
 _symmetry_equiv_pos_site_id
 _symmetry_equiv_pos_as_xyz
  1  'x, y, z'
loop_
 _atom_site_type_symbol
 _atom_site_label
 _atom_site_symmetry_multiplicity
 _atom_site_fract_x
 _atom_site_fract_y
 _atom_site_fract_z
 _atom_site_occupancy
 _atom_site_charge
  Zn  Zn1  1  0.295530  0.095410  0.550640  1.0  0.9909
  Zn  Zn2  1  0.277380  0.824150  0.970520  1.0  0.9839
  Zn  Zn3  1  0.795530  0.904590  0.449360  1.0  0.9919
  Zn  Zn4  1  0.777380  0.175850  0.029480  1.0  0.9837
  H  H5  1  0.789800  0.256700  0.420500  1.0  0.1203
  H  H6  1  0.900200  0.287100  0.337500  1.0  0.1012
  H  H7  1  0.361100  0.042300  0.283400  1.0  0.0997
  H  H8  1  0.771200  0.958100  0.232100  1.0  0.1192
  H  H9  1  0.630400  0.833800  0.163700  1.0  0.0877
  H  H10  1  0.465400  0.218200  0.163700  1.0  0.1039
  H  H11  1  0.331900  0.239500  0.656700  1.0  0.088
  H  H12  1  0.818600  0.290200  0.546500  1.0  0.1067
  H  H13  1  0.764200  0.449700  0.613800  1.0  0.1457
  H  H14  1  0.120400  0.523400  0.694000  1.0  0.1147
  H  H15  1  0.301900  0.426800  0.713600  1.0  0.1098
  H  H16  1  0.888200  0.258000  0.734300  1.0  0.1076
  H  H17  1  0.590700  0.242100  0.801200  1.0  0.1047
  H  H18  1  0.538300  0.582100  0.827700  1.0  0.0969
  H  H19  1  0.840600  0.597800  0.760500  1.0  0.1092
  H  H20  1  0.144100  0.401600  0.853700  1.0  0.0985
  H  H21  1  0.362900  0.324700  0.877900  1.0  0.1045
  H  H22  1  0.087300  0.609500  0.897000  1.0  0.1018
  H  H23  1  0.690200  0.620300  0.998400  1.0  0.1007
  H  H24  1  0.713300  0.433200  0.947200  1.0  0.1303
  H  H25  1  0.289800  0.743300  0.579500  1.0  0.1203
  H  H26  1  0.400200  0.712900  0.662500  1.0  0.1007
  H  H27  1  0.861100  0.957700  0.716600  1.0  0.1
  H  H28  1  0.271200  0.041900  0.767900  1.0  0.1196
  H  H29  1  0.130400  0.166200  0.836300  1.0  0.0875
  H  H30  1  0.965400  0.781800  0.836300  1.0  0.1034
  H  H31  1  0.831900  0.760500  0.343300  1.0  0.0881
  H  H32  1  0.318600  0.709800  0.453500  1.0  0.107
  H  H33  1  0.264200  0.550300  0.386200  1.0  0.1459
  H  H34  1  0.620400  0.476600  0.306000  1.0  0.1158
  H  H35  1  0.801900  0.573200  0.286400  1.0  0.1092
  H  H36  1  0.388200  0.742000  0.265700  1.0  0.1078
  H  H37  1  0.090700  0.757900  0.198800  1.0  0.1046
  H  H38  1  0.038300  0.417900  0.172300  1.0  0.0974
  H  H39  1  0.340600  0.402200  0.239500  1.0  0.1093
  H  H40  1  0.644100  0.598400  0.146300  1.0  0.0981
  H  H41  1  0.862900  0.675300  0.122100  1.0  0.1061
  H  H42  1  0.587300  0.390500  0.103000  1.0  0.101
  H  H43  1  0.190200  0.379700  0.001600  1.0  0.1018
  H  H44  1  0.213300  0.566800  0.052800  1.0  0.1302
  C  C45  1  0.445000  0.116300  0.456740  1.0  0.672
  C  C46  1  0.505900  0.131100  0.401920  1.0  -0.0436
  C  C47  1  0.703200  0.213500  0.393050  1.0  -0.0836
  C  C48  1  0.770800  0.231100  0.343320  1.0  -0.0273
  C  C49  1  0.645400  0.165300  0.301990  1.0  -0.1329
  C  C50  1  0.447700  0.085000  0.311010  1.0  -0.0214
  C  C51  1  0.374400  0.066300  0.360860  1.0  -0.1495
  C  C52  1  0.157300  0.979000  0.367660  1.0  0.6814
  C  C53  1  0.714500  0.188400  0.248940  1.0  0.3798
  C  C54  1  0.629800  0.102000  0.205270  1.0  -0.063
  C  C55  1  0.680900  0.985400  0.204760  1.0  -0.1021
  C  C56  1  0.596800  0.911600  0.163580  1.0  -0.0381
  C  C57  1  0.464000  0.948000  0.121820  1.0  -0.1229
  C  C58  1  0.410100  0.065700  0.122450  1.0  -0.0759
  C  C59  1  0.496800  0.140200  0.163720  1.0  -0.0589
  C  C60  1  0.254700  0.113900  0.080330  1.0  0.6983
  C  C61  1  0.386900  0.863600  0.076670  1.0  0.6671
  C  C62  1  0.198300  0.272300  0.637380  1.0  0.1599
  C  C63  1  0.916500  0.299800  0.577200  1.0  0.0414
  C  C64  1  0.886500  0.388500  0.614200  1.0  -0.1602
  C  C65  1  0.119100  0.444100  0.700590  1.0  -0.0602
  C  C66  1  0.904000  0.429700  0.741010  1.0  0.0346
  C  C67  1  0.821000  0.323900  0.753370  1.0  -0.1071
  C  C68  1  0.641000  0.314300  0.793330  1.0  -0.1082
  C  C69  1  0.533700  0.410600  0.821950  1.0  0.0393
  C  C70  1  0.609800  0.516300  0.809190  1.0  -0.126
  C  C71  1  0.792700  0.525700  0.768850  1.0  -0.11
  C  C72  1  0.334800  0.398600  0.865820  1.0  -0.0567
  C  C73  1  0.240000  0.589800  0.915890  1.0  0.1348
  C  C74  1  0.571800  0.594700  0.971480  1.0  0.0362
  C  C75  1  0.585900  0.491200  0.943360  1.0  -0.1414
  C  C76  1  0.945000  0.883700  0.543260  1.0  0.6716
  C  C77  1  0.005900  0.868900  0.598080  1.0  -0.0428
  C  C78  1  0.203200  0.786500  0.606950  1.0  -0.0851
  C  C79  1  0.270800  0.768900  0.656680  1.0  -0.0281
  C  C80  1  0.145400  0.834700  0.698010  1.0  -0.1329
  C  C81  1  0.947700  0.915000  0.688990  1.0  -0.0196
  C  C82  1  0.874400  0.933700  0.639140  1.0  -0.1505
  C  C83  1  0.657300  0.021000  0.632340  1.0  0.6815
  C  C84  1  0.214500  0.811600  0.751060  1.0  0.3846
  C  C85  1  0.129800  0.898000  0.794730  1.0  -0.0629
  C  C86  1  0.180900  0.014600  0.795240  1.0  -0.1028
  C  C87  1  0.096800  0.088400  0.836420  1.0  -0.0369
  C  C88  1  0.964000  0.052000  0.878180  1.0  -0.1234
  C  C89  1  0.910100  0.934300  0.877550  1.0  -0.0751
  C  C90  1  0.996800  0.859800  0.836280  1.0  -0.0594
  C  C91  1  0.754700  0.886100  0.919670  1.0  0.6981
  C  C92  1  0.886900  0.136400  0.923330  1.0  0.668
  C  C93  1  0.698300  0.727700  0.362620  1.0  0.1598
  C  C94  1  0.416500  0.700200  0.422800  1.0  0.0403
  C  C95  1  0.386500  0.611500  0.385800  1.0  -0.1609
  C  C96  1  0.619100  0.555900  0.299410  1.0  -0.061
  C  C97  1  0.404000  0.570300  0.258990  1.0  0.0344
  C  C98  1  0.321000  0.676100  0.246630  1.0  -0.1075
  C  C99  1  0.141000  0.685700  0.206670  1.0  -0.1069
  C  C100  1  0.033700  0.589400  0.178050  1.0  0.0395
  C  C101  1  0.109800  0.483700  0.190810  1.0  -0.1255
  C  C102  1  0.292700  0.474300  0.231150  1.0  -0.1099
  C  C103  1  0.834800  0.601400  0.134180  1.0  -0.0574
  C  C104  1  0.740000  0.410200  0.084110  1.0  0.1352
  C  C105  1  0.071800  0.405300  0.028520  1.0  0.0335
  C  C106  1  0.085900  0.508800  0.056640  1.0  -0.1408
  N  N107  1  0.113000  0.226100  0.591880  1.0  -0.4034
  N  N108  1  0.070800  0.371300  0.652410  1.0  0.0523
  N  N109  1  0.376700  0.488600  0.908140  1.0  0.0616
  N  N110  1  0.354200  0.656400  0.954070  1.0  -0.4057
  N  N111  1  0.613000  0.773900  0.408120  1.0  -0.4036
  N  N112  1  0.570800  0.628700  0.347590  1.0  0.0522
  N  N113  1  0.876700  0.511400  0.091860  1.0  0.0615
  N  N114  1  0.854200  0.343600  0.045930  1.0  -0.4056
  O  O115  1  0.304900  0.186900  0.484520  1.0  -0.5794
  O  O116  1  0.556700  0.035400  0.476380  1.0  -0.6226
  O  O117  1  0.084600  0.974800  0.414110  1.0  -0.6306
  O  O118  1  0.064000  0.917500  0.330560  1.0  -0.566
  O  O119  1  0.830000  0.276700  0.241510  1.0  -0.4373
  O  O120  1  0.991900  0.104000  0.080940  1.0  -0.5784
  O  O121  1  0.380700  0.170000  0.049970  1.0  -0.5926
  O  O122  1  0.381600  0.761400  0.080660  1.0  -0.5882
  O  O123  1  0.338800  0.908400  0.035980  1.0  -0.5927
  O  O124  1  0.804900  0.813100  0.515480  1.0  -0.58
  O  O125  1  0.056700  0.964600  0.523620  1.0  -0.6226
  O  O126  1  0.584600  0.025200  0.585890  1.0  -0.6327
  O  O127  1  0.564000  0.082500  0.669440  1.0  -0.5648
  O  O128  1  0.330000  0.723300  0.758490  1.0  -0.4371
  O  O129  1  0.491900  0.896000  0.919060  1.0  -0.5783
  O  O130  1  0.880700  0.830000  0.950030  1.0  -0.5931
  O  O131  1  0.881600  0.238600  0.919340  1.0  -0.5876
  O  O132  1  0.838800  0.091600  0.964020  1.0  -0.5936
