# generated using pymatgen
data_TbH10C21O8
_symmetry_space_group_name_H-M   'P 1'
_cell_length_a   9.17540000
_cell_length_b   15.52580000
_cell_length_c   16.30000000
_cell_angle_alpha   111.89000000
_cell_angle_beta   90.00000000
_cell_angle_gamma   107.18700000
_symmetry_Int_Tables_number   1
_chemical_formula_structural   TbH10C21O8
_chemical_formula_sum   'Tb4 H40 C84 O32'
_cell_volume   2042.43812030
_cell_formula_units_Z   4
loop_
 _symmetry_equiv_pos_site_id
 _symmetry_equiv_pos_as_xyz
  1  'x, y, z'
loop_
 _atom_site_type_symbol
 _atom_site_label
 _atom_site_symmetry_multiplicity
 _atom_site_fract_x
 _atom_site_fract_y
 _atom_site_fract_z
 _atom_site_occupancy
 _atom_site_charge
  Tb  Tb1  1  0.166700  0.005160  0.591930  1.0  2.2882
  Tb  Tb2  1  0.161540  0.994840  0.908070  1.0  2.2879
  Tb  Tb3  1  0.838460  0.005160  0.091930  1.0  2.2877
  Tb  Tb4  1  0.833300  0.994840  0.408070  1.0  2.2877
  H  H5  1  0.839500  0.758200  0.283400  1.0  0.0809
  H  H6  1  0.081300  0.241800  0.216600  1.0  0.0807
  H  H7  1  0.777600  0.232600  0.472200  1.0  0.0907
  H  H8  1  0.503200  0.722400  0.863700  1.0  0.0896
  H  H9  1  0.619200  0.387400  0.054600  1.0  0.0882
  H  H10  1  0.831900  0.281200  0.101400  1.0  0.1115
  H  H11  1  0.155600  0.541600  0.656700  1.0  0.1
  H  H12  1  0.449300  0.281200  0.601400  1.0  0.1117
  H  H13  1  0.841100  0.594400  0.687100  1.0  0.1119
  H  H14  1  0.168100  0.718800  0.898600  1.0  0.1115
  H  H15  1  0.222400  0.767400  0.527800  1.0  0.0899
  H  H16  1  0.157200  0.698200  0.741300  1.0  0.0878
  H  H17  1  0.753300  0.594400  0.187100  1.0  0.112
  H  H18  1  0.871300  0.442800  0.727700  1.0  0.1076
  H  H19  1  0.844400  0.458400  0.343300  1.0  0.1001
  H  H20  1  0.496800  0.277600  0.136300  1.0  0.0902
  H  H21  1  0.380800  0.612600  0.945400  1.0  0.0877
  H  H22  1  0.455000  0.232600  0.972200  1.0  0.0908
  H  H23  1  0.386000  0.541600  0.156700  1.0  0.1001
  H  H24  1  0.428500  0.557200  0.772300  1.0  0.1075
  H  H25  1  0.219200  0.722400  0.363700  1.0  0.0901
  H  H26  1  0.231800  0.612600  0.445400  1.0  0.0881
  H  H27  1  0.459000  0.301800  0.758700  1.0  0.0876
  H  H28  1  0.541000  0.698200  0.241300  1.0  0.0884
  H  H29  1  0.918700  0.758200  0.783400  1.0  0.0805
  H  H30  1  0.094900  0.536400  0.095400  1.0  0.1083
  H  H31  1  0.780800  0.277600  0.636300  1.0  0.09
  H  H32  1  0.246700  0.405600  0.812900  1.0  0.112
  H  H33  1  0.160500  0.241800  0.716600  1.0  0.0807
  H  H34  1  0.441500  0.536400  0.595400  1.0  0.1085
  H  H35  1  0.905100  0.463600  0.904600  1.0  0.1089
  H  H36  1  0.842800  0.301800  0.258700  1.0  0.0885
  H  H37  1  0.550700  0.718800  0.398600  1.0  0.1114
  H  H38  1  0.768200  0.387400  0.554600  1.0  0.0881
  H  H39  1  0.128700  0.557200  0.272300  1.0  0.1074
  H  H40  1  0.571500  0.442800  0.227700  1.0  0.1072
  H  H41  1  0.545000  0.767400  0.027800  1.0  0.0898
  H  H42  1  0.558500  0.463600  0.404600  1.0  0.1088
  H  H43  1  0.158900  0.405600  0.312900  1.0  0.112
  H  H44  1  0.614000  0.458400  0.843300  1.0  0.0999
  C  C45  1  0.190500  0.750200  0.643100  1.0  -0.1243
  C  C46  1  0.195800  0.562600  0.542900  1.0  0.2804
  C  C47  1  0.585700  0.370200  0.995100  1.0  -0.1725
  C  C48  1  0.510000  0.680800  0.181400  1.0  -0.0094
  C  C49  1  0.527000  0.598000  0.774400  1.0  -0.2211
  C  C50  1  0.718400  0.757000  0.833200  1.0  -0.1689
  C  C51  1  0.731000  0.731400  0.479000  1.0  -0.1137
  C  C52  1  0.124100  0.696600  0.329100  1.0  -0.0264
  C  C53  1  0.171400  0.587600  0.631300  1.0  -0.235
  C  C54  1  0.089300  0.860800  0.399500  1.0  0.6899
  C  C55  1  0.954700  0.416600  0.111300  1.0  0.2591
  C  C56  1  0.158300  0.420600  0.021100  1.0  0.3068
  C  C57  1  0.875900  0.303400  0.670900  1.0  -0.0265
  C  C58  1  0.788800  0.277200  0.445400  1.0  -0.0143
  C  C59  1  0.829200  0.319200  0.318600  1.0  -0.0073
  C  C60  1  0.038600  0.757000  0.333200  1.0  -0.1681
  C  C61  1  0.045300  0.583400  0.888700  1.0  0.2587
  C  C62  1  0.281600  0.243000  0.166800  1.0  -0.1677
  C  C63  1  0.910700  0.139200  0.600500  1.0  0.6884
  C  C64  1  0.572500  0.696600  0.829100  1.0  -0.0263
  C  C65  1  0.228500  0.139200  0.100500  1.0  0.689
  C  C66  1  0.071000  0.598000  0.274400  1.0  -0.2213
  C  C67  1  0.262300  0.420600  0.521100  1.0  0.3066
  C  C68  1  0.401800  0.316200  0.581500  1.0  -0.1537
  C  C69  1  0.369900  0.437800  0.276400  1.0  0.2648
  C  C70  1  0.604200  0.530600  0.421500  1.0  -0.2168
  C  C71  1  0.774200  0.620200  0.724100  1.0  -0.1933
  C  C72  1  0.809500  0.249800  0.356900  1.0  -0.1236
  C  C73  1  0.841700  0.579400  0.978900  1.0  0.3048
  C  C74  1  0.914400  0.316200  0.081500  1.0  -0.153
  C  C75  1  0.771500  0.860800  0.899500  1.0  0.6931
  C  C76  1  0.035400  0.840000  0.005400  1.0  0.678
  C  C77  1  0.490000  0.319200  0.818600  1.0  -0.0079
  C  C78  1  0.598200  0.683800  0.418500  1.0  -0.1532
  C  C79  1  0.195400  0.160000  0.494600  1.0  0.6775
  C  C80  1  0.085600  0.683800  0.918500  1.0  -0.1535
  C  C81  1  0.804600  0.840000  0.505400  1.0  0.6774
  C  C82  1  0.427500  0.303400  0.170900  1.0  -0.0269
  C  C83  1  0.784500  0.370200  0.495100  1.0  -0.1727
  C  C84  1  0.630100  0.562200  0.723600  1.0  0.2713
  C  C85  1  0.333100  0.149400  0.803900  1.0  0.7348
  C  C86  1  0.366800  0.562600  0.042900  1.0  0.2806
  C  C87  1  0.170800  0.680800  0.681400  1.0  -0.0097
  C  C88  1  0.666900  0.850600  0.196100  1.0  0.7351
  C  C89  1  0.929000  0.402000  0.725600  1.0  -0.2221
  C  C90  1  0.804200  0.437400  0.457100  1.0  0.2806
  C  C91  1  0.816300  0.149400  0.303900  1.0  0.7316
  C  C92  1  0.211200  0.722800  0.554600  1.0  -0.0135
  C  C93  1  0.633200  0.437400  0.957100  1.0  0.287
  C  C94  1  0.926400  0.530600  0.921500  1.0  -0.2151
  C  C95  1  0.932100  0.562200  0.223600  1.0  0.2649
  C  C96  1  0.583800  0.412400  0.868700  1.0  -0.2354
  C  C97  1  0.538100  0.583400  0.388700  1.0  0.2672
  C  C98  1  0.440300  0.249800  0.856900  1.0  -0.1236
  C  C99  1  0.999600  0.268600  0.021000  1.0  -0.114
  C  C100  1  0.197100  0.320200  0.490200  1.0  -0.0071
  C  C101  1  0.067900  0.437800  0.776400  1.0  0.2645
  C  C102  1  0.737700  0.579400  0.478900  1.0  0.3046
  C  C103  1  0.101100  0.281800  0.719200  1.0  -0.0068
  C  C104  1  0.154000  0.379800  0.775900  1.0  -0.192
  C  C105  1  0.000400  0.731400  0.979000  1.0  -0.114
  C  C106  1  0.898900  0.718200  0.280800  1.0  -0.005
  C  C107  1  0.828600  0.412400  0.368700  1.0  -0.2351
  C  C108  1  0.461900  0.416600  0.611300  1.0  0.2585
  C  C109  1  0.876900  0.679800  0.009800  1.0  -0.0082
  C  C110  1  0.802900  0.679800  0.509800  1.0  -0.0095
  C  C111  1  0.180700  0.281800  0.219200  1.0  -0.0051
  C  C112  1  0.559700  0.750200  0.143100  1.0  -0.1239
  C  C113  1  0.846000  0.620200  0.224100  1.0  -0.1913
  C  C114  1  0.269000  0.268600  0.521000  1.0  -0.115
  C  C115  1  0.416200  0.587600  0.131300  1.0  -0.2333
  C  C116  1  0.123100  0.320200  0.990200  1.0  -0.008
  C  C117  1  0.819300  0.718200  0.780800  1.0  -0.0055
  C  C118  1  0.414300  0.629800  0.004900  1.0  -0.1717
  C  C119  1  0.511600  0.722800  0.054600  1.0  -0.0131
  C  C120  1  0.961400  0.243000  0.666800  1.0  -0.1681
  C  C121  1  0.964600  0.160000  0.994600  1.0  0.6778
  C  C122  1  0.073600  0.469400  0.078500  1.0  -0.2159
  C  C123  1  0.225800  0.379800  0.275900  1.0  -0.1923
  C  C124  1  0.215500  0.629800  0.504900  1.0  -0.1716
  C  C125  1  0.488400  0.277200  0.945400  1.0  -0.015
  C  C126  1  0.395800  0.469400  0.578500  1.0  -0.2179
  C  C127  1  0.183700  0.850600  0.696100  1.0  0.7411
  C  C128  1  0.473000  0.402000  0.225600  1.0  -0.2224
  O  O129  1  0.721600  0.530400  0.011400  1.0  -0.2598
  O  O130  1  0.097600  0.084400  0.101800  1.0  -0.7927
  O  O131  1  0.278400  0.469600  0.988600  1.0  -0.2606
  O  O132  1  0.154600  0.870200  0.774600  1.0  -0.6592
  O  O133  1  0.867300  0.461800  0.171300  1.0  -0.2782
  O  O134  1  0.313100  0.111800  0.043100  1.0  -0.6389
  O  O135  1  0.715600  0.870200  0.274600  1.0  -0.6641
  O  O136  1  0.808800  0.530400  0.511400  1.0  -0.2591
  O  O137  1  0.405500  0.538200  0.328700  1.0  -0.277
  O  O138  1  0.140300  0.883200  0.973500  1.0  -0.717
  O  O139  1  0.132700  0.538200  0.828700  1.0  -0.2776
  O  O140  1  0.284400  0.129800  0.725400  1.0  -0.6608
  O  O141  1  0.301600  0.090000  0.840700  1.0  -0.7502
  O  O142  1  0.201300  0.888200  0.456900  1.0  -0.6402
  O  O143  1  0.742900  0.883200  0.473500  1.0  -0.7168
  O  O144  1  0.257100  0.116800  0.526500  1.0  -0.7185
  O  O145  1  0.686900  0.888200  0.956900  1.0  -0.6395
  O  O146  1  0.594500  0.461800  0.671300  1.0  -0.2775
  O  O147  1  0.845400  0.129800  0.225400  1.0  -0.66
  O  O148  1  0.013200  0.915600  0.398200  1.0  -0.7944
  O  O149  1  0.050800  0.121200  0.941800  1.0  -0.7231
  O  O150  1  0.788400  0.090000  0.340700  1.0  -0.7499
  O  O151  1  0.211600  0.910000  0.659300  1.0  -0.7499
  O  O152  1  0.929600  0.878800  0.558200  1.0  -0.7244
  O  O153  1  0.191200  0.469600  0.488600  1.0  -0.2599
  O  O154  1  0.986800  0.084400  0.601800  1.0  -0.7942
  O  O155  1  0.902400  0.915600  0.898200  1.0  -0.7961
  O  O156  1  0.949200  0.878800  0.058200  1.0  -0.7224
  O  O157  1  0.698400  0.910000  0.159300  1.0  -0.7515
  O  O158  1  0.859700  0.116800  0.026500  1.0  -0.7178
  O  O159  1  0.798700  0.111800  0.543100  1.0  -0.6396
  O  O160  1  0.070400  0.121200  0.441800  1.0  -0.7228
