# generated using pymatgen
data_Gd2H22C42O17
_symmetry_space_group_name_H-M   'P 1'
_cell_length_a   9.40710000
_cell_length_b   15.66720000
_cell_length_c   16.05600000
_cell_angle_alpha   111.23700000
_cell_angle_beta   90.00000000
_cell_angle_gamma   107.47100000
_symmetry_Int_Tables_number   1
_chemical_formula_structural   Gd2H22C42O17
_chemical_formula_sum   'Gd4 H44 C84 O34'
_cell_volume   2088.13173832
_cell_formula_units_Z   2
loop_
 _symmetry_equiv_pos_site_id
 _symmetry_equiv_pos_as_xyz
  1  'x, y, z'
loop_
 _atom_site_type_symbol
 _atom_site_label
 _atom_site_symmetry_multiplicity
 _atom_site_fract_x
 _atom_site_fract_y
 _atom_site_fract_z
 _atom_site_occupancy
 _atom_site_charge
  Gd  Gd1  1  0.662050  0.006500  0.598080  1.0  2.2352
  Gd  Gd2  1  0.655550  0.993500  0.901920  1.0  2.2352
  Gd  Gd3  1  0.344450  0.006500  0.098080  1.0  2.2355
  Gd  Gd4  1  0.337950  0.993500  0.401920  1.0  2.2356
  H  H5  1  0.658100  0.716600  0.897900  1.0  0.1323
  H  H6  1  0.649100  0.692000  0.738100  1.0  0.0998
  H  H7  1  0.393500  0.712400  0.553600  1.0  0.1265
  H  H8  1  0.646300  0.563800  0.266000  1.0  0.1212
  H  H9  1  0.961300  0.236400  0.979400  1.0  0.1145
  H  H10  1  0.398900  0.464400  0.906800  1.0  0.1138
  H  H11  1  0.338500  0.754000  0.284900  1.0  0.0999
  H  H12  1  0.042900  0.692000  0.238100  1.0  0.0999
  H  H13  1  0.747400  0.410600  0.805800  1.0  0.1218
  H  H14  1  0.350900  0.308000  0.261900  1.0  0.0993
  H  H15  1  0.252600  0.589400  0.194200  1.0  0.122
  H  H16  1  0.882800  0.610000  0.937200  1.0  0.1173
  H  H17  1  0.117200  0.390000  0.062800  1.0  0.1176
  H  H18  1  0.318900  0.712400  0.053600  1.0  0.1269
  H  H19  1  0.934500  0.535600  0.593200  1.0  0.1129
  H  H20  1  0.353700  0.436200  0.734000  1.0  0.1212
  H  H21  1  0.349400  0.463800  0.347000  1.0  0.1268
  H  H22  1  0.941500  0.283400  0.602100  1.0  0.1326
  H  H23  1  0.272800  0.390000  0.562800  1.0  0.1173
  H  H24  1  0.726900  0.727800  0.357700  1.0  0.1027
  H  H25  1  0.663200  0.410600  0.305800  1.0  0.1216
  H  H26  1  0.957100  0.308000  0.761900  1.0  0.0991
  H  H27  1  0.885600  0.536200  0.153000  1.0  0.127
  H  H28  1  0.727200  0.610000  0.437200  1.0  0.1171
  H  H29  1  0.000900  0.727800  0.857700  1.0  0.1023
  H  H30  1  0.038700  0.763600  0.020600  1.0  0.1128
  H  H31  1  0.336800  0.589400  0.694200  1.0  0.1219
  H  H32  1  0.341900  0.283400  0.102100  1.0  0.1326
  H  H33  1  0.273100  0.272200  0.642300  1.0  0.1025
  H  H34  1  0.415500  0.754000  0.784900  1.0  0.1001
  H  H35  1  0.601100  0.535600  0.093200  1.0  0.1125
  H  H36  1  0.606500  0.287600  0.446400  1.0  0.1264
  H  H37  1  0.724900  0.763600  0.520600  1.0  0.1131
  H  H38  1  0.058500  0.716600  0.397900  1.0  0.1324
  H  H39  1  0.661500  0.246000  0.715100  1.0  0.1005
  H  H40  1  0.082500  0.436200  0.234000  1.0  0.121
  H  H41  1  0.917500  0.563800  0.766000  1.0  0.1214
  H  H42  1  0.275100  0.236400  0.479400  1.0  0.1146
  H  H43  1  0.650600  0.536200  0.653000  1.0  0.1269
  H  H44  1  0.681100  0.287600  0.946400  1.0  0.1267
  H  H45  1  0.065500  0.464400  0.406800  1.0  0.1137
  H  H46  1  0.584500  0.246000  0.215100  1.0  0.0992
  H  H47  1  0.999100  0.272200  0.142300  1.0  0.1028
  H  H48  1  0.114400  0.463800  0.847000  1.0  0.1264
  C  C49  1  0.241500  0.580400  0.483600  1.0  0.2902
  C  C50  1  0.914900  0.627000  0.997500  1.0  -0.2027
  C  C51  1  0.234100  0.730200  0.481300  1.0  -0.1324
  C  C52  1  0.068100  0.699800  0.825100  1.0  -0.0451
  C  C53  1  0.652800  0.382600  0.772600  1.0  -0.1769
  C  C54  1  0.474600  0.161200  0.992200  1.0  0.7195
  C  C55  1  0.104200  0.682200  0.419100  1.0  -0.1322
  C  C56  1  0.120300  0.562000  0.723700  1.0  0.228
  C  C57  1  0.955100  0.418000  0.610400  1.0  0.2899
  C  C58  1  0.109400  0.530800  0.423600  1.0  -0.1803
  C  C59  1  0.694300  0.320000  0.486500  1.0  -0.1225
  C  C60  1  0.044900  0.582000  0.389600  1.0  0.2791
  C  C61  1  0.398700  0.715800  0.281900  1.0  0.0015
  C  C62  1  0.334000  0.417600  0.372500  1.0  -0.1893
  C  C63  1  0.541800  0.757000  0.332300  1.0  -0.0953
  C  C64  1  0.578000  0.682200  0.919100  1.0  -0.1318
  C  C65  1  0.085100  0.373000  0.002500  1.0  -0.2003
  C  C66  1  0.916400  0.582400  0.127500  1.0  -0.1897
  C  C67  1  0.625700  0.320000  0.986500  1.0  -0.1221
  C  C68  1  0.661100  0.419600  0.016400  1.0  0.2977
  C  C69  1  0.313400  0.838800  0.507800  1.0  0.7194
  C  C70  1  0.665100  0.675600  0.678000  1.0  -0.0134
  C  C71  1  0.587800  0.861200  0.398100  1.0  0.7162
  C  C72  1  0.458200  0.243000  0.667700  1.0  -0.0956
  C  C73  1  0.578600  0.469200  0.076400  1.0  -0.182
  C  C74  1  0.412200  0.138800  0.601900  1.0  0.7104
  C  C75  1  0.931900  0.300200  0.174900  1.0  -0.0442
  C  C76  1  0.130400  0.439600  0.962800  1.0  0.2348
  C  C77  1  0.441700  0.562000  0.223700  1.0  0.2342
  C  C78  1  0.338900  0.580400  0.983600  1.0  0.291
  C  C79  1  0.347200  0.617400  0.227400  1.0  -0.1804
  C  C80  1  0.989500  0.324400  0.822000  1.0  -0.014
  C  C81  1  0.462900  0.418000  0.110400  1.0  0.279
  C  C82  1  0.942500  0.254400  0.861200  1.0  -0.1552
  C  C83  1  0.317100  0.715800  0.781900  1.0  0.0011
  C  C84  1  0.758500  0.419600  0.516400  1.0  0.2916
  C  C85  1  0.726600  0.138800  0.101900  1.0  0.7106
  C  C86  1  0.270200  0.617400  0.727400  1.0  -0.1799
  C  C87  1  0.503900  0.269800  0.018700  1.0  -0.1342
  C  C88  1  0.017000  0.601400  0.770600  1.0  -0.2438
  C  C89  1  0.991900  0.281200  0.952500  1.0  -0.019
  C  C90  1  0.215200  0.757000  0.832300  1.0  -0.0957
  C  C91  1  0.710700  0.718800  0.547500  1.0  -0.021
  C  C92  1  0.584400  0.601400  0.270600  1.0  -0.243
  C  C93  1  0.334900  0.324400  0.322000  1.0  -0.013
  C  C94  1  0.157800  0.846000  0.192400  1.0  0.7197
  C  C95  1  0.682900  0.284200  0.218100  1.0  0.0024
  C  C96  1  0.368300  0.300200  0.674900  1.0  -0.0436
  C  C97  1  0.309200  0.439600  0.462800  1.0  0.2347
  C  C98  1  0.784800  0.243000  0.167700  1.0  -0.0952
  C  C99  1  0.983000  0.398600  0.229400  1.0  -0.243
  C  C100  1  0.890600  0.469200  0.576400  1.0  -0.1808
  C  C101  1  0.537100  0.582000  0.889600  1.0  0.2798
  C  C102  1  0.083600  0.417600  0.872500  1.0  -0.19
  C  C103  1  0.765900  0.269800  0.518700  1.0  -0.1345
  C  C104  1  0.010500  0.675600  0.178000  1.0  -0.0114
  C  C105  1  0.842200  0.154000  0.807600  1.0  0.7185
  C  C106  1  0.311800  0.154000  0.307600  1.0  0.718
  C  C107  1  0.666000  0.582400  0.627500  1.0  -0.1893
  C  C108  1  0.895800  0.317800  0.580900  1.0  -0.1324
  C  C109  1  0.305700  0.680000  0.513500  1.0  -0.1212
  C  C110  1  0.712100  0.627000  0.497500  1.0  -0.196
  C  C111  1  0.558300  0.438000  0.776300  1.0  0.2336
  C  C112  1  0.601300  0.284200  0.718100  1.0  0.0017
  C  C113  1  0.688100  0.745600  0.638800  1.0  -0.1551
  C  C114  1  0.287900  0.373000  0.502500  1.0  -0.2024
  C  C115  1  0.631700  0.699800  0.325100  1.0  -0.0442
  C  C116  1  0.869600  0.560400  0.037200  1.0  0.2345
  C  C117  1  0.879700  0.438000  0.276300  1.0  0.2283
  C  C118  1  0.688200  0.846000  0.692400  1.0  0.7186
  C  C119  1  0.496100  0.730200  0.981300  1.0  -0.1332
  C  C120  1  0.421400  0.530800  0.923600  1.0  -0.1777
  C  C121  1  0.422000  0.317800  0.080900  1.0  -0.1322
  C  C122  1  0.008100  0.718800  0.047500  1.0  -0.0201
  C  C123  1  0.729800  0.382600  0.272600  1.0  -0.1802
  C  C124  1  0.273400  0.861200  0.898100  1.0  0.7157
  C  C125  1  0.374300  0.680000  0.013500  1.0  -0.1218
  C  C126  1  0.525400  0.838800  0.007800  1.0  0.7184
  C  C127  1  0.057500  0.745600  0.138800  1.0  -0.1554
  C  C128  1  0.415600  0.398600  0.729400  1.0  -0.2434
  C  C129  1  0.289300  0.281200  0.452500  1.0  -0.0186
  C  C130  1  0.686600  0.161200  0.492200  1.0  0.7183
  C  C131  1  0.311900  0.254400  0.361200  1.0  -0.1565
  C  C132  1  0.690800  0.560400  0.537200  1.0  0.2269
  O  O133  1  0.807900  0.110200  0.041300  1.0  -0.6452
  O  O134  1  0.916700  0.537800  0.328600  1.0  -0.2516
  O  O135  1  0.824000  0.092600  0.843000  1.0  -0.7223
  O  O136  1  0.251000  0.882600  0.474700  1.0  -0.7211
  O  O137  1  0.311800  0.533000  0.518100  1.0  -0.2594
  O  O138  1  0.221200  0.533000  0.018100  1.0  -0.2608
  O  O139  1  0.554600  0.122800  0.938800  1.0  -0.7
  O  O140  1  0.176000  0.907400  0.157000  1.0  -0.7219
  O  O141  1  0.731400  0.907400  0.657000  1.0  -0.7224
  O  O142  1  0.650300  0.862600  0.772200  1.0  -0.6445
  O  O143  1  0.400100  0.914200  0.892500  1.0  -0.8153
  O  O144  1  0.368400  0.117400  0.025300  1.0  -0.72
  O  O145  1  0.599900  0.085800  0.107500  1.0  -0.8157
  O  O146  1  0.192100  0.889800  0.958700  1.0  -0.6456
  O  O147  1  0.302300  0.110200  0.541300  1.0  -0.6453
  O  O148  1  0.514100  0.914200  0.392500  1.0  -0.8147
  O  O149  1  0.510700  0.000000  0.750000  1.0  -0.4673
  O  O150  1  0.631600  0.882600  0.974700  1.0  -0.7224
  O  O151  1  0.083300  0.462200  0.671400  1.0  -0.252
  O  O152  1  0.431800  0.877200  0.561200  1.0  -0.7003
  O  O153  1  0.268600  0.092600  0.343000  1.0  -0.7196
  O  O154  1  0.445400  0.877200  0.061200  1.0  -0.7008
  O  O155  1  0.749000  0.117400  0.525300  1.0  -0.7229
  O  O156  1  0.688200  0.467000  0.481900  1.0  -0.2593
  O  O157  1  0.568200  0.122800  0.438800  1.0  -0.7009
  O  O158  1  0.778800  0.467000  0.981900  1.0  -0.2578
  O  O159  1  0.378900  0.462200  0.171400  1.0  -0.2525
  O  O160  1  0.621100  0.537800  0.828600  1.0  -0.2517
  O  O161  1  0.349700  0.137400  0.227800  1.0  -0.6445
  O  O162  1  0.485900  0.085800  0.607500  1.0  -0.8159
  O  O163  1  0.212300  0.862600  0.272200  1.0  -0.6448
  O  O164  1  0.489300  0.000000  0.250000  1.0  -0.4641
  O  O165  1  0.787700  0.137400  0.727800  1.0  -0.6443
  O  O166  1  0.697700  0.889800  0.458700  1.0  -0.6458
