# generated using pymatgen
data_KInC10(NO4)2
_symmetry_space_group_name_H-M   'P 1'
_cell_length_a   9.09600000
_cell_length_b   11.99600000
_cell_length_c   15.14400000
_cell_angle_alpha   90.00000000
_cell_angle_beta   99.40000000
_cell_angle_gamma   90.00000000
_symmetry_Int_Tables_number   1
_chemical_formula_structural   KInC10(NO4)2
_chemical_formula_sum   'K4 In4 C40 N8 O32'
_cell_volume   1630.25809893
_cell_formula_units_Z   4
loop_
 _symmetry_equiv_pos_site_id
 _symmetry_equiv_pos_as_xyz
  1  'x, y, z'
loop_
 _atom_site_type_symbol
 _atom_site_label
 _atom_site_symmetry_multiplicity
 _atom_site_fract_x
 _atom_site_fract_y
 _atom_site_fract_z
 _atom_site_occupancy
 _atom_site_charge
  K  K1  1  0.444100  0.031800  0.364300  1.0  0.9251
  K  K2  1  0.944100  0.531800  0.364300  1.0  0.9251
  K  K3  1  0.444100  0.968200  0.864300  1.0  0.9234
  K  K4  1  0.944100  0.468200  0.864300  1.0  0.9234
  In  In5  1  0.051100  0.917400  0.002900  1.0  1.5416
  In  In6  1  0.551100  0.417400  0.002900  1.0  1.5416
  In  In7  1  0.051100  0.082600  0.502900  1.0  1.5396
  In  In8  1  0.551100  0.582600  0.502900  1.0  1.5396
  C  C9  1  0.228500  0.002300  0.171000  1.0  0.6609
  C  C10  1  0.311100  0.894100  0.160400  1.0  -0.0515
  C  C11  1  0.341400  0.807700  0.969900  1.0  0.6393
  C  C12  1  0.315600  0.744000  0.051500  1.0  -0.0452
  C  C13  1  0.142200  0.734000  0.159900  1.0  -0.0374
  C  C14  1  0.996400  0.782700  0.176100  1.0  0.0038
  C  C15  1  0.780100  0.891100  0.104700  1.0  -0.0847
  C  C16  1  0.722200  0.960600  0.023400  1.0  0.6561
  C  C17  1  0.841600  0.718800  0.034800  1.0  -0.0018
  C  C18  1  0.881000  0.713900  0.940800  1.0  0.6262
  C  C19  1  0.728500  0.502300  0.171000  1.0  0.6609
  C  C20  1  0.811100  0.394100  0.160400  1.0  -0.0515
  C  C21  1  0.841400  0.307700  0.969900  1.0  0.6393
  C  C22  1  0.815600  0.244000  0.051500  1.0  -0.0452
  C  C23  1  0.642200  0.234000  0.159900  1.0  -0.0374
  C  C24  1  0.496400  0.282700  0.176100  1.0  0.0038
  C  C25  1  0.280100  0.391100  0.104700  1.0  -0.0847
  C  C26  1  0.222200  0.460600  0.023400  1.0  0.6561
  C  C27  1  0.341600  0.218800  0.034800  1.0  -0.0018
  C  C28  1  0.381000  0.213900  0.940800  1.0  0.6259
  C  C29  1  0.228500  0.997700  0.671000  1.0  0.663
  C  C30  1  0.311100  0.105900  0.660400  1.0  -0.0516
  C  C31  1  0.341400  0.192300  0.469900  1.0  0.6402
  C  C32  1  0.315600  0.256000  0.551500  1.0  -0.0455
  C  C33  1  0.142200  0.266000  0.659900  1.0  -0.0349
  C  C34  1  0.996400  0.217300  0.676100  1.0  0.0038
  C  C35  1  0.780100  0.108900  0.604700  1.0  -0.0845
  C  C36  1  0.722200  0.039400  0.523400  1.0  0.6567
  C  C37  1  0.841600  0.281200  0.534800  1.0  -0.0013
  C  C38  1  0.881000  0.286100  0.440800  1.0  0.6264
  C  C39  1  0.728500  0.497700  0.671000  1.0  0.663
  C  C40  1  0.811100  0.605900  0.660400  1.0  -0.0516
  C  C41  1  0.841400  0.692300  0.469900  1.0  0.6402
  C  C42  1  0.815600  0.756000  0.551500  1.0  -0.0455
  C  C43  1  0.642200  0.766000  0.659900  1.0  -0.0349
  C  C44  1  0.496400  0.717300  0.676100  1.0  0.0038
  C  C45  1  0.280100  0.608900  0.604700  1.0  -0.0845
  C  C46  1  0.222200  0.539400  0.523400  1.0  0.6567
  C  C47  1  0.341600  0.781200  0.534800  1.0  -0.0013
  C  C48  1  0.381000  0.786100  0.440800  1.0  0.626
  N  N49  1  0.221100  0.808100  0.104400  1.0  -0.0698
  N  N50  1  0.901400  0.816100  0.090100  1.0  -0.0984
  N  N51  1  0.721100  0.308100  0.104400  1.0  -0.0698
  N  N52  1  0.401400  0.316100  0.090100  1.0  -0.0984
  N  N53  1  0.221100  0.191900  0.604400  1.0  -0.0706
  N  N54  1  0.901400  0.183900  0.590100  1.0  -0.0986
  N  N55  1  0.721100  0.691900  0.604400  1.0  -0.0706
  N  N56  1  0.401400  0.683900  0.590100  1.0  -0.0986
  O  O57  1  0.113700  0.026900  0.112600  1.0  -0.5704
  O  O58  1  0.280300  0.063000  0.232000  1.0  -0.5238
  O  O59  1  0.261200  0.894600  0.947900  1.0  -0.6527
  O  O60  1  0.440400  0.774800  0.927400  1.0  -0.539
  O  O61  1  0.817600  0.979600  0.971700  1.0  -0.6198
  O  O62  1  0.594100  0.997300  0.012300  1.0  -0.5478
  O  O63  1  0.978500  0.779600  0.919100  1.0  -0.6123
  O  O64  1  0.819100  0.640700  0.889700  1.0  -0.5997
  O  O65  1  0.613700  0.526900  0.112600  1.0  -0.5704
  O  O66  1  0.780300  0.563000  0.232000  1.0  -0.5238
  O  O67  1  0.761200  0.394600  0.947900  1.0  -0.6527
  O  O68  1  0.940400  0.274800  0.927400  1.0  -0.539
  O  O69  1  0.317600  0.479600  0.971700  1.0  -0.6198
  O  O70  1  0.094100  0.497300  0.012300  1.0  -0.5478
  O  O71  1  0.478500  0.279600  0.919100  1.0  -0.6123
  O  O72  1  0.319100  0.140700  0.889700  1.0  -0.5997
  O  O73  1  0.113700  0.973100  0.612600  1.0  -0.5695
  O  O74  1  0.280300  0.937000  0.732000  1.0  -0.5254
  O  O75  1  0.261200  0.105400  0.447900  1.0  -0.6533
  O  O76  1  0.440400  0.225200  0.427400  1.0  -0.5385
  O  O77  1  0.817600  0.020400  0.471700  1.0  -0.6191
  O  O78  1  0.594100  0.002700  0.512300  1.0  -0.5478
  O  O79  1  0.978500  0.220400  0.419100  1.0  -0.6123
  O  O80  1  0.819100  0.359300  0.389700  1.0  -0.5988
  O  O81  1  0.613700  0.473100  0.612600  1.0  -0.5695
  O  O82  1  0.780300  0.437000  0.732000  1.0  -0.5254
  O  O83  1  0.761200  0.605400  0.447900  1.0  -0.6533
  O  O84  1  0.940400  0.725200  0.427400  1.0  -0.5385
  O  O85  1  0.317600  0.520400  0.471700  1.0  -0.6191
  O  O86  1  0.094100  0.502700  0.512300  1.0  -0.5478
  O  O87  1  0.478500  0.720400  0.419100  1.0  -0.6123
  O  O88  1  0.319100  0.859300  0.389700  1.0  -0.5988
