# generated using pymatgen
data_MnH6(C3O)4
_symmetry_space_group_name_H-M   'P 1'
_cell_length_a   11.22320000
_cell_length_b   11.22320000
_cell_length_c   21.25500000
_cell_angle_alpha   95.80600000
_cell_angle_beta   95.80600000
_cell_angle_gamma   106.98500000
_symmetry_Int_Tables_number   1
_chemical_formula_structural   MnH6(C3O)4
_chemical_formula_sum   'Mn6 H36 C72 O24'
_cell_volume   2523.21726394
_cell_formula_units_Z   6
loop_
 _symmetry_equiv_pos_site_id
 _symmetry_equiv_pos_as_xyz
  1  'x, y, z'
loop_
 _atom_site_type_symbol
 _atom_site_label
 _atom_site_symmetry_multiplicity
 _atom_site_fract_x
 _atom_site_fract_y
 _atom_site_fract_z
 _atom_site_occupancy
 _atom_site_charge
  Mn  Mn1  1  0.000360  0.482840  0.192100  1.0  1.083
  Mn  Mn2  1  0.517160  0.999640  0.307900  1.0  1.0839
  Mn  Mn3  1  0.999640  0.517160  0.807900  1.0  1.0835
  Mn  Mn4  1  0.482840  0.000360  0.692100  1.0  1.0828
  Mn  Mn5  1  0.747370  0.252630  0.250000  1.0  1.0001
  Mn  Mn6  1  0.252630  0.747370  0.750000  1.0  0.998
  H  H7  1  0.756500  0.469700  0.493400  1.0  0.0807
  H  H8  1  0.848200  0.452200  0.391000  1.0  0.1005
  H  H9  1  0.767400  0.980400  0.094500  1.0  0.0811
  H  H10  1  0.776800  0.844000  0.009200  1.0  0.1074
  H  H11  1  0.105100  0.213500  0.076900  1.0  0.1038
  H  H12  1  0.670600  0.563600  0.922500  1.0  0.1168
  H  H13  1  0.737500  0.508900  0.028700  1.0  0.108
  H  H14  1  0.218700  0.505300  0.397600  1.0  0.1037
  H  H15  1  0.482600  0.403600  0.147300  1.0  0.1091
  H  H16  1  0.530300  0.243500  0.006600  1.0  0.0804
  H  H17  1  0.547800  0.151800  0.109000  1.0  0.1012
  H  H18  1  0.019600  0.232600  0.405500  1.0  0.0817
  H  H19  1  0.156000  0.223200  0.490800  1.0  0.1067
  H  H20  1  0.786500  0.894900  0.423100  1.0  0.1029
  H  H21  1  0.436400  0.329400  0.577500  1.0  0.1172
  H  H22  1  0.491100  0.262500  0.471300  1.0  0.1101
  H  H23  1  0.494700  0.781300  0.102400  1.0  0.104
  H  H24  1  0.596400  0.517400  0.352700  1.0  0.109
  H  H25  1  0.243500  0.530300  0.506600  1.0  0.08
  H  H26  1  0.151800  0.547800  0.609000  1.0  0.1008
  H  H27  1  0.232600  0.019600  0.905500  1.0  0.0805
  H  H28  1  0.223200  0.156000  0.990800  1.0  0.1073
  H  H29  1  0.894900  0.786500  0.923100  1.0  0.1037
  H  H30  1  0.329400  0.436400  0.077500  1.0  0.1181
  H  H31  1  0.262500  0.491100  0.971300  1.0  0.1087
  H  H32  1  0.781300  0.494700  0.602400  1.0  0.1041
  H  H33  1  0.517400  0.596400  0.852700  1.0  0.1099
  H  H34  1  0.469700  0.756500  0.993400  1.0  0.0802
  H  H35  1  0.452200  0.848200  0.891000  1.0  0.1013
  H  H36  1  0.980400  0.767400  0.594500  1.0  0.0818
  H  H37  1  0.844000  0.776800  0.509200  1.0  0.1066
  H  H38  1  0.213500  0.105100  0.576900  1.0  0.103
  H  H39  1  0.563600  0.670600  0.422500  1.0  0.1173
  H  H40  1  0.508900  0.737500  0.528700  1.0  0.11
  H  H41  1  0.505300  0.218700  0.897600  1.0  0.1039
  H  H42  1  0.403600  0.482600  0.647300  1.0  0.1086
  C  C43  1  0.939500  0.488100  0.482520  1.0  0.0374
  C  C44  1  0.950500  0.944500  0.989650  1.0  0.0351
  C  C45  1  0.016200  0.464800  0.312630  1.0  0.6874
  C  C46  1  0.835800  0.483600  0.516100  1.0  -0.1037
  C  C47  1  0.927200  0.469800  0.414590  1.0  -0.0527
  C  C48  1  0.837600  0.999400  0.073100  1.0  -0.0283
  C  C49  1  0.028300  0.477300  0.383740  1.0  -0.1246
  C  C50  1  0.843000  0.917400  0.022400  1.0  -0.1381
  C  C51  1  0.722900  0.421900  0.139500  1.0  0.6993
  C  C52  1  0.924300  0.204100  0.148100  1.0  0.729
  C  C53  1  0.039900  0.139300  0.063000  1.0  -0.0532
  C  C54  1  0.934800  0.111600  0.093770  1.0  -0.1558
  C  C55  1  0.589800  0.550600  0.933200  1.0  -0.1409
  C  C56  1  0.655400  0.492600  0.037800  1.0  -0.0786
  C  C57  1  0.149500  0.500700  0.418900  1.0  -0.0485
  C  C58  1  0.561700  0.511300  0.992400  1.0  0.041
  C  C59  1  0.626300  0.451300  0.094100  1.0  -0.1375
  C  C60  1  0.502200  0.430600  0.108600  1.0  -0.0502
  C  C61  1  0.511900  0.060500  0.017480  1.0  0.0371
  C  C62  1  0.055500  0.049500  0.510350  1.0  0.0354
  C  C63  1  0.535200  0.983800  0.187370  1.0  0.6885
  C  C64  1  0.516400  0.164200  0.983900  1.0  -0.1043
  C  C65  1  0.530200  0.072800  0.085410  1.0  -0.0513
  C  C66  1  0.000600  0.162400  0.426900  1.0  -0.031
  C  C67  1  0.522700  0.971700  0.116260  1.0  -0.1264
  C  C68  1  0.082600  0.157000  0.477600  1.0  -0.1411
  C  C69  1  0.578100  0.277100  0.360500  1.0  0.7
  C  C70  1  0.795900  0.075700  0.351900  1.0  0.7276
  C  C71  1  0.860700  0.960100  0.437000  1.0  -0.0533
  C  C72  1  0.888400  0.065200  0.406230  1.0  -0.1518
  C  C73  1  0.449400  0.410200  0.566800  1.0  -0.1397
  C  C74  1  0.507400  0.344600  0.462200  1.0  -0.0762
  C  C75  1  0.499300  0.850500  0.081100  1.0  -0.0495
  C  C76  1  0.488700  0.438300  0.507600  1.0  0.0424
  C  C77  1  0.548700  0.373700  0.405900  1.0  -0.1364
  C  C78  1  0.569400  0.497800  0.391400  1.0  -0.0484
  C  C79  1  0.060500  0.511900  0.517480  1.0  0.0371
  C  C80  1  0.049500  0.055500  0.010350  1.0  0.0357
  C  C81  1  0.983800  0.535200  0.687370  1.0  0.6871
  C  C82  1  0.164200  0.516400  0.483900  1.0  -0.1146
  C  C83  1  0.072800  0.530200  0.585410  1.0  -0.0516
  C  C84  1  0.162400  0.000600  0.926900  1.0  -0.0289
  C  C85  1  0.971700  0.522700  0.616260  1.0  -0.1251
  C  C86  1  0.157000  0.082600  0.977600  1.0  -0.1373
  C  C87  1  0.277100  0.578100  0.860500  1.0  0.6982
  C  C88  1  0.075700  0.795900  0.851900  1.0  0.7298
  C  C89  1  0.960100  0.860700  0.937000  1.0  -0.056
  C  C90  1  0.065200  0.888400  0.906230  1.0  -0.1546
  C  C91  1  0.410200  0.449400  0.066800  1.0  -0.1389
  C  C92  1  0.344600  0.507400  0.962200  1.0  -0.0775
  C  C93  1  0.850500  0.499300  0.581100  1.0  -0.0482
  C  C94  1  0.438300  0.488700  0.007600  1.0  0.0413
  C  C95  1  0.373700  0.548700  0.905900  1.0  -0.1374
  C  C96  1  0.497800  0.569400  0.891400  1.0  -0.0496
  C  C97  1  0.488100  0.939500  0.982520  1.0  0.0369
  C  C98  1  0.944500  0.950500  0.489650  1.0  0.0355
  C  C99  1  0.464800  0.016200  0.812630  1.0  0.6886
  C  C100  1  0.483600  0.835800  0.016100  1.0  -0.1128
  C  C101  1  0.469800  0.927200  0.914590  1.0  -0.0524
  C  C102  1  0.999400  0.837600  0.573100  1.0  -0.0308
  C  C103  1  0.477300  0.028300  0.883740  1.0  -0.1256
  C  C104  1  0.917400  0.843000  0.522400  1.0  -0.139
  C  C105  1  0.421900  0.722900  0.639500  1.0  0.7009
  C  C106  1  0.204100  0.924300  0.648100  1.0  0.727
  C  C107  1  0.139300  0.039900  0.563000  1.0  -0.0545
  C  C108  1  0.111600  0.934800  0.593770  1.0  -0.1533
  C  C109  1  0.550600  0.589800  0.433200  1.0  -0.1395
  C  C110  1  0.492600  0.655400  0.537800  1.0  -0.0758
  C  C111  1  0.500700  0.149500  0.918900  1.0  -0.0484
  C  C112  1  0.511300  0.561700  0.492400  1.0  0.0428
  C  C113  1  0.451300  0.626300  0.594100  1.0  -0.1362
  C  C114  1  0.430600  0.502200  0.608600  1.0  -0.0496
  O  O115  1  0.908120  0.421480  0.279690  1.0  -0.623
  O  O116  1  0.010500  0.306900  0.159410  1.0  -0.6388
  O  O117  1  0.832360  0.170640  0.177760  1.0  -0.5595
  O  O118  1  0.112000  0.505200  0.286740  1.0  -0.5849
  O  O119  1  0.835500  0.457900  0.129530  1.0  -0.6438
  O  O120  1  0.682100  0.360500  0.183510  1.0  -0.5606
  O  O121  1  0.578520  0.091880  0.220310  1.0  -0.6257
  O  O122  1  0.693100  0.989500  0.340590  1.0  -0.6378
  O  O123  1  0.829360  0.167640  0.322240  1.0  -0.5598
  O  O124  1  0.494800  0.888000  0.213260  1.0  -0.5829
  O  O125  1  0.542100  0.164500  0.370470  1.0  -0.6443
  O  O126  1  0.639500  0.317900  0.316490  1.0  -0.5638
  O  O127  1  0.091880  0.578520  0.720310  1.0  -0.624
  O  O128  1  0.989500  0.693100  0.840590  1.0  -0.639
  O  O129  1  0.167640  0.829360  0.822240  1.0  -0.559
  O  O130  1  0.888000  0.494800  0.713260  1.0  -0.5836
  O  O131  1  0.164500  0.542100  0.870470  1.0  -0.6442
  O  O132  1  0.317900  0.639500  0.816490  1.0  -0.56
  O  O133  1  0.421480  0.908120  0.779690  1.0  -0.6243
  O  O134  1  0.306900  0.010500  0.659410  1.0  -0.6374
  O  O135  1  0.170640  0.832360  0.677760  1.0  -0.5599
  O  O136  1  0.505200  0.112000  0.786740  1.0  -0.5833
  O  O137  1  0.457900  0.835500  0.629530  1.0  -0.644
  O  O138  1  0.360500  0.682100  0.683510  1.0  -0.5601
