# generated using pymatgen
data_Fe4P7(H2O7)3
_symmetry_space_group_name_H-M   'P 1'
_cell_length_a   13.48600000
_cell_length_b   13.48600000
_cell_length_c   18.31000000
_cell_angle_alpha   90.00000000
_cell_angle_beta   90.00000000
_cell_angle_gamma   120.00000000
_symmetry_Int_Tables_number   1
_chemical_formula_structural   Fe4P7(H2O7)3
_chemical_formula_sum   'Fe16 P28 H24 O84'
_cell_volume   2883.93379762
_cell_formula_units_Z   4
loop_
 _symmetry_equiv_pos_site_id
 _symmetry_equiv_pos_as_xyz
  1  'x, y, z'
loop_
 _atom_site_type_symbol
 _atom_site_label
 _atom_site_symmetry_multiplicity
 _atom_site_fract_x
 _atom_site_fract_y
 _atom_site_fract_z
 _atom_site_occupancy
 _atom_site_charge
  Fe  Fe1  1  0.293520  0.437330  0.456090  1.0  1.299
  Fe  Fe2  1  0.562670  0.856190  0.456090  1.0  1.3005
  Fe  Fe3  1  0.143810  0.706480  0.456090  1.0  1.3037
  Fe  Fe4  1  0.437330  0.293520  0.043910  1.0  1.3066
  Fe  Fe5  1  0.856190  0.562670  0.043910  1.0  1.302
  Fe  Fe6  1  0.706480  0.143810  0.043910  1.0  1.3032
  Fe  Fe7  1  0.706480  0.562670  0.543910  1.0  1.3022
  Fe  Fe8  1  0.437330  0.143810  0.543910  1.0  1.3047
  Fe  Fe9  1  0.856190  0.293520  0.543910  1.0  1.305
  Fe  Fe10  1  0.562670  0.706480  0.956090  1.0  1.3019
  Fe  Fe11  1  0.143810  0.437330  0.956090  1.0  1.2992
  Fe  Fe12  1  0.293520  0.856190  0.956090  1.0  1.3022
  Fe  Fe13  1  0.000000  0.000000  0.250000  1.0  1.1039
  Fe  Fe14  1  0.000000  0.000000  0.750000  1.0  1.1039
  Fe  Fe15  1  0.000000  0.000000  0.500000  1.0  0.9667
  Fe  Fe16  1  0.000000  0.000000  0.000000  1.0  0.9667
  P  P17  1  0.157910  0.188930  0.370800  1.0  1.581
  P  P18  1  0.504780  0.631930  0.552800  1.0  1.5523
  P  P19  1  0.811070  0.968980  0.370800  1.0  1.563
  P  P20  1  0.368070  0.872850  0.552800  1.0  1.5561
  P  P21  1  0.031020  0.842090  0.370800  1.0  1.5684
  P  P22  1  0.127150  0.495220  0.552800  1.0  1.5682
  P  P23  1  0.188930  0.157910  0.129200  1.0  1.5672
  P  P24  1  0.631930  0.504780  0.947200  1.0  1.5696
  P  P25  1  0.968980  0.811070  0.129200  1.0  1.5822
  P  P26  1  0.872850  0.368070  0.947200  1.0  1.5572
  P  P27  1  0.842090  0.031020  0.129200  1.0  1.567
  P  P28  1  0.495220  0.127150  0.947200  1.0  1.5529
  P  P29  1  0.842090  0.811070  0.629200  1.0  1.5758
  P  P30  1  0.495220  0.368070  0.447200  1.0  1.5661
  P  P31  1  0.188930  0.031020  0.629200  1.0  1.5758
  P  P32  1  0.631930  0.127150  0.447200  1.0  1.5623
  P  P33  1  0.968980  0.157910  0.629200  1.0  1.5741
  P  P34  1  0.872850  0.504780  0.447200  1.0  1.5607
  P  P35  1  0.811070  0.842090  0.870800  1.0  1.5743
  P  P36  1  0.368070  0.495220  0.052800  1.0  1.5595
  P  P37  1  0.031020  0.188930  0.870800  1.0  1.5739
  P  P38  1  0.127150  0.631930  0.052800  1.0  1.5615
  P  P39  1  0.157910  0.968980  0.870800  1.0  1.5724
  P  P40  1  0.504780  0.872850  0.052800  1.0  1.5656
  P  P41  1  0.333333  0.666667  0.360920  1.0  0.8823
  P  P42  1  0.666667  0.333333  0.139080  1.0  0.8817
  P  P43  1  0.666667  0.333333  0.639080  1.0  0.8817
  P  P44  1  0.333333  0.666667  0.860920  1.0  0.8823
  H  H45  1  0.227300  0.195200  0.349100  1.0  0.1536
  H  H46  1  0.503100  0.676000  0.594900  1.0  0.1549
  H  H47  1  0.804800  0.032100  0.349100  1.0  0.1545
  H  H48  1  0.324000  0.827100  0.594900  1.0  0.1549
  H  H49  1  0.967900  0.772700  0.349100  1.0  0.156
  H  H50  1  0.172900  0.496900  0.594900  1.0  0.1547
  H  H51  1  0.195200  0.227300  0.150900  1.0  0.1568
  H  H52  1  0.676000  0.503100  0.905100  1.0  0.1544
  H  H53  1  0.032100  0.804800  0.150900  1.0  0.1539
  H  H54  1  0.827100  0.324000  0.905100  1.0  0.1544
  H  H55  1  0.772700  0.967900  0.150900  1.0  0.1556
  H  H56  1  0.496900  0.172900  0.905100  1.0  0.1549
  H  H57  1  0.772700  0.804800  0.650900  1.0  0.1542
  H  H58  1  0.496900  0.324000  0.405100  1.0  0.155
  H  H59  1  0.195200  0.967900  0.650900  1.0  0.1554
  H  H60  1  0.676000  0.172900  0.405100  1.0  0.1551
  H  H61  1  0.032100  0.227300  0.650900  1.0  0.1565
  H  H62  1  0.827100  0.503100  0.405100  1.0  0.1539
  H  H63  1  0.804800  0.772700  0.849100  1.0  0.1559
  H  H64  1  0.324000  0.496900  0.094900  1.0  0.1542
  H  H65  1  0.967900  0.195200  0.849100  1.0  0.1539
  H  H66  1  0.172900  0.676000  0.094900  1.0  0.1555
  H  H67  1  0.227300  0.032100  0.849100  1.0  0.1545
  H  H68  1  0.503100  0.827100  0.094900  1.0  0.1552
  O  O69  1  0.065900  0.140500  0.312240  1.0  -0.7721
  O  O70  1  0.130800  0.114600  0.438150  1.0  -0.7732
  O  O71  1  0.328100  0.555600  0.380630  1.0  -0.7969
  O  O72  1  0.381700  0.545800  0.535100  1.0  -0.7756
  O  O73  1  0.573900  0.576300  0.575900  1.0  -0.7495
  O  O74  1  0.566500  0.717800  0.491700  1.0  -0.7404
  O  O75  1  0.184800  0.310700  0.389000  1.0  -0.776
  O  O76  1  0.859500  0.925400  0.312240  1.0  -0.7753
  O  O77  1  0.885400  0.016200  0.438150  1.0  -0.7734
  O  O78  1  0.444400  0.772500  0.380630  1.0  -0.7983
  O  O79  1  0.454200  0.835900  0.535100  1.0  -0.7741
  O  O80  1  0.423700  0.997600  0.575900  1.0  -0.7487
  O  O81  1  0.282200  0.848700  0.491700  1.0  -0.7395
  O  O82  1  0.689300  0.874100  0.389000  1.0  -0.7749
  O  O83  1  0.074600  0.934100  0.312240  1.0  -0.7744
  O  O84  1  0.983800  0.869200  0.438150  1.0  -0.7741
  O  O85  1  0.227500  0.671900  0.380630  1.0  -0.7965
  O  O86  1  0.164100  0.618300  0.535100  1.0  -0.7745
  O  O87  1  0.002400  0.426100  0.575900  1.0  -0.7477
  O  O88  1  0.151300  0.433500  0.491700  1.0  -0.741
  O  O89  1  0.125900  0.815200  0.389000  1.0  -0.7752
  O  O90  1  0.140500  0.065900  0.187760  1.0  -0.7737
  O  O91  1  0.114600  0.130800  0.061850  1.0  -0.7737
  O  O92  1  0.555600  0.328100  0.119370  1.0  -0.7984
  O  O93  1  0.545800  0.381700  0.964900  1.0  -0.7752
  O  O94  1  0.576300  0.573900  0.924100  1.0  -0.7482
  O  O95  1  0.717800  0.566500  0.008300  1.0  -0.7403
  O  O96  1  0.310700  0.184800  0.111000  1.0  -0.7767
  O  O97  1  0.925400  0.859500  0.187760  1.0  -0.7735
  O  O98  1  0.016200  0.885400  0.061850  1.0  -0.7732
  O  O99  1  0.772500  0.444400  0.119370  1.0  -0.7994
  O  O100  1  0.835900  0.454200  0.964900  1.0  -0.7755
  O  O101  1  0.997600  0.423700  0.924100  1.0  -0.7498
  O  O102  1  0.848700  0.282200  0.008300  1.0  -0.7409
  O  O103  1  0.874100  0.689300  0.111000  1.0  -0.7753
  O  O104  1  0.934100  0.074600  0.187760  1.0  -0.7746
  O  O105  1  0.869200  0.983800  0.061850  1.0  -0.7738
  O  O106  1  0.671900  0.227500  0.119370  1.0  -0.8003
  O  O107  1  0.618300  0.164100  0.964900  1.0  -0.7736
  O  O108  1  0.426100  0.002400  0.924100  1.0  -0.7495
  O  O109  1  0.433500  0.151300  0.008300  1.0  -0.7397
  O  O110  1  0.815200  0.125900  0.111000  1.0  -0.7774
  O  O111  1  0.934100  0.859500  0.687760  1.0  -0.7742
  O  O112  1  0.869200  0.885400  0.561850  1.0  -0.7736
  O  O113  1  0.671900  0.444400  0.619370  1.0  -0.7992
  O  O114  1  0.618300  0.454200  0.464900  1.0  -0.7751
  O  O115  1  0.426100  0.423700  0.424100  1.0  -0.7492
  O  O116  1  0.433500  0.282200  0.508300  1.0  -0.7407
  O  O117  1  0.815200  0.689300  0.611000  1.0  -0.7761
  O  O118  1  0.140500  0.074600  0.687760  1.0  -0.7732
  O  O119  1  0.114600  0.983800  0.561850  1.0  -0.7741
  O  O120  1  0.555600  0.227500  0.619370  1.0  -0.8015
  O  O121  1  0.545800  0.164100  0.464900  1.0  -0.7742
  O  O122  1  0.576300  0.002400  0.424100  1.0  -0.7496
  O  O123  1  0.717800  0.151300  0.508300  1.0  -0.7395
  O  O124  1  0.310700  0.125900  0.611000  1.0  -0.7768
  O  O125  1  0.925400  0.065900  0.687760  1.0  -0.7739
  O  O126  1  0.016200  0.130800  0.561850  1.0  -0.7739
  O  O127  1  0.772500  0.328100  0.619370  1.0  -0.7989
  O  O128  1  0.835900  0.381700  0.464900  1.0  -0.7744
  O  O129  1  0.997600  0.573900  0.424100  1.0  -0.7487
  O  O130  1  0.848700  0.566500  0.508300  1.0  -0.7405
  O  O131  1  0.874100  0.184800  0.611000  1.0  -0.775
  O  O132  1  0.859500  0.934100  0.812240  1.0  -0.7742
  O  O133  1  0.885400  0.869200  0.938150  1.0  -0.7741
  O  O134  1  0.444400  0.671900  0.880630  1.0  -0.7954
  O  O135  1  0.454200  0.618300  0.035100  1.0  -0.7741
  O  O136  1  0.423700  0.426100  0.075900  1.0  -0.7483
  O  O137  1  0.282200  0.433500  0.991700  1.0  -0.7399
  O  O138  1  0.689300  0.815200  0.889000  1.0  -0.7729
  O  O139  1  0.074600  0.140500  0.812240  1.0  -0.7721
  O  O140  1  0.983800  0.114600  0.938150  1.0  -0.773
  O  O141  1  0.227500  0.555600  0.880630  1.0  -0.7979
  O  O142  1  0.164100  0.545800  0.035100  1.0  -0.7759
  O  O143  1  0.002400  0.576300  0.075900  1.0  -0.7484
  O  O144  1  0.151300  0.717800  0.991700  1.0  -0.7399
  O  O145  1  0.125900  0.310700  0.889000  1.0  -0.7759
  O  O146  1  0.065900  0.925400  0.812240  1.0  -0.7742
  O  O147  1  0.130800  0.016200  0.938150  1.0  -0.774
  O  O148  1  0.328100  0.772500  0.880630  1.0  -0.7984
  O  O149  1  0.381700  0.835900  0.035100  1.0  -0.7743
  O  O150  1  0.573900  0.997600  0.075900  1.0  -0.7496
  O  O151  1  0.566500  0.848700  0.991700  1.0  -0.7406
  O  O152  1  0.184800  0.874100  0.889000  1.0  -0.7751
