# generated using pymatgen
data_MnH6(C3O)4
_symmetry_space_group_name_H-M   'P 1'
_cell_length_a   11.13770000
_cell_length_b   11.13770000
_cell_length_c   21.40350000
_cell_angle_alpha   95.98480000
_cell_angle_beta   95.98480000
_cell_angle_gamma   107.08100000
_symmetry_Int_Tables_number   1
_chemical_formula_structural   MnH6(C3O)4
_chemical_formula_sum   'Mn6 H36 C72 O24'
_cell_volume   2498.58531580
_cell_formula_units_Z   6
loop_
 _symmetry_equiv_pos_site_id
 _symmetry_equiv_pos_as_xyz
  1  'x, y, z'
loop_
 _atom_site_type_symbol
 _atom_site_label
 _atom_site_symmetry_multiplicity
 _atom_site_fract_x
 _atom_site_fract_y
 _atom_site_fract_z
 _atom_site_occupancy
 _atom_site_charge
  Mn  Mn1  1  0.497180  0.015980  0.806290  1.0  1.1077
  Mn  Mn2  1  0.984020  0.502820  0.693710  1.0  1.1061
  Mn  Mn3  1  0.502820  0.984020  0.193710  1.0  1.105
  Mn  Mn4  1  0.015980  0.497180  0.306290  1.0  1.1078
  Mn  Mn5  1  0.752820  0.247180  0.750000  1.0  0.9602
  Mn  Mn6  1  0.247180  0.752820  0.250000  1.0  0.9611
  H  H7  1  0.393100  0.285900  0.921800  1.0  0.1075
  H  H8  1  0.737300  0.521100  0.907200  1.0  0.0832
  H  H9  1  0.726000  0.658600  0.993000  1.0  0.1083
  H  H10  1  0.653500  0.047900  0.609000  1.0  0.1065
  H  H11  1  0.277100  0.990300  0.601000  1.0  0.1109
  H  H12  1  0.253700  0.968500  0.492000  1.0  0.0849
  H  H13  1  0.012300  0.240300  0.530300  1.0  0.116
  H  H14  1  0.904300  0.980500  0.647100  1.0  0.1108
  H  H15  1  0.936300  0.826700  0.576200  1.0  0.1145
  H  H16  1  0.714100  0.606900  0.578200  1.0  0.1069
  H  H17  1  0.478900  0.262700  0.592800  1.0  0.0846
  H  H18  1  0.341400  0.274000  0.507000  1.0  0.1083
  H  H19  1  0.952100  0.346500  0.891000  1.0  0.1067
  H  H20  1  0.009700  0.722900  0.899000  1.0  0.1103
  H  H21  1  0.031500  0.746300  0.008000  1.0  0.0843
  H  H22  1  0.759700  0.987700  0.969700  1.0  0.1141
  H  H23  1  0.019500  0.095700  0.852900  1.0  0.1118
  H  H24  1  0.173300  0.063700  0.923800  1.0  0.1148
  H  H25  1  0.606900  0.714100  0.078200  1.0  0.1079
  H  H26  1  0.262700  0.478900  0.092800  1.0  0.0837
  H  H27  1  0.274000  0.341400  0.007000  1.0  0.1085
  H  H28  1  0.346500  0.952100  0.391000  1.0  0.1063
  H  H29  1  0.722900  0.009700  0.399000  1.0  0.1103
  H  H30  1  0.746300  0.031500  0.508000  1.0  0.0842
  H  H31  1  0.987700  0.759700  0.469700  1.0  0.1182
  H  H32  1  0.095700  0.019500  0.352900  1.0  0.111
  H  H33  1  0.063700  0.173300  0.423800  1.0  0.1147
  H  H34  1  0.285900  0.393100  0.421800  1.0  0.1066
  H  H35  1  0.521100  0.737300  0.407200  1.0  0.0842
  H  H36  1  0.658600  0.726000  0.493000  1.0  0.1083
  H  H37  1  0.047900  0.653500  0.109000  1.0  0.1068
  H  H38  1  0.990300  0.277100  0.101000  1.0  0.1106
  H  H39  1  0.968500  0.253700  0.992000  1.0  0.0844
  H  H40  1  0.240300  0.012300  0.030300  1.0  0.1163
  H  H41  1  0.980500  0.904300  0.147100  1.0  0.1114
  H  H42  1  0.826700  0.936300  0.076200  1.0  0.1157
  C  C43  1  0.449660  0.443520  0.989390  1.0  0.0442
  C  C44  1  0.459780  0.361120  0.936480  1.0  -0.0864
  C  C45  1  0.565140  0.389260  0.906440  1.0  -0.1374
  C  C46  1  0.665010  0.501790  0.927990  1.0  -0.0351
  C  C47  1  0.658280  0.583720  0.978970  1.0  -0.1307
  C  C48  1  0.575010  0.297990  0.851250  1.0  0.7255
  C  C49  1  0.560990  0.012170  0.517760  1.0  0.0394
  C  C50  1  0.573110  0.029970  0.584890  1.0  -0.0589
  C  C51  1  0.469410  0.021350  0.614980  1.0  -0.1283
  C  C52  1  0.348200  0.996800  0.579850  1.0  -0.0427
  C  C53  1  0.334290  0.982310  0.515100  1.0  -0.1147
  C  C54  1  0.481150  0.031670  0.685640  1.0  0.6834
  C  C55  1  0.011860  0.062500  0.493030  1.0  0.0451
  C  C56  1  0.994760  0.156240  0.538680  1.0  -0.1013
  C  C57  1  0.953090  0.125710  0.594580  1.0  -0.1263
  C  C58  1  0.931540  0.001060  0.608310  1.0  -0.0442
  C  C59  1  0.949610  0.909190  0.565950  1.0  -0.1557
  C  C60  1  0.923250  0.223150  0.639880  1.0  0.7127
  C  C61  1  0.556480  0.550340  0.510610  1.0  0.0438
  C  C62  1  0.638880  0.540220  0.563520  1.0  -0.0838
  C  C63  1  0.610740  0.434860  0.593560  1.0  -0.1353
  C  C64  1  0.498210  0.334990  0.572010  1.0  -0.0361
  C  C65  1  0.416280  0.341720  0.521030  1.0  -0.1322
  C  C66  1  0.702010  0.424990  0.648750  1.0  0.7195
  C  C67  1  0.987830  0.439010  0.982240  1.0  0.0395
  C  C68  1  0.970030  0.426890  0.915110  1.0  -0.0591
  C  C69  1  0.978650  0.530590  0.885020  1.0  -0.1318
  C  C70  1  0.003200  0.651800  0.920150  1.0  -0.0436
  C  C71  1  0.017690  0.665710  0.984900  1.0  -0.1157
  C  C72  1  0.968330  0.518850  0.814360  1.0  0.6854
  C  C73  1  0.937500  0.988140  0.006970  1.0  0.0435
  C  C74  1  0.843760  0.005240  0.961320  1.0  -0.1032
  C  C75  1  0.874290  0.046910  0.905420  1.0  -0.1274
  C  C76  1  0.998940  0.068460  0.891690  1.0  -0.0443
  C  C77  1  0.090810  0.050390  0.934050  1.0  -0.16
  C  C78  1  0.776850  0.076750  0.860120  1.0  0.7134
  C  C79  1  0.550340  0.556480  0.010610  1.0  0.0439
  C  C80  1  0.540220  0.638880  0.063520  1.0  -0.0845
  C  C81  1  0.434860  0.610740  0.093560  1.0  -0.1379
  C  C82  1  0.334990  0.498210  0.072010  1.0  -0.0351
  C  C83  1  0.341720  0.416280  0.021030  1.0  -0.1247
  C  C84  1  0.424990  0.702010  0.148750  1.0  0.7211
  C  C85  1  0.439010  0.987830  0.482240  1.0  0.0398
  C  C86  1  0.426890  0.970030  0.415110  1.0  -0.0566
  C  C87  1  0.530590  0.978650  0.385020  1.0  -0.1307
  C  C88  1  0.651800  0.003200  0.420150  1.0  -0.0429
  C  C89  1  0.665710  0.017690  0.484900  1.0  -0.1111
  C  C90  1  0.518850  0.968330  0.314360  1.0  0.6842
  C  C91  1  0.988140  0.937500  0.506970  1.0  0.0443
  C  C92  1  0.005240  0.843760  0.461320  1.0  -0.1044
  C  C93  1  0.046910  0.874290  0.405420  1.0  -0.1273
  C  C94  1  0.068460  0.998940  0.391690  1.0  -0.0431
  C  C95  1  0.050390  0.090810  0.434050  1.0  -0.1557
  C  C96  1  0.076750  0.776850  0.360120  1.0  0.7135
  C  C97  1  0.443520  0.449660  0.489390  1.0  0.0442
  C  C98  1  0.361120  0.459780  0.436480  1.0  -0.0832
  C  C99  1  0.389260  0.565140  0.406440  1.0  -0.1349
  C  C100  1  0.501790  0.665010  0.427990  1.0  -0.0362
  C  C101  1  0.583720  0.658280  0.478970  1.0  -0.1262
  C  C102  1  0.297990  0.575010  0.351250  1.0  0.7225
  C  C103  1  0.012170  0.560990  0.017760  1.0  0.0395
  C  C104  1  0.029970  0.573110  0.084890  1.0  -0.057
  C  C105  1  0.021350  0.469410  0.114980  1.0  -0.1305
  C  C106  1  0.996800  0.348200  0.079850  1.0  -0.0439
  C  C107  1  0.982310  0.334290  0.015100  1.0  -0.1089
  C  C108  1  0.031670  0.481150  0.185640  1.0  0.6849
  C  C109  1  0.062500  0.011860  0.993030  1.0  0.0439
  C  C110  1  0.156240  0.994760  0.038680  1.0  -0.1066
  C  C111  1  0.125710  0.953090  0.094580  1.0  -0.1268
  C  C112  1  0.001060  0.931540  0.108310  1.0  -0.0451
  C  C113  1  0.909190  0.949610  0.065950  1.0  -0.1565
  C  C114  1  0.223150  0.923250  0.139880  1.0  0.7117
  O  O115  1  0.668890  0.331730  0.822630  1.0  -0.5616
  O  O116  1  0.487060  0.194760  0.838670  1.0  -0.6414
  O  O117  1  0.590500  0.075120  0.718900  1.0  -0.6267
  O  O118  1  0.384030  0.991990  0.711000  1.0  -0.5813
  O  O119  1  0.864150  0.182470  0.683790  1.0  -0.5611
  O  O120  1  0.959130  0.336310  0.629960  1.0  -0.646
  O  O121  1  0.668270  0.331110  0.677370  1.0  -0.5621
  O  O122  1  0.805240  0.512940  0.661330  1.0  -0.6375
  O  O123  1  0.924880  0.409500  0.781100  1.0  -0.6262
  O  O124  1  0.008010  0.615970  0.789000  1.0  -0.5786
  O  O125  1  0.817530  0.135850  0.816210  1.0  -0.5615
  O  O126  1  0.663690  0.040870  0.870040  1.0  -0.6466
  O  O127  1  0.331110  0.668270  0.177370  1.0  -0.5604
  O  O128  1  0.512940  0.805240  0.161330  1.0  -0.6397
  O  O129  1  0.409500  0.924880  0.281100  1.0  -0.6257
  O  O130  1  0.615970  0.008010  0.289000  1.0  -0.5811
  O  O131  1  0.135850  0.817530  0.316210  1.0  -0.5656
  O  O132  1  0.040870  0.663690  0.370040  1.0  -0.6452
  O  O133  1  0.331730  0.668890  0.322630  1.0  -0.5624
  O  O134  1  0.194760  0.487060  0.338670  1.0  -0.64
  O  O135  1  0.075120  0.590500  0.218900  1.0  -0.6278
  O  O136  1  0.991990  0.384030  0.211000  1.0  -0.5788
  O  O137  1  0.182470  0.864150  0.183790  1.0  -0.5635
  O  O138  1  0.336310  0.959130  0.129960  1.0  -0.6457
