# generated using pymatgen
data_GdH9C12(NO2)3
_symmetry_space_group_name_H-M   'P 1'
_cell_length_a   10.48830000
_cell_length_b   11.22140000
_cell_length_c   12.74100000
_cell_angle_alpha   100.98600000
_cell_angle_beta   110.35200000
_cell_angle_gamma   99.77200000
_symmetry_Int_Tables_number   1
_chemical_formula_structural   GdH9C12(NO2)3
_chemical_formula_sum   'Gd2 H18 C24 N6 O12'
_cell_volume   1334.01194082
_cell_formula_units_Z   2
loop_
 _symmetry_equiv_pos_site_id
 _symmetry_equiv_pos_as_xyz
  1  'x, y, z'
loop_
 _atom_site_type_symbol
 _atom_site_label
 _atom_site_symmetry_multiplicity
 _atom_site_fract_x
 _atom_site_fract_y
 _atom_site_fract_z
 _atom_site_occupancy
 _atom_site_charge
  Gd  Gd1  1  0.393430  0.451170  0.324240  1.0  2.1578
  Gd  Gd2  1  0.606570  0.548830  0.675760  1.0  2.1509
  H  H3  1  0.907500  0.574200  0.633800  1.0  0.1005
  H  H4  1  0.498200  0.134100  0.662800  1.0  0.1091
  H  H5  1  0.928900  0.134700  0.121100  1.0  0.1096
  H  H6  1  0.487500  0.029800  0.238500  1.0  0.3241
  H  H7  1  0.471000  0.156300  0.293300  1.0  0.3187
  H  H8  1  0.738500  0.369400  0.248600  1.0  0.3189
  H  H9  1  0.870300  0.356200  0.227100  1.0  0.332
  H  H10  1  0.311200  0.951400  0.983100  1.0  0.3277
  H  H11  1  0.371400  0.081700  0.068500  1.0  0.3121
  H  H12  1  0.092500  0.425800  0.366200  1.0  0.1006
  H  H13  1  0.501800  0.865900  0.337200  1.0  0.1092
  H  H14  1  0.071100  0.865300  0.878900  1.0  0.11
  H  H15  1  0.512500  0.970200  0.761500  1.0  0.3247
  H  H16  1  0.529000  0.843700  0.706700  1.0  0.3178
  H  H17  1  0.261500  0.630600  0.751400  1.0  0.3166
  H  H18  1  0.129700  0.643800  0.772900  1.0  0.3319
  H  H19  1  0.688800  0.048600  0.016900  1.0  0.3293
  H  H20  1  0.628600  0.918300  0.931500  1.0  0.3111
  C  C21  1  0.700200  0.473600  0.431000  1.0  0.6938
  C  C22  1  0.097400  0.109900  0.080300  1.0  -0.1346
  C  C23  1  0.470000  0.253600  0.499400  1.0  0.7262
  C  C24  1  0.483300  0.120800  0.497500  1.0  -0.1697
  C  C25  1  0.944900  0.543700  0.579000  1.0  -0.1782
  C  C26  1  0.486000  0.039900  0.399600  1.0  0.1818
  C  C27  1  0.855300  0.486000  0.465900  1.0  -0.1619
  C  C28  1  0.498500  0.079100  0.596200  1.0  -0.0953
  C  C29  1  0.908700  0.441000  0.384100  1.0  0.2598
  C  C30  1  0.136400  0.029400  0.005000  1.0  -0.0125
  C  C31  1  0.198800  0.228200  0.163400  1.0  0.6883
  C  C32  1  0.958000  0.079800  0.072700  1.0  -0.0477
  C  C33  1  0.299800  0.526400  0.569000  1.0  0.6942
  C  C34  1  0.902600  0.890100  0.919700  1.0  -0.1364
  C  C35  1  0.530000  0.746400  0.500600  1.0  0.7262
  C  C36  1  0.516700  0.879200  0.502500  1.0  -0.1627
  C  C37  1  0.055100  0.456300  0.421000  1.0  -0.176
  C  C38  1  0.514000  0.960100  0.600400  1.0  0.1786
  C  C39  1  0.144700  0.514000  0.534100  1.0  -0.1624
  C  C40  1  0.501500  0.920900  0.403800  1.0  -0.0942
  C  C41  1  0.091300  0.559000  0.615900  1.0  0.2598
  C  C42  1  0.863600  0.970600  0.995000  1.0  -0.0112
  C  C43  1  0.801200  0.771800  0.836600  1.0  0.6906
  C  C44  1  0.042000  0.920200  0.927300  1.0  -0.0461
  N  N45  1  0.480800  0.080700  0.297000  1.0  -0.7146
  N  N46  1  0.830600  0.382400  0.274600  1.0  -0.6805
  N  N47  1  0.298000  0.019000  0.021000  1.0  -0.6487
  N  N48  1  0.519200  0.919300  0.703000  1.0  -0.7153
  N  N49  1  0.169400  0.617600  0.725400  1.0  -0.6789
  N  N50  1  0.702000  0.981000  0.979000  1.0  -0.6483
  O  O51  1  0.620400  0.436600  0.325100  1.0  -0.6248
  O  O52  1  0.429300  0.278600  0.403600  1.0  -0.6049
  O  O53  1  0.653400  0.502600  0.508300  1.0  -0.8288
  O  O54  1  0.500500  0.328700  0.596500  1.0  -0.7314
  O  O55  1  0.316600  0.264300  0.158000  1.0  -0.6398
  O  O56  1  0.164900  0.294000  0.234800  1.0  -0.6912
  O  O57  1  0.379600  0.563400  0.674900  1.0  -0.6234
  O  O58  1  0.570700  0.721400  0.596400  1.0  -0.6054
  O  O59  1  0.346600  0.497400  0.491700  1.0  -0.8279
  O  O60  1  0.499500  0.671300  0.403500  1.0  -0.7309
  O  O61  1  0.683400  0.735700  0.842000  1.0  -0.6366
  O  O62  1  0.835100  0.706000  0.765200  1.0  -0.6912
