# generated using pymatgen
data_Cu6H9C27N13O28
_symmetry_space_group_name_H-M   'P 1'
_cell_length_a   31.36580000
_cell_length_b   31.36580000
_cell_length_c   31.36580000
_cell_angle_alpha   60.00000000
_cell_angle_beta   60.00000000
_cell_angle_gamma   60.00000000
_symmetry_Int_Tables_number   1
_chemical_formula_structural   Cu6H9C27N13O28
_chemical_formula_sum   'Cu48 H72 C216 N104 O224'
_cell_volume   21819.96797733
_cell_formula_units_Z   8
loop_
 _symmetry_equiv_pos_site_id
 _symmetry_equiv_pos_as_xyz
  1  'x, y, z'
loop_
 _atom_site_type_symbol
 _atom_site_label
 _atom_site_symmetry_multiplicity
 _atom_site_fract_x
 _atom_site_fract_y
 _atom_site_fract_z
 _atom_site_occupancy
 _atom_site_charge
  Cu  Cu1  1  0.500000  0.500000  0.837880  1.0  0.8873
  Cu  Cu2  1  0.500000  0.500000  0.753220  1.0  0.9967
  Cu  Cu3  1  0.500000  0.500000  0.162120  1.0  0.8851
  Cu  Cu4  1  0.500000  0.500000  0.246780  1.0  0.9973
  Cu  Cu5  1  0.837880  0.162120  0.500000  1.0  0.8924
  Cu  Cu6  1  0.753220  0.246780  0.500000  1.0  0.9999
  Cu  Cu7  1  0.162120  0.837880  0.500000  1.0  0.8954
  Cu  Cu8  1  0.246780  0.753220  0.500000  1.0  0.9962
  Cu  Cu9  1  0.500000  0.837880  0.162120  1.0  0.8945
  Cu  Cu10  1  0.500000  0.753220  0.246780  1.0  0.9965
  Cu  Cu11  1  0.500000  0.162120  0.837880  1.0  0.8918
  Cu  Cu12  1  0.500000  0.246780  0.753220  1.0  0.999
  Cu  Cu13  1  0.837880  0.500000  0.500000  1.0  0.8929
  Cu  Cu14  1  0.753220  0.500000  0.500000  1.0  0.9999
  Cu  Cu15  1  0.162120  0.500000  0.500000  1.0  0.8947
  Cu  Cu16  1  0.246780  0.500000  0.500000  1.0  0.9993
  Cu  Cu17  1  0.500000  0.162120  0.500000  1.0  0.8921
  Cu  Cu18  1  0.500000  0.246780  0.500000  1.0  0.9987
  Cu  Cu19  1  0.500000  0.837880  0.500000  1.0  0.8934
  Cu  Cu20  1  0.500000  0.753220  0.500000  1.0  0.9959
  Cu  Cu21  1  0.837880  0.500000  0.162120  1.0  0.8926
  Cu  Cu22  1  0.753220  0.500000  0.246780  1.0  1.0008
  Cu  Cu23  1  0.162120  0.500000  0.837880  1.0  0.8949
  Cu  Cu24  1  0.246780  0.500000  0.753220  1.0  0.9989
  Cu  Cu25  1  0.545360  0.116020  0.116020  1.0  1.0647
  Cu  Cu26  1  0.116020  0.545360  0.222600  1.0  1.064
  Cu  Cu27  1  0.116020  0.222600  0.545360  1.0  1.0658
  Cu  Cu28  1  0.222600  0.116020  0.116020  1.0  1.0627
  Cu  Cu29  1  0.545360  0.116020  0.222600  1.0  1.0672
  Cu  Cu30  1  0.116020  0.222600  0.116020  1.0  1.0644
  Cu  Cu31  1  0.116020  0.545360  0.116020  1.0  1.062
  Cu  Cu32  1  0.222600  0.116020  0.545360  1.0  1.0645
  Cu  Cu33  1  0.545360  0.222600  0.116020  1.0  1.0667
  Cu  Cu34  1  0.116020  0.116020  0.545360  1.0  1.065
  Cu  Cu35  1  0.116020  0.116020  0.222600  1.0  1.0633
  Cu  Cu36  1  0.222600  0.545360  0.116020  1.0  1.0626
  Cu  Cu37  1  0.883980  0.454640  0.883980  1.0  1.0669
  Cu  Cu38  1  0.454640  0.883980  0.777400  1.0  1.0636
  Cu  Cu39  1  0.777400  0.883980  0.454640  1.0  1.0608
  Cu  Cu40  1  0.883980  0.777400  0.883980  1.0  1.0627
  Cu  Cu41  1  0.883980  0.454640  0.777400  1.0  1.0641
  Cu  Cu42  1  0.777400  0.883980  0.883980  1.0  1.0614
  Cu  Cu43  1  0.454640  0.883980  0.883980  1.0  1.0651
  Cu  Cu44  1  0.883980  0.777400  0.454640  1.0  1.0622
  Cu  Cu45  1  0.777400  0.454640  0.883980  1.0  1.0656
  Cu  Cu46  1  0.883980  0.883980  0.454640  1.0  1.0622
  Cu  Cu47  1  0.883980  0.883980  0.777400  1.0  1.0631
  Cu  Cu48  1  0.454640  0.777400  0.883980  1.0  1.0646
  H  H49  1  0.532700  0.337100  0.923300  1.0  0.1799
  H  H50  1  0.337100  0.532700  0.206900  1.0  0.1808
  H  H51  1  0.923300  0.206900  0.532700  1.0  0.1805
  H  H52  1  0.206900  0.923300  0.337100  1.0  0.1802
  H  H53  1  0.532700  0.923300  0.206900  1.0  0.1808
  H  H54  1  0.337100  0.206900  0.923300  1.0  0.1806
  H  H55  1  0.923300  0.532700  0.337100  1.0  0.1799
  H  H56  1  0.206900  0.337100  0.532700  1.0  0.1802
  H  H57  1  0.532700  0.206900  0.337100  1.0  0.1811
  H  H58  1  0.337100  0.923300  0.532700  1.0  0.1804
  H  H59  1  0.923300  0.337100  0.206900  1.0  0.1808
  H  H60  1  0.206900  0.532700  0.923300  1.0  0.1799
  H  H61  1  0.662900  0.467300  0.076700  1.0  0.1804
  H  H62  1  0.467300  0.662900  0.793100  1.0  0.18
  H  H63  1  0.793100  0.076700  0.467300  1.0  0.1803
  H  H64  1  0.076700  0.793100  0.662900  1.0  0.1802
  H  H65  1  0.076700  0.467300  0.793100  1.0  0.1802
  H  H66  1  0.793100  0.662900  0.076700  1.0  0.1798
  H  H67  1  0.467300  0.076700  0.662900  1.0  0.1805
  H  H68  1  0.662900  0.793100  0.467300  1.0  0.1801
  H  H69  1  0.793100  0.467300  0.662900  1.0  0.1803
  H  H70  1  0.076700  0.662900  0.467300  1.0  0.1805
  H  H71  1  0.662900  0.076700  0.793100  1.0  0.1806
  H  H72  1  0.467300  0.793100  0.076700  1.0  0.1805
  H  H73  1  0.467300  0.662900  0.076700  1.0  0.1805
  H  H74  1  0.662900  0.467300  0.793100  1.0  0.18
  H  H75  1  0.076700  0.793100  0.467300  1.0  0.1802
  H  H76  1  0.793100  0.076700  0.662900  1.0  0.1802
  H  H77  1  0.467300  0.076700  0.793100  1.0  0.1802
  H  H78  1  0.662900  0.793100  0.076700  1.0  0.1799
  H  H79  1  0.076700  0.467300  0.662900  1.0  0.1803
  H  H80  1  0.793100  0.662900  0.467300  1.0  0.1801
  H  H81  1  0.467300  0.793100  0.662900  1.0  0.1806
  H  H82  1  0.662900  0.076700  0.467300  1.0  0.1808
  H  H83  1  0.076700  0.662900  0.793100  1.0  0.1802
  H  H84  1  0.793100  0.467300  0.076700  1.0  0.1802
  H  H85  1  0.337100  0.532700  0.923300  1.0  0.1799
  H  H86  1  0.532700  0.337100  0.206900  1.0  0.1807
  H  H87  1  0.206900  0.923300  0.532700  1.0  0.1804
  H  H88  1  0.923300  0.206900  0.337100  1.0  0.1806
  H  H89  1  0.923300  0.532700  0.206900  1.0  0.1809
  H  H90  1  0.206900  0.337100  0.923300  1.0  0.1803
  H  H91  1  0.532700  0.923300  0.337100  1.0  0.18
  H  H92  1  0.337100  0.206900  0.532700  1.0  0.1804
  H  H93  1  0.206900  0.532700  0.337100  1.0  0.1799
  H  H94  1  0.923300  0.337100  0.532700  1.0  0.1801
  H  H95  1  0.337100  0.923300  0.206900  1.0  0.1809
  H  H96  1  0.532700  0.206900  0.923300  1.0  0.1811
  H  H97  1  0.517300  0.340700  0.801300  1.0  0.1802
  H  H98  1  0.340700  0.517300  0.340700  1.0  0.1803
  H  H99  1  0.801300  0.340700  0.517300  1.0  0.1797
  H  H100  1  0.340700  0.801300  0.340700  1.0  0.1806
  H  H101  1  0.517300  0.801300  0.340700  1.0  0.1802
  H  H102  1  0.340700  0.340700  0.801300  1.0  0.1803
  H  H103  1  0.801300  0.517300  0.340700  1.0  0.1789
  H  H104  1  0.340700  0.340700  0.517300  1.0  0.1802
  H  H105  1  0.517300  0.340700  0.340700  1.0  0.18
  H  H106  1  0.340700  0.801300  0.517300  1.0  0.1808
  H  H107  1  0.801300  0.340700  0.340700  1.0  0.1795
  H  H108  1  0.340700  0.517300  0.801300  1.0  0.1803
  H  H109  1  0.659300  0.482700  0.198700  1.0  0.1802
  H  H110  1  0.482700  0.659300  0.659300  1.0  0.1802
  H  H111  1  0.659300  0.198700  0.482700  1.0  0.1808
  H  H112  1  0.198700  0.659300  0.659300  1.0  0.1799
  H  H113  1  0.198700  0.482700  0.659300  1.0  0.1791
  H  H114  1  0.659300  0.659300  0.198700  1.0  0.1799
  H  H115  1  0.482700  0.198700  0.659300  1.0  0.1807
  H  H116  1  0.659300  0.659300  0.482700  1.0  0.1797
  H  H117  1  0.659300  0.482700  0.659300  1.0  0.18
  H  H118  1  0.198700  0.659300  0.482700  1.0  0.1798
  H  H119  1  0.659300  0.198700  0.659300  1.0  0.181
  H  H120  1  0.482700  0.659300  0.198700  1.0  0.1804
  C  C121  1  0.516700  0.402300  0.835700  1.0  0.7611
  C  C122  1  0.521700  0.346900  0.860300  1.0  -0.0309
  C  C123  1  0.528700  0.320500  0.907900  1.0  -0.0259
  C  C124  1  0.402300  0.516700  0.245300  1.0  0.76
  C  C125  1  0.346900  0.521700  0.271100  1.0  -0.0305
  C  C126  1  0.320500  0.528700  0.242900  1.0  -0.0245
  C  C127  1  0.835700  0.245300  0.516700  1.0  0.7617
  C  C128  1  0.860300  0.271100  0.521700  1.0  -0.0306
  C  C129  1  0.907900  0.242900  0.528700  1.0  -0.0263
  C  C130  1  0.245300  0.835700  0.402300  1.0  0.7599
  C  C131  1  0.271100  0.860300  0.346900  1.0  -0.0307
  C  C132  1  0.242900  0.907900  0.320500  1.0  -0.0277
  C  C133  1  0.516700  0.835700  0.245300  1.0  0.7628
  C  C134  1  0.521700  0.860300  0.271100  1.0  -0.0314
  C  C135  1  0.528700  0.907900  0.242900  1.0  -0.0283
  C  C136  1  0.402300  0.245300  0.835700  1.0  0.7595
  C  C137  1  0.346900  0.271100  0.860300  1.0  -0.0309
  C  C138  1  0.320500  0.242900  0.907900  1.0  -0.0258
  C  C139  1  0.835700  0.516700  0.402300  1.0  0.7614
  C  C140  1  0.860300  0.521700  0.346900  1.0  -0.0325
  C  C141  1  0.907900  0.528700  0.320500  1.0  -0.0304
  C  C142  1  0.245300  0.402300  0.516700  1.0  0.7602
  C  C143  1  0.271100  0.346900  0.521700  1.0  -0.0308
  C  C144  1  0.242900  0.320500  0.528700  1.0  -0.0267
  C  C145  1  0.516700  0.245300  0.402300  1.0  0.7606
  C  C146  1  0.521700  0.271100  0.346900  1.0  -0.0311
  C  C147  1  0.528700  0.242900  0.320500  1.0  -0.027
  C  C148  1  0.402300  0.835700  0.516700  1.0  0.76
  C  C149  1  0.346900  0.860300  0.521700  1.0  -0.0307
  C  C150  1  0.320500  0.907900  0.528700  1.0  -0.026
  C  C151  1  0.835700  0.402300  0.245300  1.0  0.7602
  C  C152  1  0.860300  0.346900  0.271100  1.0  -0.0296
  C  C153  1  0.907900  0.320500  0.242900  1.0  -0.025
  C  C154  1  0.245300  0.516700  0.835700  1.0  0.7616
  C  C155  1  0.271100  0.521700  0.860300  1.0  -0.0309
  C  C156  1  0.242900  0.528700  0.907900  1.0  -0.0273
  C  C157  1  0.597700  0.483300  0.164300  1.0  0.7596
  C  C158  1  0.653100  0.478300  0.139700  1.0  -0.0301
  C  C159  1  0.679500  0.471300  0.092100  1.0  -0.0248
  C  C160  1  0.483300  0.597700  0.754700  1.0  0.7604
  C  C161  1  0.478300  0.653100  0.728900  1.0  -0.0308
  C  C162  1  0.471300  0.679500  0.757100  1.0  -0.0276
  C  C163  1  0.754700  0.164300  0.483300  1.0  0.7603
  C  C164  1  0.728900  0.139700  0.478300  1.0  -0.0315
  C  C165  1  0.757100  0.092100  0.471300  1.0  -0.0236
  C  C166  1  0.164300  0.754700  0.597700  1.0  0.7608
  C  C167  1  0.139700  0.728900  0.653100  1.0  -0.0302
  C  C168  1  0.092100  0.757100  0.679500  1.0  -0.0258
  C  C169  1  0.164300  0.483300  0.754700  1.0  0.761
  C  C170  1  0.139700  0.478300  0.728900  1.0  -0.0311
  C  C171  1  0.092100  0.471300  0.757100  1.0  -0.032
  C  C172  1  0.754700  0.597700  0.164300  1.0  0.7609
  C  C173  1  0.728900  0.653100  0.139700  1.0  -0.0316
  C  C174  1  0.757100  0.679500  0.092100  1.0  -0.025
  C  C175  1  0.483300  0.164300  0.597700  1.0  0.7623
  C  C176  1  0.478300  0.139700  0.653100  1.0  -0.0307
  C  C177  1  0.471300  0.092100  0.679500  1.0  -0.0283
  C  C178  1  0.597700  0.754700  0.483300  1.0  0.7594
  C  C179  1  0.653100  0.728900  0.478300  1.0  -0.0316
  C  C180  1  0.679500  0.757100  0.471300  1.0  -0.0269
  C  C181  1  0.754700  0.483300  0.597700  1.0  0.7614
  C  C182  1  0.728900  0.478300  0.653100  1.0  -0.0301
  C  C183  1  0.757100  0.471300  0.679500  1.0  -0.0261
  C  C184  1  0.164300  0.597700  0.483300  1.0  0.7602
  C  C185  1  0.139700  0.653100  0.478300  1.0  -0.03
  C  C186  1  0.092100  0.679500  0.471300  1.0  -0.0258
  C  C187  1  0.597700  0.164300  0.754700  1.0  0.7601
  C  C188  1  0.653100  0.139700  0.728900  1.0  -0.0315
  C  C189  1  0.679500  0.092100  0.757100  1.0  -0.0259
  C  C190  1  0.483300  0.754700  0.164300  1.0  0.76
  C  C191  1  0.478300  0.728900  0.139700  1.0  -0.0302
  C  C192  1  0.471300  0.757100  0.092100  1.0  -0.0263
  C  C193  1  0.483300  0.597700  0.164300  1.0  0.7602
  C  C194  1  0.478300  0.653100  0.139700  1.0  -0.031
  C  C195  1  0.471300  0.679500  0.092100  1.0  -0.0264
  C  C196  1  0.597700  0.483300  0.754700  1.0  0.7597
  C  C197  1  0.653100  0.478300  0.728900  1.0  -0.0307
  C  C198  1  0.679500  0.471300  0.757100  1.0  -0.0258
  C  C199  1  0.164300  0.754700  0.483300  1.0  0.7599
  C  C200  1  0.139700  0.728900  0.478300  1.0  -0.0306
  C  C201  1  0.092100  0.757100  0.471300  1.0  -0.026
  C  C202  1  0.754700  0.164300  0.597700  1.0  0.7612
  C  C203  1  0.728900  0.139700  0.653100  1.0  -0.0319
  C  C204  1  0.757100  0.092100  0.679500  1.0  -0.024
  C  C205  1  0.483300  0.164300  0.754700  1.0  0.7616
  C  C206  1  0.478300  0.139700  0.728900  1.0  -0.032
  C  C207  1  0.471300  0.092100  0.757100  1.0  -0.0313
  C  C208  1  0.597700  0.754700  0.164300  1.0  0.7594
  C  C209  1  0.653100  0.728900  0.139700  1.0  -0.0322
  C  C210  1  0.679500  0.757100  0.092100  1.0  -0.0266
  C  C211  1  0.164300  0.483300  0.597700  1.0  0.7618
  C  C212  1  0.139700  0.478300  0.653100  1.0  -0.0307
  C  C213  1  0.092100  0.471300  0.679500  1.0  -0.0284
  C  C214  1  0.754700  0.597700  0.483300  1.0  0.7609
  C  C215  1  0.728900  0.653100  0.478300  1.0  -0.0315
  C  C216  1  0.757100  0.679500  0.471300  1.0  -0.0248
  C  C217  1  0.483300  0.754700  0.597700  1.0  0.7613
  C  C218  1  0.478300  0.728900  0.653100  1.0  -0.0307
  C  C219  1  0.471300  0.757100  0.679500  1.0  -0.0262
  C  C220  1  0.597700  0.164300  0.483300  1.0  0.7599
  C  C221  1  0.653100  0.139700  0.478300  1.0  -0.0318
  C  C222  1  0.679500  0.092100  0.471300  1.0  -0.0257
  C  C223  1  0.164300  0.597700  0.754700  1.0  0.7604
  C  C224  1  0.139700  0.653100  0.728900  1.0  -0.0306
  C  C225  1  0.092100  0.679500  0.757100  1.0  -0.0267
  C  C226  1  0.754700  0.483300  0.164300  1.0  0.7602
  C  C227  1  0.728900  0.478300  0.139700  1.0  -0.0302
  C  C228  1  0.757100  0.471300  0.092100  1.0  -0.0258
  C  C229  1  0.402300  0.516700  0.835700  1.0  0.7602
  C  C230  1  0.346900  0.521700  0.860300  1.0  -0.031
  C  C231  1  0.320500  0.528700  0.907900  1.0  -0.025
  C  C232  1  0.516700  0.402300  0.245300  1.0  0.7608
  C  C233  1  0.521700  0.346900  0.271100  1.0  -0.0311
  C  C234  1  0.528700  0.320500  0.242900  1.0  -0.0258
  C  C235  1  0.245300  0.835700  0.516700  1.0  0.7609
  C  C236  1  0.271100  0.860300  0.521700  1.0  -0.0314
  C  C237  1  0.242900  0.907900  0.528700  1.0  -0.0277
  C  C238  1  0.835700  0.245300  0.402300  1.0  0.7606
  C  C239  1  0.860300  0.271100  0.346900  1.0  -0.0307
  C  C240  1  0.907900  0.242900  0.320500  1.0  -0.026
  C  C241  1  0.835700  0.516700  0.245300  1.0  0.7622
  C  C242  1  0.860300  0.521700  0.271100  1.0  -0.0321
  C  C243  1  0.907900  0.528700  0.242900  1.0  -0.0272
  C  C244  1  0.245300  0.402300  0.835700  1.0  0.7601
  C  C245  1  0.271100  0.346900  0.860300  1.0  -0.0311
  C  C246  1  0.242900  0.320500  0.907900  1.0  -0.0266
  C  C247  1  0.516700  0.835700  0.402300  1.0  0.762
  C  C248  1  0.521700  0.860300  0.346900  1.0  -0.0326
  C  C249  1  0.528700  0.907900  0.320500  1.0  -0.0315
  C  C250  1  0.402300  0.245300  0.516700  1.0  0.7595
  C  C251  1  0.346900  0.271100  0.521700  1.0  -0.0314
  C  C252  1  0.320500  0.242900  0.528700  1.0  -0.0261
  C  C253  1  0.245300  0.516700  0.402300  1.0  0.7604
  C  C254  1  0.271100  0.521700  0.346900  1.0  -0.031
  C  C255  1  0.242900  0.528700  0.320500  1.0  -0.0273
  C  C256  1  0.835700  0.402300  0.516700  1.0  0.7605
  C  C257  1  0.860300  0.346900  0.521700  1.0  -0.0302
  C  C258  1  0.907900  0.320500  0.528700  1.0  -0.0252
  C  C259  1  0.402300  0.835700  0.245300  1.0  0.7596
  C  C260  1  0.346900  0.860300  0.271100  1.0  -0.0308
  C  C261  1  0.320500  0.907900  0.242900  1.0  -0.0256
  C  C262  1  0.516700  0.245300  0.835700  1.0  0.7617
  C  C263  1  0.521700  0.271100  0.860300  1.0  -0.032
  C  C264  1  0.528700  0.242900  0.907900  1.0  -0.0271
  C  C265  1  0.519800  0.322400  0.835400  1.0  0.0167
  C  C266  1  0.529800  0.268000  0.934200  1.0  0.0711
  C  C267  1  0.535200  0.240800  0.983200  1.0  0.3793
  C  C268  1  0.322400  0.519800  0.322400  1.0  0.0181
  C  C269  1  0.268000  0.529800  0.268000  1.0  0.0702
  C  C270  1  0.240800  0.535200  0.240800  1.0  0.3793
  C  C271  1  0.835400  0.322400  0.519800  1.0  0.0172
  C  C272  1  0.934200  0.268000  0.529800  1.0  0.0722
  C  C273  1  0.983200  0.240800  0.535200  1.0  0.3788
  C  C274  1  0.322400  0.835400  0.322400  1.0  0.0197
  C  C275  1  0.268000  0.934200  0.268000  1.0  0.0723
  C  C276  1  0.240800  0.983200  0.240800  1.0  0.3789
  C  C277  1  0.519800  0.835400  0.322400  1.0  0.0184
  C  C278  1  0.529800  0.934200  0.268000  1.0  0.0724
  C  C279  1  0.535200  0.983200  0.240800  1.0  0.3781
  C  C280  1  0.322400  0.322400  0.835400  1.0  0.0179
  C  C281  1  0.268000  0.268000  0.934200  1.0  0.0719
  C  C282  1  0.240800  0.240800  0.983200  1.0  0.379
  C  C283  1  0.835400  0.519800  0.322400  1.0  0.0156
  C  C284  1  0.934200  0.529800  0.268000  1.0  0.0728
  C  C285  1  0.983200  0.535200  0.240800  1.0  0.3783
  C  C286  1  0.322400  0.322400  0.519800  1.0  0.0184
  C  C287  1  0.268000  0.268000  0.529800  1.0  0.0713
  C  C288  1  0.240800  0.240800  0.535200  1.0  0.3789
  C  C289  1  0.519800  0.322400  0.322400  1.0  0.0171
  C  C290  1  0.529800  0.268000  0.268000  1.0  0.0704
  C  C291  1  0.535200  0.240800  0.240800  1.0  0.3799
  C  C292  1  0.322400  0.835400  0.519800  1.0  0.0196
  C  C293  1  0.268000  0.934200  0.529800  1.0  0.0721
  C  C294  1  0.240800  0.983200  0.535200  1.0  0.3783
  C  C295  1  0.835400  0.322400  0.322400  1.0  0.0171
  C  C296  1  0.934200  0.268000  0.268000  1.0  0.0724
  C  C297  1  0.983200  0.240800  0.240800  1.0  0.3794
  C  C298  1  0.322400  0.519800  0.835400  1.0  0.0174
  C  C299  1  0.268000  0.529800  0.934200  1.0  0.0707
  C  C300  1  0.240800  0.535200  0.983200  1.0  0.3787
  C  C301  1  0.677600  0.480200  0.164600  1.0  0.0166
  C  C302  1  0.732000  0.470200  0.065800  1.0  0.0703
  C  C303  1  0.759200  0.464800  0.016800  1.0  0.3795
  C  C304  1  0.480200  0.677600  0.677600  1.0  0.0169
  C  C305  1  0.470200  0.732000  0.732000  1.0  0.0712
  C  C306  1  0.464800  0.759200  0.759200  1.0  0.3788
  C  C307  1  0.677600  0.164600  0.480200  1.0  0.0173
  C  C308  1  0.732000  0.065800  0.470200  1.0  0.0719
  C  C309  1  0.759200  0.016800  0.464800  1.0  0.3795
  C  C310  1  0.164600  0.677600  0.677600  1.0  0.0191
  C  C311  1  0.065800  0.732000  0.732000  1.0  0.0716
  C  C312  1  0.016800  0.759200  0.759200  1.0  0.3788
  C  C313  1  0.164600  0.480200  0.677600  1.0  0.0223
  C  C314  1  0.065800  0.470200  0.732000  1.0  0.0723
  C  C315  1  0.016800  0.464800  0.759200  1.0  0.3786
  C  C316  1  0.677600  0.677600  0.164600  1.0  0.0167
  C  C317  1  0.732000  0.732000  0.065800  1.0  0.0721
  C  C318  1  0.759200  0.759200  0.016800  1.0  0.3786
  C  C319  1  0.480200  0.164600  0.677600  1.0  0.0183
  C  C320  1  0.470200  0.065800  0.732000  1.0  0.0712
  C  C321  1  0.464800  0.016800  0.759200  1.0  0.3783
  C  C322  1  0.677600  0.677600  0.480200  1.0  0.016
  C  C323  1  0.732000  0.732000  0.470200  1.0  0.0721
  C  C324  1  0.759200  0.759200  0.464800  1.0  0.3787
  C  C325  1  0.677600  0.480200  0.677600  1.0  0.0163
  C  C326  1  0.732000  0.470200  0.732000  1.0  0.0709
  C  C327  1  0.759200  0.464800  0.759200  1.0  0.3789
  C  C328  1  0.164600  0.677600  0.480200  1.0  0.0193
  C  C329  1  0.065800  0.732000  0.470200  1.0  0.0718
  C  C330  1  0.016800  0.759200  0.464800  1.0  0.3794
  C  C331  1  0.677600  0.164600  0.677600  1.0  0.0175
  C  C332  1  0.732000  0.065800  0.732000  1.0  0.0717
  C  C333  1  0.759200  0.016800  0.759200  1.0  0.379
  C  C334  1  0.480200  0.677600  0.164600  1.0  0.0173
  C  C335  1  0.470200  0.732000  0.065800  1.0  0.071
  C  C336  1  0.464800  0.759200  0.016800  1.0  0.3794
  N  N337  1  0.538900  0.189900  0.010900  1.0  -0.2575
  N  N338  1  0.537800  0.181400  0.057600  1.0  -0.0006
  N  N339  1  0.189900  0.538900  0.260300  1.0  -0.2568
  N  N340  1  0.181400  0.537800  0.223200  1.0  0.0006
  N  N341  1  0.010900  0.260300  0.538900  1.0  -0.2583
  N  N342  1  0.057600  0.223200  0.537800  1.0  -0.0012
  N  N343  1  0.260300  0.010900  0.189900  1.0  -0.2574
  N  N344  1  0.223200  0.057600  0.181400  1.0  0.0017
  N  N345  1  0.538900  0.010900  0.260300  1.0  -0.2521
  N  N346  1  0.537800  0.057600  0.223200  1.0  0.0013
  N  N347  1  0.189900  0.260300  0.010900  1.0  -0.2618
  N  N348  1  0.181400  0.223200  0.057600  1.0  -0.0011
  N  N349  1  0.010900  0.538900  0.189900  1.0  -0.2556
  N  N350  1  0.057600  0.537800  0.181400  1.0  0.0014
  N  N351  1  0.260300  0.189900  0.538900  1.0  -0.2577
  N  N352  1  0.223200  0.181400  0.537800  1.0  0.0005
  N  N353  1  0.538900  0.260300  0.189900  1.0  -0.2597
  N  N354  1  0.537800  0.223200  0.181400  1.0  -0.0005
  N  N355  1  0.189900  0.010900  0.538900  1.0  -0.258
  N  N356  1  0.181400  0.057600  0.537800  1.0  -0.0006
  N  N357  1  0.010900  0.189900  0.260300  1.0  -0.2595
  N  N358  1  0.057600  0.181400  0.223200  1.0  -0.0008
  N  N359  1  0.260300  0.538900  0.010900  1.0  -0.2572
  N  N360  1  0.223200  0.537800  0.057600  1.0  0.0015
  N  N361  1  0.810100  0.461100  0.989100  1.0  -0.2556
  N  N362  1  0.818600  0.462200  0.942400  1.0  0.002
  N  N363  1  0.461100  0.810100  0.739700  1.0  -0.2575
  N  N364  1  0.462200  0.818600  0.776800  1.0  -0.0025
  N  N365  1  0.739700  0.989100  0.461100  1.0  -0.2572
  N  N366  1  0.776800  0.942400  0.462200  1.0  -0.0004
  N  N367  1  0.989100  0.739700  0.810100  1.0  -0.2562
  N  N368  1  0.942400  0.776800  0.818600  1.0  -0.0005
  N  N369  1  0.989100  0.461100  0.739700  1.0  -0.2557
  N  N370  1  0.942400  0.462200  0.776800  1.0  0.001
  N  N371  1  0.739700  0.810100  0.989100  1.0  -0.2592
  N  N372  1  0.776800  0.818600  0.942400  1.0  -0.0023
  N  N373  1  0.461100  0.989100  0.810100  1.0  -0.2518
  N  N374  1  0.462200  0.942400  0.818600  1.0  0.0007
  N  N375  1  0.810100  0.739700  0.461100  1.0  -0.2591
  N  N376  1  0.818600  0.776800  0.462200  1.0  -0.0
  N  N377  1  0.739700  0.461100  0.810100  1.0  -0.2574
  N  N378  1  0.776800  0.462200  0.818600  1.0  0.0006
  N  N379  1  0.989100  0.810100  0.461100  1.0  -0.2577
  N  N380  1  0.942400  0.818600  0.462200  1.0  -0.0023
  N  N381  1  0.810100  0.989100  0.739700  1.0  -0.2576
  N  N382  1  0.818600  0.942400  0.776800  1.0  -0.0006
  N  N383  1  0.461100  0.739700  0.989100  1.0  -0.2589
  N  N384  1  0.462200  0.776800  0.942400  1.0  -0.0011
  N  N385  1  0.461100  0.810100  0.989100  1.0  -0.259
  N  N386  1  0.462200  0.818600  0.942400  1.0  -0.0018
  N  N387  1  0.810100  0.461100  0.739700  1.0  -0.2607
  N  N388  1  0.818600  0.462200  0.776800  1.0  0.0015
  N  N389  1  0.989100  0.739700  0.461100  1.0  -0.2604
  N  N390  1  0.942400  0.776800  0.462200  1.0  -0.0002
  N  N391  1  0.739700  0.989100  0.810100  1.0  -0.2607
  N  N392  1  0.776800  0.942400  0.818600  1.0  -0.0003
  N  N393  1  0.461100  0.989100  0.739700  1.0  -0.2582
  N  N394  1  0.462200  0.942400  0.776800  1.0  -1e-04
  N  N395  1  0.810100  0.739700  0.989100  1.0  -0.2617
  N  N396  1  0.818600  0.776800  0.942400  1.0  1e-04
  N  N397  1  0.989100  0.461100  0.810100  1.0  -0.2555
  N  N398  1  0.942400  0.462200  0.818600  1.0  0.0012
  N  N399  1  0.739700  0.810100  0.461100  1.0  -0.2626
  N  N400  1  0.776800  0.818600  0.462200  1.0  -0.0022
  N  N401  1  0.461100  0.739700  0.810100  1.0  -0.2618
  N  N402  1  0.462200  0.776800  0.818600  1.0  -0.0005
  N  N403  1  0.810100  0.989100  0.461100  1.0  -0.2602
  N  N404  1  0.818600  0.942400  0.462200  1.0  -1e-04
  N  N405  1  0.989100  0.810100  0.739700  1.0  -0.2613
  N  N406  1  0.942400  0.818600  0.776800  1.0  -0.0027
  N  N407  1  0.739700  0.461100  0.989100  1.0  -0.2603
  N  N408  1  0.776800  0.462200  0.942400  1.0  0.0003
  N  N409  1  0.189900  0.538900  0.010900  1.0  -0.26
  N  N410  1  0.181400  0.537800  0.057600  1.0  0.0002
  N  N411  1  0.538900  0.189900  0.260300  1.0  -0.2595
  N  N412  1  0.537800  0.181400  0.223200  1.0  0.0002
  N  N413  1  0.260300  0.010900  0.538900  1.0  -0.2592
  N  N414  1  0.223200  0.057600  0.537800  1.0  0.0013
  N  N415  1  0.010900  0.260300  0.189900  1.0  -0.2623
  N  N416  1  0.057600  0.223200  0.181400  1.0  -0.0008
  N  N417  1  0.010900  0.538900  0.260300  1.0  -0.2556
  N  N418  1  0.057600  0.537800  0.223200  1.0  0.002
  N  N419  1  0.260300  0.189900  0.010900  1.0  -0.2612
  N  N420  1  0.223200  0.181400  0.057600  1.0  0.0005
  N  N421  1  0.538900  0.010900  0.189900  1.0  -0.2589
  N  N422  1  0.537800  0.057600  0.181400  1.0  0.0008
  N  N423  1  0.189900  0.260300  0.538900  1.0  -0.2647
  N  N424  1  0.181400  0.223200  0.537800  1.0  -0.001
  N  N425  1  0.260300  0.538900  0.189900  1.0  -0.2599
  N  N426  1  0.223200  0.537800  0.181400  1.0  0.0015
  N  N427  1  0.010900  0.189900  0.538900  1.0  -0.2626
  N  N428  1  0.057600  0.181400  0.537800  1.0  -0.0011
  N  N429  1  0.189900  0.010900  0.260300  1.0  -0.2608
  N  N430  1  0.181400  0.057600  0.223200  1.0  -0.0003
  N  N431  1  0.538900  0.260300  0.010900  1.0  -0.2633
  N  N432  1  0.537800  0.223200  0.057600  1.0  -0.0002
  N  N433  1  0.562400  0.562400  0.562400  1.0  0.8414
  N  N434  1  0.562400  0.562400  0.312800  1.0  0.8419
  N  N435  1  0.562400  0.312800  0.562400  1.0  0.8421
  N  N436  1  0.312800  0.562400  0.562400  1.0  0.8389
  N  N437  1  0.437600  0.437600  0.437600  1.0  0.8411
  N  N438  1  0.437600  0.437600  0.687200  1.0  0.8407
  N  N439  1  0.687200  0.437600  0.437600  1.0  0.8406
  N  N440  1  0.437600  0.687200  0.437600  1.0  0.8419
  O  O441  1  0.512510  0.425190  0.791110  1.0  -0.5057
  O  O442  1  0.512780  0.425440  0.861720  1.0  -0.5133
  O  O443  1  0.425190  0.512510  0.271190  1.0  -0.5066
  O  O444  1  0.425440  0.512780  0.200060  1.0  -0.5136
  O  O445  1  0.791110  0.271190  0.512510  1.0  -0.5079
  O  O446  1  0.861720  0.200060  0.512780  1.0  -0.5157
  O  O447  1  0.271190  0.791110  0.425190  1.0  -0.5076
  O  O448  1  0.200060  0.861720  0.425440  1.0  -0.5144
  O  O449  1  0.512510  0.791110  0.271190  1.0  -0.5068
  O  O450  1  0.512780  0.861720  0.200060  1.0  -0.5139
  O  O451  1  0.425190  0.271190  0.791110  1.0  -0.5066
  O  O452  1  0.425440  0.200060  0.861720  1.0  -0.5147
  O  O453  1  0.791110  0.512510  0.425190  1.0  -0.5058
  O  O454  1  0.861720  0.512780  0.425440  1.0  -0.5136
  O  O455  1  0.271190  0.425190  0.512510  1.0  -0.5066
  O  O456  1  0.200060  0.425440  0.512780  1.0  -0.5126
  O  O457  1  0.512510  0.271190  0.425190  1.0  -0.508
  O  O458  1  0.512780  0.200060  0.425440  1.0  -0.5144
  O  O459  1  0.425190  0.791110  0.512510  1.0  -0.5066
  O  O460  1  0.425440  0.861720  0.512780  1.0  -0.5149
  O  O461  1  0.791110  0.425190  0.271190  1.0  -0.5067
  O  O462  1  0.861720  0.425440  0.200060  1.0  -0.5132
  O  O463  1  0.271190  0.512510  0.791110  1.0  -0.5072
  O  O464  1  0.200060  0.512780  0.861720  1.0  -0.5125
  O  O465  1  0.574810  0.487490  0.208890  1.0  -0.5076
  O  O466  1  0.574560  0.487220  0.138280  1.0  -0.5132
  O  O467  1  0.487490  0.574810  0.728810  1.0  -0.5054
  O  O468  1  0.487220  0.574560  0.799940  1.0  -0.5135
  O  O469  1  0.728810  0.208890  0.487490  1.0  -0.5072
  O  O470  1  0.799940  0.138280  0.487220  1.0  -0.514
  O  O471  1  0.208890  0.728810  0.574810  1.0  -0.508
  O  O472  1  0.138280  0.799940  0.574560  1.0  -0.5145
  O  O473  1  0.208890  0.487490  0.728810  1.0  -0.5067
  O  O474  1  0.138280  0.487220  0.799940  1.0  -0.5141
  O  O475  1  0.728810  0.574810  0.208890  1.0  -0.5067
  O  O476  1  0.799940  0.574560  0.138280  1.0  -0.5126
  O  O477  1  0.487490  0.208890  0.574810  1.0  -0.5062
  O  O478  1  0.487220  0.138280  0.574560  1.0  -0.5136
  O  O479  1  0.574810  0.728810  0.487490  1.0  -0.5071
  O  O480  1  0.574560  0.799940  0.487220  1.0  -0.5144
  O  O481  1  0.728810  0.487490  0.574810  1.0  -0.506
  O  O482  1  0.799940  0.487220  0.574560  1.0  -0.5139
  O  O483  1  0.208890  0.574810  0.487490  1.0  -0.508
  O  O484  1  0.138280  0.574560  0.487220  1.0  -0.5126
  O  O485  1  0.574810  0.208890  0.728810  1.0  -0.5069
  O  O486  1  0.574560  0.138280  0.799940  1.0  -0.5152
  O  O487  1  0.487490  0.728810  0.208890  1.0  -0.5072
  O  O488  1  0.487220  0.799940  0.138280  1.0  -0.5132
  O  O489  1  0.487490  0.574810  0.208890  1.0  -0.5054
  O  O490  1  0.487220  0.574560  0.138280  1.0  -0.5121
  O  O491  1  0.574810  0.487490  0.728810  1.0  -0.5077
  O  O492  1  0.574560  0.487220  0.799940  1.0  -0.5143
  O  O493  1  0.208890  0.728810  0.487490  1.0  -0.5078
  O  O494  1  0.138280  0.799940  0.487220  1.0  -0.5143
  O  O495  1  0.728810  0.208890  0.574810  1.0  -0.5067
  O  O496  1  0.799940  0.138280  0.574560  1.0  -0.5142
  O  O497  1  0.487490  0.208890  0.728810  1.0  -0.5055
  O  O498  1  0.487220  0.138280  0.799940  1.0  -0.5141
  O  O499  1  0.574810  0.728810  0.208890  1.0  -0.5078
  O  O500  1  0.574560  0.799940  0.138280  1.0  -0.5135
  O  O501  1  0.208890  0.487490  0.574810  1.0  -0.507
  O  O502  1  0.138280  0.487220  0.574560  1.0  -0.5134
  O  O503  1  0.728810  0.574810  0.487490  1.0  -0.5062
  O  O504  1  0.799940  0.574560  0.487220  1.0  -0.514
  O  O505  1  0.487490  0.728810  0.574810  1.0  -0.5068
  O  O506  1  0.487220  0.799940  0.574560  1.0  -0.5134
  O  O507  1  0.574810  0.208890  0.487490  1.0  -0.5073
  O  O508  1  0.574560  0.138280  0.487220  1.0  -0.514
  O  O509  1  0.208890  0.574810  0.728810  1.0  -0.5073
  O  O510  1  0.138280  0.574560  0.799940  1.0  -0.5143
  O  O511  1  0.728810  0.487490  0.208890  1.0  -0.5062
  O  O512  1  0.799940  0.487220  0.138280  1.0  -0.5133
  O  O513  1  0.425190  0.512510  0.791110  1.0  -0.5063
  O  O514  1  0.425440  0.512780  0.861720  1.0  -0.5143
  O  O515  1  0.512510  0.425190  0.271190  1.0  -0.5057
  O  O516  1  0.512780  0.425440  0.200060  1.0  -0.512
  O  O517  1  0.271190  0.791110  0.512510  1.0  -0.5077
  O  O518  1  0.200060  0.861720  0.512780  1.0  -0.5145
  O  O519  1  0.791110  0.271190  0.425190  1.0  -0.5078
  O  O520  1  0.861720  0.200060  0.425440  1.0  -0.5159
  O  O521  1  0.791110  0.512510  0.271190  1.0  -0.5057
  O  O522  1  0.861720  0.512780  0.200060  1.0  -0.5132
  O  O523  1  0.271190  0.425190  0.791110  1.0  -0.5071
  O  O524  1  0.200060  0.425440  0.861720  1.0  -0.5133
  O  O525  1  0.512510  0.791110  0.425190  1.0  -0.5065
  O  O526  1  0.512780  0.861720  0.425440  1.0  -0.5144
  O  O527  1  0.425190  0.271190  0.512510  1.0  -0.5066
  O  O528  1  0.425440  0.200060  0.512780  1.0  -0.5132
  O  O529  1  0.271190  0.512510  0.425190  1.0  -0.5079
  O  O530  1  0.200060  0.512780  0.425440  1.0  -0.512
  O  O531  1  0.791110  0.425190  0.512510  1.0  -0.5064
  O  O532  1  0.861720  0.425440  0.512780  1.0  -0.514
  O  O533  1  0.425190  0.791110  0.271190  1.0  -0.5068
  O  O534  1  0.425440  0.861720  0.200060  1.0  -0.5145
  O  O535  1  0.512510  0.271190  0.791110  1.0  -0.5073
  O  O536  1  0.512780  0.200060  0.861720  1.0  -0.5155
  O  O537  1  0.500000  0.500000  0.905600  1.0  -0.2172
  O  O538  1  0.500000  0.500000  0.685800  1.0  -0.2395
  O  O539  1  0.500000  0.500000  0.094400  1.0  -0.2192
  O  O540  1  0.500000  0.500000  0.314200  1.0  -0.2411
  O  O541  1  0.905600  0.094400  0.500000  1.0  -0.214
  O  O542  1  0.685800  0.314200  0.500000  1.0  -0.2364
  O  O543  1  0.094400  0.905600  0.500000  1.0  -0.216
  O  O544  1  0.314200  0.685800  0.500000  1.0  -0.2371
  O  O545  1  0.500000  0.905600  0.094400  1.0  -0.2146
  O  O546  1  0.500000  0.685800  0.314200  1.0  -0.2372
  O  O547  1  0.500000  0.094400  0.905600  1.0  -0.2174
  O  O548  1  0.500000  0.314200  0.685800  1.0  -0.2358
  O  O549  1  0.905600  0.500000  0.500000  1.0  -0.2157
  O  O550  1  0.685800  0.500000  0.500000  1.0  -0.237
  O  O551  1  0.094400  0.500000  0.500000  1.0  -0.2147
  O  O552  1  0.314200  0.500000  0.500000  1.0  -0.2362
  O  O553  1  0.500000  0.094400  0.500000  1.0  -0.2158
  O  O554  1  0.500000  0.314200  0.500000  1.0  -0.2359
  O  O555  1  0.500000  0.905600  0.500000  1.0  -0.2156
  O  O556  1  0.500000  0.685800  0.500000  1.0  -0.2379
  O  O557  1  0.905600  0.500000  0.094400  1.0  -0.2136
  O  O558  1  0.685800  0.500000  0.314200  1.0  -0.2363
  O  O559  1  0.094400  0.500000  0.905600  1.0  -0.2159
  O  O560  1  0.314200  0.500000  0.685800  1.0  -0.236
  O  O561  1  0.508900  0.093100  0.093100  1.0  -0.4493
  O  O562  1  0.604500  0.067100  0.067100  1.0  -0.2359
  O  O563  1  0.477300  0.138300  0.138300  1.0  -0.5117
  O  O564  1  0.093100  0.508900  0.304900  1.0  -0.4495
  O  O565  1  0.067100  0.604500  0.261300  1.0  -0.2382
  O  O566  1  0.138300  0.477300  0.246100  1.0  -0.5153
  O  O567  1  0.093100  0.304900  0.508900  1.0  -0.445
  O  O568  1  0.067100  0.261300  0.604500  1.0  -0.2364
  O  O569  1  0.138300  0.246100  0.477300  1.0  -0.5182
  O  O570  1  0.304900  0.093100  0.093100  1.0  -0.4438
  O  O571  1  0.261300  0.067100  0.067100  1.0  -0.2375
  O  O572  1  0.246100  0.138300  0.138300  1.0  -0.5095
  O  O573  1  0.508900  0.093100  0.304900  1.0  -0.449
  O  O574  1  0.604500  0.067100  0.261300  1.0  -0.2373
  O  O575  1  0.477300  0.138300  0.246100  1.0  -0.5103
  O  O576  1  0.093100  0.304900  0.093100  1.0  -0.4451
  O  O577  1  0.067100  0.261300  0.067100  1.0  -0.2364
  O  O578  1  0.138300  0.246100  0.138300  1.0  -0.5112
  O  O579  1  0.093100  0.508900  0.093100  1.0  -0.4482
  O  O580  1  0.067100  0.604500  0.067100  1.0  -0.2383
  O  O581  1  0.138300  0.477300  0.138300  1.0  -0.5154
  O  O582  1  0.304900  0.093100  0.508900  1.0  -0.4436
  O  O583  1  0.261300  0.067100  0.604500  1.0  -0.2379
  O  O584  1  0.246100  0.138300  0.477300  1.0  -0.5151
  O  O585  1  0.508900  0.304900  0.093100  1.0  -0.4452
  O  O586  1  0.604500  0.261300  0.067100  1.0  -0.2348
  O  O587  1  0.477300  0.246100  0.138300  1.0  -0.5117
  O  O588  1  0.093100  0.093100  0.508900  1.0  -0.4478
  O  O589  1  0.067100  0.067100  0.604500  1.0  -0.2376
  O  O590  1  0.138300  0.138300  0.477300  1.0  -0.516
  O  O591  1  0.093100  0.093100  0.304900  1.0  -0.4449
  O  O592  1  0.067100  0.067100  0.261300  1.0  -0.2372
  O  O593  1  0.138300  0.138300  0.246100  1.0  -0.5013
  O  O594  1  0.304900  0.508900  0.093100  1.0  -0.4436
  O  O595  1  0.261300  0.604500  0.067100  1.0  -0.2374
  O  O596  1  0.246100  0.477300  0.138300  1.0  -0.5162
  O  O597  1  0.906900  0.491100  0.906900  1.0  -0.4437
  O  O598  1  0.932900  0.395500  0.932900  1.0  -0.2372
  O  O599  1  0.861700  0.522700  0.861700  1.0  -0.5124
  O  O600  1  0.491100  0.906900  0.695100  1.0  -0.4448
  O  O601  1  0.395500  0.932900  0.738700  1.0  -0.2387
  O  O602  1  0.522700  0.861700  0.753900  1.0  -0.5115
  O  O603  1  0.695100  0.906900  0.491100  1.0  -0.4452
  O  O604  1  0.738700  0.932900  0.395500  1.0  -0.2384
  O  O605  1  0.753900  0.861700  0.522700  1.0  -0.5118
  O  O606  1  0.906900  0.695100  0.906900  1.0  -0.449
  O  O607  1  0.932900  0.738700  0.932900  1.0  -0.2355
  O  O608  1  0.861700  0.753900  0.861700  1.0  -0.5172
  O  O609  1  0.906900  0.491100  0.695100  1.0  -0.4454
  O  O610  1  0.932900  0.395500  0.738700  1.0  -0.2358
  O  O611  1  0.861700  0.522700  0.753900  1.0  -0.5132
  O  O612  1  0.695100  0.906900  0.906900  1.0  -0.4448
  O  O613  1  0.738700  0.932900  0.932900  1.0  -0.237
  O  O614  1  0.753900  0.861700  0.861700  1.0  -0.5157
  O  O615  1  0.491100  0.906900  0.906900  1.0  -0.444
  O  O616  1  0.395500  0.932900  0.932900  1.0  -0.2375
  O  O617  1  0.522700  0.861700  0.861700  1.0  -0.5115
  O  O618  1  0.906900  0.695100  0.491100  1.0  -0.449
  O  O619  1  0.932900  0.738700  0.395500  1.0  -0.237
  O  O620  1  0.861700  0.753900  0.522700  1.0  -0.5158
  O  O621  1  0.695100  0.491100  0.906900  1.0  -0.4462
  O  O622  1  0.738700  0.395500  0.932900  1.0  -0.2361
  O  O623  1  0.753900  0.522700  0.861700  1.0  -0.5141
  O  O624  1  0.906900  0.906900  0.491100  1.0  -0.4396
  O  O625  1  0.932900  0.932900  0.395500  1.0  -0.2364
  O  O626  1  0.861700  0.861700  0.522700  1.0  -0.5045
  O  O627  1  0.906900  0.906900  0.695100  1.0  -0.444
  O  O628  1  0.932900  0.932900  0.738700  1.0  -0.2371
  O  O629  1  0.861700  0.861700  0.753900  1.0  -0.5151
  O  O630  1  0.491100  0.695100  0.906900  1.0  -0.4493
  O  O631  1  0.395500  0.738700  0.932900  1.0  -0.234
  O  O632  1  0.522700  0.753900  0.861700  1.0  -0.5122
  O  O633  1  0.553600  0.148800  0.148800  1.0  -0.9834
  O  O634  1  0.148800  0.553600  0.148800  1.0  -0.9844
  O  O635  1  0.148800  0.148800  0.553600  1.0  -0.9808
  O  O636  1  0.148800  0.148800  0.148800  1.0  -0.9812
  O  O637  1  0.851200  0.446400  0.851200  1.0  -0.986
  O  O638  1  0.446400  0.851200  0.851200  1.0  -0.9849
  O  O639  1  0.851200  0.851200  0.446400  1.0  -0.9817
  O  O640  1  0.851200  0.851200  0.851200  1.0  -0.9806
  O  O641  1  0.585400  0.516400  0.585400  1.0  -0.3923
  O  O642  1  0.585400  0.585400  0.516400  1.0  -0.398
  O  O643  1  0.516400  0.585400  0.585400  1.0  -0.397
  O  O644  1  0.516400  0.585400  0.312800  1.0  -0.3956
  O  O645  1  0.585400  0.585400  0.312800  1.0  -0.3988
  O  O646  1  0.585400  0.516400  0.312800  1.0  -0.3917
  O  O647  1  0.585400  0.312800  0.585400  1.0  -0.3972
  O  O648  1  0.516400  0.312800  0.585400  1.0  -0.3986
  O  O649  1  0.585400  0.312800  0.516400  1.0  -0.3952
  O  O650  1  0.312800  0.585400  0.516400  1.0  -0.3943
  O  O651  1  0.312800  0.516400  0.585400  1.0  -0.3926
  O  O652  1  0.312800  0.585400  0.585400  1.0  -0.3961
  O  O653  1  0.483600  0.414600  0.414600  1.0  -0.3957
  O  O654  1  0.414600  0.414600  0.483600  1.0  -0.3965
  O  O655  1  0.414600  0.483600  0.414600  1.0  -0.3921
  O  O656  1  0.414600  0.483600  0.687200  1.0  -0.3934
  O  O657  1  0.414600  0.414600  0.687200  1.0  -0.3982
  O  O658  1  0.483600  0.414600  0.687200  1.0  -0.3968
  O  O659  1  0.687200  0.414600  0.414600  1.0  -0.3974
  O  O660  1  0.687200  0.483600  0.414600  1.0  -0.3938
  O  O661  1  0.687200  0.414600  0.483600  1.0  -0.3974
  O  O662  1  0.414600  0.687200  0.483600  1.0  -0.3951
  O  O663  1  0.483600  0.687200  0.414600  1.0  -0.3974
  O  O664  1  0.414600  0.687200  0.414600  1.0  -0.3955
