# generated using pymatgen
data_Ni3H26C30(N6O7)2
_symmetry_space_group_name_H-M   'P 1'
_cell_length_a   13.53280000
_cell_length_b   13.91110000
_cell_length_c   17.76340000
_cell_angle_alpha   111.29200000
_cell_angle_beta   90.00000000
_cell_angle_gamma   90.00000000
_symmetry_Int_Tables_number   1
_chemical_formula_structural   Ni3H26C30(N6O7)2
_chemical_formula_sum   'Ni6 H52 C60 N24 O28'
_cell_volume   3115.80934197
_cell_formula_units_Z   2
loop_
 _symmetry_equiv_pos_site_id
 _symmetry_equiv_pos_as_xyz
  1  'x, y, z'
loop_
 _atom_site_type_symbol
 _atom_site_label
 _atom_site_symmetry_multiplicity
 _atom_site_fract_x
 _atom_site_fract_y
 _atom_site_fract_z
 _atom_site_occupancy
 _atom_site_charge
  Ni  Ni1  1  0.017110  0.738550  0.922760  1.0  0.8229
  Ni  Ni2  1  0.517110  0.261450  0.577240  1.0  0.824
  Ni  Ni3  1  0.982890  0.261450  0.077240  1.0  0.8245
  Ni  Ni4  1  0.482890  0.738550  0.422760  1.0  0.8239
  Ni  Ni5  1  0.000000  0.000000  0.000000  1.0  0.642
  Ni  Ni6  1  0.500000  0.000000  0.500000  1.0  0.642
  H  H7  1  0.139000  0.860000  0.002100  1.0  0.383
  H  H8  1  0.135000  0.864000  0.923000  1.0  0.4016
  H  H9  1  0.885500  0.702200  0.068500  1.0  0.1263
  H  H10  1  0.858500  0.005400  0.158200  1.0  0.1137
  H  H11  1  0.822400  0.899800  0.258200  1.0  0.1142
  H  H12  1  0.810700  0.778700  0.213500  1.0  0.1197
  H  H13  1  0.664200  0.802500  0.151700  1.0  0.1182
  H  H14  1  0.677500  0.924200  0.189800  1.0  0.1126
  H  H15  1  0.631800  0.013800  0.343500  1.0  0.1118
  H  H16  1  0.605700  0.711500  0.252900  1.0  0.1328
  H  H17  1  0.109500  0.537500  0.047700  1.0  0.1054
  H  H18  1  0.271800  0.529900  0.236100  1.0  0.1156
  H  H19  1  0.260500  0.789700  0.185000  1.0  0.0932
  H  H20  1  0.639000  0.140000  0.497900  1.0  0.3793
  H  H21  1  0.635000  0.136000  0.577000  1.0  0.4024
  H  H22  1  0.385500  0.297800  0.431500  1.0  0.1258
  H  H23  1  0.358500  0.994600  0.341800  1.0  0.112
  H  H24  1  0.322400  0.100200  0.241800  1.0  0.1149
  H  H25  1  0.310700  0.221300  0.286500  1.0  0.1214
  H  H26  1  0.164200  0.197500  0.348300  1.0  0.118
  H  H27  1  0.177500  0.075800  0.310200  1.0  0.1123
  H  H28  1  0.131800  0.986200  0.156500  1.0  0.1109
  H  H29  1  0.105700  0.288500  0.247100  1.0  0.1317
  H  H30  1  0.609500  0.462500  0.452300  1.0  0.1054
  H  H31  1  0.771800  0.470100  0.263900  1.0  0.1154
  H  H32  1  0.760500  0.210300  0.315000  1.0  0.0924
  H  H33  1  0.861000  0.140000  0.997900  1.0  0.3828
  H  H34  1  0.865000  0.136000  0.077000  1.0  0.4019
  H  H35  1  0.114500  0.297800  0.931500  1.0  0.1255
  H  H36  1  0.141500  0.994600  0.841800  1.0  0.1128
  H  H37  1  0.177600  0.100200  0.741800  1.0  0.1148
  H  H38  1  0.189300  0.221300  0.786500  1.0  0.1215
  H  H39  1  0.335800  0.197500  0.848300  1.0  0.117
  H  H40  1  0.322500  0.075800  0.810200  1.0  0.1129
  H  H41  1  0.368200  0.986200  0.656500  1.0  0.1107
  H  H42  1  0.394300  0.288500  0.747100  1.0  0.1325
  H  H43  1  0.890500  0.462500  0.952300  1.0  0.1052
  H  H44  1  0.728200  0.470100  0.763900  1.0  0.115
  H  H45  1  0.739500  0.210300  0.815000  1.0  0.0923
  H  H46  1  0.361000  0.860000  0.502100  1.0  0.3847
  H  H47  1  0.365000  0.864000  0.423000  1.0  0.4018
  H  H48  1  0.614500  0.702200  0.568500  1.0  0.1265
  H  H49  1  0.641500  0.005400  0.658200  1.0  0.1142
  H  H50  1  0.677600  0.899800  0.758200  1.0  0.1148
  H  H51  1  0.689300  0.778700  0.713500  1.0  0.1189
  H  H52  1  0.835800  0.802500  0.651700  1.0  0.1185
  H  H53  1  0.822500  0.924200  0.689800  1.0  0.1127
  H  H54  1  0.868200  0.013800  0.843500  1.0  0.1114
  H  H55  1  0.894300  0.711500  0.752900  1.0  0.1336
  H  H56  1  0.390500  0.537500  0.547700  1.0  0.1056
  H  H57  1  0.228200  0.529900  0.736100  1.0  0.1156
  H  H58  1  0.239500  0.789700  0.685000  1.0  0.0934
  C  C59  1  0.889900  0.772320  0.075280  1.0  0.131
  C  C60  1  0.875100  0.938000  0.124210  1.0  0.1211
  C  C61  1  0.798600  0.845800  0.208780  1.0  -0.0611
  C  C62  1  0.689100  0.859600  0.198780  1.0  -0.057
  C  C63  1  0.615700  0.945700  0.337330  1.0  0.1185
  C  C64  1  0.601500  0.780800  0.287870  1.0  0.1337
  C  C65  1  0.184500  0.670740  0.105780  1.0  -0.1576
  C  C66  1  0.152540  0.570160  0.091000  1.0  -0.0349
  C  C67  1  0.184210  0.518380  0.140240  1.0  -0.105
  C  C68  1  0.247380  0.566550  0.204750  1.0  -0.0151
  C  C69  1  0.274400  0.669190  0.222870  1.0  -0.1396
  C  C70  1  0.242490  0.720470  0.172960  1.0  -0.0105
  C  C71  1  0.153300  0.725700  0.050610  1.0  0.6588
  C  C72  1  0.150000  0.409200  0.122800  1.0  0.6702
  C  C73  1  0.333333  0.725990  0.296730  1.0  0.6746
  C  C74  1  0.389900  0.227680  0.424720  1.0  0.1279
  C  C75  1  0.375100  0.062000  0.375790  1.0  0.121
  C  C76  1  0.298600  0.154200  0.291220  1.0  -0.0589
  C  C77  1  0.189100  0.140400  0.301220  1.0  -0.0604
  C  C78  1  0.115700  0.054300  0.162670  1.0  0.1179
  C  C79  1  0.101500  0.219200  0.212130  1.0  0.1342
  C  C80  1  0.684500  0.329260  0.394220  1.0  -0.1579
  C  C81  1  0.652540  0.429840  0.409000  1.0  -0.0348
  C  C82  1  0.684210  0.481620  0.359760  1.0  -0.1051
  C  C83  1  0.747380  0.433450  0.295250  1.0  -0.0169
  C  C84  1  0.774400  0.330810  0.277130  1.0  -0.1398
  C  C85  1  0.742490  0.279530  0.327040  1.0  -0.0097
  C  C86  1  0.653300  0.274300  0.449390  1.0  0.6592
  C  C87  1  0.650000  0.590800  0.377200  1.0  0.6705
  C  C88  1  0.833300  0.274010  0.203270  1.0  0.6737
  C  C89  1  0.110100  0.227680  0.924720  1.0  0.1283
  C  C90  1  0.124900  0.062000  0.875790  1.0  0.121
  C  C91  1  0.201400  0.154200  0.791220  1.0  -0.0584
  C  C92  1  0.310900  0.140400  0.801220  1.0  -0.0599
  C  C93  1  0.384300  0.054300  0.662670  1.0  0.1177
  C  C94  1  0.398500  0.219200  0.712130  1.0  0.1339
  C  C95  1  0.815500  0.329260  0.894220  1.0  -0.1582
  C  C96  1  0.847460  0.429840  0.909000  1.0  -0.0343
  C  C97  1  0.815790  0.481620  0.859760  1.0  -0.1055
  C  C98  1  0.752620  0.433450  0.795250  1.0  -0.0162
  C  C99  1  0.725600  0.330810  0.777130  1.0  -0.1392
  C  C100  1  0.757510  0.279530  0.827040  1.0  -0.0106
  C  C101  1  0.846700  0.274300  0.949390  1.0  0.6594
  C  C102  1  0.850000  0.590800  0.877200  1.0  0.6712
  C  C103  1  0.666667  0.274010  0.703270  1.0  0.6749
  C  C104  1  0.610100  0.772320  0.575280  1.0  0.1307
  C  C105  1  0.624900  0.938000  0.624210  1.0  0.1213
  C  C106  1  0.701400  0.845800  0.708780  1.0  -0.0617
  C  C107  1  0.810900  0.859600  0.698780  1.0  -0.057
  C  C108  1  0.884300  0.945700  0.837330  1.0  0.1185
  C  C109  1  0.898500  0.780800  0.787870  1.0  0.1341
  C  C110  1  0.315500  0.670740  0.605780  1.0  -0.1586
  C  C111  1  0.347460  0.570160  0.591000  1.0  -0.0346
  C  C112  1  0.315790  0.518380  0.640240  1.0  -0.1056
  C  C113  1  0.252620  0.566550  0.704750  1.0  -0.0155
  C  C114  1  0.225600  0.669190  0.722870  1.0  -0.1392
  C  C115  1  0.257510  0.720470  0.672960  1.0  -0.0108
  C  C116  1  0.346700  0.725700  0.550610  1.0  0.6594
  C  C117  1  0.350000  0.409200  0.622800  1.0  0.6705
  C  C118  1  0.166700  0.725990  0.796730  1.0  0.6752
  N  N119  1  0.933110  0.808030  0.025230  1.0  -0.1707
  N  N120  1  0.923510  0.914100  0.056360  1.0  -0.1815
  N  N121  1  0.852300  0.851620  0.138560  1.0  -0.0087
  N  N122  1  0.636880  0.861910  0.271740  1.0  0.0031
  N  N123  1  0.569550  0.918760  0.391150  1.0  -0.1872
  N  N124  1  0.560400  0.812780  0.359160  1.0  -0.1807
  N  N125  1  0.433110  0.191970  0.474770  1.0  -0.1711
  N  N126  1  0.423510  0.085900  0.443640  1.0  -0.1809
  N  N127  1  0.352300  0.148380  0.361440  1.0  -0.0069
  N  N128  1  0.136880  0.138090  0.228260  1.0  0.0014
  N  N129  1  0.069550  0.081240  0.108850  1.0  -0.185
  N  N130  1  0.060400  0.187220  0.140840  1.0  -0.1813
  N  N131  1  0.066890  0.191970  0.974770  1.0  -0.1706
  N  N132  1  0.076490  0.085900  0.943640  1.0  -0.1827
  N  N133  1  0.147700  0.148380  0.861440  1.0  -0.0069
  N  N134  1  0.363120  0.138090  0.728260  1.0  -0.0
  N  N135  1  0.430450  0.081240  0.608850  1.0  -0.1833
  N  N136  1  0.439600  0.187220  0.640840  1.0  -0.1825
  N  N137  1  0.566890  0.808030  0.525230  1.0  -0.1701
  N  N138  1  0.576490  0.914100  0.556360  1.0  -0.1832
  N  N139  1  0.647700  0.851620  0.638560  1.0  -0.0083
  N  N140  1  0.863120  0.861910  0.771740  1.0  0.0016
  N  N141  1  0.930450  0.918760  0.891150  1.0  -0.1848
  N  N142  1  0.939600  0.812780  0.859160  1.0  -0.1811
  O  O143  1  0.099690  0.879700  0.966220  1.0  -0.7309
  O  O144  1  0.102220  0.676670  0.990080  1.0  -0.5639
  O  O145  1  0.180250  0.818930  0.069660  1.0  -0.6416
  O  O146  1  0.058550  0.394360  0.112380  1.0  -0.5772
  O  O147  1  0.212640  0.342750  0.118700  1.0  -0.6577
  O  O148  1  0.390640  0.675730  0.324280  1.0  -0.5622
  O  O149  1  0.319600  0.822990  0.328100  1.0  -0.6594
  O  O150  1  0.599690  0.120300  0.533780  1.0  -0.7311
  O  O151  1  0.602220  0.323330  0.509920  1.0  -0.5647
  O  O152  1  0.680250  0.181070  0.430340  1.0  -0.6386
  O  O153  1  0.558550  0.605640  0.387620  1.0  -0.5785
  O  O154  1  0.712640  0.657250  0.381300  1.0  -0.6552
  O  O155  1  0.890640  0.324270  0.175720  1.0  -0.5632
  O  O156  1  0.819600  0.177010  0.171900  1.0  -0.6575
  O  O157  1  0.900310  0.120300  0.033780  1.0  -0.7332
  O  O158  1  0.897780  0.323330  0.009920  1.0  -0.5649
  O  O159  1  0.819750  0.181070  0.930340  1.0  -0.6407
  O  O160  1  0.941450  0.605640  0.887620  1.0  -0.5797
  O  O161  1  0.787360  0.657250  0.881300  1.0  -0.6544
  O  O162  1  0.609360  0.324270  0.675720  1.0  -0.5627
  O  O163  1  0.680400  0.177010  0.671900  1.0  -0.6554
  O  O164  1  0.400310  0.879700  0.466220  1.0  -0.7332
  O  O165  1  0.397780  0.676670  0.490080  1.0  -0.5642
  O  O166  1  0.319750  0.818930  0.569660  1.0  -0.6418
  O  O167  1  0.441450  0.394360  0.612380  1.0  -0.5785
  O  O168  1  0.287360  0.342750  0.618700  1.0  -0.6531
  O  O169  1  0.109360  0.675730  0.824280  1.0  -0.5618
  O  O170  1  0.180400  0.822990  0.828100  1.0  -0.658
