# generated using pymatgen
data_NiH9C15S2(NO2)2
_symmetry_space_group_name_H-M   'P 1'
_cell_length_a   15.89790000
_cell_length_b   15.78920000
_cell_length_c   20.32880000
_cell_angle_alpha   90.00000000
_cell_angle_beta   106.32400000
_cell_angle_gamma   90.00000000
_symmetry_Int_Tables_number   1
_chemical_formula_structural   NiH9C15S2(NO2)2
_chemical_formula_sum   'Ni8 H72 C120 S16 N16 O32'
_cell_volume   4897.12886712
_cell_formula_units_Z   8
loop_
 _symmetry_equiv_pos_site_id
 _symmetry_equiv_pos_as_xyz
  1  'x, y, z'
loop_
 _atom_site_type_symbol
 _atom_site_label
 _atom_site_symmetry_multiplicity
 _atom_site_fract_x
 _atom_site_fract_y
 _atom_site_fract_z
 _atom_site_occupancy
 _atom_site_charge
  Ni  Ni1  1  0.217440  0.059820  0.223010  1.0  0.671
  Ni  Ni2  1  0.717440  0.559820  0.223010  1.0  0.671
  Ni  Ni3  1  0.782560  0.059820  0.276990  1.0  0.6769
  Ni  Ni4  1  0.282560  0.559820  0.276990  1.0  0.6769
  Ni  Ni5  1  0.782560  0.940180  0.776990  1.0  0.6774
  Ni  Ni6  1  0.282560  0.440180  0.776990  1.0  0.6774
  Ni  Ni7  1  0.217440  0.940180  0.723010  1.0  0.6713
  Ni  Ni8  1  0.717440  0.440180  0.723010  1.0  0.6713
  H  H9  1  0.014900  0.060300  0.170800  1.0  0.0856
  H  H10  1  0.898600  0.970400  0.139100  1.0  0.1238
  H  H11  1  0.071700  0.777500  0.183300  1.0  0.1214
  H  H12  1  0.179500  0.872200  0.214500  1.0  0.0724
  H  H13  1  0.904900  0.831400  0.015300  1.0  0.124
  H  H14  1  0.659900  0.946400  0.870000  1.0  0.0834
  H  H15  1  0.901000  0.872200  0.905900  1.0  0.0775
  H  H16  1  0.658400  0.912700  0.978900  1.0  0.1172
  H  H17  1  0.514900  0.560300  0.170800  1.0  0.0856
  H  H18  1  0.398600  0.470400  0.139100  1.0  0.1238
  H  H19  1  0.571700  0.277500  0.183300  1.0  0.1214
  H  H20  1  0.679500  0.372200  0.214500  1.0  0.0724
  H  H21  1  0.404900  0.331400  0.015300  1.0  0.124
  H  H22  1  0.159900  0.446400  0.870000  1.0  0.0834
  H  H23  1  0.401000  0.372200  0.905900  1.0  0.0775
  H  H24  1  0.158400  0.412700  0.978900  1.0  0.1172
  H  H25  1  0.985100  0.060300  0.329200  1.0  0.0854
  H  H26  1  0.101400  0.970400  0.360900  1.0  0.1237
  H  H27  1  0.928300  0.777500  0.316700  1.0  0.1209
  H  H28  1  0.820500  0.872200  0.285500  1.0  0.0728
  H  H29  1  0.095100  0.831400  0.484700  1.0  0.1232
  H  H30  1  0.340100  0.946400  0.630000  1.0  0.0834
  H  H31  1  0.099000  0.872200  0.594100  1.0  0.077
  H  H32  1  0.341600  0.912700  0.521100  1.0  0.1174
  H  H33  1  0.485100  0.560300  0.329200  1.0  0.0854
  H  H34  1  0.601400  0.470400  0.360900  1.0  0.1237
  H  H35  1  0.428300  0.277500  0.316700  1.0  0.1209
  H  H36  1  0.320500  0.372200  0.285500  1.0  0.0728
  H  H37  1  0.595100  0.331400  0.484700  1.0  0.1232
  H  H38  1  0.840100  0.446400  0.630000  1.0  0.0834
  H  H39  1  0.599000  0.372200  0.594100  1.0  0.077
  H  H40  1  0.841600  0.412700  0.521100  1.0  0.1174
  H  H41  1  0.985100  0.939700  0.829200  1.0  0.0851
  H  H42  1  0.101400  0.029600  0.860900  1.0  0.1234
  H  H43  1  0.928300  0.222500  0.816700  1.0  0.1212
  H  H44  1  0.820500  0.127800  0.785500  1.0  0.073
  H  H45  1  0.095100  0.168600  0.984700  1.0  0.1231
  H  H46  1  0.340100  0.053600  0.130000  1.0  0.0835
  H  H47  1  0.099000  0.127800  0.094100  1.0  0.0768
  H  H48  1  0.341600  0.087300  0.021100  1.0  0.1171
  H  H49  1  0.485100  0.439700  0.829200  1.0  0.0851
  H  H50  1  0.601400  0.529600  0.860900  1.0  0.1234
  H  H51  1  0.428300  0.722500  0.816700  1.0  0.1212
  H  H52  1  0.320500  0.627800  0.785500  1.0  0.073
  H  H53  1  0.595100  0.668600  0.984700  1.0  0.1231
  H  H54  1  0.840100  0.553600  0.130000  1.0  0.0835
  H  H55  1  0.599000  0.627800  0.094100  1.0  0.0768
  H  H56  1  0.841600  0.587300  0.021100  1.0  0.1171
  H  H57  1  0.014900  0.939700  0.670800  1.0  0.085
  H  H58  1  0.898600  0.029600  0.639100  1.0  0.1238
  H  H59  1  0.071700  0.222500  0.683300  1.0  0.1217
  H  H60  1  0.179500  0.127800  0.714500  1.0  0.0726
  H  H61  1  0.904900  0.168600  0.515300  1.0  0.1242
  H  H62  1  0.659900  0.053600  0.370000  1.0  0.0835
  H  H63  1  0.901000  0.127800  0.405900  1.0  0.0773
  H  H64  1  0.658400  0.087300  0.478900  1.0  0.1172
  H  H65  1  0.514900  0.439700  0.670800  1.0  0.085
  H  H66  1  0.398600  0.529600  0.639100  1.0  0.1238
  H  H67  1  0.571700  0.722500  0.683300  1.0  0.1217
  H  H68  1  0.679500  0.627800  0.714500  1.0  0.0726
  H  H69  1  0.404900  0.668600  0.515300  1.0  0.1242
  H  H70  1  0.159900  0.553600  0.370000  1.0  0.0835
  H  H71  1  0.401000  0.627800  0.405900  1.0  0.0773
  H  H72  1  0.158400  0.587300  0.478900  1.0  0.1172
  H  H73  1  0.000000  0.476700  0.250000  1.0  0.1108
  H  H74  1  0.000000  0.186700  0.250000  1.0  0.0832
  H  H75  1  0.500000  0.976700  0.250000  1.0  0.1108
  H  H76  1  0.500000  0.686700  0.250000  1.0  0.0832
  H  H77  1  0.000000  0.523300  0.750000  1.0  0.1103
  H  H78  1  0.000000  0.813300  0.750000  1.0  0.0843
  H  H79  1  0.500000  0.023300  0.750000  1.0  0.1103
  H  H80  1  0.500000  0.313300  0.750000  1.0  0.0843
  C  C81  1  0.025900  0.002400  0.172800  1.0  0.1678
  C  C82  1  0.955400  0.949200  0.153800  1.0  -0.1309
  C  C83  1  0.970800  0.862600  0.156900  1.0  -0.0614
  C  C84  1  0.058600  0.835000  0.180300  1.0  -0.1232
  C  C85  1  0.781600  0.867300  0.009500  1.0  -0.0449
  C  C86  1  0.070300  0.375000  0.236700  1.0  -0.0631
  C  C87  1  0.070600  0.287500  0.238200  1.0  -0.1243
  C  C88  1  0.146400  0.234600  0.229500  1.0  0.7311
  C  C89  1  0.122400  0.892200  0.198100  1.0  0.1833
  C  C90  1  0.854300  0.855500  0.986800  1.0  -0.0948
  C  C91  1  0.710400  0.924000  0.899800  1.0  0.1698
  C  C92  1  0.851200  0.879900  0.920700  1.0  0.1701
  C  C93  1  0.708500  0.902900  0.965000  1.0  -0.1105
  C  C94  1  0.139900  0.429800  0.222800  1.0  0.7396
  C  C95  1  0.525900  0.502400  0.172800  1.0  0.1678
  C  C96  1  0.455400  0.449200  0.153800  1.0  -0.1309
  C  C97  1  0.470800  0.362600  0.156900  1.0  -0.0614
  C  C98  1  0.558600  0.335000  0.180300  1.0  -0.1232
  C  C99  1  0.281600  0.367300  0.009500  1.0  -0.0449
  C  C100  1  0.570300  0.875000  0.236700  1.0  -0.0631
  C  C101  1  0.570600  0.787500  0.238200  1.0  -0.1243
  C  C102  1  0.646400  0.734600  0.229500  1.0  0.7311
  C  C103  1  0.622400  0.392200  0.198100  1.0  0.1833
  C  C104  1  0.354300  0.355500  0.986800  1.0  -0.0948
  C  C105  1  0.210400  0.424000  0.899800  1.0  0.1698
  C  C106  1  0.351200  0.379900  0.920700  1.0  0.1701
  C  C107  1  0.208500  0.402900  0.965000  1.0  -0.1105
  C  C108  1  0.639900  0.929800  0.222800  1.0  0.7396
  C  C109  1  0.974100  0.002400  0.327200  1.0  0.1679
  C  C110  1  0.044600  0.949200  0.346200  1.0  -0.1323
  C  C111  1  0.029200  0.862600  0.343100  1.0  -0.0579
  C  C112  1  0.941400  0.835000  0.319700  1.0  -0.12
  C  C113  1  0.218400  0.867300  0.490500  1.0  -0.0479
  C  C114  1  0.929700  0.375000  0.263300  1.0  -0.063
  C  C115  1  0.929400  0.287500  0.261800  1.0  -0.124
  C  C116  1  0.853600  0.234600  0.270500  1.0  0.7305
  C  C117  1  0.877600  0.892200  0.301900  1.0  0.1835
  C  C118  1  0.145700  0.855500  0.513200  1.0  -0.0951
  C  C119  1  0.289600  0.924000  0.600200  1.0  0.1701
  C  C120  1  0.148800  0.879900  0.579300  1.0  0.1706
  C  C121  1  0.291500  0.902900  0.535000  1.0  -0.1098
  C  C122  1  0.860100  0.429800  0.277200  1.0  0.7384
  C  C123  1  0.474100  0.502400  0.327200  1.0  0.1679
  C  C124  1  0.544600  0.449200  0.346200  1.0  -0.1323
  C  C125  1  0.529200  0.362600  0.343100  1.0  -0.0579
  C  C126  1  0.441400  0.335000  0.319700  1.0  -0.12
  C  C127  1  0.718400  0.367300  0.490500  1.0  -0.0479
  C  C128  1  0.429700  0.875000  0.263300  1.0  -0.063
  C  C129  1  0.429400  0.787500  0.261800  1.0  -0.124
  C  C130  1  0.353600  0.734600  0.270500  1.0  0.7305
  C  C131  1  0.377600  0.392200  0.301900  1.0  0.1835
  C  C132  1  0.645700  0.355500  0.513200  1.0  -0.0951
  C  C133  1  0.789600  0.424000  0.600200  1.0  0.1701
  C  C134  1  0.648800  0.379900  0.579300  1.0  0.1706
  C  C135  1  0.791500  0.402900  0.535000  1.0  -0.1098
  C  C136  1  0.360100  0.929800  0.277200  1.0  0.7384
  C  C137  1  0.974100  0.997600  0.827200  1.0  0.1696
  C  C138  1  0.044600  0.050800  0.846200  1.0  -0.1319
  C  C139  1  0.029200  0.137400  0.843100  1.0  -0.0562
  C  C140  1  0.941400  0.165000  0.819700  1.0  -0.1202
  C  C141  1  0.218400  0.132700  0.990500  1.0  -0.0481
  C  C142  1  0.929700  0.625000  0.763300  1.0  -0.063
  C  C143  1  0.929400  0.712500  0.761800  1.0  -0.1242
  C  C144  1  0.853600  0.765400  0.770500  1.0  0.7305
  C  C145  1  0.877600  0.107800  0.801900  1.0  0.1832
  C  C146  1  0.145700  0.144500  0.013200  1.0  -0.0942
  C  C147  1  0.289600  0.076000  0.100200  1.0  0.1707
  C  C148  1  0.148800  0.120100  0.079300  1.0  0.1708
  C  C149  1  0.291500  0.097100  0.035000  1.0  -0.1101
  C  C150  1  0.860100  0.570200  0.777200  1.0  0.7387
  C  C151  1  0.474100  0.497600  0.827200  1.0  0.1696
  C  C152  1  0.544600  0.550800  0.846200  1.0  -0.1319
  C  C153  1  0.529200  0.637400  0.843100  1.0  -0.0562
  C  C154  1  0.441400  0.665000  0.819700  1.0  -0.1202
  C  C155  1  0.718400  0.632700  0.990500  1.0  -0.0481
  C  C156  1  0.429700  0.125000  0.763300  1.0  -0.063
  C  C157  1  0.429400  0.212500  0.761800  1.0  -0.1242
  C  C158  1  0.353600  0.265400  0.770500  1.0  0.7305
  C  C159  1  0.377600  0.607800  0.801900  1.0  0.1832
  C  C160  1  0.645700  0.644500  0.013200  1.0  -0.0942
  C  C161  1  0.789600  0.576000  0.100200  1.0  0.1707
  C  C162  1  0.648800  0.620100  0.079300  1.0  0.1708
  C  C163  1  0.791500  0.597100  0.035000  1.0  -0.1101
  C  C164  1  0.360100  0.070200  0.777200  1.0  0.7387
  C  C165  1  0.025900  0.997600  0.672800  1.0  0.1681
  C  C166  1  0.955400  0.050800  0.653800  1.0  -0.1308
  C  C167  1  0.970800  0.137400  0.656900  1.0  -0.058
  C  C168  1  0.058600  0.165000  0.680300  1.0  -0.1208
  C  C169  1  0.781600  0.132700  0.509500  1.0  -0.0451
  C  C170  1  0.070300  0.625000  0.736700  1.0  -0.0627
  C  C171  1  0.070600  0.712500  0.738200  1.0  -0.1244
  C  C172  1  0.146400  0.765400  0.729500  1.0  0.7312
  C  C173  1  0.122400  0.107800  0.698100  1.0  0.1829
  C  C174  1  0.854300  0.144500  0.486800  1.0  -0.0939
  C  C175  1  0.710400  0.076000  0.399800  1.0  0.1698
  C  C176  1  0.851200  0.120100  0.420700  1.0  0.1704
  C  C177  1  0.708500  0.097100  0.465000  1.0  -0.1098
  C  C178  1  0.139900  0.570200  0.722800  1.0  0.7382
  C  C179  1  0.525900  0.497600  0.672800  1.0  0.1681
  C  C180  1  0.455400  0.550800  0.653800  1.0  -0.1308
  C  C181  1  0.470800  0.637400  0.656900  1.0  -0.058
  C  C182  1  0.558600  0.665000  0.680300  1.0  -0.1208
  C  C183  1  0.281600  0.632700  0.509500  1.0  -0.0451
  C  C184  1  0.570300  0.125000  0.736700  1.0  -0.0627
  C  C185  1  0.570600  0.212500  0.738200  1.0  -0.1244
  C  C186  1  0.646400  0.265400  0.729500  1.0  0.7312
  C  C187  1  0.622400  0.607800  0.698100  1.0  0.1829
  C  C188  1  0.354300  0.644500  0.486800  1.0  -0.0939
  C  C189  1  0.210400  0.576000  0.399800  1.0  0.1698
  C  C190  1  0.351200  0.620100  0.420700  1.0  0.1704
  C  C191  1  0.208500  0.597100  0.465000  1.0  -0.1098
  C  C192  1  0.639900  0.070200  0.722800  1.0  0.7382
  C  C193  1  0.000000  0.417800  0.250000  1.0  -0.0632
  C  C194  1  0.000000  0.245600  0.250000  1.0  0.0127
  C  C195  1  0.500000  0.917800  0.250000  1.0  -0.0632
  C  C196  1  0.500000  0.745600  0.250000  1.0  0.0127
  C  C197  1  0.000000  0.582200  0.750000  1.0  -0.0613
  C  C198  1  0.000000  0.754400  0.750000  1.0  0.012
  C  C199  1  0.500000  0.082200  0.750000  1.0  -0.0613
  C  C200  1  0.500000  0.254400  0.750000  1.0  0.012
  S  S201  1  0.889400  0.781700  0.136210  1.0  -0.018
  S  S202  1  0.775000  0.842300  0.093200  1.0  -0.0239
  S  S203  1  0.389400  0.281700  0.136210  1.0  -0.018
  S  S204  1  0.275000  0.342300  0.093200  1.0  -0.0239
  S  S205  1  0.110600  0.781700  0.363790  1.0  -0.0181
  S  S206  1  0.225000  0.842300  0.406800  1.0  -0.022
  S  S207  1  0.610600  0.281700  0.363790  1.0  -0.0181
  S  S208  1  0.725000  0.342300  0.406800  1.0  -0.022
  S  S209  1  0.110600  0.218300  0.863790  1.0  -0.0171
  S  S210  1  0.225000  0.157700  0.906800  1.0  -0.022
  S  S211  1  0.610600  0.718300  0.863790  1.0  -0.0171
  S  S212  1  0.725000  0.657700  0.906800  1.0  -0.022
  S  S213  1  0.889400  0.218300  0.636210  1.0  -0.0164
  S  S214  1  0.775000  0.157700  0.593200  1.0  -0.0239
  S  S215  1  0.389400  0.718300  0.636210  1.0  -0.0164
  S  S216  1  0.275000  0.657700  0.593200  1.0  -0.0239
  N  N217  1  0.111000  0.977100  0.194400  1.0  -0.3346
  N  N218  1  0.780400  0.914000  0.877100  1.0  -0.3167
  N  N219  1  0.611000  0.477100  0.194400  1.0  -0.3346
  N  N220  1  0.280400  0.414000  0.877100  1.0  -0.3167
  N  N221  1  0.889000  0.977100  0.305600  1.0  -0.3346
  N  N222  1  0.219600  0.914000  0.622900  1.0  -0.3166
  N  N223  1  0.389000  0.477100  0.305600  1.0  -0.3346
  N  N224  1  0.719600  0.414000  0.622900  1.0  -0.3166
  N  N225  1  0.889000  0.022900  0.805600  1.0  -0.3353
  N  N226  1  0.219600  0.086000  0.122900  1.0  -0.3161
  N  N227  1  0.389000  0.522900  0.805600  1.0  -0.3353
  N  N228  1  0.719600  0.586000  0.122900  1.0  -0.3161
  N  N229  1  0.111000  0.022900  0.694400  1.0  -0.3344
  N  N230  1  0.780400  0.086000  0.377100  1.0  -0.317
  N  N231  1  0.611000  0.522900  0.694400  1.0  -0.3344
  N  N232  1  0.280400  0.586000  0.377100  1.0  -0.317
  O  O233  1  0.215900  0.273600  0.231100  1.0  -0.5441
  O  O234  1  0.133500  0.156800  0.222300  1.0  -0.5818
  O  O235  1  0.195700  0.460800  0.274100  1.0  -0.6086
  O  O236  1  0.136000  0.445500  0.161300  1.0  -0.5372
  O  O237  1  0.715900  0.773600  0.231100  1.0  -0.5441
  O  O238  1  0.633500  0.656800  0.222300  1.0  -0.5818
  O  O239  1  0.695700  0.960800  0.274100  1.0  -0.6086
  O  O240  1  0.636000  0.945500  0.161300  1.0  -0.5372
  O  O241  1  0.784100  0.273600  0.268900  1.0  -0.5436
  O  O242  1  0.866500  0.156800  0.277700  1.0  -0.5815
  O  O243  1  0.804300  0.460800  0.225900  1.0  -0.6073
  O  O244  1  0.864000  0.445500  0.338700  1.0  -0.5393
  O  O245  1  0.284100  0.773600  0.268900  1.0  -0.5436
  O  O246  1  0.366500  0.656800  0.277700  1.0  -0.5815
  O  O247  1  0.304300  0.960800  0.225900  1.0  -0.6073
  O  O248  1  0.364000  0.945500  0.338700  1.0  -0.5393
  O  O249  1  0.784100  0.726400  0.768900  1.0  -0.543
  O  O250  1  0.866500  0.843200  0.777700  1.0  -0.5809
  O  O251  1  0.804300  0.539200  0.725900  1.0  -0.6079
  O  O252  1  0.864000  0.554500  0.838700  1.0  -0.5405
  O  O253  1  0.284100  0.226400  0.768900  1.0  -0.543
  O  O254  1  0.366500  0.343200  0.777700  1.0  -0.5809
  O  O255  1  0.304300  0.039200  0.725900  1.0  -0.6079
  O  O256  1  0.364000  0.054500  0.838700  1.0  -0.5405
  O  O257  1  0.215900  0.726400  0.731100  1.0  -0.5441
  O  O258  1  0.133500  0.843200  0.722300  1.0  -0.5809
  O  O259  1  0.195700  0.539200  0.774100  1.0  -0.6084
  O  O260  1  0.136000  0.554500  0.661300  1.0  -0.5372
  O  O261  1  0.715900  0.226400  0.731100  1.0  -0.5441
  O  O262  1  0.633500  0.343200  0.722300  1.0  -0.5809
  O  O263  1  0.695700  0.039200  0.774100  1.0  -0.6084
  O  O264  1  0.636000  0.054500  0.661300  1.0  -0.5372
