# generated using pymatgen
data_CdH10(C11O4)2
_symmetry_space_group_name_H-M   'P 1'
_cell_length_a   9.15490000
_cell_length_b   15.40860000
_cell_length_c   25.45190000
_cell_angle_alpha   80.77610000
_cell_angle_beta   79.63920000
_cell_angle_gamma   72.71830000
_symmetry_Int_Tables_number   1
_chemical_formula_structural   CdH10(C11O4)2
_chemical_formula_sum   'Cd4 H40 C88 O32'
_cell_volume   3350.47131733
_cell_formula_units_Z   4
loop_
 _symmetry_equiv_pos_site_id
 _symmetry_equiv_pos_as_xyz
  1  'x, y, z'
loop_
 _atom_site_type_symbol
 _atom_site_label
 _atom_site_symmetry_multiplicity
 _atom_site_fract_x
 _atom_site_fract_y
 _atom_site_fract_z
 _atom_site_occupancy
 _atom_site_charge
  Cd  Cd1  1  0.153230  0.376550  0.495030  1.0  1.1305
  Cd  Cd2  1  0.024810  0.123450  0.004970  1.0  1.1308
  Cd  Cd3  1  0.846770  0.623450  0.504970  1.0  1.1305
  Cd  Cd4  1  0.975190  0.876550  0.995030  1.0  1.1312
  H  H5  1  0.993300  0.210300  0.661900  1.0  0.1453
  H  H6  1  0.630000  0.811200  0.739400  1.0  0.1399
  H  H7  1  0.706400  0.730100  0.867900  1.0  0.1292
  H  H8  1  0.456400  0.999100  0.690500  1.0  0.1287
  H  H9  1  0.128700  0.079700  0.821700  1.0  0.1306
  H  H10  1  0.293600  0.269900  0.132100  1.0  0.1291
  H  H11  1  0.871300  0.920300  0.178300  1.0  0.1308
  H  H12  1  0.819400  0.311200  0.239400  1.0  0.1408
  H  H13  1  0.872000  0.230100  0.165900  1.0  0.1189
  H  H14  1  0.146000  0.500900  0.809500  1.0  0.129
  H  H15  1  0.304400  0.769900  0.632100  1.0  0.1293
  H  H16  1  0.566500  0.216700  0.172100  1.0  0.1335
  H  H17  1  0.044700  0.716700  0.672100  1.0  0.1341
  H  H18  1  0.558400  0.901300  0.387100  1.0  0.1384
  H  H19  1  0.846800  0.598700  0.112900  1.0  0.1377
  H  H20  1  0.865500  0.289700  0.838100  1.0  0.1451
  H  H21  1  0.153200  0.401300  0.887100  1.0  0.1385
  H  H22  1  0.794500  0.142800  0.296400  1.0  0.1418
  H  H23  1  0.233700  0.357200  0.203600  1.0  0.1404
  H  H24  1  0.766300  0.642800  0.796400  1.0  0.1405
  H  H25  1  0.433500  0.783300  0.827900  1.0  0.1354
  H  H26  1  0.128000  0.769900  0.834100  1.0  0.1188
  H  H27  1  0.134500  0.710300  0.161900  1.0  0.1444
  H  H28  1  0.955300  0.283300  0.327900  1.0  0.1353
  H  H29  1  0.441600  0.098700  0.612900  1.0  0.1384
  H  H30  1  0.854000  0.499100  0.190500  1.0  0.1278
  H  H31  1  0.370000  0.188800  0.260600  1.0  0.1398
  H  H32  1  0.987200  0.887600  0.259600  1.0  0.1378
  H  H33  1  0.695600  0.230100  0.367900  1.0  0.1295
  H  H34  1  0.543600  0.000900  0.309500  1.0  0.1281
  H  H35  1  0.134400  0.612400  0.240400  1.0  0.1388
  H  H36  1  0.030100  0.420300  0.678300  1.0  0.1304
  H  H37  1  0.006700  0.789700  0.338100  1.0  0.1451
  H  H38  1  0.180600  0.688800  0.760600  1.0  0.1413
  H  H39  1  0.969900  0.579700  0.321700  1.0  0.1298
  H  H40  1  0.268000  0.269900  0.334100  1.0  0.1191
  H  H41  1  0.012800  0.112400  0.740400  1.0  0.1379
  H  H42  1  0.732000  0.730100  0.665900  1.0  0.1193
  H  H43  1  0.865600  0.387600  0.759600  1.0  0.1385
  H  H44  1  0.205500  0.857200  0.703600  1.0  0.1423
  C  C45  1  0.923500  0.331600  0.832400  1.0  -0.0603
  C  C46  1  0.054200  0.530400  0.626800  1.0  -0.0447
  C  C47  1  0.401900  0.308300  0.406900  1.0  0.7712
  C  C48  1  0.371000  0.779400  0.652800  1.0  -0.0143
  C  C49  1  0.011600  0.608300  0.722500  1.0  0.0501
  C  C50  1  0.882900  0.808300  0.906900  1.0  0.7713
  C  C51  1  0.338300  0.820900  0.927100  1.0  0.7288
  C  C52  1  0.086300  0.679100  0.572900  1.0  0.7249
  C  C53  1  0.945800  0.469600  0.373200  1.0  -0.0439
  C  C54  1  0.661700  0.179100  0.072900  1.0  0.7315
  C  C55  1  0.763400  0.955100  0.276300  1.0  0.0877
  C  C56  1  0.914100  0.304300  0.217500  1.0  -0.0902
  C  C57  1  0.017700  0.270200  0.921800  1.0  0.7368
  C  C58  1  0.630300  0.157100  0.173100  1.0  -0.1045
  C  C59  1  0.994800  0.544900  0.223700  1.0  0.0875
  C  C60  1  0.625700  0.754800  0.673400  1.0  -0.0163
  C  C61  1  0.354000  0.101700  0.638300  1.0  -0.0183
  C  C62  1  0.592300  0.157400  0.271000  1.0  0.0484
  C  C63  1  0.085900  0.695700  0.782500  1.0  -0.0888
  C  C64  1  0.810500  0.980700  0.176900  1.0  -0.0679
  C  C65  1  0.987700  0.482900  0.275500  1.0  0.0117
  C  C66  1  0.912500  0.831600  0.332400  1.0  -0.0613
  C  C67  1  0.564100  0.804300  0.717500  1.0  -0.087
  C  C68  1  0.076500  0.668400  0.167600  1.0  -0.0613
  C  C69  1  0.217300  0.165100  0.628900  1.0  -0.1051
  C  C70  1  0.161400  0.330700  0.196500  1.0  -0.0788
  C  C71  1  0.087200  0.242400  0.140600  1.0  -0.1249
  C  C72  1  0.657600  0.108300  0.222500  1.0  0.0492
  C  C73  1  0.075000  0.485400  0.576800  1.0  0.6801
  C  C74  1  0.988700  0.665100  0.128900  1.0  -0.1052
  C  C75  1  0.209700  0.229800  0.578200  1.0  0.7375
  C  C76  1  0.253900  0.982900  0.775500  1.0  0.0119
  C  C77  1  0.005200  0.455100  0.776300  1.0  0.0878
  C  C78  1  0.369700  0.842900  0.826900  1.0  -0.1026
  C  C79  1  0.862800  0.985400  0.076800  1.0  0.6797
  C  C80  1  0.968100  0.519300  0.323100  1.0  -0.0679
  C  C81  1  0.077200  0.609000  0.214400  1.0  -0.1033
  C  C82  1  0.746100  0.017100  0.224500  1.0  0.0108
  C  C83  1  0.598100  0.691700  0.593100  1.0  0.7718
  C  C84  1  0.906000  0.601700  0.138300  1.0  -0.0209
  C  C85  1  0.342400  0.891700  0.777500  1.0  0.0494
  C  C86  1  0.988400  0.391700  0.277500  1.0  0.0487
  C  C87  1  0.629000  0.220600  0.347200  1.0  -0.0199
  C  C88  1  0.782700  0.834900  0.371100  1.0  -0.1054
  C  C89  1  0.407700  0.842600  0.729000  1.0  0.0498
  C  C90  1  0.922800  0.391000  0.785600  1.0  -0.1048
  C  C91  1  0.011300  0.334900  0.871100  1.0  -0.1061
  C  C92  1  0.979300  0.657400  0.771000  1.0  0.0499
  C  C93  1  0.637000  0.958100  0.314900  1.0  -0.0848
  C  C94  1  0.137200  0.014600  0.923200  1.0  0.6801
  C  C95  1  0.060500  0.620700  0.624700  1.0  -0.1226
  C  C96  1  0.189500  0.019300  0.823100  1.0  -0.0674
  C  C97  1  0.788600  0.030400  0.126800  1.0  -0.044
  C  C98  1  0.363000  0.041900  0.685100  1.0  -0.0822
  C  C99  1  0.838600  0.669300  0.803500  1.0  -0.0773
  C  C100  1  0.435900  0.195700  0.282500  1.0  -0.0863
  C  C101  1  0.910000  0.541900  0.185100  1.0  -0.0859
  C  C102  1  0.236600  0.044900  0.723700  1.0  0.0874
  C  C103  1  0.912800  0.757600  0.859400  1.0  -0.1255
  C  C104  1  0.031900  0.480700  0.676900  1.0  -0.0701
  C  C105  1  0.305900  0.879300  0.875300  1.0  -0.12
  C  C106  1  0.020700  0.342600  0.229000  1.0  0.0495
  C  C107  1  0.982300  0.729800  0.078200  1.0  0.737
  C  C108  1  0.039500  0.657100  0.673100  1.0  -0.104
  C  C109  1  0.094000  0.398300  0.861700  1.0  -0.022
  C  C110  1  0.099400  0.109000  0.714400  1.0  -0.1058
  C  C111  1  0.087500  0.168400  0.667600  1.0  -0.0626
  C  C112  1  0.946100  0.254800  0.173400  1.0  -0.0162
  C  C113  1  0.470200  0.257600  0.359400  1.0  -0.1226
  C  C114  1  0.211400  0.969600  0.873200  1.0  -0.0428
  C  C115  1  0.913700  0.320900  0.427100  1.0  0.725
  C  C116  1  0.374300  0.245200  0.326600  1.0  -0.0158
  C  C117  1  0.196800  0.279400  0.152800  1.0  -0.0184
  C  C118  1  0.900600  0.891000  0.285600  1.0  -0.1038
  C  C119  1  0.925000  0.514600  0.423200  1.0  0.6809
  C  C120  1  0.694100  0.120700  0.124700  1.0  -0.1199
  C  C121  1  0.939500  0.379300  0.375300  1.0  -0.1215
  C  C122  1  0.960500  0.342900  0.326900  1.0  -0.1053
  C  C123  1  0.803200  0.720600  0.847200  1.0  -0.0179
  C  C124  1  0.529800  0.742400  0.640600  1.0  -0.1229
  C  C125  1  0.090000  0.458100  0.814900  1.0  -0.0833
  C  C126  1  0.790300  0.770200  0.421800  1.0  0.7381
  C  C127  1  0.117100  0.191700  0.093100  1.0  0.7713
  C  C128  1  0.053900  0.745200  0.826600  1.0  -0.0168
  C  C129  1  0.311400  0.830700  0.696500  1.0  -0.0801
  C  C130  1  0.012300  0.517100  0.724500  1.0  0.0103
  C  C131  1  0.688600  0.169300  0.303500  1.0  -0.0796
  C  C132  1  0.646000  0.898300  0.361700  1.0  -0.0184
  O  O133  1  0.929070  0.348370  0.470490  1.0  -0.6865
  O  O134  1  0.043910  0.517720  0.441260  1.0  -0.6852
  O  O135  1  0.517400  0.659600  0.571000  1.0  -0.4602
  O  O136  1  0.747930  0.151630  0.029510  1.0  -0.6873
  O  O137  1  0.214820  0.052930  0.943230  1.0  -0.5452
  O  O138  1  0.077270  0.277190  0.566870  1.0  -0.5627
  O  O139  1  0.260320  0.315480  0.422480  1.0  -0.5581
  O  O140  1  0.883800  0.736900  0.048500  1.0  -0.5846
  O  O141  1  0.739680  0.684520  0.577520  1.0  -0.5615
  O  O142  1  0.789020  0.552930  0.443230  1.0  -0.5427
  O  O143  1  0.116200  0.263100  0.951500  1.0  -0.5848
  O  O144  1  0.252000  0.159600  0.071000  1.0  -0.4568
  O  O145  1  0.119900  0.751330  0.572470  1.0  -0.4745
  O  O146  1  0.921330  0.222810  0.933130  1.0  -0.5645
  O  O147  1  0.998280  0.184520  0.077520  1.0  -0.5587
  O  O148  1  0.922730  0.722810  0.433130  1.0  -0.5633
  O  O149  1  0.070930  0.651630  0.529510  1.0  -0.6816
  O  O150  1  0.556300  0.251330  0.072470  1.0  -0.4748
  O  O151  1  0.785180  0.947070  0.056770  1.0  -0.5423
  O  O152  1  0.330800  0.236900  0.548500  1.0  -0.5813
  O  O153  1  0.078670  0.777190  0.066870  1.0  -0.5617
  O  O154  1  0.748000  0.840400  0.929000  1.0  -0.4569
  O  O155  1  0.482600  0.340400  0.429000  1.0  -0.4613
  O  O156  1  0.880100  0.248670  0.427530  1.0  -0.4715
  O  O157  1  0.956090  0.482280  0.558740  1.0  -0.6868
  O  O158  1  0.252070  0.848370  0.970490  1.0  -0.6877
  O  O159  1  0.997110  0.017720  0.941260  1.0  -0.6859
  O  O160  1  0.669200  0.763100  0.451500  1.0  -0.5813
  O  O161  1  0.001720  0.815480  0.922480  1.0  -0.5599
  O  O162  1  0.443700  0.748670  0.927530  1.0  -0.4719
  O  O163  1  0.210980  0.447070  0.556770  1.0  -0.5418
  O  O164  1  0.002890  0.982280  0.058740  1.0  -0.6854
