# generated using pymatgen
data_ZnH16C22(N3O)2
_symmetry_space_group_name_H-M   'P 1'
_cell_length_a   7.80050000
_cell_length_b   11.29470000
_cell_length_c   13.15520000
_cell_angle_alpha   82.71900000
_cell_angle_beta   80.49900000
_cell_angle_gamma   83.19400000
_symmetry_Int_Tables_number   1
_chemical_formula_structural   ZnH16C22(N3O)2
_chemical_formula_sum   'Zn2 H32 C44 N12 O4'
_cell_volume   1128.25808789
_cell_formula_units_Z   2
loop_
 _symmetry_equiv_pos_site_id
 _symmetry_equiv_pos_as_xyz
  1  'x, y, z'
loop_
 _atom_site_type_symbol
 _atom_site_label
 _atom_site_symmetry_multiplicity
 _atom_site_fract_x
 _atom_site_fract_y
 _atom_site_fract_z
 _atom_site_occupancy
 _atom_site_charge
  Zn  Zn1  1  0.716380  0.764700  0.735780  1.0  0.8362
  Zn  Zn2  1  0.283620  0.235300  0.264220  1.0  0.8364
  H  H3  1  0.752200  0.114600  0.566500  1.0  0.0871
  H  H4  1  0.282200  0.520800  0.209700  1.0  0.0866
  H  H5  1  0.344000  0.465200  0.663900  1.0  0.0878
  H  H6  1  0.529000  0.614000  0.121400  1.0  0.2974
  H  H7  1  0.123700  0.905700  0.855400  1.0  0.0848
  H  H8  1  0.876300  0.094300  0.144600  1.0  0.085
  H  H9  1  0.528600  0.020900  0.757200  1.0  0.0848
  H  H10  1  0.471400  0.979100  0.242800  1.0  0.0864
  H  H11  1  0.717800  0.479200  0.790300  1.0  0.0858
  H  H12  1  0.627700  0.378600  0.627700  1.0  0.0947
  H  H13  1  0.299100  0.986800  0.947900  1.0  0.0883
  H  H14  1  0.956100  0.316400  0.094300  1.0  0.0772
  H  H15  1  0.789000  0.722400  0.497800  1.0  0.0873
  H  H16  1  0.700900  0.013200  0.052100  1.0  0.0886
  H  H17  1  0.652000  0.269400  0.128600  1.0  0.0975
  H  H18  1  0.425600  0.793300  0.579700  1.0  0.0985
  H  H19  1  0.211000  0.277600  0.502200  1.0  0.0896
  H  H20  1  0.060600  0.638900  0.412400  1.0  0.2874
  H  H21  1  0.101900  0.626800  0.703700  1.0  0.1032
  H  H22  1  0.043900  0.683600  0.905700  1.0  0.0772
  H  H23  1  0.247800  0.885400  0.433500  1.0  0.0873
  H  H24  1  0.574400  0.206700  0.420300  1.0  0.0986
  H  H25  1  0.986600  0.080800  0.654500  1.0  0.1066
  H  H26  1  0.348000  0.730600  0.871400  1.0  0.0976
  H  H27  1  0.231300  0.352800  0.010800  1.0  0.095
  H  H28  1  0.372300  0.621400  0.372300  1.0  0.0946
  H  H29  1  0.656000  0.534800  0.336100  1.0  0.0878
  H  H30  1  0.898100  0.373200  0.296300  1.0  0.1026
  H  H31  1  0.471000  0.386000  0.878600  1.0  0.2956
  H  H32  1  0.768700  0.647200  0.989200  1.0  0.0945
  H  H33  1  0.013400  0.919200  0.345500  1.0  0.1072
  H  H34  1  0.939400  0.361100  0.587600  1.0  0.284
  C  C35  1  0.926300  0.056900  0.086100  1.0  -0.035
  C  C36  1  0.671500  0.445800  0.477200  1.0  0.0112
  C  C37  1  0.026700  0.609500  0.943600  1.0  -0.1112
  C  C38  1  0.178700  0.992700  0.968600  1.0  -0.0505
  C  C39  1  0.408300  0.655600  0.862700  1.0  0.0405
  C  C40  1  0.149300  0.611200  0.549300  1.0  0.0578
  C  C41  1  0.147800  0.931400  0.460500  1.0  -0.1038
  C  C42  1  0.895100  0.948500  0.945200  1.0  -0.16
  C  C43  1  0.886500  0.692800  0.528700  1.0  0.2065
  C  C44  1  0.861200  0.587700  0.993800  1.0  -0.1053
  C  C45  1  0.852200  0.068600  0.539500  1.0  -0.1066
  C  C46  1  0.142900  0.978200  0.553800  1.0  -0.0492
  C  C47  1  0.341900  0.548500  0.895500  1.0  0.0672
  C  C48  1  0.850700  0.388800  0.450700  1.0  0.0575
  C  C49  1  0.973300  0.390500  0.056400  1.0  -0.1149
  C  C50  1  0.168400  0.522100  0.948900  1.0  0.0216
  C  C51  1  0.138800  0.412300  0.006200  1.0  -0.1061
  C  C52  1  0.104900  0.051500  0.054800  1.0  -0.1594
  C  C53  1  0.524100  0.014600  0.288100  1.0  0.2399
  C  C54  1  0.941100  0.360000  0.359000  1.0  0.0522
  C  C55  1  0.591700  0.344400  0.137300  1.0  0.0419
  C  C56  1  0.418800  0.861000  0.614300  1.0  0.0392
  C  C57  1  0.992200  0.048100  0.592500  1.0  -0.0737
  C  C58  1  0.406400  0.480000  0.597700  1.0  -0.1377
  C  C59  1  0.780500  0.890000  0.889700  1.0  0.63
  C  C60  1  0.612100  0.518300  0.818200  1.0  0.2067
  C  C61  1  0.423100  0.573000  0.424200  1.0  -0.1199
  C  C62  1  0.113500  0.307200  0.471300  1.0  0.2058
  C  C63  1  0.831600  0.477900  0.051100  1.0  0.0216
  C  C64  1  0.475900  0.985400  0.711900  1.0  0.2405
  C  C65  1  0.328500  0.554200  0.522800  1.0  0.0113
  C  C66  1  0.293900  0.955500  0.609100  1.0  0.0148
  C  C67  1  0.821300  0.007300  0.031400  1.0  -0.0508
  C  C68  1  0.658100  0.451500  0.104500  1.0  0.0679
  C  C69  1  0.593600  0.520000  0.402300  1.0  -0.1386
  C  C70  1  0.576900  0.427000  0.575800  1.0  -0.1187
  C  C71  1  0.581200  0.139000  0.385700  1.0  0.0395
  C  C72  1  0.073700  0.943100  0.913900  1.0  -0.0355
  C  C73  1  0.387900  0.481700  0.181800  1.0  0.2069
  C  C74  1  0.007800  0.951900  0.407500  1.0  -0.073
  C  C75  1  0.706100  0.044500  0.390900  1.0  0.0158
  C  C76  1  0.219500  0.110000  0.110300  1.0  0.6327
  C  C77  1  0.058900  0.640000  0.641000  1.0  0.0526
  C  C78  1  0.857100  0.021800  0.446200  1.0  -0.0483
  N  N79  1  0.962300  0.354100  0.522200  1.0  -0.2719
  N  N80  1  0.420900  0.364300  0.185600  1.0  -0.4072
  N  N81  1  0.524900  0.537700  0.132900  1.0  -0.2628
  N  N82  1  0.533600  0.880100  0.678000  1.0  -0.4076
  N  N83  1  0.893800  0.691600  0.628200  1.0  -0.4128
  N  N84  1  0.332400  0.034500  0.672800  1.0  -0.379
  N  N85  1  0.106200  0.308400  0.371800  1.0  -0.4137
  N  N86  1  0.579100  0.635700  0.814400  1.0  -0.4074
  N  N87  1  0.475100  0.462300  0.867100  1.0  -0.2671
  N  N88  1  0.037700  0.645900  0.477800  1.0  -0.2714
  N  N89  1  0.466400  0.119900  0.322000  1.0  -0.4087
  N  N90  1  0.667600  0.965500  0.327200  1.0  -0.3777
  O  O91  1  0.143300  0.151000  0.194660  1.0  -0.6322
  O  O92  1  0.625800  0.881300  0.925300  1.0  -0.5659
  O  O93  1  0.856700  0.849000  0.805340  1.0  -0.6319
  O  O94  1  0.374200  0.118700  0.074700  1.0  -0.5657
