# generated using pymatgen
data_Ni5H40(C42N17)2
_symmetry_space_group_name_H-M   'P 1'
_cell_length_a   23.08070000
_cell_length_b   23.08070000
_cell_length_c   26.69620000
_cell_angle_alpha   64.38720000
_cell_angle_beta   64.38720000
_cell_angle_gamma   89.99980000
_symmetry_Int_Tables_number   1
_chemical_formula_structural   Ni5H40(C42N17)2
_chemical_formula_sum   'Ni20 H160 C336 N136'
_cell_volume   11254.43355057
_cell_formula_units_Z   4
loop_
 _symmetry_equiv_pos_site_id
 _symmetry_equiv_pos_as_xyz
  1  'x, y, z'
loop_
 _atom_site_type_symbol
 _atom_site_label
 _atom_site_symmetry_multiplicity
 _atom_site_fract_x
 _atom_site_fract_y
 _atom_site_fract_z
 _atom_site_occupancy
 _atom_site_charge
  Ni  Ni1  1  0.310940  0.944340  0.849420  1.0  0.8653
  Ni  Ni2  1  0.339640  0.206240  0.849420  1.0  0.8682
  Ni  Ni3  1  0.444340  0.839640  0.349420  1.0  0.8674
  Ni  Ni4  1  0.706240  0.810940  0.349420  1.0  0.8652
  Ni  Ni5  1  0.689060  0.055660  0.150580  1.0  0.8685
  Ni  Ni6  1  0.660360  0.793760  0.150580  1.0  0.8631
  Ni  Ni7  1  0.555660  0.160360  0.650580  1.0  0.8647
  Ni  Ni8  1  0.293760  0.189060  0.650580  1.0  0.8678
  Ni  Ni9  1  0.375000  0.125000  0.750000  1.0  0.5973
  Ni  Ni10  1  0.625000  0.875000  0.250000  1.0  0.5971
  Ni  Ni11  1  0.160360  0.555660  0.150580  1.0  0.8677
  Ni  Ni12  1  0.189060  0.293760  0.150580  1.0  0.8615
  Ni  Ni13  1  0.793760  0.660360  0.650580  1.0  0.8671
  Ni  Ni14  1  0.055660  0.689060  0.650580  1.0  0.8646
  Ni  Ni15  1  0.839640  0.444340  0.849420  1.0  0.8622
  Ni  Ni16  1  0.810940  0.706240  0.849420  1.0  0.8693
  Ni  Ni17  1  0.206240  0.339640  0.349420  1.0  0.8649
  Ni  Ni18  1  0.944340  0.310940  0.349420  1.0  0.8681
  Ni  Ni19  1  0.125000  0.375000  0.250000  1.0  0.5975
  Ni  Ni20  1  0.875000  0.625000  0.750000  1.0  0.5969
  H  H21  1  0.422500  0.857900  0.821400  1.0  0.1334
  H  H22  1  0.523600  0.834200  0.780400  1.0  0.1001
  H  H23  1  0.619100  0.916900  0.708400  1.0  0.1053
  H  H24  1  0.616600  0.026900  0.671600  1.0  0.1297
  H  H25  1  0.237400  0.895500  0.005400  1.0  0.1208
  H  H26  1  0.195900  0.900200  0.099000  1.0  0.11
  H  H27  1  0.395600  0.793400  0.096000  1.0  0.1102
  H  H28  1  0.498100  0.799300  0.087000  1.0  0.1058
  H  H29  1  0.577900  0.852900  0.901400  1.0  0.112
  H  H30  1  0.475000  0.850200  0.909600  1.0  0.1063
  H  H31  1  0.256100  0.320700  0.821400  1.0  0.1338
  H  H32  1  0.196000  0.385400  0.780400  1.0  0.1008
  H  H33  1  0.172500  0.374700  0.708400  1.0  0.1016
  H  H34  1  0.211800  0.301500  0.671600  1.0  0.1312
  H  H35  1  0.257200  0.099100  0.005400  1.0  0.1208
  H  H36  1  0.205100  0.000800  0.099000  1.0  0.107
  H  H37  1  0.008400  0.110600  0.096000  1.0  0.1099
  H  H38  1  0.914900  0.113700  0.087000  1.0  0.1045
  H  H39  1  0.020700  0.245700  0.901400  1.0  0.1114
  H  H40  1  0.115400  0.240200  0.909600  1.0  0.1069
  H  H41  1  0.357900  0.756100  0.321400  1.0  0.1321
  H  H42  1  0.334200  0.696000  0.280400  1.0  0.1014
  H  H43  1  0.416900  0.672500  0.208400  1.0  0.1026
  H  H44  1  0.526900  0.711800  0.171600  1.0  0.129
  H  H45  1  0.395500  0.757200  0.505400  1.0  0.1207
  H  H46  1  0.400200  0.705100  0.599000  1.0  0.1098
  H  H47  1  0.293400  0.508400  0.596000  1.0  0.1096
  H  H48  1  0.299300  0.414900  0.587000  1.0  0.1051
  H  H49  1  0.352900  0.520700  0.401400  1.0  0.1138
  H  H50  1  0.350200  0.615400  0.409600  1.0  0.1066
  H  H51  1  0.820700  0.922500  0.321400  1.0  0.1321
  H  H52  1  0.885400  0.023600  0.280400  1.0  0.1017
  H  H53  1  0.874700  0.119100  0.208400  1.0  0.1026
  H  H54  1  0.801500  0.116600  0.171600  1.0  0.13
  H  H55  1  0.599100  0.737400  0.505400  1.0  0.1216
  H  H56  1  0.500800  0.695900  0.599000  1.0  0.1075
  H  H57  1  0.610600  0.895600  0.596000  1.0  0.109
  H  H58  1  0.613700  0.998100  0.587000  1.0  0.1042
  H  H59  1  0.745700  0.077900  0.401400  1.0  0.1106
  H  H60  1  0.740200  0.975000  0.409600  1.0  0.1065
  H  H61  1  0.577500  0.142100  0.178600  1.0  0.1325
  H  H62  1  0.476400  0.165800  0.219600  1.0  0.1009
  H  H63  1  0.380900  0.083100  0.291600  1.0  0.1054
  H  H64  1  0.383400  0.973100  0.328400  1.0  0.1308
  H  H65  1  0.762600  0.104500  0.994600  1.0  0.1197
  H  H66  1  0.804100  0.099800  0.901000  1.0  0.1098
  H  H67  1  0.604400  0.206600  0.904000  1.0  0.1104
  H  H68  1  0.501900  0.200700  0.913000  1.0  0.1062
  H  H69  1  0.422100  0.147100  0.098600  1.0  0.1119
  H  H70  1  0.525000  0.149800  0.090400  1.0  0.1071
  H  H71  1  0.743900  0.679300  0.178600  1.0  0.1342
  H  H72  1  0.804000  0.614600  0.219600  1.0  0.0996
  H  H73  1  0.827500  0.625300  0.291600  1.0  0.1018
  H  H74  1  0.788200  0.698500  0.328400  1.0  0.131
  H  H75  1  0.742800  0.900900  0.994600  1.0  0.1209
  H  H76  1  0.794900  0.999200  0.901000  1.0  0.1072
  H  H77  1  0.991600  0.889400  0.904000  1.0  0.1101
  H  H78  1  0.085100  0.886300  0.913000  1.0  0.1048
  H  H79  1  0.979300  0.754300  0.098600  1.0  0.1117
  H  H80  1  0.884600  0.759800  0.090400  1.0  0.1072
  H  H81  1  0.642100  0.243900  0.678600  1.0  0.1321
  H  H82  1  0.665800  0.304000  0.719600  1.0  0.1021
  H  H83  1  0.583100  0.327500  0.791600  1.0  0.1023
  H  H84  1  0.473100  0.288200  0.828400  1.0  0.1288
  H  H85  1  0.604500  0.242800  0.494600  1.0  0.1205
  H  H86  1  0.599800  0.294900  0.401000  1.0  0.1098
  H  H87  1  0.706600  0.491600  0.404000  1.0  0.1098
  H  H88  1  0.700700  0.585100  0.413000  1.0  0.106
  H  H89  1  0.647100  0.479300  0.598600  1.0  0.1141
  H  H90  1  0.649800  0.384600  0.590400  1.0  0.1061
  H  H91  1  0.179300  0.077500  0.678600  1.0  0.1331
  H  H92  1  0.114600  0.976400  0.719600  1.0  0.1007
  H  H93  1  0.125300  0.880900  0.791600  1.0  0.103
  H  H94  1  0.198500  0.883400  0.828400  1.0  0.1293
  H  H95  1  0.400900  0.262600  0.494600  1.0  0.1214
  H  H96  1  0.499200  0.304100  0.401000  1.0  0.1069
  H  H97  1  0.389400  0.104400  0.404000  1.0  0.1097
  H  H98  1  0.386300  0.001900  0.413000  1.0  0.106
  H  H99  1  0.254300  0.922100  0.598600  1.0  0.1107
  H  H100  1  0.259800  0.025000  0.590400  1.0  0.1058
  H  H101  1  0.243900  0.642100  0.178600  1.0  0.1324
  H  H102  1  0.304000  0.665800  0.219600  1.0  0.1005
  H  H103  1  0.327500  0.583100  0.291600  1.0  0.1036
  H  H104  1  0.288200  0.473100  0.328400  1.0  0.129
  H  H105  1  0.242800  0.604500  0.994600  1.0  0.1202
  H  H106  1  0.294900  0.599800  0.901000  1.0  0.11
  H  H107  1  0.491600  0.706600  0.904000  1.0  0.1105
  H  H108  1  0.585100  0.700700  0.913000  1.0  0.1045
  H  H109  1  0.479300  0.647100  0.098600  1.0  0.1132
  H  H110  1  0.384600  0.649800  0.090400  1.0  0.107
  H  H111  1  0.077500  0.179300  0.178600  1.0  0.133
  H  H112  1  0.976400  0.114600  0.219600  1.0  0.1001
  H  H113  1  0.880900  0.125300  0.291600  1.0  0.103
  H  H114  1  0.883400  0.198500  0.328400  1.0  0.1302
  H  H115  1  0.262600  0.400900  0.994600  1.0  0.1214
  H  H116  1  0.304100  0.499200  0.901000  1.0  0.1072
  H  H117  1  0.104400  0.389400  0.904000  1.0  0.1089
  H  H118  1  0.001900  0.386300  0.913000  1.0  0.1059
  H  H119  1  0.922100  0.254300  0.098600  1.0  0.1124
  H  H120  1  0.025000  0.259800  0.090400  1.0  0.1065
  H  H121  1  0.679300  0.743900  0.678600  1.0  0.1347
  H  H122  1  0.614600  0.804000  0.719600  1.0  0.0998
  H  H123  1  0.625300  0.827500  0.791600  1.0  0.1012
  H  H124  1  0.698500  0.788200  0.828400  1.0  0.1309
  H  H125  1  0.900900  0.742800  0.494600  1.0  0.1209
  H  H126  1  0.999200  0.794900  0.401000  1.0  0.109
  H  H127  1  0.889400  0.991600  0.404000  1.0  0.1102
  H  H128  1  0.886300  0.085100  0.413000  1.0  0.1053
  H  H129  1  0.754300  0.979300  0.598600  1.0  0.1114
  H  H130  1  0.759800  0.884600  0.590400  1.0  0.106
  H  H131  1  0.142100  0.577500  0.678600  1.0  0.1337
  H  H132  1  0.165800  0.476400  0.719600  1.0  0.1027
  H  H133  1  0.083100  0.380900  0.791600  1.0  0.1036
  H  H134  1  0.973100  0.383400  0.828400  1.0  0.1308
  H  H135  1  0.104500  0.762600  0.494600  1.0  0.1201
  H  H136  1  0.099800  0.804100  0.401000  1.0  0.1077
  H  H137  1  0.206600  0.604400  0.404000  1.0  0.1089
  H  H138  1  0.200700  0.501900  0.413000  1.0  0.1063
  H  H139  1  0.147100  0.422100  0.598600  1.0  0.112
  H  H140  1  0.149800  0.525000  0.590400  1.0  0.1074
  H  H141  1  0.756100  0.357900  0.821400  1.0  0.1312
  H  H142  1  0.696000  0.334200  0.780400  1.0  0.1013
  H  H143  1  0.672500  0.416900  0.708400  1.0  0.1037
  H  H144  1  0.711800  0.526900  0.671600  1.0  0.1302
  H  H145  1  0.757200  0.395500  0.005400  1.0  0.121
  H  H146  1  0.705100  0.400200  0.099000  1.0  0.1098
  H  H147  1  0.508400  0.293400  0.096000  1.0  0.1095
  H  H148  1  0.414900  0.299300  0.087000  1.0  0.1049
  H  H149  1  0.520700  0.352900  0.901400  1.0  0.1137
  H  H150  1  0.615400  0.350200  0.909600  1.0  0.1062
  H  H151  1  0.922500  0.820700  0.821400  1.0  0.1329
  H  H152  1  0.023600  0.885400  0.780400  1.0  0.1001
  H  H153  1  0.119100  0.874700  0.708400  1.0  0.1032
  H  H154  1  0.116600  0.801500  0.671600  1.0  0.1292
  H  H155  1  0.737400  0.599100  0.005400  1.0  0.121
  H  H156  1  0.695900  0.500800  0.099000  1.0  0.1076
  H  H157  1  0.895600  0.610600  0.096000  1.0  0.1084
  H  H158  1  0.998100  0.613700  0.087000  1.0  0.1047
  H  H159  1  0.077900  0.745700  0.901400  1.0  0.1118
  H  H160  1  0.975000  0.740200  0.909600  1.0  0.1064
  H  H161  1  0.320700  0.256100  0.321400  1.0  0.1347
  H  H162  1  0.385400  0.196000  0.280400  1.0  0.1
  H  H163  1  0.374700  0.172500  0.208400  1.0  0.1005
  H  H164  1  0.301500  0.211800  0.171600  1.0  0.1316
  H  H165  1  0.099100  0.257200  0.505400  1.0  0.1208
  H  H166  1  0.000800  0.205100  0.599000  1.0  0.1088
  H  H167  1  0.110600  0.008400  0.596000  1.0  0.1102
  H  H168  1  0.113700  0.914900  0.587000  1.0  0.1044
  H  H169  1  0.245700  0.020700  0.401400  1.0  0.1118
  H  H170  1  0.240200  0.115400  0.409600  1.0  0.107
  H  H171  1  0.857900  0.422500  0.321400  1.0  0.1343
  H  H172  1  0.834200  0.523600  0.280400  1.0  0.1026
  H  H173  1  0.916900  0.619100  0.208400  1.0  0.1037
  H  H174  1  0.026900  0.616600  0.171600  1.0  0.1298
  H  H175  1  0.895500  0.237400  0.505400  1.0  0.1208
  H  H176  1  0.900200  0.195900  0.599000  1.0  0.1075
  H  H177  1  0.793400  0.395600  0.596000  1.0  0.1087
  H  H178  1  0.799300  0.498100  0.587000  1.0  0.1055
  H  H179  1  0.852900  0.577900  0.401400  1.0  0.1115
  H  H180  1  0.850200  0.475000  0.409600  1.0  0.1071
  C  C181  1  0.458790  0.958980  0.770200  1.0  0.1032
  C  C182  1  0.460550  0.891300  0.791980  1.0  -0.1198
  C  C183  1  0.520650  0.878050  0.767500  1.0  -0.0758
  C  C184  1  0.578980  0.928580  0.723040  1.0  -0.0825
  C  C185  1  0.578040  0.993820  0.701120  1.0  -0.1317
  C  C186  1  0.515550  0.008700  0.725480  1.0  0.1127
  C  C187  1  0.272830  0.996020  0.948140  1.0  0.1292
  C  C188  1  0.241310  0.935610  0.005380  1.0  -0.1353
  C  C189  1  0.216840  0.939040  0.060520  1.0  -0.0839
  C  C190  1  0.348510  0.849600  0.956100  1.0  0.3986
  C  C191  1  0.301270  0.792470  0.069260  1.0  0.4161
  C  C192  1  0.358630  0.817690  0.009620  1.0  -0.1589
  C  C193  1  0.422700  0.820440  0.003560  1.0  0.0373
  C  C194  1  0.432070  0.805460  0.056880  1.0  -0.0966
  C  C195  1  0.493400  0.808410  0.051580  1.0  -0.0925
  C  C196  1  0.550010  0.825100  0.993500  1.0  0.0099
  C  C197  1  0.541330  0.840970  0.940460  1.0  -0.0847
  C  C198  1  0.479390  0.838930  0.945540  1.0  -0.0872
  C  C199  1  0.613940  0.826560  0.988820  1.0  -0.195
  C  C200  1  0.671240  0.841840  0.932720  1.0  0.372
  C  C201  1  0.623100  0.815210  0.041000  1.0  0.3735
  C  C202  1  0.271010  0.270820  0.770200  1.0  0.1021
  C  C203  1  0.247470  0.316720  0.791980  1.0  -0.1222
  C  C204  1  0.211850  0.354450  0.767500  1.0  -0.073
  C  C205  1  0.197980  0.348380  0.723040  1.0  -0.0824
  C  C206  1  0.220840  0.305060  0.701120  1.0  -0.1334
  C  C207  1  0.258970  0.265820  0.725480  1.0  0.1148
  C  C208  1  0.279030  0.055840  0.948140  1.0  0.1278
  C  C209  1  0.253310  0.059010  0.005380  1.0  -0.1374
  C  C210  1  0.222640  0.000440  0.060520  1.0  -0.0849
  C  C211  1  0.195390  0.194300  0.956100  1.0  0.3978
  C  C212  1  0.129470  0.138270  0.069260  1.0  0.4161
  C  C213  1  0.131750  0.172690  0.009620  1.0  -0.1589
  C  C214  1  0.073740  0.176000  0.003560  1.0  0.038
  C  C215  1  0.011050  0.137660  0.056880  1.0  -0.0936
  C  C216  1  0.955020  0.140010  0.051580  1.0  -0.0906
  C  C217  1  0.956490  0.181400  0.993500  1.0  0.0098
  C  C218  1  0.018210  0.218570  0.940460  1.0  -0.0789
  C  C219  1  0.075070  0.215530  0.945540  1.0  -0.0848
  C  C220  1  0.897240  0.184620  0.988820  1.0  -0.1942
  C  C221  1  0.896040  0.225440  0.932720  1.0  0.3757
  C  C222  1  0.835900  0.143790  0.041000  1.0  0.3717
  C  C223  1  0.458980  0.771010  0.270200  1.0  0.1037
  C  C224  1  0.391300  0.747470  0.291980  1.0  -0.1205
  C  C225  1  0.378050  0.711850  0.267500  1.0  -0.0761
  C  C226  1  0.428580  0.697980  0.223040  1.0  -0.0819
  C  C227  1  0.493820  0.720840  0.201120  1.0  -0.1321
  C  C228  1  0.508700  0.758970  0.225480  1.0  0.1135
  C  C229  1  0.496020  0.779030  0.448140  1.0  0.1281
  C  C230  1  0.435610  0.753310  0.505380  1.0  -0.1384
  C  C231  1  0.439040  0.722640  0.560520  1.0  -0.0808
  C  C232  1  0.349600  0.695390  0.456100  1.0  0.3981
  C  C233  1  0.292470  0.629470  0.569260  1.0  0.4175
  C  C234  1  0.317690  0.631750  0.509620  1.0  -0.1598
  C  C235  1  0.320440  0.573740  0.503560  1.0  0.0398
  C  C236  1  0.305460  0.511050  0.556880  1.0  -0.0894
  C  C237  1  0.308410  0.455020  0.551580  1.0  -0.0925
  C  C238  1  0.325100  0.456490  0.493500  1.0  0.0119
  C  C239  1  0.340970  0.518210  0.440460  1.0  -0.0838
  C  C240  1  0.338930  0.575070  0.445540  1.0  -0.0835
  C  C241  1  0.326560  0.397240  0.488820  1.0  -0.1966
  C  C242  1  0.341840  0.396040  0.432720  1.0  0.3732
  C  C243  1  0.315210  0.335900  0.541000  1.0  0.3717
  C  C244  1  0.770820  0.958790  0.270200  1.0  0.1021
  C  C245  1  0.816720  0.960550  0.291980  1.0  -0.1206
  C  C246  1  0.854450  0.020650  0.267500  1.0  -0.074
  C  C247  1  0.848380  0.078980  0.223040  1.0  -0.0847
  C  C248  1  0.805060  0.078040  0.201120  1.0  -0.1309
  C  C249  1  0.765820  0.015550  0.225480  1.0  0.1132
  C  C250  1  0.555840  0.772830  0.448140  1.0  0.1284
  C  C251  1  0.559010  0.741310  0.505380  1.0  -0.1368
  C  C252  1  0.500440  0.716840  0.560520  1.0  -0.0855
  C  C253  1  0.694300  0.848510  0.456100  1.0  0.3985
  C  C254  1  0.638270  0.801270  0.569260  1.0  0.4138
  C  C255  1  0.672690  0.858630  0.509620  1.0  -0.1583
  C  C256  1  0.676000  0.922700  0.503560  1.0  0.0402
  C  C257  1  0.637660  0.932070  0.556880  1.0  -0.0913
  C  C258  1  0.640010  0.993400  0.551580  1.0  -0.0913
  C  C259  1  0.681400  0.050010  0.493500  1.0  0.0111
  C  C260  1  0.718570  0.041330  0.440460  1.0  -0.0817
  C  C261  1  0.715530  0.979390  0.445540  1.0  -0.0808
  C  C262  1  0.684620  0.113940  0.488820  1.0  -0.1937
  C  C263  1  0.725440  0.171240  0.432720  1.0  0.3706
  C  C264  1  0.643790  0.123100  0.541000  1.0  0.3722
  C  C265  1  0.541210  0.041020  0.229800  1.0  0.1024
  C  C266  1  0.539450  0.108700  0.208020  1.0  -0.12
  C  C267  1  0.479350  0.121950  0.232500  1.0  -0.074
  C  C268  1  0.421020  0.071420  0.276960  1.0  -0.0837
  C  C269  1  0.421960  0.006180  0.298880  1.0  -0.1311
  C  C270  1  0.484450  0.991300  0.274520  1.0  0.1134
  C  C271  1  0.727170  0.003980  0.051860  1.0  0.1278
  C  C272  1  0.758690  0.064390  0.994620  1.0  -0.1355
  C  C273  1  0.783160  0.060960  0.939480  1.0  -0.0829
  C  C274  1  0.651490  0.150400  0.043900  1.0  0.3991
  C  C275  1  0.698730  0.207530  0.930740  1.0  0.4157
  C  C276  1  0.641370  0.182310  0.990380  1.0  -0.1591
  C  C277  1  0.577300  0.179560  0.996440  1.0  0.0377
  C  C278  1  0.567930  0.194540  0.943120  1.0  -0.0955
  C  C279  1  0.506600  0.191590  0.948420  1.0  -0.0921
  C  C280  1  0.449990  0.174900  0.006500  1.0  0.0094
  C  C281  1  0.458670  0.159030  0.059540  1.0  -0.0833
  C  C282  1  0.520610  0.161070  0.054460  1.0  -0.0867
  C  C283  1  0.386060  0.173440  0.011180  1.0  -0.1939
  C  C284  1  0.328760  0.158160  0.067280  1.0  0.3733
  C  C285  1  0.376900  0.184790  0.959000  1.0  0.3738
  C  C286  1  0.728990  0.729180  0.229800  1.0  0.1037
  C  C287  1  0.752530  0.683280  0.208020  1.0  -0.1206
  C  C288  1  0.788150  0.645550  0.232500  1.0  -0.0751
  C  C289  1  0.802020  0.651620  0.276960  1.0  -0.0811
  C  C290  1  0.779160  0.694940  0.298880  1.0  -0.1339
  C  C291  1  0.741030  0.734180  0.274520  1.0  0.1126
  C  C292  1  0.720970  0.944160  0.051860  1.0  0.1273
  C  C293  1  0.746690  0.940990  0.994620  1.0  -0.1399
  C  C294  1  0.777360  0.999560  0.939480  1.0  -0.0843
  C  C295  1  0.804610  0.805700  0.043900  1.0  0.3979
  C  C296  1  0.870530  0.861730  0.930740  1.0  0.4174
  C  C297  1  0.868250  0.827310  0.990380  1.0  -0.1586
  C  C298  1  0.926260  0.824000  0.996440  1.0  0.0367
  C  C299  1  0.988950  0.862340  0.943120  1.0  -0.095
  C  C300  1  0.044980  0.859990  0.948420  1.0  -0.0906
  C  C301  1  0.043510  0.818600  0.006500  1.0  0.0101
  C  C302  1  0.981790  0.781430  0.059540  1.0  -0.0807
  C  C303  1  0.924930  0.784470  0.054460  1.0  -0.0851
  C  C304  1  0.102760  0.815380  0.011180  1.0  -0.1961
  C  C305  1  0.103960  0.774560  0.067280  1.0  0.3769
  C  C306  1  0.164100  0.856210  0.959000  1.0  0.3733
  C  C307  1  0.541020  0.228990  0.729800  1.0  0.1032
  C  C308  1  0.608700  0.252530  0.708020  1.0  -0.1191
  C  C309  1  0.621950  0.288150  0.732500  1.0  -0.0754
  C  C310  1  0.571420  0.302020  0.776960  1.0  -0.0819
  C  C311  1  0.506180  0.279160  0.798880  1.0  -0.1315
  C  C312  1  0.491300  0.241030  0.774520  1.0  0.1139
  C  C313  1  0.503980  0.220970  0.551860  1.0  0.1263
  C  C314  1  0.564390  0.246690  0.494620  1.0  -0.1379
  C  C315  1  0.560960  0.277360  0.439480  1.0  -0.0801
  C  C316  1  0.650400  0.304610  0.543900  1.0  0.3973
  C  C317  1  0.707530  0.370530  0.430740  1.0  0.4172
  C  C318  1  0.682310  0.368250  0.490380  1.0  -0.1595
  C  C319  1  0.679560  0.426260  0.496440  1.0  0.0394
  C  C320  1  0.694540  0.488950  0.443120  1.0  -0.0909
  C  C321  1  0.691590  0.544980  0.448420  1.0  -0.0935
  C  C322  1  0.674900  0.543510  0.506500  1.0  0.0144
  C  C323  1  0.659030  0.481790  0.559540  1.0  -0.086
  C  C324  1  0.661070  0.424930  0.554460  1.0  -0.0847
  C  C325  1  0.673440  0.602760  0.511180  1.0  -0.1975
  C  C326  1  0.658160  0.603960  0.567280  1.0  0.3734
  C  C327  1  0.684790  0.664100  0.459000  1.0  0.3724
  C  C328  1  0.229180  0.041210  0.729800  1.0  0.1035
  C  C329  1  0.183280  0.039450  0.708020  1.0  -0.1205
  C  C330  1  0.145550  0.979350  0.732500  1.0  -0.0759
  C  C331  1  0.151620  0.921020  0.776960  1.0  -0.0837
  C  C332  1  0.194940  0.921960  0.798880  1.0  -0.1298
  C  C333  1  0.234180  0.984450  0.774520  1.0  0.1137
  C  C334  1  0.444160  0.227170  0.551860  1.0  0.1277
  C  C335  1  0.440990  0.258690  0.494620  1.0  -0.139
  C  C336  1  0.499560  0.283160  0.439480  1.0  -0.0853
  C  C337  1  0.305700  0.151490  0.543900  1.0  0.3992
  C  C338  1  0.361730  0.198730  0.430740  1.0  0.4127
  C  C339  1  0.327310  0.141370  0.490380  1.0  -0.1588
  C  C340  1  0.324000  0.077300  0.496440  1.0  0.0396
  C  C341  1  0.362340  0.067930  0.443120  1.0  -0.0921
  C  C342  1  0.359990  0.006600  0.448420  1.0  -0.0914
  C  C343  1  0.318600  0.949990  0.506500  1.0  0.0098
  C  C344  1  0.281430  0.958670  0.559540  1.0  -0.0796
  C  C345  1  0.284470  0.020610  0.554460  1.0  -0.0787
  C  C346  1  0.315380  0.886060  0.511180  1.0  -0.1941
  C  C347  1  0.274560  0.828760  0.567280  1.0  0.3729
  C  C348  1  0.356210  0.876900  0.459000  1.0  0.3726
  C  C349  1  0.228990  0.541020  0.229800  1.0  0.1047
  C  C350  1  0.252530  0.608700  0.208020  1.0  -0.1182
  C  C351  1  0.288150  0.621950  0.232500  1.0  -0.0745
  C  C352  1  0.302020  0.571420  0.276960  1.0  -0.0821
  C  C353  1  0.279160  0.506180  0.298880  1.0  -0.1328
  C  C354  1  0.241030  0.491300  0.274520  1.0  0.1132
  C  C355  1  0.220970  0.503980  0.051860  1.0  0.1275
  C  C356  1  0.246690  0.564390  0.994620  1.0  -0.1387
  C  C357  1  0.277360  0.560960  0.939480  1.0  -0.0826
  C  C358  1  0.304610  0.650400  0.043900  1.0  0.3996
  C  C359  1  0.370530  0.707530  0.930740  1.0  0.4206
  C  C360  1  0.368250  0.682310  0.990380  1.0  -0.1589
  C  C361  1  0.426260  0.679560  0.996440  1.0  0.038
  C  C362  1  0.488950  0.694540  0.943120  1.0  -0.0941
  C  C363  1  0.544980  0.691590  0.948420  1.0  -0.0941
  C  C364  1  0.543510  0.674900  0.006500  1.0  0.0096
  C  C365  1  0.481790  0.659030  0.059540  1.0  -0.0869
  C  C366  1  0.424930  0.661070  0.054460  1.0  -0.0864
  C  C367  1  0.602760  0.673440  0.011180  1.0  -0.1945
  C  C368  1  0.603960  0.658160  0.067280  1.0  0.3737
  C  C369  1  0.664100  0.684790  0.959000  1.0  0.3722
  C  C370  1  0.041210  0.229180  0.229800  1.0  0.1026
  C  C371  1  0.039450  0.183280  0.208020  1.0  -0.1188
  C  C372  1  0.979350  0.145550  0.232500  1.0  -0.0744
  C  C373  1  0.921020  0.151620  0.276960  1.0  -0.083
  C  C374  1  0.921960  0.194940  0.298880  1.0  -0.1314
  C  C375  1  0.984450  0.234180  0.274520  1.0  0.1143
  C  C376  1  0.227170  0.444160  0.051860  1.0  0.1264
  C  C377  1  0.258690  0.440990  0.994620  1.0  -0.1406
  C  C378  1  0.283160  0.499560  0.939480  1.0  -0.0843
  C  C379  1  0.151490  0.305700  0.043900  1.0  0.3989
  C  C380  1  0.198730  0.361730  0.930740  1.0  0.4145
  C  C381  1  0.141370  0.327310  0.990380  1.0  -0.1589
  C  C382  1  0.077300  0.324000  0.996440  1.0  0.0377
  C  C383  1  0.067930  0.362340  0.943120  1.0  -0.094
  C  C384  1  0.006600  0.359990  0.948420  1.0  -0.0916
  C  C385  1  0.949990  0.318600  0.006500  1.0  0.0114
  C  C386  1  0.958670  0.281430  0.059540  1.0  -0.0841
  C  C387  1  0.020610  0.284470  0.054460  1.0  -0.0827
  C  C388  1  0.886060  0.315380  0.011180  1.0  -0.1951
  C  C389  1  0.828760  0.274560  0.067280  1.0  0.3718
  C  C390  1  0.876900  0.356210  0.959000  1.0  0.3733
  C  C391  1  0.729180  0.728990  0.729800  1.0  0.104
  C  C392  1  0.683280  0.752530  0.708020  1.0  -0.1222
  C  C393  1  0.645550  0.788150  0.732500  1.0  -0.075
  C  C394  1  0.651620  0.802020  0.776960  1.0  -0.082
  C  C395  1  0.694940  0.779160  0.798880  1.0  -0.1327
  C  C396  1  0.734180  0.741030  0.774520  1.0  0.1125
  C  C397  1  0.944160  0.720970  0.551860  1.0  0.1269
  C  C398  1  0.940990  0.746690  0.494620  1.0  -0.1384
  C  C399  1  0.999560  0.777360  0.439480  1.0  -0.0818
  C  C400  1  0.805700  0.804610  0.543900  1.0  0.3975
  C  C401  1  0.861730  0.870530  0.430740  1.0  0.4145
  C  C402  1  0.827310  0.868250  0.490380  1.0  -0.1586
  C  C403  1  0.824000  0.926260  0.496440  1.0  0.0401
  C  C404  1  0.862340  0.988950  0.443120  1.0  -0.0926
  C  C405  1  0.859990  0.044980  0.448420  1.0  -0.0902
  C  C406  1  0.818600  0.043510  0.506500  1.0  0.0089
  C  C407  1  0.781430  0.981790  0.559540  1.0  -0.0747
  C  C408  1  0.784470  0.924930  0.554460  1.0  -0.0811
  C  C409  1  0.815380  0.102760  0.511180  1.0  -0.1967
  C  C410  1  0.774560  0.103960  0.567280  1.0  0.3718
  C  C411  1  0.856210  0.164100  0.459000  1.0  0.3715
  C  C412  1  0.041020  0.541210  0.729800  1.0  0.1027
  C  C413  1  0.108700  0.539450  0.708020  1.0  -0.1201
  C  C414  1  0.121950  0.479350  0.732500  1.0  -0.0747
  C  C415  1  0.071420  0.421020  0.776960  1.0  -0.0844
  C  C416  1  0.006180  0.421960  0.798880  1.0  -0.1311
  C  C417  1  0.991300  0.484450  0.774520  1.0  0.1135
  C  C418  1  0.003980  0.727170  0.551860  1.0  0.1277
  C  C419  1  0.064390  0.758690  0.494620  1.0  -0.1365
  C  C420  1  0.060960  0.783160  0.439480  1.0  -0.0841
  C  C421  1  0.150400  0.651490  0.543900  1.0  0.3988
  C  C422  1  0.207530  0.698730  0.430740  1.0  0.415
  C  C423  1  0.182310  0.641370  0.490380  1.0  -0.1579
  C  C424  1  0.179560  0.577300  0.496440  1.0  0.0405
  C  C425  1  0.194540  0.567930  0.443120  1.0  -0.0956
  C  C426  1  0.191590  0.506600  0.448420  1.0  -0.0923
  C  C427  1  0.174900  0.449990  0.506500  1.0  0.0094
  C  C428  1  0.159030  0.458670  0.559540  1.0  -0.0843
  C  C429  1  0.161070  0.520610  0.554460  1.0  -0.0867
  C  C430  1  0.173440  0.386060  0.511180  1.0  -0.1941
  C  C431  1  0.158160  0.328760  0.567280  1.0  0.3743
  C  C432  1  0.184790  0.376900  0.459000  1.0  0.373
  C  C433  1  0.771010  0.458980  0.770200  1.0  0.1039
  C  C434  1  0.747470  0.391300  0.791980  1.0  -0.1165
  C  C435  1  0.711850  0.378050  0.767500  1.0  -0.074
  C  C436  1  0.697980  0.428580  0.723040  1.0  -0.0827
  C  C437  1  0.720840  0.493820  0.701120  1.0  -0.1324
  C  C438  1  0.758970  0.508700  0.725480  1.0  0.1126
  C  C439  1  0.779030  0.496020  0.948140  1.0  0.1283
  C  C440  1  0.753310  0.435610  0.005380  1.0  -0.1378
  C  C441  1  0.722640  0.439040  0.060520  1.0  -0.0824
  C  C442  1  0.695390  0.349600  0.956100  1.0  0.399
  C  C443  1  0.629470  0.292470  0.069260  1.0  0.4203
  C  C444  1  0.631750  0.317690  0.009620  1.0  -0.1585
  C  C445  1  0.573740  0.320440  0.003560  1.0  0.0379
  C  C446  1  0.511050  0.305460  0.056880  1.0  -0.094
  C  C447  1  0.455020  0.308410  0.051580  1.0  -0.0927
  C  C448  1  0.456490  0.325100  0.993500  1.0  0.0117
  C  C449  1  0.518210  0.340970  0.940460  1.0  -0.0878
  C  C450  1  0.575070  0.338930  0.945540  1.0  -0.0848
  C  C451  1  0.397240  0.326560  0.988820  1.0  -0.1944
  C  C452  1  0.396040  0.341840  0.932720  1.0  0.3727
  C  C453  1  0.335900  0.315210  0.041000  1.0  0.3723
  C  C454  1  0.958790  0.770820  0.770200  1.0  0.1039
  C  C455  1  0.960550  0.816720  0.791980  1.0  -0.1206
  C  C456  1  0.020650  0.854450  0.767500  1.0  -0.0755
  C  C457  1  0.078980  0.848380  0.723040  1.0  -0.0836
  C  C458  1  0.078040  0.805060  0.701120  1.0  -0.133
  C  C459  1  0.015550  0.765820  0.725480  1.0  0.1135
  C  C460  1  0.772830  0.555840  0.948140  1.0  0.1277
  C  C461  1  0.741310  0.559010  0.005380  1.0  -0.1388
  C  C462  1  0.716840  0.500440  0.060520  1.0  -0.0854
  C  C463  1  0.848510  0.694300  0.956100  1.0  0.398
  C  C464  1  0.801270  0.638270  0.069260  1.0  0.4156
  C  C465  1  0.858630  0.672690  0.009620  1.0  -0.1592
  C  C466  1  0.922700  0.676000  0.003560  1.0  0.0385
  C  C467  1  0.932070  0.637660  0.056880  1.0  -0.0923
  C  C468  1  0.993400  0.640010  0.051580  1.0  -0.0927
  C  C469  1  0.050010  0.681400  0.993500  1.0  0.007
  C  C470  1  0.041330  0.718570  0.940460  1.0  -0.0813
  C  C471  1  0.979390  0.715530  0.945540  1.0  -0.084
  C  C472  1  0.113940  0.684620  0.988820  1.0  -0.1952
  C  C473  1  0.171240  0.725440  0.932720  1.0  0.3726
  C  C474  1  0.123100  0.643790  0.041000  1.0  0.3729
  C  C475  1  0.270820  0.271010  0.270200  1.0  0.1025
  C  C476  1  0.316720  0.247470  0.291980  1.0  -0.1239
  C  C477  1  0.354450  0.211850  0.267500  1.0  -0.0729
  C  C478  1  0.348380  0.197980  0.223040  1.0  -0.0835
  C  C479  1  0.305060  0.220840  0.201120  1.0  -0.1312
  C  C480  1  0.265820  0.258970  0.225480  1.0  0.1134
  C  C481  1  0.055840  0.279030  0.448140  1.0  0.1285
  C  C482  1  0.059010  0.253310  0.505380  1.0  -0.1383
  C  C483  1  0.000440  0.222640  0.560520  1.0  -0.0814
  C  C484  1  0.194300  0.195390  0.456100  1.0  0.3975
  C  C485  1  0.138270  0.129470  0.569260  1.0  0.4174
  C  C486  1  0.172690  0.131750  0.509620  1.0  -0.1567
  C  C487  1  0.176000  0.073740  0.503560  1.0  0.0406
  C  C488  1  0.137660  0.011050  0.556880  1.0  -0.0943
  C  C489  1  0.140010  0.955020  0.551580  1.0  -0.0915
  C  C490  1  0.181400  0.956490  0.493500  1.0  0.0106
  C  C491  1  0.218570  0.018210  0.440460  1.0  -0.0759
  C  C492  1  0.215530  0.075070  0.445540  1.0  -0.0844
  C  C493  1  0.184620  0.897240  0.488820  1.0  -0.1935
  C  C494  1  0.225440  0.896040  0.432720  1.0  0.3719
  C  C495  1  0.143790  0.835900  0.541000  1.0  0.3705
  C  C496  1  0.958980  0.458790  0.270200  1.0  0.1028
  C  C497  1  0.891300  0.460550  0.291980  1.0  -0.1197
  C  C498  1  0.878050  0.520650  0.267500  1.0  -0.0751
  C  C499  1  0.928580  0.578980  0.223040  1.0  -0.0833
  C  C500  1  0.993820  0.578040  0.201120  1.0  -0.132
  C  C501  1  0.008700  0.515550  0.225480  1.0  0.1131
  C  C502  1  0.996020  0.272830  0.448140  1.0  0.1292
  C  C503  1  0.935610  0.241310  0.505380  1.0  -0.1362
  C  C504  1  0.939040  0.216840  0.560520  1.0  -0.0854
  C  C505  1  0.849600  0.348510  0.456100  1.0  0.3992
  C  C506  1  0.792470  0.301270  0.569260  1.0  0.4152
  C  C507  1  0.817690  0.358630  0.509620  1.0  -0.1582
  C  C508  1  0.820440  0.422700  0.503560  1.0  0.0401
  C  C509  1  0.805460  0.432070  0.556880  1.0  -0.0928
  C  C510  1  0.808410  0.493400  0.551580  1.0  -0.0895
  C  C511  1  0.825100  0.550010  0.493500  1.0  0.0105
  C  C512  1  0.840970  0.541330  0.440460  1.0  -0.083
  C  C513  1  0.838930  0.479390  0.445540  1.0  -0.0843
  C  C514  1  0.826560  0.613940  0.488820  1.0  -0.1952
  C  C515  1  0.841840  0.671240  0.432720  1.0  0.3716
  C  C516  1  0.815210  0.623100  0.541000  1.0  0.3735
  N  N517  1  0.432170  0.053290  0.749700  1.0  -0.0461
  N  N518  1  0.407370  0.988840  0.784760  1.0  -0.2629
  N  N519  1  0.496950  0.067060  0.713480  1.0  -0.2251
  N  N520  1  0.302110  0.009210  0.886480  1.0  -0.321
  N  N521  1  0.338190  0.877900  0.914740  1.0  -0.5111
  N  N522  1  0.255210  0.770910  0.117580  1.0  -0.4318
  N  N523  1  0.718690  0.854390  0.886220  1.0  -0.4638
  N  N524  1  0.631780  0.807140  0.082760  1.0  -0.4696
  N  N525  1  0.318130  0.197010  0.749700  1.0  -0.0458
  N  N526  1  0.307870  0.226400  0.784760  1.0  -0.2614
  N  N527  1  0.289570  0.219460  0.713480  1.0  -0.2262
  N  N528  1  0.311410  0.104310  0.886480  1.0  -0.3216
  N  N529  1  0.247070  0.207360  0.914740  1.0  -0.5128
  N  N530  1  0.127210  0.111510  0.117580  1.0  -0.4303
  N  N531  1  0.895090  0.259390  0.886220  1.0  -0.4594
  N  N532  1  0.785460  0.110100  0.082760  1.0  -0.4696
  N  N533  1  0.553290  0.818130  0.249700  1.0  -0.0463
  N  N534  1  0.488840  0.807870  0.284760  1.0  -0.263
  N  N535  1  0.567060  0.789570  0.213480  1.0  -0.2245
  N  N536  1  0.509210  0.811410  0.386480  1.0  -0.3203
  N  N537  1  0.377900  0.747070  0.414740  1.0  -0.5137
  N  N538  1  0.270910  0.627210  0.617580  1.0  -0.431
  N  N539  1  0.354390  0.395090  0.386220  1.0  -0.4604
  N  N540  1  0.307140  0.285460  0.582760  1.0  -0.47
  N  N541  1  0.697010  0.932170  0.249700  1.0  -0.047
  N  N542  1  0.726400  0.907370  0.284760  1.0  -0.2635
  N  N543  1  0.719460  0.996950  0.213480  1.0  -0.2233
  N  N544  1  0.604310  0.802110  0.386480  1.0  -0.3231
  N  N545  1  0.707360  0.838190  0.414740  1.0  -0.5118
  N  N546  1  0.611510  0.755210  0.617580  1.0  -0.4321
  N  N547  1  0.759390  0.218690  0.386220  1.0  -0.4602
  N  N548  1  0.610100  0.131780  0.582760  1.0  -0.4702
  N  N549  1  0.567830  0.946710  0.250300  1.0  -0.0458
  N  N550  1  0.592630  0.011160  0.215240  1.0  -0.2632
  N  N551  1  0.503050  0.932940  0.286520  1.0  -0.2258
  N  N552  1  0.697890  0.990790  0.113520  1.0  -0.3211
  N  N553  1  0.661810  0.122100  0.085260  1.0  -0.5125
  N  N554  1  0.744790  0.229090  0.882420  1.0  -0.4322
  N  N555  1  0.281310  0.145610  0.113780  1.0  -0.4645
  N  N556  1  0.368220  0.192860  0.917240  1.0  -0.4697
  N  N557  1  0.681870  0.802990  0.250300  1.0  -0.0461
  N  N558  1  0.692130  0.773600  0.215240  1.0  -0.2621
  N  N559  1  0.710430  0.780540  0.286520  1.0  -0.2254
  N  N560  1  0.688590  0.895690  0.113520  1.0  -0.3213
  N  N561  1  0.752930  0.792640  0.085260  1.0  -0.5108
  N  N562  1  0.872790  0.888490  0.882420  1.0  -0.4333
  N  N563  1  0.104910  0.740610  0.113780  1.0  -0.4588
  N  N564  1  0.214540  0.889900  0.917240  1.0  -0.4693
  N  N565  1  0.446710  0.181870  0.750300  1.0  -0.047
  N  N566  1  0.511160  0.192130  0.715240  1.0  -0.2652
  N  N567  1  0.432940  0.210430  0.786520  1.0  -0.2251
  N  N568  1  0.490790  0.188590  0.613520  1.0  -0.3223
  N  N569  1  0.622100  0.252930  0.585260  1.0  -0.5123
  N  N570  1  0.729090  0.372790  0.382420  1.0  -0.4305
  N  N571  1  0.645610  0.604910  0.613780  1.0  -0.4609
  N  N572  1  0.692860  0.714540  0.417240  1.0  -0.4713
  N  N573  1  0.302990  0.067830  0.750300  1.0  -0.0465
  N  N574  1  0.273600  0.092630  0.715240  1.0  -0.2635
  N  N575  1  0.280540  0.003050  0.786520  1.0  -0.2231
  N  N576  1  0.395690  0.197890  0.613520  1.0  -0.3225
  N  N577  1  0.292640  0.161810  0.585260  1.0  -0.5119
  N  N578  1  0.388490  0.244790  0.382420  1.0  -0.4324
  N  N579  1  0.240610  0.781310  0.613780  1.0  -0.4593
  N  N580  1  0.389900  0.868220  0.417240  1.0  -0.4696
  N  N581  1  0.324500  0.074500  0.851000  1.0  -0.0658
  N  N582  1  0.574500  0.824500  0.351000  1.0  -0.0658
  N  N583  1  0.675500  0.925500  0.149000  1.0  -0.0646
  N  N584  1  0.425500  0.175500  0.649000  1.0  -0.0646
  N  N585  1  0.181870  0.446710  0.250300  1.0  -0.0465
  N  N586  1  0.192130  0.511160  0.215240  1.0  -0.2631
  N  N587  1  0.210430  0.432940  0.286520  1.0  -0.2248
  N  N588  1  0.188590  0.490790  0.113520  1.0  -0.3201
  N  N589  1  0.252930  0.622100  0.085260  1.0  -0.5114
  N  N590  1  0.372790  0.729090  0.882420  1.0  -0.4293
  N  N591  1  0.604910  0.645610  0.113780  1.0  -0.4594
  N  N592  1  0.714540  0.692860  0.917240  1.0  -0.4675
  N  N593  1  0.067830  0.302990  0.250300  1.0  -0.0467
  N  N594  1  0.092630  0.273600  0.215240  1.0  -0.264
  N  N595  1  0.003050  0.280540  0.286520  1.0  -0.2258
  N  N596  1  0.197890  0.395690  0.113520  1.0  -0.3218
  N  N597  1  0.161810  0.292640  0.085260  1.0  -0.5128
  N  N598  1  0.244790  0.388490  0.882420  1.0  -0.4347
  N  N599  1  0.781310  0.240610  0.113780  1.0  -0.4605
  N  N600  1  0.868220  0.389900  0.917240  1.0  -0.4704
  N  N601  1  0.802990  0.681870  0.750300  1.0  -0.0437
  N  N602  1  0.773600  0.692130  0.715240  1.0  -0.2636
  N  N603  1  0.780540  0.710430  0.786520  1.0  -0.2239
  N  N604  1  0.895690  0.688590  0.613520  1.0  -0.322
  N  N605  1  0.792640  0.752930  0.585260  1.0  -0.5124
  N  N606  1  0.888490  0.872790  0.382420  1.0  -0.4306
  N  N607  1  0.740610  0.104910  0.613780  1.0  -0.4597
  N  N608  1  0.889900  0.214540  0.417240  1.0  -0.4722
  N  N609  1  0.946710  0.567830  0.750300  1.0  -0.0453
  N  N610  1  0.011160  0.592630  0.715240  1.0  -0.2641
  N  N611  1  0.932940  0.503050  0.786520  1.0  -0.2253
  N  N612  1  0.990790  0.697890  0.613520  1.0  -0.3224
  N  N613  1  0.122100  0.661810  0.585260  1.0  -0.5131
  N  N614  1  0.229090  0.744790  0.382420  1.0  -0.4326
  N  N615  1  0.145610  0.281310  0.613780  1.0  -0.4624
  N  N616  1  0.192860  0.368220  0.417240  1.0  -0.4703
  N  N617  1  0.818130  0.553290  0.749700  1.0  -0.0463
  N  N618  1  0.807870  0.488840  0.784760  1.0  -0.2627
  N  N619  1  0.789570  0.567060  0.713480  1.0  -0.2254
  N  N620  1  0.811410  0.509210  0.886480  1.0  -0.3202
  N  N621  1  0.747070  0.377900  0.914740  1.0  -0.5107
  N  N622  1  0.627210  0.270910  0.117580  1.0  -0.4298
  N  N623  1  0.395090  0.354390  0.886220  1.0  -0.4599
  N  N624  1  0.285460  0.307140  0.082760  1.0  -0.4694
  N  N625  1  0.932170  0.697010  0.749700  1.0  -0.047
  N  N626  1  0.907370  0.726400  0.784760  1.0  -0.2651
  N  N627  1  0.996950  0.719460  0.713480  1.0  -0.2264
  N  N628  1  0.802110  0.604310  0.886480  1.0  -0.3217
  N  N629  1  0.838190  0.707360  0.914740  1.0  -0.5122
  N  N630  1  0.755210  0.611510  0.117580  1.0  -0.4324
  N  N631  1  0.218690  0.759390  0.886220  1.0  -0.4607
  N  N632  1  0.131780  0.610100  0.082760  1.0  -0.4699
  N  N633  1  0.197010  0.318130  0.249700  1.0  -0.0453
  N  N634  1  0.226400  0.307870  0.284760  1.0  -0.2625
  N  N635  1  0.219460  0.289570  0.213480  1.0  -0.2244
  N  N636  1  0.104310  0.311410  0.386480  1.0  -0.3228
  N  N637  1  0.207360  0.247070  0.414740  1.0  -0.5135
  N  N638  1  0.111510  0.127210  0.617580  1.0  -0.4314
  N  N639  1  0.259390  0.895090  0.386220  1.0  -0.4609
  N  N640  1  0.110100  0.785460  0.582760  1.0  -0.4709
  N  N641  1  0.053290  0.432170  0.249700  1.0  -0.0439
  N  N642  1  0.988840  0.407370  0.284760  1.0  -0.2636
  N  N643  1  0.067060  0.496950  0.213480  1.0  -0.2249
  N  N644  1  0.009210  0.302110  0.386480  1.0  -0.3212
  N  N645  1  0.877900  0.338190  0.414740  1.0  -0.5107
  N  N646  1  0.770910  0.255210  0.617580  1.0  -0.4296
  N  N647  1  0.854390  0.718690  0.386220  1.0  -0.4609
  N  N648  1  0.807140  0.631780  0.582760  1.0  -0.4705
  N  N649  1  0.175500  0.425500  0.149000  1.0  -0.0646
  N  N650  1  0.925500  0.675500  0.649000  1.0  -0.0646
  N  N651  1  0.824500  0.574500  0.851000  1.0  -0.0658
  N  N652  1  0.074500  0.324500  0.351000  1.0  -0.0658
