# generated using pymatgen
data_Co5H40(C42N17)2
_symmetry_space_group_name_H-M   'P 1'
_cell_length_a   23.16900000
_cell_length_b   23.16900000
_cell_length_c   26.95030000
_cell_angle_alpha   64.54210000
_cell_angle_beta   64.54210000
_cell_angle_gamma   89.99990000
_symmetry_Int_Tables_number   1
_chemical_formula_structural   Co5H40(C42N17)2
_chemical_formula_sum   'Co20 H160 C336 N136'
_cell_volume   11487.03083534
_cell_formula_units_Z   4
loop_
 _symmetry_equiv_pos_site_id
 _symmetry_equiv_pos_as_xyz
  1  'x, y, z'
loop_
 _atom_site_type_symbol
 _atom_site_label
 _atom_site_symmetry_multiplicity
 _atom_site_fract_x
 _atom_site_fract_y
 _atom_site_fract_z
 _atom_site_occupancy
 _atom_site_charge
  Co  Co1  1  0.342780  0.942710  0.850140  1.0  0.9935
  Co  Co2  1  0.307080  0.207150  0.850140  1.0  0.996
  Co  Co3  1  0.442710  0.807080  0.350140  1.0  0.9932
  Co  Co4  1  0.707150  0.842780  0.350140  1.0  0.9933
  Co  Co5  1  0.657220  0.057290  0.149860  1.0  0.9961
  Co  Co6  1  0.692920  0.792850  0.149860  1.0  0.9936
  Co  Co7  1  0.557290  0.192920  0.649860  1.0  0.9933
  Co  Co8  1  0.292850  0.157220  0.649860  1.0  0.9944
  Co  Co9  1  0.375000  0.125000  0.750000  1.0  0.6911
  Co  Co10  1  0.625000  0.875000  0.250000  1.0  0.692
  Co  Co11  1  0.192920  0.557290  0.149860  1.0  0.9959
  Co  Co12  1  0.157220  0.292850  0.149860  1.0  0.9943
  Co  Co13  1  0.792850  0.692920  0.649860  1.0  0.9944
  Co  Co14  1  0.057290  0.657220  0.649860  1.0  0.9953
  Co  Co15  1  0.807080  0.442710  0.850140  1.0  0.9941
  Co  Co16  1  0.842780  0.707150  0.850140  1.0  0.9959
  Co  Co17  1  0.207150  0.307080  0.350140  1.0  0.9942
  Co  Co18  1  0.942710  0.342780  0.350140  1.0  0.9933
  Co  Co19  1  0.125000  0.375000  0.250000  1.0  0.6906
  Co  Co20  1  0.875000  0.625000  0.750000  1.0  0.6924
  H  H21  1  0.259000  0.856700  0.821800  1.0  0.1253
  H  H22  1  0.200700  0.830800  0.781000  1.0  0.0957
  H  H23  1  0.177400  0.911200  0.708600  1.0  0.1036
  H  H24  1  0.213700  0.022300  0.673600  1.0  0.126
  H  H25  1  0.260200  0.896700  0.004600  1.0  0.1174
  H  H26  1  0.208400  0.901800  0.097000  1.0  0.106
  H  H27  1  0.119600  0.851500  0.910800  1.0  0.1018
  H  H28  1  0.026400  0.854300  0.902000  1.0  0.1074
  H  H29  1  0.920100  0.796500  0.086600  1.0  0.1054
  H  H30  1  0.013500  0.791200  0.095600  1.0  0.1133
  H  H31  1  0.419200  0.321500  0.821800  1.0  0.1266
  H  H32  1  0.518300  0.388200  0.781000  1.0  0.0948
  H  H33  1  0.614000  0.380200  0.708600  1.0  0.1022
  H  H34  1  0.612700  0.304100  0.673600  1.0  0.1259
  H  H35  1  0.235200  0.098700  0.004600  1.0  0.1176
  H  H36  1  0.194600  0.001200  0.097000  1.0  0.1039
  H  H37  1  0.469600  0.237700  0.910800  1.0  0.1023
  H  H38  1  0.571600  0.243700  0.902000  1.0  0.1048
  H  H39  1  0.493300  0.116900  0.086600  1.0  0.1048
  H  H40  1  0.390900  0.113200  0.095600  1.0  0.1131
  H  H41  1  0.356700  0.919200  0.321800  1.0  0.1274
  H  H42  1  0.330800  0.018300  0.281000  1.0  0.0974
  H  H43  1  0.411200  0.114000  0.208600  1.0  0.1036
  H  H44  1  0.522300  0.112700  0.173600  1.0  0.1258
  H  H45  1  0.396700  0.735200  0.504600  1.0  0.117
  H  H46  1  0.401800  0.694600  0.597000  1.0  0.1059
  H  H47  1  0.351500  0.969600  0.410800  1.0  0.1029
  H  H48  1  0.354300  0.071600  0.402000  1.0  0.1042
  H  H49  1  0.296500  0.993300  0.586600  1.0  0.1058
  H  H50  1  0.291200  0.890900  0.595600  1.0  0.1122
  H  H51  1  0.821500  0.759000  0.321800  1.0  0.1289
  H  H52  1  0.888200  0.700700  0.281000  1.0  0.0943
  H  H53  1  0.880200  0.677400  0.208600  1.0  0.1006
  H  H54  1  0.804100  0.713700  0.173600  1.0  0.1273
  H  H55  1  0.598700  0.760200  0.504600  1.0  0.1171
  H  H56  1  0.501200  0.708400  0.597000  1.0  0.1032
  H  H57  1  0.737700  0.619600  0.410800  1.0  0.1018
  H  H58  1  0.743700  0.526400  0.402000  1.0  0.1054
  H  H59  1  0.616900  0.420100  0.586600  1.0  0.1049
  H  H60  1  0.613200  0.513500  0.595600  1.0  0.1134
  H  H61  1  0.741000  0.143300  0.178200  1.0  0.1263
  H  H62  1  0.799300  0.169200  0.219000  1.0  0.095
  H  H63  1  0.822600  0.088800  0.291400  1.0  0.1035
  H  H64  1  0.786300  0.977700  0.326400  1.0  0.1247
  H  H65  1  0.739800  0.103300  0.995400  1.0  0.1169
  H  H66  1  0.791600  0.098200  0.903000  1.0  0.1061
  H  H67  1  0.880400  0.148500  0.089200  1.0  0.1024
  H  H68  1  0.973600  0.145700  0.098000  1.0  0.1064
  H  H69  1  0.079900  0.203500  0.913400  1.0  0.105
  H  H70  1  0.986500  0.208800  0.904400  1.0  0.1153
  H  H71  1  0.580800  0.678500  0.178200  1.0  0.1266
  H  H72  1  0.481700  0.611800  0.219000  1.0  0.0949
  H  H73  1  0.386000  0.619800  0.291400  1.0  0.1022
  H  H74  1  0.387300  0.695900  0.326400  1.0  0.1265
  H  H75  1  0.764800  0.901300  0.995400  1.0  0.1177
  H  H76  1  0.805400  0.998800  0.903000  1.0  0.1037
  H  H77  1  0.530400  0.762300  0.089200  1.0  0.1019
  H  H78  1  0.428400  0.756300  0.098000  1.0  0.1049
  H  H79  1  0.506700  0.883100  0.913400  1.0  0.1058
  H  H80  1  0.609100  0.886800  0.904400  1.0  0.1137
  H  H81  1  0.643300  0.080800  0.678200  1.0  0.1279
  H  H82  1  0.669200  0.981700  0.719000  1.0  0.096
  H  H83  1  0.588800  0.886000  0.791400  1.0  0.1033
  H  H84  1  0.477700  0.887300  0.826400  1.0  0.1275
  H  H85  1  0.603300  0.264800  0.495400  1.0  0.1168
  H  H86  1  0.598200  0.305400  0.403000  1.0  0.106
  H  H87  1  0.648500  0.030400  0.589200  1.0  0.1027
  H  H88  1  0.645700  0.928400  0.598000  1.0  0.104
  H  H89  1  0.703500  0.006700  0.413400  1.0  0.1064
  H  H90  1  0.708800  0.109100  0.404400  1.0  0.1132
  H  H91  1  0.178500  0.241000  0.678200  1.0  0.1292
  H  H92  1  0.111800  0.299300  0.719000  1.0  0.0943
  H  H93  1  0.119800  0.322600  0.791400  1.0  0.1012
  H  H94  1  0.195900  0.286300  0.826400  1.0  0.1269
  H  H95  1  0.401300  0.239800  0.495400  1.0  0.1176
  H  H96  1  0.498800  0.291600  0.403000  1.0  0.103
  H  H97  1  0.262300  0.380400  0.589200  1.0  0.1015
  H  H98  1  0.256300  0.473600  0.598000  1.0  0.1041
  H  H99  1  0.383100  0.579900  0.413400  1.0  0.106
  H  H100  1  0.386800  0.486500  0.404400  1.0  0.1139
  H  H101  1  0.080800  0.643300  0.178200  1.0  0.1267
  H  H102  1  0.981700  0.669200  0.219000  1.0  0.0948
  H  H103  1  0.886000  0.588800  0.291400  1.0  0.1045
  H  H104  1  0.887300  0.477700  0.326400  1.0  0.1268
  H  H105  1  0.264800  0.603300  0.995400  1.0  0.1163
  H  H106  1  0.305400  0.598200  0.903000  1.0  0.106
  H  H107  1  0.030400  0.648500  0.089200  1.0  0.102
  H  H108  1  0.928400  0.645700  0.098000  1.0  0.1043
  H  H109  1  0.006700  0.703500  0.913400  1.0  0.1064
  H  H110  1  0.109100  0.708800  0.904400  1.0  0.1146
  H  H111  1  0.241000  0.178500  0.178200  1.0  0.1285
  H  H112  1  0.299300  0.111800  0.219000  1.0  0.0945
  H  H113  1  0.322600  0.119800  0.291400  1.0  0.1016
  H  H114  1  0.286300  0.195900  0.326400  1.0  0.1272
  H  H115  1  0.239800  0.401300  0.995400  1.0  0.1172
  H  H116  1  0.291600  0.498800  0.903000  1.0  0.1037
  H  H117  1  0.380400  0.262300  0.089200  1.0  0.1019
  H  H118  1  0.473600  0.256300  0.098000  1.0  0.1044
  H  H119  1  0.579900  0.383100  0.913400  1.0  0.1053
  H  H120  1  0.486500  0.386800  0.904400  1.0  0.1143
  H  H121  1  0.678500  0.580800  0.678200  1.0  0.127
  H  H122  1  0.611800  0.481700  0.719000  1.0  0.0953
  H  H123  1  0.619800  0.386000  0.791400  1.0  0.1028
  H  H124  1  0.695900  0.387300  0.826400  1.0  0.126
  H  H125  1  0.901300  0.764800  0.495400  1.0  0.1178
  H  H126  1  0.998800  0.805400  0.403000  1.0  0.1045
  H  H127  1  0.762300  0.530400  0.589200  1.0  0.1019
  H  H128  1  0.756300  0.428400  0.598000  1.0  0.1031
  H  H129  1  0.883100  0.506700  0.413400  1.0  0.1067
  H  H130  1  0.886800  0.609100  0.404400  1.0  0.1135
  H  H131  1  0.143300  0.741000  0.678200  1.0  0.1262
  H  H132  1  0.169200  0.799300  0.719000  1.0  0.0958
  H  H133  1  0.088800  0.822600  0.791400  1.0  0.1024
  H  H134  1  0.977700  0.786300  0.826400  1.0  0.125
  H  H135  1  0.103300  0.739800  0.495400  1.0  0.1168
  H  H136  1  0.098200  0.791600  0.403000  1.0  0.1042
  H  H137  1  0.148500  0.880400  0.589200  1.0  0.1014
  H  H138  1  0.145700  0.973600  0.598000  1.0  0.1064
  H  H139  1  0.203500  0.079900  0.413400  1.0  0.1056
  H  H140  1  0.208800  0.986500  0.404400  1.0  0.1137
  H  H141  1  0.919200  0.356700  0.821800  1.0  0.1263
  H  H142  1  0.018300  0.330800  0.781000  1.0  0.0948
  H  H143  1  0.114000  0.411200  0.708600  1.0  0.1047
  H  H144  1  0.112700  0.522300  0.673600  1.0  0.1253
  H  H145  1  0.735200  0.396700  0.004600  1.0  0.1171
  H  H146  1  0.694600  0.401800  0.097000  1.0  0.1061
  H  H147  1  0.969600  0.351500  0.910800  1.0  0.1013
  H  H148  1  0.071600  0.354300  0.902000  1.0  0.1044
  H  H149  1  0.993300  0.296500  0.086600  1.0  0.1062
  H  H150  1  0.890900  0.291200  0.095600  1.0  0.1133
  H  H151  1  0.759000  0.821500  0.821800  1.0  0.1276
  H  H152  1  0.700700  0.888200  0.781000  1.0  0.0952
  H  H153  1  0.677400  0.880200  0.708600  1.0  0.1015
  H  H154  1  0.713700  0.804100  0.673600  1.0  0.1272
  H  H155  1  0.760200  0.598700  0.004600  1.0  0.1173
  H  H156  1  0.708400  0.501200  0.097000  1.0  0.104
  H  H157  1  0.619600  0.737700  0.910800  1.0  0.1018
  H  H158  1  0.526400  0.743700  0.902000  1.0  0.1051
  H  H159  1  0.420100  0.616900  0.086600  1.0  0.1051
  H  H160  1  0.513500  0.613200  0.095600  1.0  0.1136
  H  H161  1  0.321500  0.419200  0.321800  1.0  0.1259
  H  H162  1  0.388200  0.518300  0.281000  1.0  0.0959
  H  H163  1  0.380200  0.614000  0.208600  1.0  0.1027
  H  H164  1  0.304100  0.612700  0.173600  1.0  0.1266
  H  H165  1  0.098700  0.235200  0.504600  1.0  0.1176
  H  H166  1  0.001200  0.194600  0.597000  1.0  0.1055
  H  H167  1  0.237700  0.469600  0.410800  1.0  0.1029
  H  H168  1  0.243700  0.571600  0.402000  1.0  0.1038
  H  H169  1  0.116900  0.493300  0.586600  1.0  0.1049
  H  H170  1  0.113200  0.390900  0.595600  1.0  0.1124
  H  H171  1  0.856700  0.259000  0.321800  1.0  0.1261
  H  H172  1  0.830800  0.200700  0.281000  1.0  0.0961
  H  H173  1  0.911200  0.177400  0.208600  1.0  0.1027
  H  H174  1  0.022300  0.213700  0.173600  1.0  0.1253
  H  H175  1  0.896700  0.260200  0.504600  1.0  0.1168
  H  H176  1  0.901800  0.208400  0.597000  1.0  0.1043
  H  H177  1  0.851500  0.119600  0.410800  1.0  0.1026
  H  H178  1  0.854300  0.026400  0.402000  1.0  0.1067
  H  H179  1  0.796500  0.920100  0.586600  1.0  0.1053
  H  H180  1  0.791200  0.013500  0.595600  1.0  0.1133
  C  C181  1  0.273160  0.956090  0.770400  1.0  0.1121
  C  C182  1  0.250540  0.889340  0.792120  1.0  -0.1179
  C  C183  1  0.215810  0.874610  0.767980  1.0  -0.0797
  C  C184  1  0.201860  0.923560  0.723680  1.0  -0.0876
  C  C185  1  0.223500  0.989800  0.702200  1.0  -0.1271
  C  C186  1  0.260730  0.004960  0.725940  1.0  0.1682
  C  C187  1  0.279850  0.996150  0.948100  1.0  0.1265
  C  C188  1  0.255470  0.936570  0.004460  1.0  -0.1319
  C  C189  1  0.224450  0.940050  0.059100  1.0  -0.092
  C  C190  1  0.134210  0.790710  0.068580  1.0  0.4089
  C  C191  1  0.198630  0.846960  0.957280  1.0  0.4239
  C  C192  1  0.136040  0.816540  0.009920  1.0  -0.2188
  C  C193  1  0.077960  0.818960  0.004280  1.0  -0.0662
  C  C194  1  0.079340  0.839240  0.946320  1.0  -0.0733
  C  C195  1  0.023810  0.841510  0.940780  1.0  -0.0748
  C  C196  1  0.961330  0.824430  0.994140  1.0  0.0342
  C  C197  1  0.960100  0.806600  0.051400  1.0  -0.0933
  C  C198  1  0.015970  0.803570  0.056860  1.0  -0.1102
  C  C199  1  0.902680  0.826580  0.988840  1.0  -0.179
  C  C200  1  0.841340  0.815520  0.039760  1.0  0.3586
  C  C201  1  0.901160  0.841760  0.932880  1.0  0.3958
  C  C202  1  0.456440  0.273510  0.770400  1.0  0.1129
  C  C203  1  0.457340  0.318540  0.792120  1.0  -0.1217
  C  C204  1  0.516210  0.357410  0.767980  1.0  -0.0801
  C  C205  1  0.574460  0.352760  0.723680  1.0  -0.088
  C  C206  1  0.574300  0.308000  0.702200  1.0  -0.1265
  C  C207  1  0.513330  0.269100  0.725940  1.0  0.1681
  C  C208  1  0.272050  0.055750  0.948100  1.0  0.127
  C  C209  1  0.240070  0.058970  0.004460  1.0  -0.1349
  C  C210  1  0.216450  0.000850  0.059100  1.0  -0.0963
  C  C211  1  0.297210  0.140710  0.068580  1.0  0.4074
  C  C212  1  0.344090  0.195760  0.957280  1.0  0.4247
  C  C213  1  0.354040  0.173540  0.009920  1.0  -0.2185
  C  C214  1  0.417760  0.176760  0.004280  1.0  -0.0652
  C  C215  1  0.474340  0.214440  0.946320  1.0  -0.0731
  C  C216  1  0.535410  0.217710  0.940780  1.0  -0.0667
  C  C217  1  0.544530  0.181430  0.994140  1.0  0.0341
  C  C218  1  0.488500  0.142000  0.051400  1.0  -0.0924
  C  C219  1  0.427170  0.139570  0.056860  1.0  -0.1097
  C  C220  1  0.608480  0.184580  0.988840  1.0  -0.1815
  C  C221  1  0.618900  0.144720  0.039760  1.0  0.3594
  C  C222  1  0.665960  0.225360  0.932880  1.0  0.3983
  C  C223  1  0.456090  0.956440  0.270400  1.0  0.1121
  C  C224  1  0.389340  0.957340  0.292120  1.0  -0.1225
  C  C225  1  0.374610  0.016210  0.267980  1.0  -0.0786
  C  C226  1  0.423560  0.074460  0.223680  1.0  -0.0889
  C  C227  1  0.489800  0.074300  0.202200  1.0  -0.1257
  C  C228  1  0.504960  0.013330  0.225940  1.0  0.1677
  C  C229  1  0.496150  0.772050  0.448100  1.0  0.1265
  C  C230  1  0.436570  0.740070  0.504460  1.0  -0.1313
  C  C231  1  0.440050  0.716450  0.559100  1.0  -0.0936
  C  C232  1  0.290710  0.797210  0.568580  1.0  0.407
  C  C233  1  0.346960  0.844090  0.457280  1.0  0.4256
  C  C234  1  0.316540  0.854040  0.509920  1.0  -0.2181
  C  C235  1  0.318960  0.917760  0.504280  1.0  -0.0679
  C  C236  1  0.339240  0.974340  0.446320  1.0  -0.0742
  C  C237  1  0.341510  0.035410  0.440780  1.0  -0.0694
  C  C238  1  0.324430  0.044530  0.494140  1.0  0.0351
  C  C239  1  0.306600  0.988500  0.551400  1.0  -0.0908
  C  C240  1  0.303570  0.927170  0.556860  1.0  -0.108
  C  C241  1  0.326580  0.108480  0.488840  1.0  -0.1787
  C  C242  1  0.315520  0.118900  0.539760  1.0  0.3601
  C  C243  1  0.341760  0.165960  0.432880  1.0  0.3962
  C  C244  1  0.773510  0.773160  0.270400  1.0  0.1112
  C  C245  1  0.818540  0.750540  0.292120  1.0  -0.1252
  C  C246  1  0.857410  0.715810  0.267980  1.0  -0.0783
  C  C247  1  0.852760  0.701860  0.223680  1.0  -0.0894
  C  C248  1  0.808000  0.723500  0.202200  1.0  -0.1257
  C  C249  1  0.769100  0.760730  0.225940  1.0  0.1685
  C  C250  1  0.555750  0.779850  0.448100  1.0  0.1261
  C  C251  1  0.558970  0.755470  0.504460  1.0  -0.1348
  C  C252  1  0.500850  0.724450  0.559100  1.0  -0.0948
  C  C253  1  0.640710  0.634210  0.568580  1.0  0.4091
  C  C254  1  0.695760  0.698630  0.457280  1.0  0.4244
  C  C255  1  0.673540  0.636040  0.509920  1.0  -0.2175
  C  C256  1  0.676760  0.577960  0.504280  1.0  -0.0645
  C  C257  1  0.714440  0.579340  0.446320  1.0  -0.071
  C  C258  1  0.717710  0.523810  0.440780  1.0  -0.0611
  C  C259  1  0.681430  0.461330  0.494140  1.0  0.0371
  C  C260  1  0.642000  0.460100  0.551400  1.0  -0.0905
  C  C261  1  0.639570  0.515970  0.556860  1.0  -0.1099
  C  C262  1  0.684580  0.402680  0.488840  1.0  -0.1792
  C  C263  1  0.644720  0.341340  0.539760  1.0  0.3588
  C  C264  1  0.725360  0.401160  0.432880  1.0  0.3966
  C  C265  1  0.726840  0.043910  0.229600  1.0  0.1129
  C  C266  1  0.749460  0.110660  0.207880  1.0  -0.1187
  C  C267  1  0.784190  0.125390  0.232020  1.0  -0.0788
  C  C268  1  0.798140  0.076440  0.276320  1.0  -0.0874
  C  C269  1  0.776500  0.010200  0.297800  1.0  -0.1271
  C  C270  1  0.739270  0.995040  0.274060  1.0  0.168
  C  C271  1  0.720150  0.003850  0.051900  1.0  0.1257
  C  C272  1  0.744530  0.063430  0.995540  1.0  -0.1331
  C  C273  1  0.775550  0.059950  0.940900  1.0  -0.0928
  C  C274  1  0.865790  0.209290  0.931420  1.0  0.4096
  C  C275  1  0.801370  0.153040  0.042720  1.0  0.4241
  C  C276  1  0.863960  0.183460  0.990080  1.0  -0.2182
  C  C277  1  0.922040  0.181040  0.995720  1.0  -0.0658
  C  C278  1  0.920660  0.160760  0.053680  1.0  -0.0737
  C  C279  1  0.976190  0.158490  0.059220  1.0  -0.0733
  C  C280  1  0.038670  0.175570  0.005860  1.0  0.0348
  C  C281  1  0.039900  0.193400  0.948600  1.0  -0.0949
  C  C282  1  0.984030  0.196430  0.943140  1.0  -0.1101
  C  C283  1  0.097320  0.173420  0.011160  1.0  -0.1813
  C  C284  1  0.158660  0.184480  0.960240  1.0  0.3593
  C  C285  1  0.098840  0.158240  0.067120  1.0  0.3958
  C  C286  1  0.543560  0.726490  0.229600  1.0  0.1116
  C  C287  1  0.542660  0.681460  0.207880  1.0  -0.1195
  C  C288  1  0.483790  0.642590  0.232020  1.0  -0.0807
  C  C289  1  0.425540  0.647240  0.276320  1.0  -0.0881
  C  C290  1  0.425700  0.692000  0.297800  1.0  -0.1258
  C  C291  1  0.486670  0.730900  0.274060  1.0  0.1682
  C  C292  1  0.727950  0.944250  0.051900  1.0  0.1253
  C  C293  1  0.759930  0.941030  0.995540  1.0  -0.1354
  C  C294  1  0.783550  0.999150  0.940900  1.0  -0.0954
  C  C295  1  0.702790  0.859290  0.931420  1.0  0.4071
  C  C296  1  0.655910  0.804240  0.042720  1.0  0.425
  C  C297  1  0.645960  0.826460  0.990080  1.0  -0.2185
  C  C298  1  0.582240  0.823240  0.995720  1.0  -0.0664
  C  C299  1  0.525660  0.785560  0.053680  1.0  -0.0725
  C  C300  1  0.464590  0.782290  0.059220  1.0  -0.0699
  C  C301  1  0.455470  0.818570  0.005860  1.0  0.0343
  C  C302  1  0.511500  0.858000  0.948600  1.0  -0.0919
  C  C303  1  0.572830  0.860430  0.943140  1.0  -0.1099
  C  C304  1  0.391520  0.815420  0.011160  1.0  -0.1799
  C  C305  1  0.381100  0.855280  0.960240  1.0  0.3596
  C  C306  1  0.334040  0.774640  0.067120  1.0  0.3956
  C  C307  1  0.543910  0.043560  0.729600  1.0  0.1118
  C  C308  1  0.610660  0.042660  0.707880  1.0  -0.1217
  C  C309  1  0.625390  0.983790  0.732020  1.0  -0.0794
  C  C310  1  0.576440  0.925540  0.776320  1.0  -0.0903
  C  C311  1  0.510200  0.925700  0.797800  1.0  -0.1264
  C  C312  1  0.495040  0.986670  0.774060  1.0  0.1678
  C  C313  1  0.503850  0.227950  0.551900  1.0  0.1261
  C  C314  1  0.563430  0.259930  0.495540  1.0  -0.1307
  C  C315  1  0.559950  0.283550  0.440900  1.0  -0.0908
  C  C316  1  0.709290  0.202790  0.431420  1.0  0.4068
  C  C317  1  0.653040  0.155910  0.542720  1.0  0.4243
  C  C318  1  0.683460  0.145960  0.490080  1.0  -0.2179
  C  C319  1  0.681040  0.082240  0.495720  1.0  -0.0646
  C  C320  1  0.660760  0.025660  0.553680  1.0  -0.0749
  C  C321  1  0.658490  0.964590  0.559220  1.0  -0.0693
  C  C322  1  0.675570  0.955470  0.505860  1.0  0.0355
  C  C323  1  0.693400  0.011500  0.448600  1.0  -0.0912
  C  C324  1  0.696430  0.072830  0.443140  1.0  -0.1107
  C  C325  1  0.673420  0.891520  0.511160  1.0  -0.1792
  C  C326  1  0.684480  0.881100  0.460240  1.0  0.3598
  C  C327  1  0.658240  0.834040  0.567120  1.0  0.3977
  C  C328  1  0.226490  0.226840  0.729600  1.0  0.1119
  C  C329  1  0.181460  0.249460  0.707880  1.0  -0.1232
  C  C330  1  0.142590  0.284190  0.732020  1.0  -0.0801
  C  C331  1  0.147240  0.298140  0.776320  1.0  -0.0883
  C  C332  1  0.192000  0.276500  0.797800  1.0  -0.1268
  C  C333  1  0.230900  0.239270  0.774060  1.0  0.1673
  C  C334  1  0.444250  0.220150  0.551900  1.0  0.1252
  C  C335  1  0.441030  0.244530  0.495540  1.0  -0.1334
  C  C336  1  0.499150  0.275550  0.440900  1.0  -0.0959
  C  C337  1  0.359290  0.365790  0.431420  1.0  0.4074
  C  C338  1  0.304240  0.301370  0.542720  1.0  0.425
  C  C339  1  0.326460  0.363960  0.490080  1.0  -0.2178
  C  C340  1  0.323240  0.422040  0.495720  1.0  -0.0674
  C  C341  1  0.285560  0.420660  0.553680  1.0  -0.0702
  C  C342  1  0.282290  0.476190  0.559220  1.0  -0.0628
  C  C343  1  0.318570  0.538670  0.505860  1.0  0.0343
  C  C344  1  0.358000  0.539900  0.448600  1.0  -0.0902
  C  C345  1  0.360430  0.484030  0.443140  1.0  -0.1077
  C  C346  1  0.315420  0.597320  0.511160  1.0  -0.1783
  C  C347  1  0.355280  0.658660  0.460240  1.0  0.3597
  C  C348  1  0.274640  0.598840  0.567120  1.0  0.3947
  C  C349  1  0.043560  0.543910  0.229600  1.0  0.111
  C  C350  1  0.042660  0.610660  0.207880  1.0  -0.1223
  C  C351  1  0.983790  0.625390  0.232020  1.0  -0.0787
  C  C352  1  0.925540  0.576440  0.276320  1.0  -0.0895
  C  C353  1  0.925700  0.510200  0.297800  1.0  -0.1257
  C  C354  1  0.986670  0.495040  0.274060  1.0  0.1682
  C  C355  1  0.227950  0.503850  0.051900  1.0  0.1264
  C  C356  1  0.259930  0.563430  0.995540  1.0  -0.1298
  C  C357  1  0.283550  0.559950  0.940900  1.0  -0.0937
  C  C358  1  0.202790  0.709290  0.931420  1.0  0.4088
  C  C359  1  0.155910  0.653040  0.042720  1.0  0.4254
  C  C360  1  0.145960  0.683460  0.990080  1.0  -0.2186
  C  C361  1  0.082240  0.681040  0.995720  1.0  -0.0686
  C  C362  1  0.025660  0.660760  0.053680  1.0  -0.0752
  C  C363  1  0.964590  0.658490  0.059220  1.0  -0.07
  C  C364  1  0.955470  0.675570  0.005860  1.0  0.0351
  C  C365  1  0.011500  0.693400  0.948600  1.0  -0.0942
  C  C366  1  0.072830  0.696430  0.943140  1.0  -0.1123
  C  C367  1  0.891520  0.673420  0.011160  1.0  -0.1804
  C  C368  1  0.881100  0.684480  0.960240  1.0  0.3597
  C  C369  1  0.834040  0.658240  0.067120  1.0  0.3947
  C  C370  1  0.226840  0.226490  0.229600  1.0  0.1119
  C  C371  1  0.249460  0.181460  0.207880  1.0  -0.1219
  C  C372  1  0.284190  0.142590  0.232020  1.0  -0.0808
  C  C373  1  0.298140  0.147240  0.276320  1.0  -0.086
  C  C374  1  0.276500  0.192000  0.297800  1.0  -0.1271
  C  C375  1  0.239270  0.230900  0.274060  1.0  0.1677
  C  C376  1  0.220150  0.444250  0.051900  1.0  0.1261
  C  C377  1  0.244530  0.441030  0.995540  1.0  -0.1329
  C  C378  1  0.275550  0.499150  0.940900  1.0  -0.0959
  C  C379  1  0.365790  0.359290  0.931420  1.0  0.4084
  C  C380  1  0.301370  0.304240  0.042720  1.0  0.4243
  C  C381  1  0.363960  0.326460  0.990080  1.0  -0.2182
  C  C382  1  0.422040  0.323240  0.995720  1.0  -0.066
  C  C383  1  0.420660  0.285560  0.053680  1.0  -0.0735
  C  C384  1  0.476190  0.282290  0.059220  1.0  -0.0678
  C  C385  1  0.538670  0.318570  0.005860  1.0  0.036
  C  C386  1  0.539900  0.358000  0.948600  1.0  -0.0895
  C  C387  1  0.484030  0.360430  0.943140  1.0  -0.1106
  C  C388  1  0.597320  0.315420  0.011160  1.0  -0.1792
  C  C389  1  0.658660  0.355280  0.960240  1.0  0.358
  C  C390  1  0.598840  0.274640  0.067120  1.0  0.3978
  C  C391  1  0.726490  0.543560  0.729600  1.0  0.1121
  C  C392  1  0.681460  0.542660  0.707880  1.0  -0.1213
  C  C393  1  0.642590  0.483790  0.732020  1.0  -0.0806
  C  C394  1  0.647240  0.425540  0.776320  1.0  -0.0887
  C  C395  1  0.692000  0.425700  0.797800  1.0  -0.1254
  C  C396  1  0.730900  0.486670  0.774060  1.0  0.168
  C  C397  1  0.944250  0.727950  0.551900  1.0  0.1256
  C  C398  1  0.941030  0.759930  0.495540  1.0  -0.1327
  C  C399  1  0.999150  0.783550  0.440900  1.0  -0.092
  C  C400  1  0.859290  0.702790  0.431420  1.0  0.4046
  C  C401  1  0.804240  0.655910  0.542720  1.0  0.4254
  C  C402  1  0.826460  0.645960  0.490080  1.0  -0.219
  C  C403  1  0.823240  0.582240  0.495720  1.0  -0.0665
  C  C404  1  0.785560  0.525660  0.553680  1.0  -0.0668
  C  C405  1  0.782290  0.464590  0.559220  1.0  -0.0658
  C  C406  1  0.818570  0.455470  0.505860  1.0  0.0356
  C  C407  1  0.858000  0.511500  0.448600  1.0  -0.0907
  C  C408  1  0.860430  0.572830  0.443140  1.0  -0.1069
  C  C409  1  0.815420  0.391520  0.511160  1.0  -0.1796
  C  C410  1  0.855280  0.381100  0.460240  1.0  0.3595
  C  C411  1  0.774640  0.334040  0.567120  1.0  0.3946
  C  C412  1  0.043910  0.726840  0.729600  1.0  0.1116
  C  C413  1  0.110660  0.749460  0.707880  1.0  -0.1206
  C  C414  1  0.125390  0.784190  0.732020  1.0  -0.0813
  C  C415  1  0.076440  0.798140  0.776320  1.0  -0.0882
  C  C416  1  0.010200  0.776500  0.797800  1.0  -0.1268
  C  C417  1  0.995040  0.739270  0.774060  1.0  0.1682
  C  C418  1  0.003850  0.720150  0.551900  1.0  0.1252
  C  C419  1  0.063430  0.744530  0.495540  1.0  -0.1336
  C  C420  1  0.059950  0.775550  0.440900  1.0  -0.094
  C  C421  1  0.209290  0.865790  0.431420  1.0  0.4082
  C  C422  1  0.153040  0.801370  0.542720  1.0  0.4244
  C  C423  1  0.183460  0.863960  0.490080  1.0  -0.2192
  C  C424  1  0.181040  0.922040  0.495720  1.0  -0.0662
  C  C425  1  0.160760  0.920660  0.553680  1.0  -0.0719
  C  C426  1  0.158490  0.976190  0.559220  1.0  -0.0724
  C  C427  1  0.175570  0.038670  0.505860  1.0  0.0378
  C  C428  1  0.193400  0.039900  0.448600  1.0  -0.0943
  C  C429  1  0.196430  0.984030  0.443140  1.0  -0.1071
  C  C430  1  0.173420  0.097320  0.511160  1.0  -0.1808
  C  C431  1  0.184480  0.158660  0.460240  1.0  0.3598
  C  C432  1  0.158240  0.098840  0.567120  1.0  0.3974
  C  C433  1  0.956440  0.456090  0.770400  1.0  0.1123
  C  C434  1  0.957340  0.389340  0.792120  1.0  -0.121
  C  C435  1  0.016210  0.374610  0.767980  1.0  -0.0804
  C  C436  1  0.074460  0.423560  0.723680  1.0  -0.0903
  C  C437  1  0.074300  0.489800  0.702200  1.0  -0.1265
  C  C438  1  0.013330  0.504960  0.725940  1.0  0.1675
  C  C439  1  0.772050  0.496150  0.948100  1.0  0.1267
  C  C440  1  0.740070  0.436570  0.004460  1.0  -0.1309
  C  C441  1  0.716450  0.440050  0.059100  1.0  -0.0943
  C  C442  1  0.797210  0.290710  0.068580  1.0  0.407
  C  C443  1  0.844090  0.346960  0.957280  1.0  0.4257
  C  C444  1  0.854040  0.316540  0.009920  1.0  -0.2195
  C  C445  1  0.917760  0.318960  0.004280  1.0  -0.0662
  C  C446  1  0.974340  0.339240  0.946320  1.0  -0.0755
  C  C447  1  0.035410  0.341510  0.940780  1.0  -0.0734
  C  C448  1  0.044530  0.324430  0.994140  1.0  0.0325
  C  C449  1  0.988500  0.306600  0.051400  1.0  -0.0937
  C  C450  1  0.927170  0.303570  0.056860  1.0  -0.1123
  C  C451  1  0.108480  0.326580  0.988840  1.0  -0.1793
  C  C452  1  0.118900  0.315520  0.039760  1.0  0.3593
  C  C453  1  0.165960  0.341760  0.932880  1.0  0.3964
  C  C454  1  0.773160  0.773510  0.770400  1.0  0.1104
  C  C455  1  0.750540  0.818540  0.792120  1.0  -0.1246
  C  C456  1  0.715810  0.857410  0.767980  1.0  -0.0781
  C  C457  1  0.701860  0.852760  0.723680  1.0  -0.086
  C  C458  1  0.723500  0.808000  0.702200  1.0  -0.1279
  C  C459  1  0.760730  0.769100  0.725940  1.0  0.169
  C  C460  1  0.779850  0.555750  0.948100  1.0  0.1266
  C  C461  1  0.755470  0.558970  0.004460  1.0  -0.1332
  C  C462  1  0.724450  0.500850  0.059100  1.0  -0.0948
  C  C463  1  0.634210  0.640710  0.068580  1.0  0.4072
  C  C464  1  0.698630  0.695760  0.957280  1.0  0.4239
  C  C465  1  0.636040  0.673540  0.009920  1.0  -0.2178
  C  C466  1  0.577960  0.676760  0.004280  1.0  -0.0683
  C  C467  1  0.579340  0.714440  0.946320  1.0  -0.0733
  C  C468  1  0.523810  0.717710  0.940780  1.0  -0.0646
  C  C469  1  0.461330  0.681430  0.994140  1.0  0.0373
  C  C470  1  0.460100  0.642000  0.051400  1.0  -0.0899
  C  C471  1  0.515970  0.639570  0.056860  1.0  -0.1109
  C  C472  1  0.402680  0.684580  0.988840  1.0  -0.1799
  C  C473  1  0.341340  0.644720  0.039760  1.0  0.3577
  C  C474  1  0.401160  0.725360  0.932880  1.0  0.3992
  C  C475  1  0.273510  0.456440  0.270400  1.0  0.1114
  C  C476  1  0.318540  0.457340  0.292120  1.0  -0.1226
  C  C477  1  0.357410  0.516210  0.267980  1.0  -0.0794
  C  C478  1  0.352760  0.574460  0.223680  1.0  -0.09
  C  C479  1  0.308000  0.574300  0.202200  1.0  -0.1251
  C  C480  1  0.269100  0.513330  0.225940  1.0  0.1677
  C  C481  1  0.055750  0.272050  0.448100  1.0  0.127
  C  C482  1  0.058970  0.240070  0.504460  1.0  -0.1316
  C  C483  1  0.000850  0.216450  0.559100  1.0  -0.0933
  C  C484  1  0.140710  0.297210  0.568580  1.0  0.4061
  C  C485  1  0.195760  0.344090  0.457280  1.0  0.4246
  C  C486  1  0.173540  0.354040  0.509920  1.0  -0.2184
  C  C487  1  0.176760  0.417760  0.504280  1.0  -0.0658
  C  C488  1  0.214440  0.474340  0.446320  1.0  -0.0699
  C  C489  1  0.217710  0.535410  0.440780  1.0  -0.0649
  C  C490  1  0.181430  0.544530  0.494140  1.0  0.037
  C  C491  1  0.142000  0.488500  0.551400  1.0  -0.0905
  C  C492  1  0.139570  0.427170  0.556860  1.0  -0.1073
  C  C493  1  0.184580  0.608480  0.488840  1.0  -0.1791
  C  C494  1  0.144720  0.618900  0.539760  1.0  0.3592
  C  C495  1  0.225360  0.665960  0.432880  1.0  0.3941
  C  C496  1  0.956090  0.273160  0.270400  1.0  0.1126
  C  C497  1  0.889340  0.250540  0.292120  1.0  -0.1215
  C  C498  1  0.874610  0.215810  0.267980  1.0  -0.0807
  C  C499  1  0.923560  0.201860  0.223680  1.0  -0.0888
  C  C500  1  0.989800  0.223500  0.202200  1.0  -0.1264
  C  C501  1  0.004960  0.260730  0.225940  1.0  0.1684
  C  C502  1  0.996150  0.279850  0.448100  1.0  0.126
  C  C503  1  0.936570  0.255470  0.504460  1.0  -0.1337
  C  C504  1  0.940050  0.224450  0.559100  1.0  -0.095
  C  C505  1  0.790710  0.134210  0.568580  1.0  0.4074
  C  C506  1  0.846960  0.198630  0.457280  1.0  0.4244
  C  C507  1  0.816540  0.136040  0.509920  1.0  -0.2189
  C  C508  1  0.818960  0.077960  0.504280  1.0  -0.0665
  C  C509  1  0.839240  0.079340  0.446320  1.0  -0.0719
  C  C510  1  0.841510  0.023810  0.440780  1.0  -0.0714
  C  C511  1  0.824430  0.961330  0.494140  1.0  0.038
  C  C512  1  0.806600  0.960100  0.551400  1.0  -0.0928
  C  C513  1  0.803570  0.015970  0.556860  1.0  -0.1054
  C  C514  1  0.826580  0.902680  0.488840  1.0  -0.1792
  C  C515  1  0.815520  0.841340  0.539760  1.0  0.3598
  C  C516  1  0.841760  0.901160  0.432880  1.0  0.3981
  N  N517  1  0.310070  0.987160  0.784220  1.0  -0.2655
  N  N518  1  0.319250  0.051200  0.749520  1.0  -0.0683
  N  N519  1  0.290530  0.063980  0.713580  1.0  -0.2634
  N  N520  1  0.312610  0.008850  0.887220  1.0  -0.309
  N  N521  1  0.131770  0.770270  0.116460  1.0  -0.446
  N  N522  1  0.250370  0.874290  0.916180  1.0  -0.5197
  N  N523  1  0.791270  0.807170  0.080960  1.0  -0.4628
  N  N524  1  0.902090  0.854590  0.886220  1.0  -0.4571
  N  N525  1  0.405710  0.228620  0.784220  1.0  -0.2656
  N  N526  1  0.431230  0.199280  0.749520  1.0  -0.068
  N  N527  1  0.495890  0.222440  0.713580  1.0  -0.268
  N  N528  1  0.300170  0.103930  0.887220  1.0  -0.3101
  N  N529  1  0.251770  0.113270  0.116460  1.0  -0.4472
  N  N530  1  0.333450  0.209530  0.916180  1.0  -0.5214
  N  N531  1  0.627770  0.111870  0.080960  1.0  -0.4622
  N  N532  1  0.711690  0.259190  0.886220  1.0  -0.4552
  N  N533  1  0.487160  0.905710  0.284220  1.0  -0.2667
  N  N534  1  0.551200  0.931230  0.249520  1.0  -0.0659
  N  N535  1  0.563980  0.995890  0.213580  1.0  -0.265
  N  N536  1  0.508850  0.800170  0.387220  1.0  -0.3099
  N  N537  1  0.270270  0.751770  0.616460  1.0  -0.4464
  N  N538  1  0.374290  0.833450  0.416180  1.0  -0.5201
  N  N539  1  0.307170  0.127770  0.580960  1.0  -0.4616
  N  N540  1  0.354590  0.211690  0.386220  1.0  -0.4561
  N  N541  1  0.728620  0.810070  0.284220  1.0  -0.2654
  N  N542  1  0.699280  0.819250  0.249520  1.0  -0.0658
  N  N543  1  0.722440  0.790530  0.213580  1.0  -0.2639
  N  N544  1  0.603930  0.812610  0.387220  1.0  -0.3096
  N  N545  1  0.613270  0.631770  0.616460  1.0  -0.4451
  N  N546  1  0.709530  0.750370  0.416180  1.0  -0.5227
  N  N547  1  0.611870  0.291270  0.580960  1.0  -0.4649
  N  N548  1  0.759190  0.402090  0.386220  1.0  -0.4562
  N  N549  1  0.689930  0.012840  0.215780  1.0  -0.2659
  N  N550  1  0.680750  0.948800  0.250480  1.0  -0.0683
  N  N551  1  0.709470  0.936020  0.286420  1.0  -0.2648
  N  N552  1  0.687390  0.991150  0.112780  1.0  -0.3092
  N  N553  1  0.868230  0.229730  0.883540  1.0  -0.4451
  N  N554  1  0.749630  0.125710  0.083820  1.0  -0.5224
  N  N555  1  0.208730  0.192830  0.919040  1.0  -0.4604
  N  N556  1  0.097910  0.145410  0.113780  1.0  -0.4546
  N  N557  1  0.594290  0.771380  0.215780  1.0  -0.2669
  N  N558  1  0.568770  0.800720  0.250480  1.0  -0.0683
  N  N559  1  0.504110  0.777560  0.286420  1.0  -0.2643
  N  N560  1  0.699830  0.896070  0.112780  1.0  -0.31
  N  N561  1  0.748230  0.886730  0.883540  1.0  -0.4493
  N  N562  1  0.666550  0.790470  0.083820  1.0  -0.5208
  N  N563  1  0.372230  0.888130  0.919040  1.0  -0.4639
  N  N564  1  0.288310  0.740810  0.113780  1.0  -0.4548
  N  N565  1  0.512840  0.094290  0.715780  1.0  -0.2673
  N  N566  1  0.448800  0.068770  0.750480  1.0  -0.0661
  N  N567  1  0.436020  0.004110  0.786420  1.0  -0.2636
  N  N568  1  0.491150  0.199830  0.612780  1.0  -0.31
  N  N569  1  0.729730  0.248230  0.383540  1.0  -0.4472
  N  N570  1  0.625710  0.166550  0.583820  1.0  -0.5229
  N  N571  1  0.692830  0.872230  0.419040  1.0  -0.4634
  N  N572  1  0.645410  0.788310  0.613780  1.0  -0.4567
  N  N573  1  0.271380  0.189930  0.715780  1.0  -0.2665
  N  N574  1  0.300720  0.180750  0.750480  1.0  -0.0658
  N  N575  1  0.277560  0.209470  0.786420  1.0  -0.2612
  N  N576  1  0.396070  0.187390  0.612780  1.0  -0.3106
  N  N577  1  0.386730  0.368230  0.383540  1.0  -0.4452
  N  N578  1  0.290470  0.249630  0.583820  1.0  -0.5204
  N  N579  1  0.388130  0.708730  0.419040  1.0  -0.4654
  N  N580  1  0.240810  0.597910  0.613780  1.0  -0.452
  N  N581  1  0.323710  0.073710  0.852580  1.0  -0.1057
  N  N582  1  0.573710  0.823710  0.352580  1.0  -0.1057
  N  N583  1  0.676290  0.926290  0.147420  1.0  -0.1061
  N  N584  1  0.426290  0.176290  0.647420  1.0  -0.1061
  N  N585  1  0.094290  0.512840  0.215780  1.0  -0.2662
  N  N586  1  0.068770  0.448800  0.250480  1.0  -0.0664
  N  N587  1  0.004110  0.436020  0.286420  1.0  -0.2644
  N  N588  1  0.199830  0.491150  0.112780  1.0  -0.3099
  N  N589  1  0.248230  0.729730  0.883540  1.0  -0.4475
  N  N590  1  0.166550  0.625710  0.083820  1.0  -0.5212
  N  N591  1  0.872230  0.692830  0.919040  1.0  -0.4622
  N  N592  1  0.788310  0.645410  0.113780  1.0  -0.459
  N  N593  1  0.189930  0.271380  0.215780  1.0  -0.265
  N  N594  1  0.180750  0.300720  0.250480  1.0  -0.0672
  N  N595  1  0.209470  0.277560  0.286420  1.0  -0.263
  N  N596  1  0.187390  0.396070  0.112780  1.0  -0.31
  N  N597  1  0.368230  0.386730  0.883540  1.0  -0.4465
  N  N598  1  0.249630  0.290470  0.083820  1.0  -0.5216
  N  N599  1  0.708730  0.388130  0.919040  1.0  -0.4626
  N  N600  1  0.597910  0.240810  0.113780  1.0  -0.4527
  N  N601  1  0.771380  0.594290  0.715780  1.0  -0.2669
  N  N602  1  0.800720  0.568770  0.750480  1.0  -0.0675
  N  N603  1  0.777560  0.504110  0.786420  1.0  -0.2618
  N  N604  1  0.896070  0.699830  0.612780  1.0  -0.3105
  N  N605  1  0.886730  0.748230  0.383540  1.0  -0.447
  N  N606  1  0.790470  0.666550  0.583820  1.0  -0.522
  N  N607  1  0.888130  0.372230  0.419040  1.0  -0.4618
  N  N608  1  0.740810  0.288310  0.613780  1.0  -0.4515
  N  N609  1  0.012840  0.689930  0.715780  1.0  -0.2685
  N  N610  1  0.948800  0.680750  0.750480  1.0  -0.0681
  N  N611  1  0.936020  0.709470  0.786420  1.0  -0.2638
  N  N612  1  0.991150  0.687390  0.612780  1.0  -0.3103
  N  N613  1  0.229730  0.868230  0.383540  1.0  -0.4462
  N  N614  1  0.125710  0.749630  0.583820  1.0  -0.5209
  N  N615  1  0.192830  0.208730  0.419040  1.0  -0.4651
  N  N616  1  0.145410  0.097910  0.613780  1.0  -0.4541
  N  N617  1  0.905710  0.487160  0.784220  1.0  -0.2645
  N  N618  1  0.931230  0.551200  0.749520  1.0  -0.0673
  N  N619  1  0.995890  0.563980  0.713580  1.0  -0.2647
  N  N620  1  0.800170  0.508850  0.887220  1.0  -0.3103
  N  N621  1  0.751770  0.270270  0.116460  1.0  -0.4466
  N  N622  1  0.833450  0.374290  0.916180  1.0  -0.5196
  N  N623  1  0.127770  0.307170  0.080960  1.0  -0.4613
  N  N624  1  0.211690  0.354590  0.886220  1.0  -0.4598
  N  N625  1  0.810070  0.728620  0.784220  1.0  -0.2644
  N  N626  1  0.819250  0.699280  0.749520  1.0  -0.0662
  N  N627  1  0.790530  0.722440  0.713580  1.0  -0.2658
  N  N628  1  0.812610  0.603930  0.887220  1.0  -0.3103
  N  N629  1  0.631770  0.613270  0.116460  1.0  -0.4447
  N  N630  1  0.750370  0.709530  0.916180  1.0  -0.5216
  N  N631  1  0.291270  0.611870  0.080960  1.0  -0.4628
  N  N632  1  0.402090  0.759190  0.886220  1.0  -0.4566
  N  N633  1  0.228620  0.405710  0.284220  1.0  -0.2667
  N  N634  1  0.199280  0.431230  0.249520  1.0  -0.068
  N  N635  1  0.222440  0.495890  0.213580  1.0  -0.2625
  N  N636  1  0.103930  0.300170  0.387220  1.0  -0.3096
  N  N637  1  0.113270  0.251770  0.616460  1.0  -0.4481
  N  N638  1  0.209530  0.333450  0.416180  1.0  -0.5199
  N  N639  1  0.111870  0.627770  0.580960  1.0  -0.4619
  N  N640  1  0.259190  0.711690  0.386220  1.0  -0.4552
  N  N641  1  0.987160  0.310070  0.284220  1.0  -0.2653
  N  N642  1  0.051200  0.319250  0.249520  1.0  -0.0675
  N  N643  1  0.063980  0.290530  0.213580  1.0  -0.2644
  N  N644  1  0.008850  0.312610  0.387220  1.0  -0.3093
  N  N645  1  0.770270  0.131770  0.616460  1.0  -0.447
  N  N646  1  0.874290  0.250370  0.416180  1.0  -0.5222
  N  N647  1  0.807170  0.791270  0.580960  1.0  -0.4643
  N  N648  1  0.854590  0.902090  0.386220  1.0  -0.4559
  N  N649  1  0.176290  0.426290  0.147420  1.0  -0.1061
  N  N650  1  0.926290  0.676290  0.647420  1.0  -0.1061
  N  N651  1  0.823710  0.573710  0.852580  1.0  -0.1057
  N  N652  1  0.073710  0.323710  0.352580  1.0  -0.1057
