# generated using pymatgen
data_Ni2Mo5P2H49C48N24O17
_symmetry_space_group_name_H-M   'P 1'
_cell_length_a   18.65800000
_cell_length_b   20.08900000
_cell_length_c   21.13700000
_cell_angle_alpha   90.00000000
_cell_angle_beta   90.00000000
_cell_angle_gamma   90.00000000
_symmetry_Int_Tables_number   1
_chemical_formula_structural   Ni2Mo5P2H49C48N24O17
_chemical_formula_sum   'Ni8 Mo20 P8 H196 C192 N96 O68'
_cell_volume   7922.58221899
_cell_formula_units_Z   4
loop_
 _symmetry_equiv_pos_site_id
 _symmetry_equiv_pos_as_xyz
  1  'x, y, z'
loop_
 _atom_site_type_symbol
 _atom_site_label
 _atom_site_symmetry_multiplicity
 _atom_site_fract_x
 _atom_site_fract_y
 _atom_site_fract_z
 _atom_site_occupancy
 _atom_site_charge
  Ni  Ni1  1  0.549180  0.143840  0.810940  1.0  0.7808
  Ni  Ni2  1  0.219560  0.992550  0.013600  1.0  0.8775
  Ni  Ni3  1  0.950820  0.856160  0.310940  1.0  0.7764
  Ni  Ni4  1  0.280440  0.007450  0.513600  1.0  0.8771
  Ni  Ni5  1  0.450820  0.643840  0.689060  1.0  0.7787
  Ni  Ni6  1  0.780440  0.492550  0.486400  1.0  0.8775
  Ni  Ni7  1  0.049180  0.356160  0.189060  1.0  0.7778
  Ni  Ni8  1  0.719560  0.507450  0.986400  1.0  0.8772
  Mo  Mo9  1  0.609550  0.548090  0.724670  1.0  1.3526
  Mo  Mo10  1  0.637080  0.442040  0.600550  1.0  1.3326
  Mo  Mo11  1  0.687400  0.292880  0.658430  1.0  0.6619
  Mo  Mo12  1  0.669840  0.294370  0.819540  1.0  1.3415
  Mo  Mo13  1  0.591890  0.440970  0.862020  1.0  1.542
  Mo  Mo14  1  0.890450  0.451910  0.224670  1.0  1.3527
  Mo  Mo15  1  0.862920  0.557960  0.100550  1.0  1.3345
  Mo  Mo16  1  0.812600  0.707120  0.158430  1.0  0.6622
  Mo  Mo17  1  0.830160  0.705630  0.319540  1.0  1.3397
  Mo  Mo18  1  0.908110  0.559030  0.362020  1.0  1.5433
  Mo  Mo19  1  0.390450  0.048090  0.775330  1.0  1.3544
  Mo  Mo20  1  0.362920  0.942040  0.899450  1.0  1.3333
  Mo  Mo21  1  0.312600  0.792880  0.841570  1.0  0.6635
  Mo  Mo22  1  0.330160  0.794370  0.680460  1.0  1.3404
  Mo  Mo23  1  0.408110  0.940970  0.637980  1.0  1.543
  Mo  Mo24  1  0.109550  0.951910  0.275330  1.0  1.353
  Mo  Mo25  1  0.137080  0.057960  0.399450  1.0  1.3327
  Mo  Mo26  1  0.187400  0.207120  0.341570  1.0  0.6632
  Mo  Mo27  1  0.169840  0.205630  0.180460  1.0  1.3407
  Mo  Mo28  1  0.091890  0.059030  0.137980  1.0  1.5439
  P  P29  1  0.732300  0.432500  0.744990  1.0  1.747
  P  P30  1  0.541000  0.379060  0.723520  1.0  1.8623
  P  P31  1  0.767700  0.567500  0.244990  1.0  1.7468
  P  P32  1  0.959000  0.620940  0.223520  1.0  1.8658
  P  P33  1  0.267700  0.932500  0.755010  1.0  1.7471
  P  P34  1  0.459000  0.879060  0.776480  1.0  1.8666
  P  P35  1  0.232300  0.067500  0.255010  1.0  1.7469
  P  P36  1  0.041000  0.120940  0.276480  1.0  1.8625
  H  H37  1  0.581500  0.994500  0.761800  1.0  0.0822
  H  H38  1  0.714900  0.142300  0.750100  1.0  0.1168
  H  H39  1  0.837200  0.058400  0.740700  1.0  0.1092
  H  H40  1  0.817300  0.997600  0.697500  1.0  0.114
  H  H41  1  0.871000  0.899900  0.734100  1.0  0.1551
  H  H42  1  0.935100  0.851700  0.824600  1.0  0.1196
  H  H43  1  0.860100  0.007900  0.933200  1.0  0.1217
  H  H44  1  0.793300  0.044900  0.851600  1.0  0.0866
  H  H45  1  0.948700  0.848500  0.938700  1.0  0.1141
  H  H46  1  0.928400  0.910900  0.980000  1.0  0.1182
  H  H47  1  0.045500  0.972000  0.017500  1.0  0.1108
  H  H48  1  0.173700  0.913800  0.884600  1.0  0.0786
  H  H49  1  0.678000  0.349800  0.970900  1.0  0.1107
  H  H50  1  0.737700  0.437700  0.123900  1.0  0.0949
  H  H51  1  0.725600  0.216500  0.068200  1.0  0.1255
  H  H52  1  0.686200  0.229200  0.003800  1.0  0.1103
  H  H53  1  0.570500  0.203900  0.991400  1.0  0.1167
  H  H54  1  0.459300  0.171200  0.032900  1.0  0.0812
  H  H55  1  0.528300  0.186900  0.205700  1.0  0.1021
  H  H56  1  0.641400  0.225300  0.170600  1.0  0.1388
  H  H57  1  0.428100  0.126900  0.191100  1.0  0.1317
  H  H58  1  0.385100  0.179300  0.151800  1.0  0.1453
  H  H59  1  0.286700  0.121200  0.086600  1.0  0.1117
  H  H60  1  0.381700  0.952400  0.069000  1.0  0.0805
  H  H61  1  0.684500  0.142500  0.905400  1.0  0.0896
  H  H62  1  0.522600  0.027100  0.915400  1.0  0.0942
  H  H63  1  0.619000  0.984800  0.050400  1.0  0.1173
  H  H64  1  0.558100  0.952900  0.008900  1.0  0.1131
  H  H65  1  0.620400  0.914400  0.899300  1.0  0.1206
  H  H66  1  0.697400  0.839700  0.862900  1.0  0.1372
  H  H67  1  0.786700  0.820100  0.032500  1.0  0.1084
  H  H68  1  0.716100  0.902000  0.064800  1.0  0.1053
  H  H69  1  0.833900  0.771900  0.884400  1.0  0.1181
  H  H70  1  0.845600  0.758300  0.956900  1.0  0.0946
  H  H71  1  0.699400  0.587900  0.849900  1.0  0.0972
  H  H72  1  0.765700  0.658200  0.006600  1.0  0.0873
  H  H73  1  0.407900  0.127200  0.904000  1.0  0.0987
  H  H74  1  0.495900  0.289800  0.849800  1.0  0.1135
  H  H75  1  0.342500  0.346000  0.937400  1.0  0.1272
  H  H76  1  0.418000  0.373700  0.917900  1.0  0.1288
  H  H77  1  0.322500  0.305300  0.045200  1.0  0.105
  H  H78  1  0.351600  0.312200  0.151100  1.0  0.1056
  H  H79  1  0.547500  0.378000  0.103700  1.0  0.0882
  H  H80  1  0.512800  0.379500  0.997200  1.0  0.099
  H  H81  1  0.423000  0.394400  0.223400  1.0  0.1011
  H  H82  1  0.456600  0.323300  0.231800  1.0  0.124
  H  H83  1  0.685600  0.404800  0.249700  1.0  0.0947
  H  H84  1  0.512800  0.495700  0.205200  1.0  0.1152
  H  H85  1  0.629400  0.510100  0.240600  1.0  0.3099
  H  H86  1  0.918500  0.005500  0.261800  1.0  0.0827
  H  H87  1  0.785100  0.857700  0.250100  1.0  0.1175
  H  H88  1  0.662800  0.941600  0.240700  1.0  0.1085
  H  H89  1  0.682700  0.002400  0.197500  1.0  0.1137
  H  H90  1  0.629000  0.100100  0.234100  1.0  0.1549
  H  H91  1  0.564900  0.148300  0.324600  1.0  0.118
  H  H92  1  0.639900  0.992100  0.433200  1.0  0.122
  H  H93  1  0.706700  0.955100  0.351600  1.0  0.0867
  H  H94  1  0.551300  0.151500  0.438700  1.0  0.1124
  H  H95  1  0.571600  0.089100  0.480000  1.0  0.1182
  H  H96  1  0.454500  0.028000  0.517500  1.0  0.1103
  H  H97  1  0.326300  0.086200  0.384600  1.0  0.079
  H  H98  1  0.822000  0.650200  0.470900  1.0  0.1108
  H  H99  1  0.762300  0.562300  0.623900  1.0  0.0947
  H  H100  1  0.774400  0.783500  0.568200  1.0  0.125
  H  H101  1  0.813800  0.770800  0.503800  1.0  0.1103
  H  H102  1  0.929500  0.796100  0.491400  1.0  0.117
  H  H103  1  0.040700  0.828800  0.532900  1.0  0.082
  H  H104  1  0.971700  0.813100  0.705700  1.0  0.1023
  H  H105  1  0.858600  0.774700  0.670600  1.0  0.1385
  H  H106  1  0.071900  0.873100  0.691100  1.0  0.1318
  H  H107  1  0.114900  0.820700  0.651800  1.0  0.1443
  H  H108  1  0.213300  0.878800  0.586600  1.0  0.1115
  H  H109  1  0.118300  0.047600  0.569000  1.0  0.0794
  H  H110  1  0.815500  0.857500  0.405400  1.0  0.0894
  H  H111  1  0.977400  0.972900  0.415400  1.0  0.0936
  H  H112  1  0.881000  0.015200  0.550400  1.0  0.1165
  H  H113  1  0.941900  0.047100  0.508900  1.0  0.1109
  H  H114  1  0.879600  0.085600  0.399300  1.0  0.1193
  H  H115  1  0.802600  0.160300  0.362900  1.0  0.1373
  H  H116  1  0.713300  0.179900  0.532500  1.0  0.1087
  H  H117  1  0.783900  0.098000  0.564800  1.0  0.1051
  H  H118  1  0.666100  0.228100  0.384400  1.0  0.1178
  H  H119  1  0.654400  0.241700  0.456900  1.0  0.0964
  H  H120  1  0.800600  0.412100  0.349900  1.0  0.0974
  H  H121  1  0.734300  0.341800  0.506600  1.0  0.0876
  H  H122  1  0.092100  0.872800  0.404000  1.0  0.0985
  H  H123  1  0.004100  0.710200  0.349800  1.0  0.1141
  H  H124  1  0.157500  0.654000  0.437400  1.0  0.1256
  H  H125  1  0.082000  0.626300  0.417900  1.0  0.1289
  H  H126  1  0.177500  0.694700  0.545200  1.0  0.1053
  H  H127  1  0.148400  0.687800  0.651100  1.0  0.1059
  H  H128  1  0.952500  0.622000  0.603700  1.0  0.0882
  H  H129  1  0.987200  0.620500  0.497200  1.0  0.0982
  H  H130  1  0.077000  0.605600  0.723400  1.0  0.1011
  H  H131  1  0.043400  0.676700  0.731800  1.0  0.1216
  H  H132  1  0.814400  0.595200  0.749700  1.0  0.0955
  H  H133  1  0.987200  0.504300  0.705200  1.0  0.115
  H  H134  1  0.870600  0.489900  0.740600  1.0  0.3106
  H  H135  1  0.418500  0.494500  0.738200  1.0  0.0831
  H  H136  1  0.285100  0.642300  0.749900  1.0  0.1163
  H  H137  1  0.162800  0.558400  0.759300  1.0  0.1089
  H  H138  1  0.182700  0.497600  0.802500  1.0  0.1135
  H  H139  1  0.129000  0.399900  0.765900  1.0  0.1538
  H  H140  1  0.064900  0.351700  0.675400  1.0  0.1192
  H  H141  1  0.139900  0.507900  0.566800  1.0  0.1226
  H  H142  1  0.206700  0.544900  0.648400  1.0  0.0864
  H  H143  1  0.051300  0.348500  0.561300  1.0  0.1132
  H  H144  1  0.071600  0.410900  0.520000  1.0  0.1181
  H  H145  1  0.954500  0.472000  0.482500  1.0  0.1107
  H  H146  1  0.826300  0.413800  0.615400  1.0  0.0788
  H  H147  1  0.322000  0.849800  0.529100  1.0  0.1113
  H  H148  1  0.262300  0.937700  0.376100  1.0  0.0938
  H  H149  1  0.274400  0.716500  0.431800  1.0  0.1267
  H  H150  1  0.313800  0.729200  0.496200  1.0  0.1102
  H  H151  1  0.429500  0.703900  0.508600  1.0  0.1173
  H  H152  1  0.540700  0.671200  0.467100  1.0  0.0816
  H  H153  1  0.471700  0.686900  0.294300  1.0  0.1031
  H  H154  1  0.358600  0.725300  0.329400  1.0  0.1381
  H  H155  1  0.571900  0.626900  0.308900  1.0  0.1308
  H  H156  1  0.614900  0.679300  0.348200  1.0  0.1448
  H  H157  1  0.713300  0.621200  0.413400  1.0  0.1114
  H  H158  1  0.618300  0.452400  0.431000  1.0  0.0801
  H  H159  1  0.315500  0.642500  0.594600  1.0  0.0893
  H  H160  1  0.477400  0.527100  0.584600  1.0  0.0936
  H  H161  1  0.381000  0.484800  0.449600  1.0  0.1176
  H  H162  1  0.441900  0.452900  0.491100  1.0  0.1112
  H  H163  1  0.379600  0.414400  0.600700  1.0  0.1204
  H  H164  1  0.302600  0.339700  0.637100  1.0  0.1362
  H  H165  1  0.213300  0.320100  0.467500  1.0  0.1082
  H  H166  1  0.283900  0.402000  0.435200  1.0  0.1049
  H  H167  1  0.166100  0.271900  0.615600  1.0  0.119
  H  H168  1  0.154400  0.258300  0.543100  1.0  0.095
  H  H169  1  0.300600  0.087900  0.650100  1.0  0.0974
  H  H170  1  0.234300  0.158200  0.493400  1.0  0.0876
  H  H171  1  0.592100  0.627200  0.596000  1.0  0.0988
  H  H172  1  0.504100  0.789800  0.650200  1.0  0.1144
  H  H173  1  0.657500  0.846000  0.562600  1.0  0.1255
  H  H174  1  0.582000  0.873700  0.582100  1.0  0.1276
  H  H175  1  0.677500  0.805300  0.454800  1.0  0.1051
  H  H176  1  0.648400  0.812200  0.348900  1.0  0.1061
  H  H177  1  0.452500  0.878000  0.396300  1.0  0.0881
  H  H178  1  0.487200  0.879500  0.502800  1.0  0.0984
  H  H179  1  0.577000  0.894400  0.276600  1.0  0.1009
  H  H180  1  0.543400  0.823300  0.268200  1.0  0.1217
  H  H181  1  0.314400  0.904800  0.250300  1.0  0.0957
  H  H182  1  0.487200  0.995700  0.294800  1.0  0.1148
  H  H183  1  0.370600  0.010100  0.259400  1.0  0.3083
  H  H184  1  0.081500  0.505500  0.238200  1.0  0.0823
  H  H185  1  0.214900  0.357700  0.249900  1.0  0.1173
  H  H186  1  0.337200  0.441600  0.259300  1.0  0.1087
  H  H187  1  0.317300  0.502400  0.302500  1.0  0.1148
  H  H188  1  0.371000  0.600100  0.265900  1.0  0.1544
  H  H189  1  0.435100  0.648300  0.175400  1.0  0.1179
  H  H190  1  0.360100  0.492100  0.066800  1.0  0.1228
  H  H191  1  0.293300  0.455100  0.148400  1.0  0.0862
  H  H192  1  0.448700  0.651500  0.061300  1.0  0.1136
  H  H193  1  0.428400  0.589100  0.020000  1.0  0.1182
  H  H194  1  0.545500  0.528000  0.982500  1.0  0.1109
  H  H195  1  0.673700  0.586200  0.115400  1.0  0.0791
  H  H196  1  0.178000  0.150200  0.029100  1.0  0.1114
  H  H197  1  0.237700  0.062300  0.876100  1.0  0.0944
  H  H198  1  0.225600  0.283500  0.931800  1.0  0.1254
  H  H199  1  0.186200  0.270800  0.996200  1.0  0.1106
  H  H200  1  0.070500  0.296100  0.008600  1.0  0.1174
  H  H201  1  0.959300  0.328800  0.967100  1.0  0.0814
  H  H202  1  0.028300  0.313100  0.794300  1.0  0.1035
  H  H203  1  0.141400  0.274700  0.829400  1.0  0.1391
  H  H204  1  0.928100  0.373100  0.808900  1.0  0.1305
  H  H205  1  0.885100  0.320700  0.848200  1.0  0.1456
  H  H206  1  0.786700  0.378800  0.913400  1.0  0.1107
  H  H207  1  0.881700  0.547600  0.931000  1.0  0.0782
  H  H208  1  0.184500  0.357500  0.094600  1.0  0.0891
  H  H209  1  0.022600  0.472900  0.084600  1.0  0.0936
  H  H210  1  0.119000  0.515200  0.949600  1.0  0.1177
  H  H211  1  0.058100  0.547100  0.991100  1.0  0.1139
  H  H212  1  0.120400  0.585600  0.100700  1.0  0.1204
  H  H213  1  0.197400  0.660300  0.137100  1.0  0.1373
  H  H214  1  0.286700  0.679900  0.967500  1.0  0.1079
  H  H215  1  0.216100  0.598000  0.935200  1.0  0.1049
  H  H216  1  0.333900  0.728100  0.115600  1.0  0.1192
  H  H217  1  0.345600  0.741700  0.043100  1.0  0.0942
  H  H218  1  0.199400  0.912100  0.150100  1.0  0.0974
  H  H219  1  0.265700  0.841800  0.993400  1.0  0.0876
  H  H220  1  0.907900  0.372800  0.096000  1.0  0.0987
  H  H221  1  0.995900  0.210200  0.150200  1.0  0.1148
  H  H222  1  0.842500  0.154000  0.062600  1.0  0.1293
  H  H223  1  0.918000  0.126300  0.082100  1.0  0.1305
  H  H224  1  0.822500  0.194700  0.954800  1.0  0.1046
  H  H225  1  0.851600  0.187800  0.848900  1.0  0.1054
  H  H226  1  0.047500  0.122000  0.896300  1.0  0.0886
  H  H227  1  0.012800  0.120500  0.002800  1.0  0.0988
  H  H228  1  0.923000  0.105600  0.776600  1.0  0.1011
  H  H229  1  0.956600  0.176700  0.768200  1.0  0.1223
  H  H230  1  0.185600  0.095200  0.750300  1.0  0.0943
  H  H231  1  0.012800  0.004300  0.794800  1.0  0.1148
  H  H232  1  0.129400  0.989900  0.759400  1.0  0.3113
  C  C233  1  0.623300  0.018700  0.755500  1.0  0.2666
  C  C234  1  0.694000  0.100300  0.749700  1.0  0.1295
  C  C235  1  0.806500  0.019500  0.737300  1.0  -0.1053
  C  C236  1  0.822000  0.975300  0.787900  1.0  0.1409
  C  C237  1  0.867900  0.918300  0.774400  1.0  -0.1191
  C  C238  1  0.909400  0.891200  0.828600  1.0  -0.1336
  C  C239  1  0.908900  0.925800  0.885000  1.0  0.0187
  C  C240  1  0.861500  0.986100  0.894400  1.0  -0.1224
  C  C241  1  0.821900  0.007400  0.846200  1.0  -0.1087
  C  C242  1  0.950100  0.896700  0.940500  1.0  -0.1203
  C  C243  1  0.064000  0.953300  0.980800  1.0  0.1256
  C  C244  1  0.132200  0.921600  0.907800  1.0  0.2527
  C  C245  1  0.691800  0.358300  0.012400  1.0  0.1579
  C  C246  1  0.724300  0.404400  0.095700  1.0  0.2754
  C  C247  1  0.685800  0.239800  0.048600  1.0  -0.1444
  C  C248  1  0.619300  0.215800  0.076000  1.0  0.0555
  C  C249  1  0.564200  0.200400  0.034900  1.0  -0.1891
  C  C250  1  0.497000  0.178700  0.060800  1.0  -0.1113
  C  C251  1  0.485100  0.168600  0.123200  1.0  0.1931
  C  C252  1  0.537200  0.188500  0.162500  1.0  -0.125
  C  C253  1  0.606500  0.212500  0.141600  1.0  -0.167
  C  C254  1  0.419000  0.142900  0.148600  1.0  -0.0293
  C  C255  1  0.320200  0.086800  0.087100  1.0  0.1281
  C  C256  1  0.373700  0.996700  0.079600  1.0  0.2283
  C  C257  1  0.653100  0.108900  0.917500  1.0  0.261
  C  C258  1  0.566800  0.046800  0.923400  1.0  0.1774
  C  C259  1  0.606600  0.970400  0.008000  1.0  -0.0485
  C  C260  1  0.658700  0.916000  0.986200  1.0  0.1176
  C  C261  1  0.655000  0.896500  0.926000  1.0  -0.1873
  C  C262  1  0.702000  0.849500  0.905800  1.0  -0.0554
  C  C263  1  0.758100  0.811000  0.938600  1.0  -0.0188
  C  C264  1  0.755200  0.838100  0.003000  1.0  -0.1279
  C  C265  1  0.711000  0.887000  0.023400  1.0  -0.102
  C  C266  1  0.809900  0.760900  0.923700  1.0  -0.0526
  C  C267  1  0.723500  0.615400  0.878100  1.0  0.2975
  C  C268  1  0.757800  0.651300  0.963700  1.0  0.1572
  C  C269  1  0.418000  0.172400  0.900700  1.0  0.2227
  C  C270  1  0.468000  0.258200  0.870500  1.0  0.0763
  C  C271  1  0.393800  0.339200  0.941900  1.0  -0.1426
  C  C272  1  0.414200  0.344500  0.010300  1.0  0.0852
  C  C273  1  0.366700  0.322700  0.057000  1.0  -0.0771
  C  C274  1  0.384400  0.326600  0.120900  1.0  -0.1624
  C  C275  1  0.450400  0.351800  0.140300  1.0  0.0704
  C  C276  1  0.500700  0.367000  0.092700  1.0  -0.1126
  C  C277  1  0.480400  0.365700  0.027900  1.0  -0.0565
  C  C278  1  0.460400  0.364800  0.208600  1.0  -0.0996
  C  C279  1  0.637000  0.412200  0.242800  1.0  0.1996
  C  C280  1  0.545300  0.463200  0.217800  1.0  0.0609
  C  C281  1  0.876700  0.981300  0.255500  1.0  0.2647
  C  C282  1  0.806000  0.899700  0.249700  1.0  0.1291
  C  C283  1  0.693500  0.980500  0.237300  1.0  -0.1021
  C  C284  1  0.678000  0.024700  0.287900  1.0  0.1417
  C  C285  1  0.632100  0.081700  0.274400  1.0  -0.1214
  C  C286  1  0.590600  0.108800  0.328600  1.0  -0.1319
  C  C287  1  0.591100  0.074200  0.385000  1.0  0.0171
  C  C288  1  0.638500  0.013900  0.394400  1.0  -0.1227
  C  C289  1  0.678100  0.992600  0.346200  1.0  -0.1088
  C  C290  1  0.549900  0.103300  0.440500  1.0  -0.1195
  C  C291  1  0.436000  0.046700  0.480800  1.0  0.127
  C  C292  1  0.367800  0.078400  0.407800  1.0  0.2539
  C  C293  1  0.808200  0.641700  0.512400  1.0  0.1585
  C  C294  1  0.775700  0.595600  0.595700  1.0  0.2761
  C  C295  1  0.814200  0.760200  0.548600  1.0  -0.1446
  C  C296  1  0.880700  0.784200  0.576000  1.0  0.0556
  C  C297  1  0.935800  0.799600  0.534900  1.0  -0.1896
  C  C298  1  0.003000  0.821300  0.560800  1.0  -0.1109
  C  C299  1  0.014900  0.831400  0.623200  1.0  0.1932
  C  C300  1  0.962800  0.811500  0.662500  1.0  -0.1236
  C  C301  1  0.893500  0.787500  0.641600  1.0  -0.1681
  C  C302  1  0.081000  0.857100  0.648600  1.0  -0.0295
  C  C303  1  0.179800  0.913200  0.587100  1.0  0.1269
  C  C304  1  0.126300  0.003300  0.579600  1.0  0.2292
  C  C305  1  0.846900  0.891100  0.417500  1.0  0.2621
  C  C306  1  0.933200  0.953200  0.423400  1.0  0.1779
  C  C307  1  0.893400  0.029600  0.508000  1.0  -0.0484
  C  C308  1  0.841300  0.084000  0.486200  1.0  0.1173
  C  C309  1  0.845000  0.103500  0.426000  1.0  -0.1873
  C  C310  1  0.798000  0.150500  0.405800  1.0  -0.0534
  C  C311  1  0.741900  0.189000  0.438600  1.0  -0.019
  C  C312  1  0.744800  0.161900  0.503000  1.0  -0.1286
  C  C313  1  0.789000  0.113000  0.523400  1.0  -0.1019
  C  C314  1  0.690100  0.239100  0.423700  1.0  -0.0512
  C  C315  1  0.776500  0.384600  0.378100  1.0  0.2967
  C  C316  1  0.742200  0.348700  0.463700  1.0  0.1579
  C  C317  1  0.082000  0.827600  0.400700  1.0  0.2208
  C  C318  1  0.032000  0.741800  0.370500  1.0  0.0752
  C  C319  1  0.106200  0.660800  0.441900  1.0  -0.1423
  C  C320  1  0.085800  0.655500  0.510300  1.0  0.0872
  C  C321  1  0.133300  0.677300  0.557000  1.0  -0.0788
  C  C322  1  0.115600  0.673400  0.620900  1.0  -0.1608
  C  C323  1  0.049600  0.648200  0.640300  1.0  0.0699
  C  C324  1  0.999300  0.633000  0.592700  1.0  -0.1128
  C  C325  1  0.019600  0.634300  0.527900  1.0  -0.0557
  C  C326  1  0.039600  0.635200  0.708600  1.0  -0.1006
  C  C327  1  0.863000  0.587800  0.742800  1.0  0.1997
  C  C328  1  0.954700  0.536800  0.717800  1.0  0.0609
  C  C329  1  0.376700  0.518700  0.744500  1.0  0.2647
  C  C330  1  0.306000  0.600300  0.750300  1.0  0.1285
  C  C331  1  0.193500  0.519500  0.762700  1.0  -0.1035
  C  C332  1  0.178000  0.475300  0.712100  1.0  0.1435
  C  C333  1  0.132100  0.418300  0.725600  1.0  -0.121
  C  C334  1  0.090600  0.391200  0.671400  1.0  -0.132
  C  C335  1  0.091100  0.425800  0.615000  1.0  0.0175
  C  C336  1  0.138500  0.486100  0.605600  1.0  -0.1226
  C  C337  1  0.178100  0.507400  0.653800  1.0  -0.1101
  C  C338  1  0.049900  0.396700  0.559500  1.0  -0.1183
  C  C339  1  0.936000  0.453300  0.519200  1.0  0.1267
  C  C340  1  0.867800  0.421600  0.592200  1.0  0.254
  C  C341  1  0.308200  0.858300  0.487600  1.0  0.159
  C  C342  1  0.275700  0.904400  0.404300  1.0  0.2759
  C  C343  1  0.314200  0.739800  0.451400  1.0  -0.1455
  C  C344  1  0.380700  0.715800  0.424000  1.0  0.055
  C  C345  1  0.435800  0.700400  0.465100  1.0  -0.1897
  C  C346  1  0.503000  0.678700  0.439200  1.0  -0.1119
  C  C347  1  0.514900  0.668600  0.376800  1.0  0.1927
  C  C348  1  0.462800  0.688500  0.337500  1.0  -0.1244
  C  C349  1  0.393500  0.712500  0.358400  1.0  -0.1683
  C  C350  1  0.581000  0.642900  0.351400  1.0  -0.0312
  C  C351  1  0.679800  0.586800  0.412900  1.0  0.1279
  C  C352  1  0.626300  0.496700  0.420400  1.0  0.2292
  C  C353  1  0.346900  0.608900  0.582500  1.0  0.2619
  C  C354  1  0.433200  0.546800  0.576600  1.0  0.1776
  C  C355  1  0.393400  0.470400  0.492000  1.0  -0.0488
  C  C356  1  0.341300  0.416000  0.513800  1.0  0.1164
  C  C357  1  0.345000  0.396500  0.574000  1.0  -0.1865
  C  C358  1  0.298000  0.349500  0.594200  1.0  -0.0534
  C  C359  1  0.241900  0.311000  0.561400  1.0  -0.0191
  C  C360  1  0.244800  0.338100  0.497000  1.0  -0.1308
  C  C361  1  0.289000  0.387000  0.476600  1.0  -0.1048
  C  C362  1  0.190100  0.260900  0.576300  1.0  -0.0508
  C  C363  1  0.276500  0.115400  0.621900  1.0  0.299
  C  C364  1  0.242200  0.151300  0.536300  1.0  0.1574
  C  C365  1  0.582000  0.672400  0.599300  1.0  0.2224
  C  C366  1  0.532000  0.758200  0.629500  1.0  0.0739
  C  C367  1  0.606200  0.839200  0.558100  1.0  -0.1447
  C  C368  1  0.585800  0.844500  0.489700  1.0  0.0878
  C  C369  1  0.633300  0.822700  0.443000  1.0  -0.0786
  C  C370  1  0.615600  0.826600  0.379100  1.0  -0.1605
  C  C371  1  0.549600  0.851800  0.359700  1.0  0.0696
  C  C372  1  0.499300  0.867000  0.407300  1.0  -0.1135
  C  C373  1  0.519600  0.865700  0.472100  1.0  -0.0554
  C  C374  1  0.539600  0.864800  0.291400  1.0  -0.1009
  C  C375  1  0.363000  0.912200  0.257200  1.0  0.2009
  C  C376  1  0.454700  0.963200  0.282200  1.0  0.0599
  C  C377  1  0.123300  0.481300  0.244500  1.0  0.2643
  C  C378  1  0.194000  0.399700  0.250300  1.0  0.1279
  C  C379  1  0.306500  0.480500  0.262700  1.0  -0.1067
  C  C380  1  0.322000  0.524700  0.212100  1.0  0.1437
  C  C381  1  0.367900  0.581700  0.225600  1.0  -0.1225
  C  C382  1  0.409400  0.608800  0.171400  1.0  -0.1324
  C  C383  1  0.408900  0.574200  0.115000  1.0  0.0178
  C  C384  1  0.361500  0.513900  0.105600  1.0  -0.1223
  C  C385  1  0.321900  0.492600  0.153800  1.0  -0.1097
  C  C386  1  0.450100  0.603300  0.059500  1.0  -0.1205
  C  C387  1  0.564000  0.546700  0.019200  1.0  0.1278
  C  C388  1  0.632200  0.578400  0.092200  1.0  0.2542
  C  C389  1  0.191800  0.141700  0.987600  1.0  0.1582
  C  C390  1  0.224300  0.095600  0.904300  1.0  0.2745
  C  C391  1  0.185800  0.260200  0.951400  1.0  -0.1448
  C  C392  1  0.119300  0.284200  0.924000  1.0  0.0551
  C  C393  1  0.064200  0.299600  0.965100  1.0  -0.1888
  C  C394  1  0.997000  0.321300  0.939200  1.0  -0.1107
  C  C395  1  0.985100  0.331400  0.876800  1.0  0.1925
  C  C396  1  0.037200  0.311500  0.837500  1.0  -0.1252
  C  C397  1  0.106500  0.287500  0.858400  1.0  -0.168
  C  C398  1  0.919000  0.357100  0.851400  1.0  -0.0305
  C  C399  1  0.820200  0.413200  0.912900  1.0  0.1277
  C  C400  1  0.873700  0.503300  0.920400  1.0  0.2277
  C  C401  1  0.153100  0.391100  0.082500  1.0  0.2615
  C  C402  1  0.066800  0.453200  0.076600  1.0  0.1777
  C  C403  1  0.106600  0.529600  0.992000  1.0  -0.0476
  C  C404  1  0.158700  0.584000  0.013800  1.0  0.1169
  C  C405  1  0.155000  0.603500  0.074000  1.0  -0.1859
  C  C406  1  0.202000  0.650500  0.094200  1.0  -0.0532
  C  C407  1  0.258100  0.689000  0.061400  1.0  -0.0186
  C  C408  1  0.255200  0.661900  0.997000  1.0  -0.1318
  C  C409  1  0.211000  0.613000  0.976600  1.0  -0.1033
  C  C410  1  0.309900  0.739100  0.076300  1.0  -0.053
  C  C411  1  0.223500  0.884600  0.121900  1.0  0.2975
  C  C412  1  0.257800  0.848700  0.036300  1.0  0.1568
  C  C413  1  0.918000  0.327600  0.099300  1.0  0.2229
  C  C414  1  0.968000  0.241800  0.129500  1.0  0.0753
  C  C415  1  0.893800  0.160800  0.058100  1.0  -0.1431
  C  C416  1  0.914200  0.155500  0.989700  1.0  0.087
  C  C417  1  0.866700  0.177300  0.943000  1.0  -0.0771
  C  C418  1  0.884400  0.173400  0.879100  1.0  -0.1636
  C  C419  1  0.950400  0.148200  0.859700  1.0  0.0695
  C  C420  1  0.000700  0.133000  0.907300  1.0  -0.1125
  C  C421  1  0.980400  0.134300  0.972100  1.0  -0.0573
  C  C422  1  0.960400  0.135200  0.791400  1.0  -0.1002
  C  C423  1  0.137000  0.087800  0.757200  1.0  0.202
  C  C424  1  0.045300  0.036800  0.782200  1.0  0.061
  N  N425  1  0.624800  0.086100  0.761600  1.0  -0.4599
  N  N426  1  0.677900  0.992500  0.741600  1.0  -0.2395
  N  N427  1  0.727300  0.042000  0.737200  1.0  -0.0353
  N  N428  1  0.131600  0.955000  0.963500  1.0  -0.3739
  N  N429  1  0.071300  0.902200  0.890400  1.0  -0.2931
  N  N430  1  0.026200  0.920400  0.937300  1.0  0.1801
  N  N431  1  0.708600  0.416900  0.034800  1.0  -0.3929
  N  N432  1  0.719200  0.339600  0.113000  1.0  -0.4042
  N  N433  1  0.697100  0.313700  0.056500  1.0  0.1408
  N  N434  1  0.311100  0.026300  0.062000  1.0  -0.42
  N  N435  1  0.422700  0.029500  0.111000  1.0  -0.3859
  N  N436  1  0.385600  0.089700  0.112900  1.0  0.1311
  N  N437  1  0.591300  0.100700  0.891600  1.0  -0.3788
  N  N438  1  0.669100  0.064300  0.964400  1.0  -0.3944
  N  N439  1  0.610200  0.025800  0.965500  1.0  0.1379
  N  N440  1  0.731500  0.598000  0.940700  1.0  -0.3904
  N  N441  1  0.773000  0.697100  0.917500  1.0  0.0475
  N  N442  1  0.751100  0.671700  0.860100  1.0  -0.3647
  N  N443  1  0.471800  0.195000  0.863600  1.0  -0.4016
  N  N444  1  0.380500  0.217100  0.931900  1.0  -0.3647
  N  N445  1  0.414000  0.271300  0.915400  1.0  0.0901
  N  N446  1  0.590600  0.365700  0.239700  1.0  -0.3191
  N  N447  1  0.608500  0.472500  0.235000  1.0  -0.4009
  N  N448  1  0.532800  0.395900  0.221000  1.0  0.1528
  N  N449  1  0.875200  0.913900  0.261600  1.0  -0.4609
  N  N450  1  0.822100  0.007500  0.241600  1.0  -0.2395
  N  N451  1  0.772700  0.958000  0.237200  1.0  -0.033
  N  N452  1  0.368400  0.045000  0.463500  1.0  -0.3744
  N  N453  1  0.428700  0.097800  0.390400  1.0  -0.2948
  N  N454  1  0.473800  0.079600  0.437300  1.0  0.1782
  N  N455  1  0.791400  0.583100  0.534800  1.0  -0.3925
  N  N456  1  0.780800  0.660400  0.613000  1.0  -0.4061
  N  N457  1  0.802900  0.686300  0.556500  1.0  0.1402
  N  N458  1  0.188900  0.973700  0.562000  1.0  -0.4192
  N  N459  1  0.077300  0.970500  0.611000  1.0  -0.3876
  N  N460  1  0.114400  0.910300  0.612900  1.0  0.1318
  N  N461  1  0.908700  0.899300  0.391600  1.0  -0.3796
  N  N462  1  0.830900  0.935700  0.464400  1.0  -0.3955
  N  N463  1  0.889800  0.974200  0.465500  1.0  0.1367
  N  N464  1  0.768500  0.402000  0.440700  1.0  -0.389
  N  N465  1  0.727000  0.302900  0.417500  1.0  0.0476
  N  N466  1  0.748900  0.328300  0.360100  1.0  -0.3671
  N  N467  1  0.028200  0.805000  0.363600  1.0  -0.401
  N  N468  1  0.119500  0.782900  0.431900  1.0  -0.3647
  N  N469  1  0.086000  0.728700  0.415400  1.0  0.0897
  N  N470  1  0.909400  0.634300  0.739700  1.0  -0.3224
  N  N471  1  0.891500  0.527500  0.735000  1.0  -0.4012
  N  N472  1  0.967200  0.604100  0.721000  1.0  0.1495
  N  N473  1  0.375200  0.586100  0.738400  1.0  -0.4595
  N  N474  1  0.322100  0.492500  0.758400  1.0  -0.2375
  N  N475  1  0.272700  0.542000  0.762800  1.0  -0.0319
  N  N476  1  0.868400  0.455000  0.536500  1.0  -0.3736
  N  N477  1  0.928700  0.402200  0.609600  1.0  -0.2954
  N  N478  1  0.973800  0.420400  0.562700  1.0  0.1801
  N  N479  1  0.291400  0.916900  0.465200  1.0  -0.3933
  N  N480  1  0.280800  0.839600  0.387000  1.0  -0.4059
  N  N481  1  0.302900  0.813700  0.443500  1.0  0.1412
  N  N482  1  0.688900  0.526300  0.438000  1.0  -0.4178
  N  N483  1  0.577300  0.529500  0.389000  1.0  -0.387
  N  N484  1  0.614400  0.589700  0.387100  1.0  0.1315
  N  N485  1  0.408700  0.600700  0.608400  1.0  -0.38
  N  N486  1  0.330900  0.564300  0.535600  1.0  -0.3934
  N  N487  1  0.389800  0.525800  0.534500  1.0  0.1365
  N  N488  1  0.268500  0.098000  0.559300  1.0  -0.3891
  N  N489  1  0.227000  0.197100  0.582500  1.0  0.0464
  N  N490  1  0.248900  0.171700  0.639900  1.0  -0.3644
  N  N491  1  0.528200  0.695000  0.636400  1.0  -0.3981
  N  N492  1  0.619500  0.717100  0.568100  1.0  -0.3658
  N  N493  1  0.586000  0.771300  0.584600  1.0  0.093
  N  N494  1  0.409400  0.865700  0.260300  1.0  -0.3208
  N  N495  1  0.391500  0.972500  0.265000  1.0  -0.4007
  N  N496  1  0.467200  0.895900  0.279000  1.0  0.1473
  N  N497  1  0.124800  0.413900  0.238400  1.0  -0.4595
  N  N498  1  0.177900  0.507500  0.258400  1.0  -0.2377
  N  N499  1  0.227300  0.458000  0.262800  1.0  -0.0357
  N  N500  1  0.631600  0.545000  0.036500  1.0  -0.3758
  N  N501  1  0.571300  0.597800  0.109600  1.0  -0.2978
  N  N502  1  0.526200  0.579600  0.062700  1.0  0.1784
  N  N503  1  0.208600  0.083100  0.965200  1.0  -0.3922
  N  N504  1  0.219200  0.160400  0.887000  1.0  -0.4052
  N  N505  1  0.197100  0.186300  0.943500  1.0  0.1405
  N  N506  1  0.811100  0.473700  0.938000  1.0  -0.4198
  N  N507  1  0.922700  0.470500  0.889000  1.0  -0.3886
  N  N508  1  0.885600  0.410300  0.887100  1.0  0.1309
  N  N509  1  0.091300  0.399300  0.108400  1.0  -0.3798
  N  N510  1  0.169100  0.435700  0.035600  1.0  -0.3951
  N  N511  1  0.110200  0.474200  0.034500  1.0  0.1358
  N  N512  1  0.231500  0.902000  0.059300  1.0  -0.3904
  N  N513  1  0.273000  0.802900  0.082500  1.0  0.0464
  N  N514  1  0.251100  0.828300  0.139900  1.0  -0.3664
  N  N515  1  0.971800  0.305000  0.136400  1.0  -0.3989
  N  N516  1  0.880500  0.282900  0.068100  1.0  -0.3655
  N  N517  1  0.914000  0.228700  0.084600  1.0  0.0937
  N  N518  1  0.090600  0.134300  0.760300  1.0  -0.3222
  N  N519  1  0.108500  0.027500  0.765000  1.0  -0.4016
  N  N520  1  0.032800  0.104100  0.779000  1.0  0.1497
  O  O521  1  0.522200  0.567900  0.705800  1.0  -0.7823
  O  O522  1  0.593100  0.512500  0.808300  1.0  -0.6908
  O  O523  1  0.641600  0.526300  0.643000  1.0  -0.6893
  O  O524  1  0.575500  0.436900  0.690600  1.0  -0.863
  O  O525  1  0.714700  0.505300  0.744300  1.0  -0.8271
  O  O526  1  0.710600  0.455300  0.555800  1.0  -0.761
  O  O527  1  0.634100  0.346100  0.601200  1.0  -0.6415
  O  O528  1  0.712900  0.400800  0.680800  1.0  -0.807
  O  O529  1  0.723300  0.280800  0.744000  1.0  -0.694
  O  O530  1  0.592600  0.319600  0.727100  1.0  -0.9009
  O  O531  1  0.619800  0.222100  0.822000  1.0  -0.7275
  O  O532  1  0.606300  0.346600  0.870900  1.0  -0.6547
  O  O533  1  0.655700  0.468000  0.914100  1.0  -0.6867
  O  O534  1  0.519300  0.401000  0.790300  1.0  -0.802
  O  O535  1  0.689700  0.399100  0.799000  1.0  -0.8543
  O  O536  1  0.813200  0.424600  0.756900  1.0  -0.8244
  O  O537  1  0.473500  0.359600  0.689000  1.0  -0.6884
  O  O538  1  0.977800  0.432100  0.205800  1.0  -0.7827
  O  O539  1  0.906900  0.487500  0.308300  1.0  -0.6921
  O  O540  1  0.858400  0.473700  0.143000  1.0  -0.6906
  O  O541  1  0.924500  0.563100  0.190600  1.0  -0.8634
  O  O542  1  0.785300  0.494700  0.244300  1.0  -0.8257
  O  O543  1  0.789400  0.544700  0.055800  1.0  -0.7593
  O  O544  1  0.865900  0.653900  0.101200  1.0  -0.6417
  O  O545  1  0.787100  0.599200  0.180800  1.0  -0.8059
  O  O546  1  0.776700  0.719200  0.244000  1.0  -0.6961
  O  O547  1  0.907400  0.680400  0.227100  1.0  -0.9013
  O  O548  1  0.880200  0.777900  0.322000  1.0  -0.7265
  O  O549  1  0.893700  0.653400  0.370900  1.0  -0.6533
  O  O550  1  0.844300  0.532000  0.414100  1.0  -0.6859
  O  O551  1  0.980700  0.599000  0.290300  1.0  -0.8029
  O  O552  1  0.810300  0.600900  0.299000  1.0  -0.8545
  O  O553  1  0.686800  0.575400  0.256900  1.0  -0.8229
  O  O554  1  0.026500  0.640400  0.189000  1.0  -0.6885
  O  O555  1  0.477800  0.067900  0.794200  1.0  -0.7808
  O  O556  1  0.406900  0.012500  0.691700  1.0  -0.6928
  O  O557  1  0.358400  0.026300  0.857000  1.0  -0.6896
  O  O558  1  0.424500  0.936900  0.809400  1.0  -0.862
  O  O559  1  0.285300  0.005300  0.755700  1.0  -0.8265
  O  O560  1  0.289400  0.955300  0.944200  1.0  -0.7596
  O  O561  1  0.365900  0.846100  0.898800  1.0  -0.6441
  O  O562  1  0.287100  0.900800  0.819200  1.0  -0.8069
  O  O563  1  0.276700  0.780800  0.756000  1.0  -0.6951
  O  O564  1  0.407400  0.819600  0.772900  1.0  -0.9017
  O  O565  1  0.380200  0.722100  0.678000  1.0  -0.728
  O  O566  1  0.393700  0.846600  0.629100  1.0  -0.6558
  O  O567  1  0.344300  0.968000  0.585900  1.0  -0.6847
  O  O568  1  0.480700  0.901000  0.709700  1.0  -0.8023
  O  O569  1  0.310300  0.899100  0.701000  1.0  -0.8553
  O  O570  1  0.186800  0.924600  0.743100  1.0  -0.8239
  O  O571  1  0.526500  0.859600  0.811000  1.0  -0.6879
  O  O572  1  0.022200  0.932100  0.294200  1.0  -0.7805
  O  O573  1  0.093100  0.987500  0.191700  1.0  -0.6924
  O  O574  1  0.141600  0.973700  0.357000  1.0  -0.6896
  O  O575  1  0.075500  0.063100  0.309400  1.0  -0.8614
  O  O576  1  0.214700  0.994700  0.255700  1.0  -0.8265
  O  O577  1  0.210600  0.044700  0.444200  1.0  -0.7611
  O  O578  1  0.134100  0.153900  0.398800  1.0  -0.6423
  O  O579  1  0.212900  0.099200  0.319200  1.0  -0.8064
  O  O580  1  0.223300  0.219200  0.256000  1.0  -0.6962
  O  O581  1  0.092600  0.180400  0.272900  1.0  -0.9024
  O  O582  1  0.119800  0.277900  0.178000  1.0  -0.7277
  O  O583  1  0.106300  0.153400  0.129100  1.0  -0.6546
  O  O584  1  0.155700  0.032000  0.085900  1.0  -0.6866
  O  O585  1  0.019300  0.099000  0.209700  1.0  -0.8023
  O  O586  1  0.189700  0.100900  0.201000  1.0  -0.8545
  O  O587  1  0.313200  0.075400  0.243100  1.0  -0.8228
  O  O588  1  0.973500  0.140400  0.311000  1.0  -0.689
