# generated using pymatgen
data_Ni2H21C34(N3O4)2
_symmetry_space_group_name_H-M   'P 1'
_cell_length_a   22.13960000
_cell_length_b   14.59360000
_cell_length_c   28.12380000
_cell_angle_alpha   90.00000000
_cell_angle_beta   116.31700000
_cell_angle_gamma   90.00000000
_symmetry_Int_Tables_number   1
_chemical_formula_structural   Ni2H21C34(N3O4)2
_chemical_formula_sum   'Ni16 H168 C272 N48 O64'
_cell_volume   8144.90869799
_cell_formula_units_Z   8
loop_
 _symmetry_equiv_pos_site_id
 _symmetry_equiv_pos_as_xyz
  1  'x, y, z'
loop_
 _atom_site_type_symbol
 _atom_site_label
 _atom_site_symmetry_multiplicity
 _atom_site_fract_x
 _atom_site_fract_y
 _atom_site_fract_z
 _atom_site_occupancy
 _atom_site_charge
  Ni  Ni1  1  0.246010  0.671630  0.244300  1.0  0.6062
  Ni  Ni2  1  0.218990  0.994140  0.539440  1.0  0.6205
  Ni  Ni3  1  0.253990  0.171630  0.255700  1.0  0.6064
  Ni  Ni4  1  0.281010  0.494140  0.960560  1.0  0.6232
  Ni  Ni5  1  0.753990  0.328370  0.755700  1.0  0.6066
  Ni  Ni6  1  0.781010  0.005860  0.460560  1.0  0.6235
  Ni  Ni7  1  0.746010  0.828370  0.744300  1.0  0.6064
  Ni  Ni8  1  0.718990  0.505860  0.039440  1.0  0.621
  Ni  Ni9  1  0.746010  0.171630  0.244300  1.0  0.6062
  Ni  Ni10  1  0.718990  0.494140  0.539440  1.0  0.6205
  Ni  Ni11  1  0.753990  0.671630  0.255700  1.0  0.6064
  Ni  Ni12  1  0.781010  0.994140  0.960560  1.0  0.6232
  Ni  Ni13  1  0.253990  0.828370  0.755700  1.0  0.6066
  Ni  Ni14  1  0.281010  0.505860  0.460560  1.0  0.6235
  Ni  Ni15  1  0.246010  0.328370  0.744300  1.0  0.6064
  Ni  Ni16  1  0.218990  0.005860  0.039440  1.0  0.621
  H  H17  1  0.545500  0.773700  0.436200  1.0  0.1208
  H  H18  1  0.079100  0.784000  0.338400  1.0  0.1159
  H  H19  1  0.476700  0.000600  0.572200  1.0  0.1231
  H  H20  1  0.213800  0.920300  0.305500  1.0  0.1118
  H  H21  1  0.451700  0.721600  0.552300  1.0  0.1143
  H  H22  1  0.603800  0.814800  0.524500  1.0  0.1228
  H  H23  1  0.329200  0.706900  0.370600  1.0  0.1
  H  H24  1  0.854900  0.883700  0.303400  1.0  0.1014
  H  H25  1  0.665800  0.784800  0.618000  1.0  0.1113
  H  H26  1  0.368800  0.017200  0.553500  1.0  0.1048
  H  H27  1  0.218100  0.911300  0.431700  1.0  0.1045
  H  H28  1  0.949400  0.865700  0.289600  1.0  0.1173
  H  H29  1  0.500100  0.672900  0.361000  1.0  0.1477
  H  H30  1  0.414300  0.970700  0.416100  1.0  0.1288
  H  H31  1  0.090800  0.056500  0.350400  1.0  0.1204
  H  H32  1  0.392600  0.677500  0.462500  1.0  0.1301
  H  H33  1  0.967700  0.998700  0.445400  1.0  0.1134
  H  H34  1  0.405600  0.639300  0.274900  1.0  0.1073
  H  H35  1  0.586700  0.860500  0.711300  1.0  0.1102
  H  H36  1  0.493400  0.832100  0.623800  1.0  0.1556
  H  H37  1  0.317400  0.908700  0.412800  1.0  0.1366
  H  H38  1  0.954500  0.273700  0.063800  1.0  0.1211
  H  H39  1  0.420900  0.284000  0.161600  1.0  0.1162
  H  H40  1  0.023300  0.500600  0.927800  1.0  0.1238
  H  H41  1  0.286200  0.420300  0.194500  1.0  0.1124
  H  H42  1  0.048300  0.221600  0.947700  1.0  0.1152
  H  H43  1  0.896200  0.314800  0.975500  1.0  0.1217
  H  H44  1  0.170800  0.206900  0.129400  1.0  0.1002
  H  H45  1  0.645100  0.383700  0.196600  1.0  0.1019
  H  H46  1  0.834200  0.284800  0.882000  1.0  0.1127
  H  H47  1  0.131200  0.517200  0.946500  1.0  0.1039
  H  H48  1  0.281900  0.411300  0.068300  1.0  0.1047
  H  H49  1  0.550600  0.365700  0.210400  1.0  0.1168
  H  H50  1  0.999900  0.172900  0.139000  1.0  0.1479
  H  H51  1  0.085700  0.470700  0.083900  1.0  0.1291
  H  H52  1  0.409200  0.556500  0.149600  1.0  0.1204
  H  H53  1  0.107400  0.177500  0.037500  1.0  0.1306
  H  H54  1  0.532300  0.498700  0.054600  1.0  0.1131
  H  H55  1  0.094400  0.139300  0.225100  1.0  0.1074
  H  H56  1  0.913300  0.360500  0.788700  1.0  0.1092
  H  H57  1  0.006600  0.332100  0.876200  1.0  0.1551
  H  H58  1  0.182600  0.408700  0.087200  1.0  0.1364
  H  H59  1  0.454500  0.226300  0.563800  1.0  0.1214
  H  H60  1  0.920900  0.216000  0.661600  1.0  0.1165
  H  H61  1  0.523300  0.999400  0.427800  1.0  0.1235
  H  H62  1  0.786200  0.079700  0.694500  1.0  0.1124
  H  H63  1  0.548300  0.278400  0.447700  1.0  0.1149
  H  H64  1  0.396200  0.185200  0.475500  1.0  0.1225
  H  H65  1  0.670800  0.293100  0.629400  1.0  0.1002
  H  H66  1  0.145100  0.116300  0.696600  1.0  0.102
  H  H67  1  0.334200  0.215200  0.382000  1.0  0.1126
  H  H68  1  0.631200  0.982800  0.446500  1.0  0.1034
  H  H69  1  0.781900  0.088700  0.568300  1.0  0.1051
  H  H70  1  0.050600  0.134300  0.710400  1.0  0.1166
  H  H71  1  0.499900  0.327100  0.639000  1.0  0.1469
  H  H72  1  0.585700  0.029300  0.583900  1.0  0.1285
  H  H73  1  0.909200  0.943500  0.649600  1.0  0.1209
  H  H74  1  0.607400  0.322500  0.537500  1.0  0.131
  H  H75  1  0.032300  0.001300  0.554600  1.0  0.1133
  H  H76  1  0.594400  0.360700  0.725100  1.0  0.1074
  H  H77  1  0.413300  0.139500  0.288700  1.0  0.1099
  H  H78  1  0.506600  0.167900  0.376200  1.0  0.1548
  H  H79  1  0.682600  0.091300  0.587200  1.0  0.1358
  H  H80  1  0.045500  0.726300  0.936200  1.0  0.1209
  H  H81  1  0.579100  0.716000  0.838400  1.0  0.1165
  H  H82  1  0.976700  0.499400  0.072200  1.0  0.1234
  H  H83  1  0.713800  0.579700  0.805500  1.0  0.1118
  H  H84  1  0.951700  0.778400  0.052300  1.0  0.1142
  H  H85  1  0.103800  0.685200  0.024500  1.0  0.1229
  H  H86  1  0.829200  0.793100  0.870600  1.0  0.1003
  H  H87  1  0.354900  0.616300  0.803400  1.0  0.1016
  H  H88  1  0.165800  0.715200  0.118000  1.0  0.1111
  H  H89  1  0.868800  0.482800  0.053500  1.0  0.1053
  H  H90  1  0.718100  0.588700  0.931700  1.0  0.1047
  H  H91  1  0.449400  0.634300  0.789600  1.0  0.117
  H  H92  1  0.000100  0.827100  0.861000  1.0  0.1467
  H  H93  1  0.914300  0.529300  0.916100  1.0  0.1287
  H  H94  1  0.590800  0.443500  0.850400  1.0  0.1208
  H  H95  1  0.892600  0.822500  0.962500  1.0  0.1301
  H  H96  1  0.467700  0.501300  0.945400  1.0  0.1134
  H  H97  1  0.905600  0.860700  0.774900  1.0  0.1081
  H  H98  1  0.086700  0.639500  0.211300  1.0  0.111
  H  H99  1  0.993400  0.667900  0.123800  1.0  0.1551
  H  H100  1  0.817400  0.591300  0.912800  1.0  0.1365
  H  H101  1  0.045500  0.273700  0.436200  1.0  0.1208
  H  H102  1  0.579100  0.284000  0.338400  1.0  0.1172
  H  H103  1  0.976700  0.500600  0.572200  1.0  0.1231
  H  H104  1  0.713800  0.420300  0.305500  1.0  0.1118
  H  H105  1  0.951700  0.221600  0.552300  1.0  0.1149
  H  H106  1  0.103800  0.314800  0.524500  1.0  0.1228
  H  H107  1  0.829200  0.206900  0.370600  1.0  0.1
  H  H108  1  0.354900  0.383700  0.303400  1.0  0.1014
  H  H109  1  0.165800  0.284800  0.618000  1.0  0.1113
  H  H110  1  0.868800  0.517200  0.553500  1.0  0.1048
  H  H111  1  0.718100  0.411300  0.431700  1.0  0.1045
  H  H112  1  0.449400  0.365700  0.289600  1.0  0.1173
  H  H113  1  0.000100  0.172900  0.361000  1.0  0.1477
  H  H114  1  0.914300  0.470700  0.416100  1.0  0.1288
  H  H115  1  0.590800  0.556500  0.350400  1.0  0.1204
  H  H116  1  0.892600  0.177500  0.462500  1.0  0.1301
  H  H117  1  0.467700  0.498700  0.445400  1.0  0.1134
  H  H118  1  0.905600  0.139300  0.274900  1.0  0.1073
  H  H119  1  0.086700  0.360500  0.711300  1.0  0.1102
  H  H120  1  0.993400  0.332100  0.623800  1.0  0.1556
  H  H121  1  0.817400  0.408700  0.412800  1.0  0.1366
  H  H122  1  0.454500  0.773700  0.063800  1.0  0.1211
  H  H123  1  0.920900  0.784000  0.161600  1.0  0.1175
  H  H124  1  0.523300  0.000600  0.927800  1.0  0.1238
  H  H125  1  0.786200  0.920300  0.194500  1.0  0.1124
  H  H126  1  0.548300  0.721600  0.947700  1.0  0.1155
  H  H127  1  0.396200  0.814800  0.975500  1.0  0.1217
  H  H128  1  0.670800  0.706900  0.129400  1.0  0.1002
  H  H129  1  0.145100  0.883700  0.196600  1.0  0.1019
  H  H130  1  0.334200  0.784800  0.882000  1.0  0.1127
  H  H131  1  0.631200  0.017200  0.946500  1.0  0.1039
  H  H132  1  0.781900  0.911300  0.068300  1.0  0.1047
  H  H133  1  0.050600  0.865700  0.210400  1.0  0.1168
  H  H134  1  0.499900  0.672900  0.139000  1.0  0.1479
  H  H135  1  0.585700  0.970700  0.083900  1.0  0.1291
  H  H136  1  0.909200  0.056500  0.149600  1.0  0.1204
  H  H137  1  0.607400  0.677500  0.037500  1.0  0.1306
  H  H138  1  0.032300  0.998700  0.054600  1.0  0.1131
  H  H139  1  0.594400  0.639300  0.225100  1.0  0.1074
  H  H140  1  0.413300  0.860500  0.788700  1.0  0.1092
  H  H141  1  0.506600  0.832100  0.876200  1.0  0.1551
  H  H142  1  0.682600  0.908700  0.087200  1.0  0.1364
  H  H143  1  0.954500  0.726300  0.563800  1.0  0.1214
  H  H144  1  0.420900  0.716000  0.661600  1.0  0.1177
  H  H145  1  0.023300  0.499400  0.427800  1.0  0.1235
  H  H146  1  0.286200  0.579700  0.694500  1.0  0.1124
  H  H147  1  0.048300  0.778400  0.447700  1.0  0.1153
  H  H148  1  0.896200  0.685200  0.475500  1.0  0.1225
  H  H149  1  0.170800  0.793100  0.629400  1.0  0.1002
  H  H150  1  0.645100  0.616300  0.696600  1.0  0.102
  H  H151  1  0.834200  0.715200  0.382000  1.0  0.1126
  H  H152  1  0.131200  0.482800  0.446500  1.0  0.1034
  H  H153  1  0.281900  0.588700  0.568300  1.0  0.1051
  H  H154  1  0.550600  0.634300  0.710400  1.0  0.1166
  H  H155  1  0.999900  0.827100  0.639000  1.0  0.1469
  H  H156  1  0.085700  0.529300  0.583900  1.0  0.1285
  H  H157  1  0.409200  0.443500  0.649600  1.0  0.1209
  H  H158  1  0.107400  0.822500  0.537500  1.0  0.131
  H  H159  1  0.532300  0.501300  0.554600  1.0  0.1133
  H  H160  1  0.094400  0.860700  0.725100  1.0  0.1074
  H  H161  1  0.913300  0.639500  0.288700  1.0  0.1099
  H  H162  1  0.006600  0.667900  0.376200  1.0  0.1548
  H  H163  1  0.182600  0.591300  0.587200  1.0  0.1358
  H  H164  1  0.545500  0.226300  0.936200  1.0  0.1209
  H  H165  1  0.079100  0.216000  0.838400  1.0  0.1178
  H  H166  1  0.476700  0.999400  0.072200  1.0  0.1234
  H  H167  1  0.213800  0.079700  0.805500  1.0  0.1118
  H  H168  1  0.451700  0.278400  0.052300  1.0  0.1148
  H  H169  1  0.603800  0.185200  0.024500  1.0  0.1229
  H  H170  1  0.329200  0.293100  0.870600  1.0  0.1003
  H  H171  1  0.854900  0.116300  0.803400  1.0  0.1016
  H  H172  1  0.665800  0.215200  0.118000  1.0  0.1111
  H  H173  1  0.368800  0.982800  0.053500  1.0  0.1053
  H  H174  1  0.218100  0.088700  0.931700  1.0  0.1047
  H  H175  1  0.949400  0.134300  0.789600  1.0  0.117
  H  H176  1  0.500100  0.327100  0.861000  1.0  0.1467
  H  H177  1  0.414300  0.029300  0.916100  1.0  0.1287
  H  H178  1  0.090800  0.943500  0.850400  1.0  0.1208
  H  H179  1  0.392600  0.322500  0.962500  1.0  0.1301
  H  H180  1  0.967700  0.001300  0.945400  1.0  0.1134
  H  H181  1  0.405600  0.360700  0.774900  1.0  0.1081
  H  H182  1  0.586700  0.139500  0.211300  1.0  0.111
  H  H183  1  0.493400  0.167900  0.123800  1.0  0.1551
  H  H184  1  0.317400  0.091300  0.912800  1.0  0.1365
  C  C185  1  0.021600  0.964200  0.405300  1.0  -0.0926
  C  C186  1  0.526400  0.763700  0.459400  1.0  -0.1105
  C  C187  1  0.098600  0.839000  0.335600  1.0  -0.0548
  C  C188  1  0.075000  0.920700  0.346000  1.0  -0.0168
  C  C189  1  0.486100  0.000500  0.543000  1.0  -0.1425
  C  C190  1  0.016500  0.924200  0.358800  1.0  0.0175
  C  C191  1  0.179300  0.920500  0.315900  1.0  -0.0223
  C  C192  1  0.470100  0.732100  0.528800  1.0  -0.1238
  C  C193  1  0.561300  0.788300  0.512200  1.0  -0.1497
  C  C194  1  0.360000  0.694700  0.357200  1.0  0.1664
  C  C195  1  0.463500  0.724300  0.441100  1.0  0.1624
  C  C196  1  0.896600  0.903200  0.329100  1.0  -0.0234
  C  C197  1  0.840100  0.953500  0.385400  1.0  0.7067
  C  C198  1  0.533300  0.773700  0.546400  1.0  0.1682
  C  C199  1  0.634700  0.799700  0.630700  1.0  0.1499
  C  C200  1  0.435400  0.983600  0.493600  1.0  0.0974
  C  C201  1  0.343400  0.990300  0.520600  1.0  0.1919
  C  C202  1  0.261000  0.932400  0.454200  1.0  0.0301
  C  C203  1  0.953200  0.893100  0.320600  1.0  -0.0955
  C  C204  1  0.087300  0.003800  0.445800  1.0  0.6862
  C  C205  1  0.454500  0.675800  0.352600  1.0  -0.1513
  C  C206  1  0.448600  0.982600  0.449800  1.0  -0.1546
  C  C207  1  0.156500  0.003700  0.326000  1.0  -0.1698
  C  C208  1  0.901600  0.942700  0.376200  1.0  -0.1337
  C  C209  1  0.105200  0.001600  0.342000  1.0  -0.0753
  C  C210  1  0.434400  0.706000  0.474900  1.0  -0.1373
  C  C211  1  0.151500  0.837700  0.321000  1.0  -0.1716
  C  C212  1  0.964000  0.972700  0.414000  1.0  -0.0155
  C  C213  1  0.401900  0.657900  0.305100  1.0  0.0304
  C  C214  1  0.591300  0.841200  0.681600  1.0  0.0432
  C  C215  1  0.539100  0.825800  0.633200  1.0  -0.1522
  C  C216  1  0.186600  0.089800  0.318700  1.0  0.7205
  C  C217  1  0.316100  0.930900  0.443300  1.0  -0.1145
  C  C218  1  0.177500  0.750500  0.308300  1.0  0.7477
  C  C219  1  0.478400  0.464200  0.094700  1.0  -0.0934
  C  C220  1  0.973600  0.263700  0.040600  1.0  -0.1087
  C  C221  1  0.401400  0.339000  0.164400  1.0  -0.0547
  C  C222  1  0.425000  0.420700  0.154000  1.0  -0.0178
  C  C223  1  0.013900  0.500500  0.957000  1.0  -0.1428
  C  C224  1  0.483500  0.424200  0.141200  1.0  0.0164
  C  C225  1  0.320700  0.420500  0.184100  1.0  -0.0212
  C  C226  1  0.029900  0.232100  0.971200  1.0  -0.1227
  C  C227  1  0.938700  0.288300  0.987800  1.0  -0.1503
  C  C228  1  0.140000  0.194700  0.142800  1.0  0.1667
  C  C229  1  0.036500  0.224300  0.058900  1.0  0.1625
  C  C230  1  0.603400  0.403200  0.170900  1.0  -0.0237
  C  C231  1  0.659900  0.453500  0.114600  1.0  0.7073
  C  C232  1  0.966700  0.273700  0.953600  1.0  0.1667
  C  C233  1  0.865300  0.299700  0.869300  1.0  0.1474
  C  C234  1  0.064600  0.483600  0.006400  1.0  0.0983
  C  C235  1  0.156600  0.490300  0.979400  1.0  0.1915
  C  C236  1  0.239000  0.432400  0.045800  1.0  0.0299
  C  C237  1  0.546800  0.393100  0.179400  1.0  -0.0961
  C  C238  1  0.412700  0.503800  0.054200  1.0  0.6879
  C  C239  1  0.045500  0.175800  0.147400  1.0  -0.1508
  C  C240  1  0.051400  0.482600  0.050200  1.0  -0.1554
  C  C241  1  0.343500  0.503700  0.174000  1.0  -0.1696
  C  C242  1  0.598400  0.442700  0.123800  1.0  -0.1321
  C  C243  1  0.394800  0.501600  0.158000  1.0  -0.0747
  C  C244  1  0.065600  0.206000  0.025100  1.0  -0.139
  C  C245  1  0.348500  0.337700  0.179000  1.0  -0.1717
  C  C246  1  0.536000  0.472700  0.086000  1.0  -0.0139
  C  C247  1  0.098100  0.157900  0.194900  1.0  0.0308
  C  C248  1  0.908700  0.341200  0.818400  1.0  0.0438
  C  C249  1  0.960900  0.325800  0.866800  1.0  -0.1524
  C  C250  1  0.313400  0.589800  0.181300  1.0  0.7213
  C  C251  1  0.183900  0.430900  0.056700  1.0  -0.1136
  C  C252  1  0.322500  0.250500  0.191700  1.0  0.7483
  C  C253  1  0.978400  0.035800  0.594700  1.0  -0.0938
  C  C254  1  0.473600  0.236300  0.540600  1.0  -0.1089
  C  C255  1  0.901400  0.161000  0.664400  1.0  -0.0555
  C  C256  1  0.925000  0.079300  0.654000  1.0  -0.0177
  C  C257  1  0.513900  0.999500  0.457000  1.0  -0.1417
  C  C258  1  0.983500  0.075800  0.641200  1.0  0.0165
  C  C259  1  0.820700  0.079500  0.684100  1.0  -0.0212
  C  C260  1  0.529900  0.267900  0.471200  1.0  -0.1232
  C  C261  1  0.438700  0.211700  0.487800  1.0  -0.1507
  C  C262  1  0.640000  0.305300  0.642800  1.0  0.1664
  C  C263  1  0.536500  0.275700  0.558900  1.0  0.1625
  C  C264  1  0.103400  0.096800  0.670900  1.0  -0.0243
  C  C265  1  0.159900  0.046500  0.614600  1.0  0.7068
  C  C266  1  0.466700  0.226300  0.453600  1.0  0.1668
  C  C267  1  0.365300  0.200300  0.369300  1.0  0.1471
  C  C268  1  0.564600  0.016400  0.506400  1.0  0.0984
  C  C269  1  0.656600  0.009700  0.479400  1.0  0.1924
  C  C270  1  0.739000  0.067600  0.545800  1.0  0.0319
  C  C271  1  0.046800  0.106900  0.679400  1.0  -0.0959
  C  C272  1  0.912700  0.996200  0.554200  1.0  0.6879
  C  C273  1  0.545500  0.324200  0.647400  1.0  -0.1519
  C  C274  1  0.551400  0.017400  0.550200  1.0  -0.1557
  C  C275  1  0.843500  0.996300  0.674000  1.0  -0.1702
  C  C276  1  0.098400  0.057300  0.623800  1.0  -0.1318
  C  C277  1  0.894800  0.998400  0.658000  1.0  -0.0756
  C  C278  1  0.565600  0.294000  0.525100  1.0  -0.1392
  C  C279  1  0.848500  0.162300  0.679000  1.0  -0.1718
  C  C280  1  0.036000  0.027300  0.586000  1.0  -0.0137
  C  C281  1  0.598100  0.342100  0.694900  1.0  0.0297
  C  C282  1  0.408700  0.158800  0.318400  1.0  0.0433
  C  C283  1  0.460900  0.174200  0.366800  1.0  -0.1524
  C  C284  1  0.813400  0.910200  0.681300  1.0  0.7214
  C  C285  1  0.683900  0.069100  0.556700  1.0  -0.1145
  C  C286  1  0.822500  0.249500  0.691700  1.0  0.7485
  C  C287  1  0.521600  0.535800  0.905300  1.0  -0.0923
  C  C288  1  0.026400  0.736300  0.959400  1.0  -0.1101
  C  C289  1  0.598600  0.661000  0.835600  1.0  -0.0564
  C  C290  1  0.575000  0.579300  0.846000  1.0  -0.0168
  C  C291  1  0.986100  0.499500  0.043000  1.0  -0.1422
  C  C292  1  0.516500  0.575800  0.858800  1.0  0.0175
  C  C293  1  0.679300  0.579500  0.815900  1.0  -0.0223
  C  C294  1  0.970100  0.767900  0.028800  1.0  -0.1242
  C  C295  1  0.061300  0.711700  0.012200  1.0  -0.1502
  C  C296  1  0.860000  0.805300  0.857200  1.0  0.1663
  C  C297  1  0.963500  0.775700  0.941100  1.0  0.1625
  C  C298  1  0.396600  0.596800  0.829100  1.0  -0.0238
  C  C299  1  0.340100  0.546500  0.885400  1.0  0.7065
  C  C300  1  0.033300  0.726300  0.046400  1.0  0.1682
  C  C301  1  0.134700  0.700300  0.130700  1.0  0.1494
  C  C302  1  0.935400  0.516400  0.993600  1.0  0.0975
  C  C303  1  0.843400  0.509700  0.020600  1.0  0.1933
  C  C304  1  0.761000  0.567600  0.954200  1.0  0.0319
  C  C305  1  0.453200  0.606900  0.820600  1.0  -0.0958
  C  C306  1  0.587300  0.496200  0.945800  1.0  0.6867
  C  C307  1  0.954500  0.824200  0.852600  1.0  -0.1524
  C  C308  1  0.948600  0.517400  0.949800  1.0  -0.1549
  C  C309  1  0.656500  0.496300  0.826000  1.0  -0.1708
  C  C310  1  0.401600  0.557300  0.876200  1.0  -0.1336
  C  C311  1  0.605200  0.498400  0.842000  1.0  -0.0753
  C  C312  1  0.934400  0.794000  0.974900  1.0  -0.1374
  C  C313  1  0.651500  0.662300  0.821000  1.0  -0.1721
  C  C314  1  0.464000  0.527300  0.914000  1.0  -0.0153
  C  C315  1  0.901900  0.842100  0.805100  1.0  0.0302
  C  C316  1  0.091300  0.658800  0.181600  1.0  0.0437
  C  C317  1  0.039100  0.674200  0.133200  1.0  -0.1504
  C  C318  1  0.686600  0.410200  0.818700  1.0  0.7209
  C  C319  1  0.816100  0.569100  0.943300  1.0  -0.1142
  C  C320  1  0.677500  0.749500  0.808300  1.0  0.7485
  C  C321  1  0.521600  0.464200  0.405300  1.0  -0.0926
  C  C322  1  0.026400  0.263700  0.459400  1.0  -0.1105
  C  C323  1  0.598600  0.339000  0.335600  1.0  -0.0548
  C  C324  1  0.575000  0.420700  0.346000  1.0  -0.0168
  C  C325  1  0.986100  0.500500  0.543000  1.0  -0.1425
  C  C326  1  0.516500  0.424200  0.358800  1.0  0.0175
  C  C327  1  0.679300  0.420500  0.315900  1.0  -0.0223
  C  C328  1  0.970100  0.232100  0.528800  1.0  -0.1238
  C  C329  1  0.061300  0.288300  0.512200  1.0  -0.1497
  C  C330  1  0.860000  0.194700  0.357200  1.0  0.1664
  C  C331  1  0.963500  0.224300  0.441100  1.0  0.1624
  C  C332  1  0.396600  0.403200  0.329100  1.0  -0.0234
  C  C333  1  0.340100  0.453500  0.385400  1.0  0.7067
  C  C334  1  0.033300  0.273700  0.546400  1.0  0.1682
  C  C335  1  0.134700  0.299700  0.630700  1.0  0.1499
  C  C336  1  0.935400  0.483600  0.493600  1.0  0.0974
  C  C337  1  0.843400  0.490300  0.520600  1.0  0.1919
  C  C338  1  0.761000  0.432400  0.454200  1.0  0.0301
  C  C339  1  0.453200  0.393100  0.320600  1.0  -0.0955
  C  C340  1  0.587300  0.503800  0.445800  1.0  0.6862
  C  C341  1  0.954500  0.175800  0.352600  1.0  -0.1513
  C  C342  1  0.948600  0.482600  0.449800  1.0  -0.1546
  C  C343  1  0.656500  0.503700  0.326000  1.0  -0.1698
  C  C344  1  0.401600  0.442700  0.376200  1.0  -0.1337
  C  C345  1  0.605200  0.501600  0.342000  1.0  -0.0753
  C  C346  1  0.934400  0.206000  0.474900  1.0  -0.1373
  C  C347  1  0.651500  0.337700  0.321000  1.0  -0.1716
  C  C348  1  0.464000  0.472700  0.414000  1.0  -0.0155
  C  C349  1  0.901900  0.157900  0.305100  1.0  0.0304
  C  C350  1  0.091300  0.341200  0.681600  1.0  0.0432
  C  C351  1  0.039100  0.325800  0.633200  1.0  -0.1522
  C  C352  1  0.686600  0.589800  0.318700  1.0  0.7205
  C  C353  1  0.816100  0.430900  0.443300  1.0  -0.1145
  C  C354  1  0.677500  0.250500  0.308300  1.0  0.7477
  C  C355  1  0.978400  0.964200  0.094700  1.0  -0.0934
  C  C356  1  0.473600  0.763700  0.040600  1.0  -0.1087
  C  C357  1  0.901400  0.839000  0.164400  1.0  -0.0547
  C  C358  1  0.925000  0.920700  0.154000  1.0  -0.0178
  C  C359  1  0.513900  0.000500  0.957000  1.0  -0.1428
  C  C360  1  0.983500  0.924200  0.141200  1.0  0.0164
  C  C361  1  0.820700  0.920500  0.184100  1.0  -0.0212
  C  C362  1  0.529900  0.732100  0.971200  1.0  -0.1227
  C  C363  1  0.438700  0.788300  0.987800  1.0  -0.1503
  C  C364  1  0.640000  0.694700  0.142800  1.0  0.1667
  C  C365  1  0.536500  0.724300  0.058900  1.0  0.1625
  C  C366  1  0.103400  0.903200  0.170900  1.0  -0.0237
  C  C367  1  0.159900  0.953500  0.114600  1.0  0.7073
  C  C368  1  0.466700  0.773700  0.953600  1.0  0.1667
  C  C369  1  0.365300  0.799700  0.869300  1.0  0.1474
  C  C370  1  0.564600  0.983600  0.006400  1.0  0.0983
  C  C371  1  0.656600  0.990300  0.979400  1.0  0.1915
  C  C372  1  0.739000  0.932400  0.045800  1.0  0.0299
  C  C373  1  0.046800  0.893100  0.179400  1.0  -0.0961
  C  C374  1  0.912700  0.003800  0.054200  1.0  0.6879
  C  C375  1  0.545500  0.675800  0.147400  1.0  -0.1508
  C  C376  1  0.551400  0.982600  0.050200  1.0  -0.1554
  C  C377  1  0.843500  0.003700  0.174000  1.0  -0.1696
  C  C378  1  0.098400  0.942700  0.123800  1.0  -0.1321
  C  C379  1  0.894800  0.001600  0.158000  1.0  -0.0747
  C  C380  1  0.565600  0.706000  0.025100  1.0  -0.139
  C  C381  1  0.848500  0.837700  0.179000  1.0  -0.1717
  C  C382  1  0.036000  0.972700  0.086000  1.0  -0.0139
  C  C383  1  0.598100  0.657900  0.194900  1.0  0.0308
  C  C384  1  0.408700  0.841200  0.818400  1.0  0.0438
  C  C385  1  0.460900  0.825800  0.866800  1.0  -0.1524
  C  C386  1  0.813400  0.089800  0.181300  1.0  0.7213
  C  C387  1  0.683900  0.930900  0.056700  1.0  -0.1136
  C  C388  1  0.822500  0.750500  0.191700  1.0  0.7483
  C  C389  1  0.478400  0.535800  0.594700  1.0  -0.0938
  C  C390  1  0.973600  0.736300  0.540600  1.0  -0.1089
  C  C391  1  0.401400  0.661000  0.664400  1.0  -0.0555
  C  C392  1  0.425000  0.579300  0.654000  1.0  -0.0177
  C  C393  1  0.013900  0.499500  0.457000  1.0  -0.1417
  C  C394  1  0.483500  0.575800  0.641200  1.0  0.0165
  C  C395  1  0.320700  0.579500  0.684100  1.0  -0.0212
  C  C396  1  0.029900  0.767900  0.471200  1.0  -0.1232
  C  C397  1  0.938700  0.711700  0.487800  1.0  -0.1507
  C  C398  1  0.140000  0.805300  0.642800  1.0  0.1664
  C  C399  1  0.036500  0.775700  0.558900  1.0  0.1625
  C  C400  1  0.603400  0.596800  0.670900  1.0  -0.0243
  C  C401  1  0.659900  0.546500  0.614600  1.0  0.7068
  C  C402  1  0.966700  0.726300  0.453600  1.0  0.1668
  C  C403  1  0.865300  0.700300  0.369300  1.0  0.1471
  C  C404  1  0.064600  0.516400  0.506400  1.0  0.0984
  C  C405  1  0.156600  0.509700  0.479400  1.0  0.1924
  C  C406  1  0.239000  0.567600  0.545800  1.0  0.0319
  C  C407  1  0.546800  0.606900  0.679400  1.0  -0.0959
  C  C408  1  0.412700  0.496200  0.554200  1.0  0.6879
  C  C409  1  0.045500  0.824200  0.647400  1.0  -0.1519
  C  C410  1  0.051400  0.517400  0.550200  1.0  -0.1557
  C  C411  1  0.343500  0.496300  0.674000  1.0  -0.1702
  C  C412  1  0.598400  0.557300  0.623800  1.0  -0.1318
  C  C413  1  0.394800  0.498400  0.658000  1.0  -0.0756
  C  C414  1  0.065600  0.794000  0.525100  1.0  -0.1392
  C  C415  1  0.348500  0.662300  0.679000  1.0  -0.1718
  C  C416  1  0.536000  0.527300  0.586000  1.0  -0.0137
  C  C417  1  0.098100  0.842100  0.694900  1.0  0.0297
  C  C418  1  0.908700  0.658800  0.318400  1.0  0.0433
  C  C419  1  0.960900  0.674200  0.366800  1.0  -0.1524
  C  C420  1  0.313400  0.410200  0.681300  1.0  0.7214
  C  C421  1  0.183900  0.569100  0.556700  1.0  -0.1145
  C  C422  1  0.322500  0.749500  0.691700  1.0  0.7485
  C  C423  1  0.021600  0.035800  0.905300  1.0  -0.0923
  C  C424  1  0.526400  0.236300  0.959400  1.0  -0.1101
  C  C425  1  0.098600  0.161000  0.835600  1.0  -0.0564
  C  C426  1  0.075000  0.079300  0.846000  1.0  -0.0168
  C  C427  1  0.486100  0.999500  0.043000  1.0  -0.1422
  C  C428  1  0.016500  0.075800  0.858800  1.0  0.0175
  C  C429  1  0.179300  0.079500  0.815900  1.0  -0.0223
  C  C430  1  0.470100  0.267900  0.028800  1.0  -0.1242
  C  C431  1  0.561300  0.211700  0.012200  1.0  -0.1502
  C  C432  1  0.360000  0.305300  0.857200  1.0  0.1663
  C  C433  1  0.463500  0.275700  0.941100  1.0  0.1625
  C  C434  1  0.896600  0.096800  0.829100  1.0  -0.0238
  C  C435  1  0.840100  0.046500  0.885400  1.0  0.7065
  C  C436  1  0.533300  0.226300  0.046400  1.0  0.1682
  C  C437  1  0.634700  0.200300  0.130700  1.0  0.1494
  C  C438  1  0.435400  0.016400  0.993600  1.0  0.0975
  C  C439  1  0.343400  0.009700  0.020600  1.0  0.1933
  C  C440  1  0.261000  0.067600  0.954200  1.0  0.0319
  C  C441  1  0.953200  0.106900  0.820600  1.0  -0.0958
  C  C442  1  0.087300  0.996200  0.945800  1.0  0.6867
  C  C443  1  0.454500  0.324200  0.852600  1.0  -0.1524
  C  C444  1  0.448600  0.017400  0.949800  1.0  -0.1549
  C  C445  1  0.156500  0.996300  0.826000  1.0  -0.1708
  C  C446  1  0.901600  0.057300  0.876200  1.0  -0.1336
  C  C447  1  0.105200  0.998400  0.842000  1.0  -0.0753
  C  C448  1  0.434400  0.294000  0.974900  1.0  -0.1374
  C  C449  1  0.151500  0.162300  0.821000  1.0  -0.1721
  C  C450  1  0.964000  0.027300  0.914000  1.0  -0.0153
  C  C451  1  0.401900  0.342100  0.805100  1.0  0.0302
  C  C452  1  0.591300  0.158800  0.181600  1.0  0.0437
  C  C453  1  0.539100  0.174200  0.133200  1.0  -0.1504
  C  C454  1  0.186600  0.910200  0.818700  1.0  0.7209
  C  C455  1  0.316100  0.069100  0.943300  1.0  -0.1142
  C  C456  1  0.177500  0.249500  0.808300  1.0  0.7485
  N  N457  1  0.342700  0.671100  0.308000  1.0  -0.3479
  N  N458  1  0.279500  0.969500  0.502700  1.0  -0.3637
  N  N459  1  0.651200  0.824600  0.680500  1.0  -0.3661
  N  N460  1  0.567800  0.799100  0.601100  1.0  0.0497
  N  N461  1  0.426700  0.699000  0.386000  1.0  0.0414
  N  N462  1  0.368200  0.968600  0.486400  1.0  0.0516
  N  N463  1  0.157300  0.171100  0.192000  1.0  -0.3514
  N  N464  1  0.220500  0.469500  0.997300  1.0  -0.3636
  N  N465  1  0.848800  0.324600  0.819500  1.0  -0.3664
  N  N466  1  0.932200  0.299100  0.898900  1.0  0.0495
  N  N467  1  0.073300  0.199000  0.114000  1.0  0.0411
  N  N468  1  0.131800  0.468600  0.013600  1.0  0.053
  N  N469  1  0.657300  0.328900  0.692000  1.0  -0.3508
  N  N470  1  0.720500  0.030500  0.497300  1.0  -0.364
  N  N471  1  0.348800  0.175400  0.319500  1.0  -0.3666
  N  N472  1  0.432200  0.200900  0.398900  1.0  0.0503
  N  N473  1  0.573300  0.301000  0.614000  1.0  0.0402
  N  N474  1  0.631800  0.031400  0.513600  1.0  0.053
  N  N475  1  0.842700  0.828900  0.808000  1.0  -0.3478
  N  N476  1  0.779500  0.530500  0.002700  1.0  -0.3634
  N  N477  1  0.151200  0.675400  0.180500  1.0  -0.3638
  N  N478  1  0.067800  0.700900  0.101100  1.0  0.0503
  N  N479  1  0.926700  0.801000  0.886000  1.0  0.0402
  N  N480  1  0.868200  0.531400  0.986400  1.0  0.0518
  N  N481  1  0.842700  0.171100  0.308000  1.0  -0.3479
  N  N482  1  0.779500  0.469500  0.502700  1.0  -0.3637
  N  N483  1  0.151200  0.324600  0.680500  1.0  -0.3661
  N  N484  1  0.067800  0.299100  0.601100  1.0  0.0497
  N  N485  1  0.926700  0.199000  0.386000  1.0  0.0414
  N  N486  1  0.868200  0.468600  0.486400  1.0  0.0516
  N  N487  1  0.657300  0.671100  0.192000  1.0  -0.3514
  N  N488  1  0.720500  0.969500  0.997300  1.0  -0.3636
  N  N489  1  0.348800  0.824600  0.819500  1.0  -0.3664
  N  N490  1  0.432200  0.799100  0.898900  1.0  0.0495
  N  N491  1  0.573300  0.699000  0.114000  1.0  0.0411
  N  N492  1  0.631800  0.968600  0.013600  1.0  0.053
  N  N493  1  0.157300  0.828900  0.692000  1.0  -0.3508
  N  N494  1  0.220500  0.530500  0.497300  1.0  -0.364
  N  N495  1  0.848800  0.675400  0.319500  1.0  -0.3666
  N  N496  1  0.932200  0.700900  0.398900  1.0  0.0503
  N  N497  1  0.073300  0.801000  0.614000  1.0  0.0402
  N  N498  1  0.131800  0.531400  0.513600  1.0  0.053
  N  N499  1  0.342700  0.328900  0.808000  1.0  -0.3478
  N  N500  1  0.279500  0.030500  0.002700  1.0  -0.3634
  N  N501  1  0.651200  0.175400  0.180500  1.0  -0.3638
  N  N502  1  0.567800  0.200900  0.101100  1.0  0.0503
  N  N503  1  0.426700  0.301000  0.886000  1.0  0.0402
  N  N504  1  0.368200  0.031400  0.986400  1.0  0.0518
  O  O505  1  0.784100  0.927900  0.348630  1.0  -0.5786
  O  O506  1  0.213100  0.760400  0.284010  1.0  -0.602
  O  O507  1  0.135200  0.949600  0.472320  1.0  -0.573
  O  O508  1  0.847500  0.988100  0.428000  1.0  -0.597
  O  O509  1  0.222900  0.082900  0.295500  1.0  -0.5992
  O  O510  1  0.164800  0.675200  0.323100  1.0  -0.5409
  O  O511  1  0.173000  0.164900  0.334700  1.0  -0.5698
  O  O512  1  0.087900  0.088500  0.450200  1.0  -0.5388
  O  O513  1  0.715900  0.427900  0.151370  1.0  -0.5788
  O  O514  1  0.286900  0.260400  0.215990  1.0  -0.6013
  O  O515  1  0.364800  0.449600  0.027680  1.0  -0.575
  O  O516  1  0.652500  0.488100  0.072000  1.0  -0.5995
  O  O517  1  0.277100  0.582900  0.204500  1.0  -0.5997
  O  O518  1  0.335200  0.175200  0.176900  1.0  -0.541
  O  O519  1  0.327000  0.664900  0.165300  1.0  -0.569
  O  O520  1  0.412100  0.588500  0.049800  1.0  -0.5401
  O  O521  1  0.215900  0.072100  0.651370  1.0  -0.5775
  O  O522  1  0.786900  0.239600  0.715990  1.0  -0.6018
  O  O523  1  0.864800  0.050400  0.527680  1.0  -0.5744
  O  O524  1  0.152500  0.011900  0.572000  1.0  -0.5992
  O  O525  1  0.777100  0.917100  0.704500  1.0  -0.5995
  O  O526  1  0.835200  0.324800  0.676900  1.0  -0.5435
  O  O527  1  0.827000  0.835100  0.665300  1.0  -0.5724
  O  O528  1  0.912100  0.911500  0.549800  1.0  -0.5401
  O  O529  1  0.284100  0.572100  0.848630  1.0  -0.5777
  O  O530  1  0.713100  0.739600  0.784010  1.0  -0.6021
  O  O531  1  0.635200  0.550400  0.972320  1.0  -0.574
  O  O532  1  0.347500  0.511900  0.928000  1.0  -0.5978
  O  O533  1  0.722900  0.417100  0.795500  1.0  -0.599
  O  O534  1  0.664800  0.824800  0.823100  1.0  -0.5428
  O  O535  1  0.673000  0.335100  0.834700  1.0  -0.5729
  O  O536  1  0.587900  0.411500  0.950200  1.0  -0.5408
  O  O537  1  0.284100  0.427900  0.348630  1.0  -0.5786
  O  O538  1  0.713100  0.260400  0.284010  1.0  -0.602
  O  O539  1  0.635200  0.449600  0.472320  1.0  -0.573
  O  O540  1  0.347500  0.488100  0.428000  1.0  -0.5969
  O  O541  1  0.722900  0.582900  0.295500  1.0  -0.5992
  O  O542  1  0.664800  0.175200  0.323100  1.0  -0.5409
  O  O543  1  0.673000  0.664900  0.334700  1.0  -0.5698
  O  O544  1  0.587900  0.588500  0.450200  1.0  -0.5388
  O  O545  1  0.215900  0.927900  0.151370  1.0  -0.5788
  O  O546  1  0.786900  0.760400  0.215990  1.0  -0.6013
  O  O547  1  0.864800  0.949600  0.027680  1.0  -0.575
  O  O548  1  0.152500  0.988100  0.072000  1.0  -0.5994
  O  O549  1  0.777100  0.082900  0.204500  1.0  -0.5997
  O  O550  1  0.835200  0.675200  0.176900  1.0  -0.541
  O  O551  1  0.827000  0.164900  0.165300  1.0  -0.569
  O  O552  1  0.912100  0.088500  0.049800  1.0  -0.5401
  O  O553  1  0.715900  0.572100  0.651370  1.0  -0.5775
  O  O554  1  0.286900  0.739600  0.715990  1.0  -0.6018
  O  O555  1  0.364800  0.550400  0.527680  1.0  -0.5744
  O  O556  1  0.652500  0.511900  0.572000  1.0  -0.5991
  O  O557  1  0.277100  0.417100  0.704500  1.0  -0.5995
  O  O558  1  0.335200  0.824800  0.676900  1.0  -0.5435
  O  O559  1  0.327000  0.335100  0.665300  1.0  -0.5724
  O  O560  1  0.412100  0.411500  0.549800  1.0  -0.5401
  O  O561  1  0.784100  0.072100  0.848630  1.0  -0.5777
  O  O562  1  0.213100  0.239600  0.784010  1.0  -0.6021
  O  O563  1  0.135200  0.050400  0.972320  1.0  -0.574
  O  O564  1  0.847500  0.011900  0.928000  1.0  -0.5977
  O  O565  1  0.222900  0.917100  0.795500  1.0  -0.599
  O  O566  1  0.164800  0.324800  0.823100  1.0  -0.5428
  O  O567  1  0.173000  0.835100  0.834700  1.0  -0.5729
  O  O568  1  0.087900  0.911500  0.950200  1.0  -0.5408
