# generated using pymatgen
data_TbV6H42C44(N2O7)3
_symmetry_space_group_name_H-M   'P 1'
_cell_length_a   13.10200000
_cell_length_b   26.10400000
_cell_length_c   26.27900000
_cell_angle_alpha   90.00000000
_cell_angle_beta   90.00000000
_cell_angle_gamma   93.92300000
_symmetry_Int_Tables_number   1
_chemical_formula_structural   TbV6H42C44(N2O7)3
_chemical_formula_sum   'Tb4 V24 H168 C176 N24 O84'
_cell_volume   8966.74252337
_cell_formula_units_Z   4
loop_
 _symmetry_equiv_pos_site_id
 _symmetry_equiv_pos_as_xyz
  1  'x, y, z'
loop_
 _atom_site_type_symbol
 _atom_site_label
 _atom_site_symmetry_multiplicity
 _atom_site_fract_x
 _atom_site_fract_y
 _atom_site_fract_z
 _atom_site_occupancy
 _atom_site_charge
  Tb  Tb1  1  0.527250  0.616570  0.709900  1.0  2.2294
  Tb  Tb2  1  0.527250  0.116570  0.790100  1.0  2.2297
  Tb  Tb3  1  0.472750  0.883430  0.209900  1.0  2.23
  Tb  Tb4  1  0.472750  0.383430  0.290100  1.0  2.2295
  V  V5  1  0.861100  0.695470  0.203930  1.0  1.4611
  V  V6  1  0.878900  0.571190  0.193390  1.0  1.5242
  V  V7  1  0.068200  0.651400  0.154270  1.0  1.369
  V  V8  1  0.085700  0.581740  0.244510  1.0  1.465
  V  V9  1  0.067400  0.705400  0.255670  1.0  1.4689
  V  V10  1  0.878900  0.625100  0.294920  1.0  1.4139
  V  V11  1  0.861100  0.195470  0.296070  1.0  1.4609
  V  V12  1  0.878900  0.071190  0.306610  1.0  1.5206
  V  V13  1  0.068200  0.151400  0.345730  1.0  1.3628
  V  V14  1  0.085700  0.081740  0.255490  1.0  1.4667
  V  V15  1  0.067400  0.205400  0.244330  1.0  1.4683
  V  V16  1  0.878900  0.125100  0.205080  1.0  1.422
  V  V17  1  0.138900  0.804530  0.703930  1.0  1.4648
  V  V18  1  0.121100  0.928810  0.693390  1.0  1.5207
  V  V19  1  0.931800  0.848600  0.654270  1.0  1.3713
  V  V20  1  0.914300  0.918260  0.744510  1.0  1.4652
  V  V21  1  0.932600  0.794600  0.755670  1.0  1.4726
  V  V22  1  0.121100  0.874900  0.794920  1.0  1.4139
  V  V23  1  0.138900  0.304530  0.796070  1.0  1.4636
  V  V24  1  0.121100  0.428810  0.806610  1.0  1.5157
  V  V25  1  0.931800  0.348600  0.845730  1.0  1.3637
  V  V26  1  0.914300  0.418260  0.755490  1.0  1.4654
  V  V27  1  0.932600  0.294600  0.744330  1.0  1.4725
  V  V28  1  0.121100  0.374900  0.705080  1.0  1.4215
  H  H29  1  0.977200  0.670700  0.390100  1.0  0.0898
  H  H30  1  0.068100  0.710300  0.371100  1.0  0.0728
  H  H31  1  0.226100  0.676200  0.335300  1.0  0.0877
  H  H32  1  0.233800  0.615600  0.327800  1.0  0.0802
  H  H33  1  0.092500  0.554500  0.361400  1.0  0.0825
  H  H34  1  0.991800  0.578100  0.384200  1.0  0.0927
  H  H35  1  0.141400  0.693700  0.440300  1.0  0.0718
  H  H36  1  0.238900  0.680700  0.407700  1.0  0.102
  H  H37  1  0.882600  0.562600  0.077000  1.0  0.0824
  H  H38  1  0.971300  0.603600  0.058200  1.0  0.0782
  H  H39  1  0.949100  0.699800  0.067100  1.0  0.107
  H  H40  1  0.847000  0.718000  0.092700  1.0  0.0895
  H  H41  1  0.712300  0.657400  0.118400  1.0  0.0811
  H  H42  1  0.720900  0.596700  0.115400  1.0  0.0942
  H  H43  1  0.763900  0.704000  0.014800  1.0  0.075
  H  H44  1  0.671300  0.665300  0.034200  1.0  0.0766
  H  H45  1  0.763000  0.723300  0.931700  1.0  0.0848
  H  H46  1  0.717600  0.709400  0.845400  1.0  0.1116
  H  H47  1  0.593800  0.561600  0.877500  1.0  0.1216
  H  H48  1  0.645400  0.583500  0.960400  1.0  0.103
  H  H49  1  0.461000  0.610900  0.521900  1.0  0.0956
  H  H50  1  0.372500  0.634400  0.446400  1.0  0.1223
  H  H51  1  0.149400  0.688500  0.534800  1.0  0.0952
  H  H52  1  0.234800  0.666500  0.610700  1.0  0.1094
  H  H53  1  0.413000  0.234300  0.820300  1.0  0.0996
  H  H54  1  0.385700  0.315800  0.793900  1.0  0.081
  H  H55  1  0.687700  0.343300  0.769900  1.0  0.1008
  H  H56  1  0.710800  0.260800  0.794700  1.0  0.093
  H  H57  1  0.633500  0.502300  0.731200  1.0  0.1031
  H  H58  1  0.660100  0.419100  0.765900  1.0  0.0958
  H  H59  1  0.361200  0.380700  0.750300  1.0  0.1058
  H  H60  1  0.333700  0.459500  0.722500  1.0  0.0906
  H  H61  1  0.286000  0.694900  0.737300  1.0  0.109
  H  H62  1  0.111800  0.685400  0.725900  1.0  0.0801
  H  H63  1  0.113700  0.535200  0.759100  1.0  0.1043
  H  H64  1  0.286100  0.548000  0.772700  1.0  0.087
  H  H65  1  0.777200  0.667300  0.721500  1.0  0.0987
  H  H66  1  0.948600  0.675100  0.747700  1.0  0.1184
  H  H67  1  0.976200  0.531700  0.704400  1.0  0.0772
  H  H68  1  0.809100  0.524700  0.675900  1.0  0.1112
  H  H69  1  0.137100  0.600100  0.437900  1.0  0.2442
  H  H70  1  0.821200  0.613100  0.009000  1.0  0.2356
  H  H71  1  0.977200  0.170700  0.109900  1.0  0.0884
  H  H72  1  0.068100  0.210300  0.128900  1.0  0.0728
  H  H73  1  0.226100  0.176200  0.164700  1.0  0.0876
  H  H74  1  0.233800  0.115600  0.172200  1.0  0.0805
  H  H75  1  0.092500  0.054500  0.138600  1.0  0.0812
  H  H76  1  0.991800  0.078100  0.115800  1.0  0.0917
  H  H77  1  0.141400  0.193700  0.059700  1.0  0.0726
  H  H78  1  0.238900  0.180700  0.092300  1.0  0.1029
  H  H79  1  0.882600  0.062600  0.423000  1.0  0.0835
  H  H80  1  0.971300  0.103600  0.441800  1.0  0.078
  H  H81  1  0.949100  0.199800  0.432900  1.0  0.1074
  H  H82  1  0.847000  0.218000  0.407300  1.0  0.0897
  H  H83  1  0.712300  0.157400  0.381600  1.0  0.0815
  H  H84  1  0.720900  0.096700  0.384600  1.0  0.0945
  H  H85  1  0.763900  0.204000  0.485200  1.0  0.075
  H  H86  1  0.671300  0.165300  0.465800  1.0  0.0766
  H  H87  1  0.763000  0.223300  0.568300  1.0  0.0845
  H  H88  1  0.717600  0.209400  0.654600  1.0  0.1114
  H  H89  1  0.593800  0.061600  0.622500  1.0  0.1218
  H  H90  1  0.645400  0.083500  0.539600  1.0  0.103
  H  H91  1  0.461000  0.110900  0.978100  1.0  0.0956
  H  H92  1  0.372500  0.134400  0.053600  1.0  0.1208
  H  H93  1  0.149400  0.188500  0.965200  1.0  0.095
  H  H94  1  0.234800  0.166500  0.889300  1.0  0.1091
  H  H95  1  0.413000  0.734300  0.679700  1.0  0.0996
  H  H96  1  0.385700  0.815800  0.706100  1.0  0.0811
  H  H97  1  0.687700  0.843300  0.730100  1.0  0.1003
  H  H98  1  0.710800  0.760800  0.705300  1.0  0.0925
  H  H99  1  0.633500  0.002300  0.768800  1.0  0.103
  H  H100  1  0.660100  0.919100  0.734100  1.0  0.0953
  H  H101  1  0.361200  0.880700  0.749700  1.0  0.1062
  H  H102  1  0.333700  0.959500  0.777500  1.0  0.0905
  H  H103  1  0.286000  0.194900  0.762700  1.0  0.109
  H  H104  1  0.111800  0.185400  0.774100  1.0  0.0796
  H  H105  1  0.113700  0.035200  0.740900  1.0  0.1043
  H  H106  1  0.286100  0.048000  0.727300  1.0  0.0868
  H  H107  1  0.777200  0.167300  0.778500  1.0  0.0986
  H  H108  1  0.948600  0.175100  0.752300  1.0  0.1181
  H  H109  1  0.976200  0.031700  0.795600  1.0  0.0772
  H  H110  1  0.809100  0.024700  0.824100  1.0  0.1114
  H  H111  1  0.137100  0.100100  0.062100  1.0  0.2432
  H  H112  1  0.821200  0.113100  0.491000  1.0  0.2343
  H  H113  1  0.022800  0.829300  0.890100  1.0  0.0897
  H  H114  1  0.931900  0.789700  0.871100  1.0  0.0695
  H  H115  1  0.773900  0.823800  0.835300  1.0  0.0856
  H  H116  1  0.766200  0.884400  0.827800  1.0  0.0809
  H  H117  1  0.907500  0.945500  0.861400  1.0  0.0824
  H  H118  1  0.008200  0.921900  0.884200  1.0  0.093
  H  H119  1  0.858600  0.806300  0.940300  1.0  0.0722
  H  H120  1  0.761100  0.819300  0.907700  1.0  0.1004
  H  H121  1  0.117400  0.937400  0.577000  1.0  0.0856
  H  H122  1  0.028700  0.896400  0.558200  1.0  0.0765
  H  H123  1  0.050900  0.800200  0.567100  1.0  0.1074
  H  H124  1  0.153000  0.782000  0.592700  1.0  0.0909
  H  H125  1  0.287700  0.842600  0.618400  1.0  0.0813
  H  H126  1  0.279100  0.903300  0.615400  1.0  0.0949
  H  H127  1  0.236100  0.796000  0.514800  1.0  0.0731
  H  H128  1  0.328700  0.834700  0.534200  1.0  0.0728
  H  H129  1  0.237000  0.776700  0.431700  1.0  0.0846
  H  H130  1  0.282400  0.790600  0.345400  1.0  0.1124
  H  H131  1  0.406200  0.938400  0.377500  1.0  0.1221
  H  H132  1  0.354600  0.916500  0.460400  1.0  0.1032
  H  H133  1  0.539000  0.889100  0.021900  1.0  0.0959
  H  H134  1  0.627500  0.865600  0.946400  1.0  0.123
  H  H135  1  0.850600  0.811500  0.034800  1.0  0.0943
  H  H136  1  0.765200  0.833500  0.110700  1.0  0.109
  H  H137  1  0.587000  0.265700  0.320300  1.0  0.0987
  H  H138  1  0.614300  0.184200  0.293900  1.0  0.0816
  H  H139  1  0.312300  0.156700  0.269900  1.0  0.1005
  H  H140  1  0.289200  0.239200  0.294700  1.0  0.0926
  H  H141  1  0.366500  0.997700  0.231200  1.0  0.1031
  H  H142  1  0.339900  0.080900  0.265900  1.0  0.0961
  H  H143  1  0.638800  0.119300  0.250300  1.0  0.1059
  H  H144  1  0.666300  0.040500  0.222500  1.0  0.0906
  H  H145  1  0.714000  0.805100  0.237300  1.0  0.1089
  H  H146  1  0.888200  0.814600  0.225900  1.0  0.0807
  H  H147  1  0.886300  0.964800  0.259100  1.0  0.1042
  H  H148  1  0.713900  0.952000  0.272700  1.0  0.0866
  H  H149  1  0.222800  0.832700  0.221500  1.0  0.0985
  H  H150  1  0.051400  0.824900  0.247700  1.0  0.1189
  H  H151  1  0.023800  0.968300  0.204400  1.0  0.0772
  H  H152  1  0.190900  0.975300  0.175900  1.0  0.1115
  H  H153  1  0.862900  0.899900  0.937900  1.0  0.2427
  H  H154  1  0.178800  0.886900  0.509000  1.0  0.2351
  H  H155  1  0.022800  0.329300  0.609900  1.0  0.0904
  H  H156  1  0.931900  0.289700  0.628900  1.0  0.0689
  H  H157  1  0.773900  0.323800  0.664700  1.0  0.0857
  H  H158  1  0.766200  0.384400  0.672200  1.0  0.0808
  H  H159  1  0.907500  0.445500  0.638600  1.0  0.0825
  H  H160  1  0.008200  0.421900  0.615800  1.0  0.093
  H  H161  1  0.858600  0.306300  0.559700  1.0  0.0719
  H  H162  1  0.761100  0.319300  0.592300  1.0  0.101
  H  H163  1  0.117400  0.437400  0.923000  1.0  0.0861
  H  H164  1  0.028700  0.396400  0.941800  1.0  0.0777
  H  H165  1  0.050900  0.300200  0.932900  1.0  0.1089
  H  H166  1  0.153000  0.282000  0.907300  1.0  0.0908
  H  H167  1  0.287700  0.342600  0.881600  1.0  0.0812
  H  H168  1  0.279100  0.403300  0.884600  1.0  0.0949
  H  H169  1  0.236100  0.296000  0.985200  1.0  0.0731
  H  H170  1  0.328700  0.334700  0.965800  1.0  0.0731
  H  H171  1  0.237000  0.276700  0.068300  1.0  0.0847
  H  H172  1  0.282400  0.290600  0.154600  1.0  0.1124
  H  H173  1  0.406200  0.438400  0.122500  1.0  0.1226
  H  H174  1  0.354600  0.416500  0.039600  1.0  0.1043
  H  H175  1  0.539000  0.389100  0.478100  1.0  0.0955
  H  H176  1  0.627500  0.365600  0.553600  1.0  0.1222
  H  H177  1  0.850600  0.311500  0.465200  1.0  0.0947
  H  H178  1  0.765200  0.333500  0.389300  1.0  0.1092
  H  H179  1  0.587000  0.765700  0.179700  1.0  0.099
  H  H180  1  0.614300  0.684200  0.206100  1.0  0.0817
  H  H181  1  0.312300  0.656700  0.230100  1.0  0.1002
  H  H182  1  0.289200  0.739200  0.205300  1.0  0.0923
  H  H183  1  0.366500  0.497700  0.268800  1.0  0.1031
  H  H184  1  0.339900  0.580900  0.234100  1.0  0.0955
  H  H185  1  0.638800  0.619300  0.249700  1.0  0.1062
  H  H186  1  0.666300  0.540500  0.277500  1.0  0.091
  H  H187  1  0.714000  0.305100  0.262700  1.0  0.1082
  H  H188  1  0.888200  0.314600  0.274100  1.0  0.0806
  H  H189  1  0.886300  0.464800  0.240900  1.0  0.1044
  H  H190  1  0.713900  0.452000  0.227300  1.0  0.0865
  H  H191  1  0.222800  0.332700  0.278500  1.0  0.0983
  H  H192  1  0.051400  0.324900  0.252300  1.0  0.1184
  H  H193  1  0.023800  0.468300  0.295600  1.0  0.0769
  H  H194  1  0.190900  0.475300  0.324100  1.0  0.1116
  H  H195  1  0.862900  0.399900  0.562100  1.0  0.2422
  H  H196  1  0.178800  0.386900  0.991000  1.0  0.235
  C  C197  1  0.029000  0.677400  0.363200  1.0  -0.0277
  C  C198  1  0.186800  0.643700  0.326200  1.0  0.0104
  C  C199  1  0.103000  0.633600  0.362700  1.0  0.1315
  C  C200  1  0.045500  0.582400  0.357700  1.0  -0.0152
  C  C201  1  0.192000  0.667700  0.434900  1.0  0.0022
  C  C202  1  0.919000  0.596300  0.084700  1.0  0.0005
  C  C203  1  0.898300  0.691900  0.094300  1.0  -0.0823
  C  C204  1  0.843000  0.637500  0.084000  1.0  0.1835
  C  C205  1  0.759900  0.629800  0.122300  1.0  -0.0866
  C  C206  1  0.734000  0.668000  0.013000  1.0  0.0122
  C  C207  1  0.709000  0.653000  0.959000  1.0  0.0497
  C  C208  1  0.730000  0.691000  0.921800  1.0  -0.1178
  C  C209  1  0.703000  0.683500  0.870200  1.0  -0.1784
  C  C210  1  0.654000  0.636400  0.856800  1.0  -0.0517
  C  C211  1  0.627000  0.594000  0.887000  1.0  -0.1112
  C  C212  1  0.660000  0.610000  0.936000  1.0  -0.0908
  C  C213  1  0.617600  0.630600  0.804800  1.0  0.626
  C  C214  1  0.413000  0.623400  0.620800  1.0  0.6896
  C  C215  1  0.359000  0.635700  0.573100  1.0  -0.094
  C  C216  1  0.398000  0.626700  0.524800  1.0  -0.0486
  C  C217  1  0.345000  0.640800  0.479100  1.0  -0.1369
  C  C218  1  0.255000  0.663700  0.484400  1.0  0.0572
  C  C219  1  0.213000  0.673000  0.532700  1.0  -0.098
  C  C220  1  0.263000  0.659800  0.578300  1.0  -0.1081
  C  C221  1  0.469100  0.256800  0.809800  1.0  -0.0065
  C  C222  1  0.453400  0.305000  0.794000  1.0  -0.1521
  C  C223  1  0.530100  0.338000  0.778600  1.0  0.0284
  C  C224  1  0.630800  0.321000  0.779700  1.0  -0.1885
  C  C225  1  0.644000  0.272700  0.795000  1.0  0.0292
  C  C226  1  0.515800  0.392200  0.762200  1.0  0.0364
  C  C227  1  0.577400  0.477800  0.736100  1.0  0.0265
  C  C228  1  0.593100  0.427200  0.756500  1.0  -0.1371
  C  C229  1  0.417300  0.405600  0.747700  1.0  -0.1679
  C  C230  1  0.401600  0.451700  0.730600  1.0  0.0582
  C  C231  1  0.249400  0.662900  0.743700  1.0  -0.0086
  C  C232  1  0.147200  0.656300  0.735200  1.0  -0.123
  C  C233  1  0.092100  0.610100  0.739400  1.0  0.0677
  C  C234  1  0.147100  0.568400  0.755000  1.0  -0.1897
  C  C235  1  0.248200  0.576500  0.764100  1.0  0.0319
  C  C236  1  0.818800  0.639200  0.717500  1.0  -0.0124
  C  C237  1  0.920400  0.644000  0.732900  1.0  -0.2
  C  C238  1  0.979500  0.602700  0.726200  1.0  0.07
  C  C239  1  0.936400  0.560700  0.707300  1.0  -0.1591
  C  C240  1  0.836700  0.555700  0.691100  1.0  -0.0205
  C  C241  1  0.029000  0.177400  0.136800  1.0  -0.0266
  C  C242  1  0.186800  0.143700  0.173800  1.0  0.0112
  C  C243  1  0.103000  0.133600  0.137300  1.0  0.131
  C  C244  1  0.045500  0.082400  0.142300  1.0  -0.0131
  C  C245  1  0.192000  0.167700  0.065100  1.0  0.0029
  C  C246  1  0.919000  0.096300  0.415300  1.0  -0.0023
  C  C247  1  0.898300  0.191900  0.405700  1.0  -0.0816
  C  C248  1  0.843000  0.137500  0.416000  1.0  0.1845
  C  C249  1  0.759900  0.129800  0.377700  1.0  -0.0888
  C  C250  1  0.734000  0.168000  0.487000  1.0  0.0134
  C  C251  1  0.709000  0.153000  0.541000  1.0  0.0489
  C  C252  1  0.730000  0.191000  0.578200  1.0  -0.1185
  C  C253  1  0.703000  0.183500  0.629800  1.0  -0.1791
  C  C254  1  0.654000  0.136400  0.643200  1.0  -0.0498
  C  C255  1  0.627000  0.094000  0.613000  1.0  -0.1105
  C  C256  1  0.660000  0.110000  0.564000  1.0  -0.0908
  C  C257  1  0.617600  0.130600  0.695200  1.0  0.6267
  C  C258  1  0.413000  0.123400  0.879200  1.0  0.6891
  C  C259  1  0.359000  0.135700  0.926900  1.0  -0.0936
  C  C260  1  0.398000  0.126700  0.975200  1.0  -0.0478
  C  C261  1  0.345000  0.140800  0.020900  1.0  -0.1371
  C  C262  1  0.255000  0.163700  0.015600  1.0  0.0553
  C  C263  1  0.213000  0.173000  0.967300  1.0  -0.0973
  C  C264  1  0.263000  0.159800  0.921700  1.0  -0.1079
  C  C265  1  0.469100  0.756800  0.690200  1.0  -0.0049
  C  C266  1  0.453400  0.805000  0.706000  1.0  -0.152
  C  C267  1  0.530100  0.838000  0.721400  1.0  0.0285
  C  C268  1  0.630800  0.821000  0.720300  1.0  -0.1879
  C  C269  1  0.644000  0.772700  0.705000  1.0  0.0294
  C  C270  1  0.515800  0.892200  0.737800  1.0  0.0364
  C  C271  1  0.577400  0.977800  0.763900  1.0  0.0261
  C  C272  1  0.593100  0.927200  0.743500  1.0  -0.1377
  C  C273  1  0.417300  0.905600  0.752300  1.0  -0.1686
  C  C274  1  0.401600  0.951700  0.769400  1.0  0.058
  C  C275  1  0.249400  0.162900  0.756300  1.0  -0.0067
  C  C276  1  0.147200  0.156300  0.764800  1.0  -0.1229
  C  C277  1  0.092100  0.110100  0.760600  1.0  0.0669
  C  C278  1  0.147100  0.068400  0.745000  1.0  -0.1902
  C  C279  1  0.248200  0.076500  0.735900  1.0  0.0301
  C  C280  1  0.818800  0.139200  0.782500  1.0  -0.0124
  C  C281  1  0.920400  0.144000  0.767100  1.0  -0.199
  C  C282  1  0.979500  0.102700  0.773800  1.0  0.0706
  C  C283  1  0.936400  0.060700  0.792700  1.0  -0.1585
  C  C284  1  0.836700  0.055700  0.808900  1.0  -0.0209
  C  C285  1  0.971000  0.822600  0.863200  1.0  -0.0293
  C  C286  1  0.813200  0.856300  0.826200  1.0  0.0093
  C  C287  1  0.897000  0.866400  0.862700  1.0  0.1323
  C  C288  1  0.954500  0.917600  0.857700  1.0  -0.0168
  C  C289  1  0.808000  0.832300  0.934900  1.0  0.0026
  C  C290  1  0.081000  0.903700  0.584700  1.0  0.0008
  C  C291  1  0.101700  0.808100  0.594300  1.0  -0.083
  C  C292  1  0.157000  0.862500  0.584000  1.0  0.184
  C  C293  1  0.240100  0.870200  0.622300  1.0  -0.0854
  C  C294  1  0.266000  0.832000  0.513000  1.0  0.0126
  C  C295  1  0.291000  0.847000  0.459000  1.0  0.0487
  C  C296  1  0.270000  0.809000  0.421800  1.0  -0.1184
  C  C297  1  0.297000  0.816500  0.370200  1.0  -0.1793
  C  C298  1  0.346000  0.863600  0.356800  1.0  -0.0521
  C  C299  1  0.373000  0.906000  0.387000  1.0  -0.1106
  C  C300  1  0.340000  0.890000  0.436000  1.0  -0.0914
  C  C301  1  0.382400  0.869400  0.304800  1.0  0.6256
  C  C302  1  0.587000  0.876600  0.120800  1.0  0.6892
  C  C303  1  0.641000  0.864300  0.073100  1.0  -0.0938
  C  C304  1  0.602000  0.873300  0.024800  1.0  -0.0482
  C  C305  1  0.655000  0.859200  0.979100  1.0  -0.1384
  C  C306  1  0.745000  0.836300  0.984400  1.0  0.0566
  C  C307  1  0.787000  0.827000  0.032700  1.0  -0.0976
  C  C308  1  0.737000  0.840200  0.078300  1.0  -0.1074
  C  C309  1  0.530900  0.243200  0.309800  1.0  -0.0072
  C  C310  1  0.546600  0.195000  0.294000  1.0  -0.1524
  C  C311  1  0.469900  0.162000  0.278600  1.0  0.0283
  C  C312  1  0.369200  0.179000  0.279700  1.0  -0.1882
  C  C313  1  0.356000  0.227300  0.295000  1.0  0.0311
  C  C314  1  0.484200  0.107800  0.262200  1.0  0.0364
  C  C315  1  0.422600  0.022200  0.236100  1.0  0.0261
  C  C316  1  0.406900  0.072800  0.256500  1.0  -0.1378
  C  C317  1  0.582700  0.094400  0.247700  1.0  -0.1671
  C  C318  1  0.598400  0.048300  0.230600  1.0  0.0565
  C  C319  1  0.750600  0.837100  0.243700  1.0  -0.0073
  C  C320  1  0.852800  0.843700  0.235200  1.0  -0.1231
  C  C321  1  0.907900  0.889900  0.239400  1.0  0.068
  C  C322  1  0.852900  0.931600  0.255000  1.0  -0.1895
  C  C323  1  0.751800  0.923500  0.264100  1.0  0.031
  C  C324  1  0.181200  0.860800  0.217500  1.0  -0.0124
  C  C325  1  0.079600  0.856000  0.232900  1.0  -0.2002
  C  C326  1  0.020500  0.897300  0.226200  1.0  0.0699
  C  C327  1  0.063600  0.939300  0.207300  1.0  -0.1575
  C  C328  1  0.163300  0.944300  0.191100  1.0  -0.0226
  C  C329  1  0.971000  0.322600  0.636800  1.0  -0.0295
  C  C330  1  0.813200  0.356300  0.673800  1.0  0.0105
  C  C331  1  0.897000  0.366400  0.637300  1.0  0.1315
  C  C332  1  0.954500  0.417600  0.642300  1.0  -0.0121
  C  C333  1  0.808000  0.332300  0.565100  1.0  0.0041
  C  C334  1  0.081000  0.403700  0.915300  1.0  -0.0036
  C  C335  1  0.101700  0.308100  0.905700  1.0  -0.0822
  C  C336  1  0.157000  0.362500  0.916000  1.0  0.1851
  C  C337  1  0.240100  0.370200  0.877700  1.0  -0.0869
  C  C338  1  0.266000  0.332000  0.987000  1.0  0.0136
  C  C339  1  0.291000  0.347000  0.041000  1.0  0.0483
  C  C340  1  0.270000  0.309000  0.078200  1.0  -0.1195
  C  C341  1  0.297000  0.316500  0.129800  1.0  -0.1799
  C  C342  1  0.346000  0.363600  0.143200  1.0  -0.0504
  C  C343  1  0.373000  0.406000  0.113000  1.0  -0.11
  C  C344  1  0.340000  0.390000  0.064000  1.0  -0.0916
  C  C345  1  0.382400  0.369400  0.195200  1.0  0.6273
  C  C346  1  0.587000  0.376600  0.379200  1.0  0.6888
  C  C347  1  0.641000  0.364300  0.426900  1.0  -0.0939
  C  C348  1  0.602000  0.373300  0.475200  1.0  -0.0474
  C  C349  1  0.655000  0.359200  0.520900  1.0  -0.1394
  C  C350  1  0.745000  0.336300  0.515600  1.0  0.0556
  C  C351  1  0.787000  0.327000  0.467300  1.0  -0.0973
  C  C352  1  0.737000  0.340200  0.421700  1.0  -0.1073
  C  C353  1  0.530900  0.743200  0.190200  1.0  -0.0055
  C  C354  1  0.546600  0.695000  0.206000  1.0  -0.1524
  C  C355  1  0.469900  0.662000  0.221400  1.0  0.0283
  C  C356  1  0.369200  0.679000  0.220300  1.0  -0.1878
  C  C357  1  0.356000  0.727300  0.205000  1.0  0.0303
  C  C358  1  0.484200  0.607800  0.237800  1.0  0.0363
  C  C359  1  0.422600  0.522200  0.263900  1.0  0.0256
  C  C360  1  0.406900  0.572800  0.243500  1.0  -0.1384
  C  C361  1  0.582700  0.594400  0.252300  1.0  -0.168
  C  C362  1  0.598400  0.548300  0.269400  1.0  0.0569
  C  C363  1  0.750600  0.337100  0.256300  1.0  -0.0072
  C  C364  1  0.852800  0.343700  0.264800  1.0  -0.1231
  C  C365  1  0.907900  0.389900  0.260600  1.0  0.0671
  C  C366  1  0.852900  0.431600  0.245000  1.0  -0.1905
  C  C367  1  0.751800  0.423500  0.235900  1.0  0.0303
  C  C368  1  0.181200  0.360800  0.282500  1.0  -0.0125
  C  C369  1  0.079600  0.356000  0.267100  1.0  -0.1999
  C  C370  1  0.020500  0.397300  0.273800  1.0  0.0704
  C  C371  1  0.063600  0.439300  0.292700  1.0  -0.1565
  C  C372  1  0.163300  0.444300  0.308900  1.0  -0.0215
  N  N373  1  0.146000  0.628300  0.419600  1.0  -0.3678
  N  N374  1  0.800000  0.636400  0.030100  1.0  -0.4092
  N  N375  1  0.779300  0.595800  0.697300  1.0  0.2861
  N  N376  1  0.565500  0.240900  0.810600  1.0  0.2945
  N  N377  1  0.297000  0.622600  0.761400  1.0  0.2725
  N  N378  1  0.480200  0.489300  0.724100  1.0  0.2382
  N  N379  1  0.146000  0.128300  0.080400  1.0  -0.3659
  N  N380  1  0.800000  0.136400  0.469900  1.0  -0.411
  N  N381  1  0.779300  0.095800  0.802700  1.0  0.2851
  N  N382  1  0.565500  0.740900  0.689400  1.0  0.2945
  N  N383  1  0.297000  0.122600  0.738600  1.0  0.2691
  N  N384  1  0.480200  0.989300  0.775900  1.0  0.2376
  N  N385  1  0.854000  0.871700  0.919600  1.0  -0.3647
  N  N386  1  0.200000  0.863600  0.530100  1.0  -0.409
  N  N387  1  0.220700  0.904200  0.197300  1.0  0.284
  N  N388  1  0.434500  0.259100  0.310600  1.0  0.2951
  N  N389  1  0.703000  0.877400  0.261400  1.0  0.2722
  N  N390  1  0.519800  0.010700  0.224100  1.0  0.2379
  N  N391  1  0.854000  0.371700  0.580400  1.0  -0.3647
  N  N392  1  0.200000  0.363600  0.969900  1.0  -0.4119
  N  N393  1  0.220700  0.404200  0.302700  1.0  0.283
  N  N394  1  0.434500  0.759100  0.189400  1.0  0.2962
  N  N395  1  0.703000  0.377400  0.238600  1.0  0.269
  N  N396  1  0.519800  0.510700  0.275900  1.0  0.2383
  O  O397  1  0.980200  0.681300  0.315800  1.0  -0.6588
  O  O398  1  0.998900  0.581400  0.306100  1.0  -0.7172
  O  O399  1  0.147600  0.647300  0.276700  1.0  -0.6115
  O  O400  1  0.801700  0.671800  0.263600  1.0  -0.7789
  O  O401  1  0.954200  0.738700  0.234700  1.0  -0.8773
  O  O402  1  0.823600  0.570800  0.254600  1.0  -0.839
  O  O403  1  0.974100  0.637400  0.224500  1.0  -0.8475
  O  O404  1  0.123700  0.704900  0.193800  1.0  -0.8185
  O  O405  1  0.992700  0.538400  0.213500  1.0  -0.8073
  O  O406  1  0.142200  0.604400  0.185900  1.0  -0.796
  O  O407  1  0.796800  0.629800  0.173900  1.0  -0.6468
  O  O408  1  0.949200  0.695800  0.142700  1.0  -0.6513
  O  O409  1  0.965500  0.594400  0.132600  1.0  -0.6668
  O  O410  1  0.610900  0.666667  0.774400  1.0  -0.6245
  O  O411  1  0.596000  0.583400  0.786900  1.0  -0.6795
  O  O412  1  0.377000  0.635700  0.663800  1.0  -0.623
  O  O413  1  0.499500  0.604700  0.618400  1.0  -0.6309
  O  O414  1  0.682500  0.591100  0.681900  1.0  -0.6847
  O  O415  1  0.582300  0.195100  0.829300  1.0  -0.6715
  O  O416  1  0.399200  0.628600  0.770500  1.0  -0.6588
  O  O417  1  0.461100  0.533000  0.703300  1.0  -0.6971
  O  O418  1  0.980200  0.181300  0.184200  1.0  -0.6594
  O  O419  1  0.998900  0.081400  0.193900  1.0  -0.7196
  O  O420  1  0.147600  0.147300  0.223300  1.0  -0.6103
  O  O421  1  0.801700  0.171800  0.236400  1.0  -0.7779
  O  O422  1  0.954200  0.238700  0.265300  1.0  -0.8778
  O  O423  1  0.823600  0.070800  0.245400  1.0  -0.8399
  O  O424  1  0.974100  0.137400  0.275500  1.0  -0.8467
  O  O425  1  0.123700  0.204900  0.306200  1.0  -0.8166
  O  O426  1  0.992700  0.038400  0.286500  1.0  -0.8071
  O  O427  1  0.142200  0.104400  0.314100  1.0  -0.7932
  O  O428  1  0.796800  0.129800  0.326100  1.0  -0.6469
  O  O429  1  0.949200  0.195800  0.357300  1.0  -0.6509
  O  O430  1  0.965500  0.094400  0.367400  1.0  -0.6676
  O  O431  1  0.610900  0.166600  0.725600  1.0  -0.6244
  O  O432  1  0.596000  0.083400  0.713100  1.0  -0.6788
  O  O433  1  0.377000  0.135700  0.836200  1.0  -0.6221
  O  O434  1  0.499500  0.104700  0.881600  1.0  -0.6284
  O  O435  1  0.682500  0.091100  0.818100  1.0  -0.6862
  O  O436  1  0.582300  0.695100  0.670700  1.0  -0.6707
  O  O437  1  0.399200  0.128600  0.729500  1.0  -0.659
  O  O438  1  0.461100  0.033000  0.796700  1.0  -0.6974
  O  O439  1  0.019800  0.818700  0.815800  1.0  -0.6576
  O  O440  1  0.001100  0.918600  0.806100  1.0  -0.7172
  O  O441  1  0.852400  0.852700  0.776700  1.0  -0.6104
  O  O442  1  0.198300  0.828200  0.763600  1.0  -0.7767
  O  O443  1  0.045800  0.761300  0.734700  1.0  -0.8782
  O  O444  1  0.176400  0.929200  0.754600  1.0  -0.8375
  O  O445  1  0.025900  0.862600  0.724500  1.0  -0.8464
  O  O446  1  0.876300  0.795100  0.693800  1.0  -0.8182
  O  O447  1  0.007300  0.961600  0.713500  1.0  -0.8082
  O  O448  1  0.857800  0.895600  0.685900  1.0  -0.7966
  O  O449  1  0.203200  0.870200  0.673900  1.0  -0.6456
  O  O450  1  0.050800  0.804200  0.642700  1.0  -0.6523
  O  O451  1  0.034500  0.905600  0.632600  1.0  -0.6685
  O  O452  1  0.389100  0.833400  0.274400  1.0  -0.6233
  O  O453  1  0.404000  0.916600  0.286900  1.0  -0.6793
  O  O454  1  0.623000  0.864300  0.163800  1.0  -0.6228
  O  O455  1  0.500500  0.895300  0.118400  1.0  -0.6283
  O  O456  1  0.317500  0.908900  0.181900  1.0  -0.6845
  O  O457  1  0.417700  0.304900  0.329300  1.0  -0.6708
  O  O458  1  0.600800  0.871400  0.270500  1.0  -0.6583
  O  O459  1  0.538900  0.967000  0.203300  1.0  -0.6974
  O  O460  1  0.019800  0.318700  0.684200  1.0  -0.658
  O  O461  1  0.001100  0.418600  0.693900  1.0  -0.7191
  O  O462  1  0.852400  0.352700  0.723300  1.0  -0.6103
  O  O463  1  0.198300  0.328200  0.736400  1.0  -0.7767
  O  O464  1  0.045800  0.261300  0.765300  1.0  -0.8781
  O  O465  1  0.176400  0.429200  0.745400  1.0  -0.8387
  O  O466  1  0.025900  0.362600  0.775500  1.0  -0.8455
  O  O467  1  0.876300  0.295100  0.806200  1.0  -0.8191
  O  O468  1  0.007300  0.461600  0.786500  1.0  -0.8081
  O  O469  1  0.857800  0.395600  0.814100  1.0  -0.7923
  O  O470  1  0.203200  0.370200  0.826100  1.0  -0.6465
  O  O471  1  0.050800  0.304200  0.857300  1.0  -0.6527
  O  O472  1  0.034500  0.405600  0.867400  1.0  -0.667
  O  O473  1  0.389100  0.333400  0.225600  1.0  -0.6235
  O  O474  1  0.404000  0.416600  0.213100  1.0  -0.6787
  O  O475  1  0.623000  0.364300  0.336200  1.0  -0.6221
  O  O476  1  0.500500  0.395300  0.381600  1.0  -0.6273
  O  O477  1  0.317500  0.408900  0.318100  1.0  -0.685
  O  O478  1  0.417700  0.804900  0.170700  1.0  -0.669
  O  O479  1  0.600800  0.371400  0.229500  1.0  -0.6581
  O  O480  1  0.538900  0.467000  0.296700  1.0  -0.6982
