# generated using pymatgen
data_TbV6H42C44(N2O7)3
_symmetry_space_group_name_H-M   'P 1'
_cell_length_a   13.10200000
_cell_length_b   26.10400000
_cell_length_c   26.27900000
_cell_angle_alpha   90.00000000
_cell_angle_beta   90.00000000
_cell_angle_gamma   93.92300000
_symmetry_Int_Tables_number   1
_chemical_formula_structural   TbV6H42C44(N2O7)3
_chemical_formula_sum   'Tb4 V24 H168 C176 N24 O84'
_cell_volume   8966.74252337
_cell_formula_units_Z   4
loop_
 _symmetry_equiv_pos_site_id
 _symmetry_equiv_pos_as_xyz
  1  'x, y, z'
loop_
 _atom_site_type_symbol
 _atom_site_label
 _atom_site_symmetry_multiplicity
 _atom_site_fract_x
 _atom_site_fract_y
 _atom_site_fract_z
 _atom_site_occupancy
 _atom_site_charge
  Tb  Tb1  1  0.527240  0.616570  0.709880  1.0  2.2147
  Tb  Tb2  1  0.527240  0.116570  0.790120  1.0  2.2138
  Tb  Tb3  1  0.472760  0.883430  0.209880  1.0  2.2148
  Tb  Tb4  1  0.472760  0.383430  0.290120  1.0  2.2138
  V  V5  1  0.861160  0.695520  0.203890  1.0  1.4812
  V  V6  1  0.879170  0.571140  0.193370  1.0  1.527
  V  V7  1  0.068150  0.651560  0.154100  1.0  1.3949
  V  V8  1  0.085730  0.581600  0.244610  1.0  1.4639
  V  V9  1  0.067510  0.705430  0.255710  1.0  1.486
  V  V10  1  0.878790  0.625030  0.294970  1.0  1.4231
  V  V11  1  0.861160  0.195520  0.296110  1.0  1.481
  V  V12  1  0.879170  0.071140  0.306630  1.0  1.5233
  V  V13  1  0.068150  0.151560  0.345900  1.0  1.3889
  V  V14  1  0.085730  0.081600  0.255390  1.0  1.4642
  V  V15  1  0.067510  0.205430  0.244290  1.0  1.4867
  V  V16  1  0.878790  0.125030  0.205030  1.0  1.4299
  V  V17  1  0.138840  0.804480  0.703890  1.0  1.4856
  V  V18  1  0.120830  0.928860  0.693370  1.0  1.5244
  V  V19  1  0.931850  0.848440  0.654100  1.0  1.3953
  V  V20  1  0.914270  0.918400  0.744610  1.0  1.4635
  V  V21  1  0.932490  0.794570  0.755710  1.0  1.4904
  V  V22  1  0.121210  0.874970  0.794970  1.0  1.425
  V  V23  1  0.138840  0.304480  0.796110  1.0  1.4843
  V  V24  1  0.120830  0.428860  0.806630  1.0  1.5193
  V  V25  1  0.931850  0.348440  0.845900  1.0  1.3892
  V  V26  1  0.914270  0.418400  0.755390  1.0  1.4626
  V  V27  1  0.932490  0.294570  0.744290  1.0  1.4912
  V  V28  1  0.121210  0.374970  0.705030  1.0  1.4308
  H  H29  1  0.976400  0.672900  0.392200  1.0  0.0877
  H  H30  1  0.069100  0.711300  0.372600  1.0  0.1138
  H  H31  1  0.224600  0.676700  0.335200  1.0  0.111
  H  H32  1  0.234000  0.616200  0.328000  1.0  0.0796
  H  H33  1  0.091000  0.553600  0.362100  1.0  0.0897
  H  H34  1  0.989300  0.576700  0.384300  1.0  0.0865
  H  H35  1  0.149400  0.699900  0.439900  1.0  0.0638
  H  H36  1  0.247700  0.684000  0.408900  1.0  0.0912
  H  H37  1  0.882700  0.563300  0.075700  1.0  0.0777
  H  H38  1  0.971800  0.604300  0.057100  1.0  0.0782
  H  H39  1  0.952100  0.701400  0.066800  1.0  0.0972
  H  H40  1  0.850300  0.720200  0.092500  1.0  0.096
  H  H41  1  0.710100  0.656500  0.118700  1.0  0.0856
  H  H42  1  0.721800  0.596000  0.115600  1.0  0.0974
  H  H43  1  0.749700  0.705200  0.012200  1.0  0.0858
  H  H44  1  0.661200  0.665000  0.033600  1.0  0.0903
  H  H45  1  0.758000  0.724200  0.935400  1.0  0.1348
  H  H46  1  0.708800  0.704600  0.844900  1.0  0.0624
  H  H47  1  0.591900  0.563400  0.867800  1.0  0.1103
  H  H48  1  0.635300  0.575300  0.960900  1.0  0.1143
  H  H49  1  0.458500  0.610200  0.522900  1.0  0.097
  H  H50  1  0.370200  0.633200  0.448800  1.0  0.1049
  H  H51  1  0.151100  0.689600  0.536300  1.0  0.0964
  H  H52  1  0.239100  0.666800  0.611500  1.0  0.1114
  H  H53  1  0.414900  0.734400  0.679800  1.0  0.0917
  H  H54  1  0.386300  0.815900  0.704700  1.0  0.0994
  H  H55  1  0.688500  0.843100  0.730500  1.0  0.1005
  H  H56  1  0.711500  0.761700  0.703400  1.0  0.0925
  H  H57  1  0.633000  0.002500  0.767700  1.0  0.1002
  H  H58  1  0.661000  0.919800  0.734800  1.0  0.1045
  H  H59  1  0.361100  0.880900  0.749000  1.0  0.0981
  H  H60  1  0.333700  0.960700  0.775700  1.0  0.09
  H  H61  1  0.285800  0.694200  0.738400  1.0  0.1037
  H  H62  1  0.111600  0.685700  0.725900  1.0  0.083
  H  H63  1  0.112700  0.534300  0.755100  1.0  0.115
  H  H64  1  0.286900  0.547600  0.773300  1.0  0.09
  H  H65  1  0.779300  0.668400  0.721800  1.0  0.0928
  H  H66  1  0.948000  0.674900  0.746800  1.0  0.1101
  H  H67  1  0.974000  0.529900  0.705000  1.0  0.0976
  H  H68  1  0.808600  0.525400  0.675000  1.0  0.1125
  H  H69  1  0.137400  0.600900  0.439400  1.0  0.2458
  H  H70  1  0.822300  0.613900  0.008900  1.0  0.254
  H  H71  1  0.976400  0.172900  0.107800  1.0  0.0871
  H  H72  1  0.069100  0.211300  0.127400  1.0  0.113
  H  H73  1  0.224600  0.176700  0.164800  1.0  0.1114
  H  H74  1  0.234000  0.116200  0.172000  1.0  0.0797
  H  H75  1  0.091000  0.053600  0.137900  1.0  0.0882
  H  H76  1  0.989300  0.076700  0.115700  1.0  0.0857
  H  H77  1  0.149400  0.199900  0.060100  1.0  0.0639
  H  H78  1  0.247700  0.184000  0.091100  1.0  0.0914
  H  H79  1  0.882700  0.063300  0.424300  1.0  0.0784
  H  H80  1  0.971800  0.104300  0.442900  1.0  0.0784
  H  H81  1  0.952100  0.201400  0.433200  1.0  0.0978
  H  H82  1  0.850300  0.220200  0.407500  1.0  0.0962
  H  H83  1  0.710100  0.156500  0.381300  1.0  0.0853
  H  H84  1  0.721800  0.096000  0.384400  1.0  0.0978
  H  H85  1  0.749700  0.205200  0.487800  1.0  0.0856
  H  H86  1  0.661200  0.165000  0.466400  1.0  0.0904
  H  H87  1  0.758000  0.224200  0.564600  1.0  0.1345
  H  H88  1  0.708800  0.204600  0.655100  1.0  0.0618
  H  H89  1  0.591900  0.063400  0.632200  1.0  0.1103
  H  H90  1  0.635300  0.075300  0.539100  1.0  0.1141
  H  H91  1  0.458500  0.110200  0.977100  1.0  0.0969
  H  H92  1  0.370200  0.133200  0.051200  1.0  0.1038
  H  H93  1  0.151100  0.189600  0.963700  1.0  0.0962
  H  H94  1  0.239100  0.166800  0.888500  1.0  0.1115
  H  H95  1  0.414900  0.234400  0.820200  1.0  0.0915
  H  H96  1  0.386300  0.315900  0.795300  1.0  0.0993
  H  H97  1  0.688500  0.343100  0.769500  1.0  0.1012
  H  H98  1  0.711500  0.261700  0.796600  1.0  0.0929
  H  H99  1  0.633000  0.502500  0.732300  1.0  0.1002
  H  H100  1  0.661000  0.419800  0.765200  1.0  0.1048
  H  H101  1  0.361100  0.380900  0.751000  1.0  0.0977
  H  H102  1  0.333700  0.460700  0.724300  1.0  0.0897
  H  H103  1  0.285800  0.194200  0.761600  1.0  0.1043
  H  H104  1  0.111600  0.185700  0.774100  1.0  0.0825
  H  H105  1  0.112700  0.034300  0.744900  1.0  0.1148
  H  H106  1  0.286900  0.047600  0.726700  1.0  0.0894
  H  H107  1  0.779300  0.168400  0.778200  1.0  0.0931
  H  H108  1  0.948000  0.174900  0.753200  1.0  0.1098
  H  H109  1  0.974000  0.029900  0.795000  1.0  0.0978
  H  H110  1  0.808600  0.025400  0.825000  1.0  0.1125
  H  H111  1  0.137400  0.100900  0.060600  1.0  0.2449
  H  H112  1  0.822300  0.113900  0.491100  1.0  0.2525
  H  H113  1  0.023600  0.827100  0.892200  1.0  0.0878
  H  H114  1  0.930900  0.788700  0.872600  1.0  0.1103
  H  H115  1  0.775400  0.823300  0.835200  1.0  0.1104
  H  H116  1  0.766000  0.883800  0.828000  1.0  0.0808
  H  H117  1  0.909000  0.946400  0.862100  1.0  0.0894
  H  H118  1  0.010700  0.923300  0.884300  1.0  0.0875
  H  H119  1  0.850600  0.800100  0.939900  1.0  0.0652
  H  H120  1  0.752300  0.816000  0.908900  1.0  0.0909
  H  H121  1  0.117300  0.936700  0.575700  1.0  0.0793
  H  H122  1  0.028200  0.895700  0.557100  1.0  0.077
  H  H123  1  0.047900  0.798600  0.566800  1.0  0.0965
  H  H124  1  0.149700  0.779800  0.592500  1.0  0.0978
  H  H125  1  0.289900  0.843500  0.618700  1.0  0.0867
  H  H126  1  0.278200  0.904000  0.615600  1.0  0.0985
  H  H127  1  0.250300  0.794800  0.512200  1.0  0.0871
  H  H128  1  0.338800  0.835000  0.533600  1.0  0.0878
  H  H129  1  0.242000  0.775800  0.435400  1.0  0.1347
  H  H130  1  0.291200  0.795400  0.344900  1.0  0.0623
  H  H131  1  0.408100  0.936600  0.367800  1.0  0.11
  H  H132  1  0.364700  0.924700  0.460900  1.0  0.1138
  H  H133  1  0.541500  0.889800  0.022900  1.0  0.097
  H  H134  1  0.629800  0.866800  0.948800  1.0  0.1045
  H  H135  1  0.848900  0.810400  0.036300  1.0  0.0954
  H  H136  1  0.760900  0.833200  0.111500  1.0  0.1111
  H  H137  1  0.585100  0.765600  0.179800  1.0  0.0916
  H  H138  1  0.613700  0.684100  0.204700  1.0  0.1002
  H  H139  1  0.311500  0.656900  0.230500  1.0  0.1006
  H  H140  1  0.288500  0.738300  0.203400  1.0  0.0924
  H  H141  1  0.367000  0.497500  0.267700  1.0  0.1004
  H  H142  1  0.339000  0.580200  0.234800  1.0  0.1048
  H  H143  1  0.638900  0.619100  0.249000  1.0  0.0978
  H  H144  1  0.666300  0.539300  0.275700  1.0  0.0907
  H  H145  1  0.714200  0.805800  0.238400  1.0  0.1039
  H  H146  1  0.888400  0.814300  0.225900  1.0  0.0833
  H  H147  1  0.887300  0.965700  0.255100  1.0  0.1149
  H  H148  1  0.713100  0.952400  0.273300  1.0  0.0898
  H  H149  1  0.220700  0.831600  0.221800  1.0  0.0927
  H  H150  1  0.052000  0.825100  0.246800  1.0  0.1105
  H  H151  1  0.026000  0.970100  0.205000  1.0  0.0976
  H  H152  1  0.191400  0.974600  0.175000  1.0  0.1127
  H  H153  1  0.862600  0.899100  0.939400  1.0  0.2438
  H  H154  1  0.177700  0.886100  0.508900  1.0  0.2532
  H  H155  1  0.023600  0.327100  0.607800  1.0  0.088
  H  H156  1  0.930900  0.288700  0.627400  1.0  0.1095
  H  H157  1  0.775400  0.323300  0.664800  1.0  0.1113
  H  H158  1  0.766000  0.383800  0.672000  1.0  0.0805
  H  H159  1  0.909000  0.446400  0.637900  1.0  0.0896
  H  H160  1  0.010700  0.423300  0.615700  1.0  0.0877
  H  H161  1  0.850600  0.300100  0.560100  1.0  0.0648
  H  H162  1  0.752300  0.316000  0.591100  1.0  0.0907
  H  H163  1  0.117300  0.436700  0.924300  1.0  0.0796
  H  H164  1  0.028200  0.395700  0.942900  1.0  0.0776
  H  H165  1  0.047900  0.298600  0.933200  1.0  0.0981
  H  H166  1  0.149700  0.279800  0.907500  1.0  0.0978
  H  H167  1  0.289900  0.343500  0.881300  1.0  0.0863
  H  H168  1  0.278200  0.404000  0.884400  1.0  0.0986
  H  H169  1  0.250300  0.294800  0.987800  1.0  0.087
  H  H170  1  0.338800  0.335000  0.966400  1.0  0.088
  H  H171  1  0.242000  0.275800  0.064600  1.0  0.1344
  H  H172  1  0.291200  0.295400  0.155100  1.0  0.0624
  H  H173  1  0.408100  0.436600  0.132200  1.0  0.1108
  H  H174  1  0.364700  0.424700  0.039100  1.0  0.1144
  H  H175  1  0.541500  0.389800  0.477100  1.0  0.0966
  H  H176  1  0.629800  0.366800  0.551200  1.0  0.1042
  H  H177  1  0.848900  0.310400  0.463700  1.0  0.0958
  H  H178  1  0.760900  0.333200  0.388500  1.0  0.1116
  H  H179  1  0.585100  0.265600  0.320200  1.0  0.0913
  H  H180  1  0.613700  0.184100  0.295300  1.0  0.1001
  H  H181  1  0.311500  0.156900  0.269500  1.0  0.101
  H  H182  1  0.288500  0.238300  0.296600  1.0  0.0926
  H  H183  1  0.367000  0.997500  0.232300  1.0  0.1004
  H  H184  1  0.339000  0.080200  0.265200  1.0  0.105
  H  H185  1  0.638900  0.119100  0.251000  1.0  0.0975
  H  H186  1  0.666300  0.039300  0.224300  1.0  0.0905
  H  H187  1  0.714200  0.305800  0.261600  1.0  0.1041
  H  H188  1  0.888400  0.314300  0.274100  1.0  0.083
  H  H189  1  0.887300  0.465700  0.244900  1.0  0.1148
  H  H190  1  0.713100  0.452400  0.226700  1.0  0.0893
  H  H191  1  0.220700  0.331600  0.278200  1.0  0.0931
  H  H192  1  0.052000  0.325100  0.253200  1.0  0.11
  H  H193  1  0.026000  0.470100  0.295000  1.0  0.0972
  H  H194  1  0.191400  0.474600  0.325000  1.0  0.1124
  H  H195  1  0.862600  0.399100  0.560600  1.0  0.2451
  H  H196  1  0.177700  0.386100  0.991100  1.0  0.2529
  C  C197  1  0.028800  0.678700  0.365300  1.0  -0.0742
  C  C198  1  0.186200  0.643900  0.326300  1.0  -0.0163
  C  C199  1  0.100600  0.633100  0.364100  1.0  0.1864
  C  C200  1  0.043700  0.581400  0.358300  1.0  -0.0463
  C  C201  1  0.197000  0.672600  0.435400  1.0  -0.0082
  C  C202  1  0.918900  0.596900  0.083500  1.0  -0.0481
  C  C203  1  0.900600  0.693700  0.093800  1.0  -0.0796
  C  C204  1  0.843500  0.638600  0.083300  1.0  0.1853
  C  C205  1  0.759200  0.629500  0.122400  1.0  -0.0678
  C  C206  1  0.723000  0.668800  0.012200  1.0  -0.0566
  C  C207  1  0.700000  0.649900  0.957000  1.0  -0.1265
  C  C208  1  0.725800  0.692300  0.924600  1.0  -0.1124
  C  C209  1  0.694900  0.679300  0.870400  1.0  -0.1015
  C  C210  1  0.651500  0.636500  0.857300  1.0  0.0461
  C  C211  1  0.624000  0.593900  0.882000  1.0  -0.1519
  C  C212  1  0.651000  0.602500  0.938000  1.0  -0.0598
  C  C213  1  0.617500  0.629800  0.805300  1.0  0.6236
  C  C214  1  0.413500  0.623900  0.620700  1.0  0.6803
  C  C215  1  0.357900  0.636100  0.573100  1.0  -0.1246
  C  C216  1  0.396000  0.626400  0.525900  1.0  -0.067
  C  C217  1  0.342800  0.640300  0.481300  1.0  -0.0997
  C  C218  1  0.252100  0.663800  0.484600  1.0  0.085
  C  C219  1  0.213700  0.673500  0.533400  1.0  -0.0486
  C  C220  1  0.265800  0.659900  0.578800  1.0  -0.0911
  C  C221  1  0.470900  0.757000  0.690100  1.0  -0.0029
  C  C222  1  0.454000  0.805000  0.705400  1.0  -0.1618
  C  C223  1  0.530500  0.837500  0.721300  1.0  0.0225
  C  C224  1  0.631700  0.820900  0.720200  1.0  -0.1274
  C  C225  1  0.644400  0.773400  0.704300  1.0  0.0279
  C  C226  1  0.514900  0.892100  0.737600  1.0  0.0296
  C  C227  1  0.577100  0.977700  0.763400  1.0  0.0341
  C  C228  1  0.593700  0.927900  0.743700  1.0  -0.1449
  C  C229  1  0.417400  0.905700  0.751600  1.0  -0.1732
  C  C230  1  0.401800  0.952500  0.768500  1.0  0.02
  C  C231  1  0.249100  0.662100  0.744200  1.0  -0.025
  C  C232  1  0.146500  0.656400  0.735200  1.0  -0.141
  C  C233  1  0.092300  0.610200  0.739300  1.0  0.0572
  C  C234  1  0.146100  0.567700  0.753100  1.0  -0.2118
  C  C235  1  0.249500  0.576000  0.763800  1.0  0.0198
  C  C236  1  0.820100  0.640000  0.717800  1.0  0.0125
  C  C237  1  0.919400  0.643800  0.732300  1.0  -0.1805
  C  C238  1  0.979100  0.602900  0.726100  1.0  0.0755
  C  C239  1  0.935200  0.559300  0.707200  1.0  -0.168
  C  C240  1  0.836900  0.555800  0.691000  1.0  -0.0202
  C  C241  1  0.028800  0.178700  0.134700  1.0  -0.0721
  C  C242  1  0.186200  0.143900  0.173700  1.0  -0.0152
  C  C243  1  0.100600  0.133100  0.135900  1.0  0.1862
  C  C244  1  0.043700  0.081400  0.141700  1.0  -0.0446
  C  C245  1  0.197000  0.172600  0.064600  1.0  -0.0087
  C  C246  1  0.918900  0.096900  0.416500  1.0  -0.0484
  C  C247  1  0.900600  0.193700  0.406200  1.0  -0.0796
  C  C248  1  0.843500  0.138600  0.416700  1.0  0.1868
  C  C249  1  0.759200  0.129500  0.377600  1.0  -0.0698
  C  C250  1  0.723000  0.168800  0.487800  1.0  -0.0565
  C  C251  1  0.700000  0.149900  0.543000  1.0  -0.1265
  C  C252  1  0.725800  0.192300  0.575400  1.0  -0.1118
  C  C253  1  0.694900  0.179300  0.629600  1.0  -0.1016
  C  C254  1  0.651500  0.136500  0.642700  1.0  0.0475
  C  C255  1  0.624000  0.093900  0.618000  1.0  -0.1517
  C  C256  1  0.651000  0.102500  0.562000  1.0  -0.0595
  C  C257  1  0.617500  0.129800  0.694700  1.0  0.6242
  C  C258  1  0.413500  0.123900  0.879300  1.0  0.6798
  C  C259  1  0.357900  0.136100  0.926900  1.0  -0.1236
  C  C260  1  0.396000  0.126400  0.974100  1.0  -0.0664
  C  C261  1  0.342800  0.140300  0.018700  1.0  -0.1003
  C  C262  1  0.252100  0.163800  0.015400  1.0  0.0874
  C  C263  1  0.213700  0.173500  0.966600  1.0  -0.049
  C  C264  1  0.265800  0.159900  0.921200  1.0  -0.09
  C  C265  1  0.470900  0.257000  0.809900  1.0  -0.0037
  C  C266  1  0.454000  0.305000  0.794600  1.0  -0.1621
  C  C267  1  0.530500  0.337500  0.778700  1.0  0.0227
  C  C268  1  0.631700  0.320900  0.779800  1.0  -0.1271
  C  C269  1  0.644400  0.273400  0.795700  1.0  0.0293
  C  C270  1  0.514900  0.392100  0.762400  1.0  0.0298
  C  C271  1  0.577100  0.477700  0.736600  1.0  0.0343
  C  C272  1  0.593700  0.427900  0.756300  1.0  -0.1449
  C  C273  1  0.417400  0.405700  0.748400  1.0  -0.1727
  C  C274  1  0.401800  0.452500  0.731500  1.0  0.0193
  C  C275  1  0.249100  0.162100  0.755800  1.0  -0.0242
  C  C276  1  0.146500  0.156400  0.764800  1.0  -0.1408
  C  C277  1  0.092300  0.110200  0.760700  1.0  0.057
  C  C278  1  0.146100  0.067700  0.746900  1.0  -0.2109
  C  C279  1  0.249500  0.076000  0.736200  1.0  0.0184
  C  C280  1  0.820100  0.140000  0.782200  1.0  0.0122
  C  C281  1  0.919400  0.143800  0.767700  1.0  -0.1805
  C  C282  1  0.979100  0.102900  0.773900  1.0  0.0758
  C  C283  1  0.935200  0.059300  0.792800  1.0  -0.1672
  C  C284  1  0.836900  0.055800  0.809000  1.0  -0.0205
  C  C285  1  0.971200  0.821300  0.865300  1.0  -0.0768
  C  C286  1  0.813800  0.856100  0.826300  1.0  -0.0157
  C  C287  1  0.899400  0.866900  0.864100  1.0  0.1864
  C  C288  1  0.956300  0.918600  0.858300  1.0  -0.0501
  C  C289  1  0.803000  0.827400  0.935400  1.0  -0.0087
  C  C290  1  0.081100  0.903100  0.583500  1.0  -0.0468
  C  C291  1  0.099400  0.806300  0.593800  1.0  -0.079
  C  C292  1  0.156500  0.861400  0.583300  1.0  0.1865
  C  C293  1  0.240800  0.870500  0.622400  1.0  -0.0666
  C  C294  1  0.277000  0.831200  0.512200  1.0  -0.0556
  C  C295  1  0.300000  0.850100  0.457000  1.0  -0.1274
  C  C296  1  0.274200  0.807700  0.424600  1.0  -0.1103
  C  C297  1  0.305100  0.820700  0.370400  1.0  -0.1015
  C  C298  1  0.348500  0.863500  0.357300  1.0  0.0454
  C  C299  1  0.376000  0.906100  0.382000  1.0  -0.1501
  C  C300  1  0.349000  0.897500  0.438000  1.0  -0.0603
  C  C301  1  0.382500  0.870200  0.305300  1.0  0.6235
  C  C302  1  0.586500  0.876100  0.120700  1.0  0.6804
  C  C303  1  0.642100  0.863900  0.073100  1.0  -0.1241
  C  C304  1  0.604000  0.873600  0.025900  1.0  -0.0668
  C  C305  1  0.657200  0.859700  0.981300  1.0  -0.0999
  C  C306  1  0.747900  0.836200  0.984600  1.0  0.0852
  C  C307  1  0.786300  0.826500  0.033400  1.0  -0.0474
  C  C308  1  0.734200  0.840100  0.078800  1.0  -0.0919
  C  C309  1  0.529100  0.743000  0.190100  1.0  -0.0016
  C  C310  1  0.546000  0.695000  0.205400  1.0  -0.162
  C  C311  1  0.469500  0.662500  0.221300  1.0  0.0221
  C  C312  1  0.368300  0.679100  0.220200  1.0  -0.1286
  C  C313  1  0.355600  0.726600  0.204300  1.0  0.0302
  C  C314  1  0.485100  0.607900  0.237600  1.0  0.0293
  C  C315  1  0.422900  0.522300  0.263400  1.0  0.0321
  C  C316  1  0.406300  0.572100  0.243700  1.0  -0.1454
  C  C317  1  0.582600  0.594300  0.251600  1.0  -0.173
  C  C318  1  0.598200  0.547500  0.268500  1.0  0.0193
  C  C319  1  0.750900  0.837900  0.244200  1.0  -0.0262
  C  C320  1  0.853500  0.843600  0.235200  1.0  -0.1389
  C  C321  1  0.907700  0.889800  0.239300  1.0  0.057
  C  C322  1  0.853900  0.932300  0.253100  1.0  -0.2112
  C  C323  1  0.750500  0.924000  0.263800  1.0  0.0199
  C  C324  1  0.179900  0.860000  0.217800  1.0  0.0116
  C  C325  1  0.080600  0.856200  0.232300  1.0  -0.1802
  C  C326  1  0.020900  0.897100  0.226100  1.0  0.0756
  C  C327  1  0.064800  0.940700  0.207200  1.0  -0.1666
  C  C328  1  0.163100  0.944200  0.191000  1.0  -0.0216
  C  C329  1  0.971200  0.321300  0.634700  1.0  -0.0757
  C  C330  1  0.813800  0.356100  0.673700  1.0  -0.0147
  C  C331  1  0.899400  0.366900  0.635900  1.0  0.1861
  C  C332  1  0.956300  0.418600  0.641700  1.0  -0.0446
  C  C333  1  0.803000  0.327400  0.564600  1.0  -0.0081
  C  C334  1  0.081100  0.403100  0.916500  1.0  -0.0502
  C  C335  1  0.099400  0.306300  0.906200  1.0  -0.0792
  C  C336  1  0.156500  0.361400  0.916700  1.0  0.1884
  C  C337  1  0.240800  0.370500  0.877600  1.0  -0.0685
  C  C338  1  0.277000  0.331200  0.987800  1.0  -0.0558
  C  C339  1  0.300000  0.350100  0.043000  1.0  -0.1278
  C  C340  1  0.274200  0.307700  0.075400  1.0  -0.1106
  C  C341  1  0.305100  0.320700  0.129600  1.0  -0.1012
  C  C342  1  0.348500  0.363500  0.142700  1.0  0.0465
  C  C343  1  0.376000  0.406100  0.118000  1.0  -0.1505
  C  C344  1  0.349000  0.397500  0.062000  1.0  -0.0601
  C  C345  1  0.382500  0.370200  0.194700  1.0  0.6242
  C  C346  1  0.586500  0.376100  0.379300  1.0  0.6813
  C  C347  1  0.642100  0.363900  0.426900  1.0  -0.125
  C  C348  1  0.604000  0.373600  0.474100  1.0  -0.0669
  C  C349  1  0.657200  0.359700  0.518700  1.0  -0.1007
  C  C350  1  0.747900  0.336200  0.515400  1.0  0.0867
  C  C351  1  0.786300  0.326500  0.466600  1.0  -0.0471
  C  C352  1  0.734200  0.340100  0.421200  1.0  -0.0908
  C  C353  1  0.529100  0.243000  0.309900  1.0  -0.0032
  C  C354  1  0.546000  0.195000  0.294600  1.0  -0.1623
  C  C355  1  0.469500  0.162500  0.278700  1.0  0.0222
  C  C356  1  0.368300  0.179100  0.279800  1.0  -0.1285
  C  C357  1  0.355600  0.226600  0.295700  1.0  0.0313
  C  C358  1  0.485100  0.107900  0.262400  1.0  0.0295
  C  C359  1  0.422900  0.022300  0.236600  1.0  0.0322
  C  C360  1  0.406300  0.072100  0.256300  1.0  -0.1456
  C  C361  1  0.582600  0.094300  0.248400  1.0  -0.1724
  C  C362  1  0.598200  0.047500  0.231500  1.0  0.0183
  C  C363  1  0.750900  0.337900  0.255800  1.0  -0.0261
  C  C364  1  0.853500  0.343600  0.264800  1.0  -0.1388
  C  C365  1  0.907700  0.389800  0.260700  1.0  0.0571
  C  C366  1  0.853900  0.432300  0.246900  1.0  -0.2111
  C  C367  1  0.750500  0.424000  0.236200  1.0  0.019
  C  C368  1  0.179900  0.360000  0.282200  1.0  0.0122
  C  C369  1  0.080600  0.356200  0.267700  1.0  -0.1802
  C  C370  1  0.020900  0.397100  0.273900  1.0  0.0759
  C  C371  1  0.064800  0.440700  0.292800  1.0  -0.1651
  C  C372  1  0.163100  0.444200  0.309000  1.0  -0.021
  N  N373  1  0.145500  0.628600  0.420400  1.0  -0.4014
  N  N374  1  0.799600  0.636500  0.030200  1.0  -0.4334
  N  N375  1  0.779900  0.596300  0.698000  1.0  0.3068
  N  N376  1  0.564700  0.741100  0.689400  1.0  0.2893
  N  N377  1  0.297600  0.621900  0.761100  1.0  0.2548
  N  N378  1  0.480200  0.989600  0.776000  1.0  0.2335
  N  N379  1  0.145500  0.128600  0.079600  1.0  -0.4
  N  N380  1  0.799600  0.136500  0.469800  1.0  -0.4345
  N  N381  1  0.779900  0.096300  0.802000  1.0  0.3063
  N  N382  1  0.564700  0.241100  0.810600  1.0  0.2896
  N  N383  1  0.297600  0.121900  0.738900  1.0  0.2512
  N  N384  1  0.480200  0.489600  0.724000  1.0  0.2335
  N  N385  1  0.854500  0.871400  0.920400  1.0  -0.3995
  N  N386  1  0.200400  0.863500  0.530200  1.0  -0.4336
  N  N387  1  0.220100  0.903700  0.198000  1.0  0.3057
  N  N388  1  0.435300  0.758900  0.189400  1.0  0.2908
  N  N389  1  0.702400  0.878100  0.261100  1.0  0.2539
  N  N390  1  0.519800  0.510400  0.276000  1.0  0.2332
  N  N391  1  0.854500  0.371400  0.579600  1.0  -0.3998
  N  N392  1  0.200400  0.363500  0.969800  1.0  -0.4355
  N  N393  1  0.220100  0.403700  0.302000  1.0  0.305
  N  N394  1  0.435300  0.258900  0.310600  1.0  0.2901
  N  N395  1  0.702400  0.378100  0.238900  1.0  0.2509
  N  N396  1  0.519800  0.010400  0.224000  1.0  0.2325
  O  O397  1  0.980100  0.681200  0.315700  1.0  -0.6813
  O  O398  1  0.998500  0.580500  0.306200  1.0  -0.72
  O  O399  1  0.147500  0.647100  0.276500  1.0  -0.6115
  O  O400  1  0.801300  0.671800  0.263900  1.0  -0.7764
  O  O401  1  0.954200  0.738600  0.234500  1.0  -0.8566
  O  O402  1  0.823700  0.570600  0.254700  1.0  -0.8482
  O  O403  1  0.974100  0.637500  0.224500  1.0  -0.8487
  O  O404  1  0.124500  0.704400  0.193500  1.0  -0.8633
  O  O405  1  0.992900  0.538100  0.214100  1.0  -0.8076
  O  O406  1  0.143400  0.605000  0.185500  1.0  -0.7311
  O  O407  1  0.797100  0.630000  0.173500  1.0  -0.6518
  O  O408  1  0.950300  0.695500  0.142400  1.0  -0.6473
  O  O409  1  0.966500  0.594800  0.132800  1.0  -0.6684
  O  O410  1  0.611800  0.666100  0.774400  1.0  -0.6587
  O  O411  1  0.596100  0.583700  0.787600  1.0  -0.6294
  O  O412  1  0.376600  0.635700  0.663100  1.0  -0.6399
  O  O413  1  0.499900  0.604300  0.618300  1.0  -0.62
  O  O414  1  0.682800  0.591500  0.682200  1.0  -0.6827
  O  O415  1  0.582800  0.695500  0.670700  1.0  -0.6635
  O  O416  1  0.399400  0.628100  0.769800  1.0  -0.6541
  O  O417  1  0.460100  0.033200  0.796700  1.0  -0.6943
  O  O418  1  0.980100  0.181200  0.184300  1.0  -0.681
  O  O419  1  0.998500  0.080500  0.193800  1.0  -0.7214
  O  O420  1  0.147500  0.147100  0.223500  1.0  -0.6121
  O  O421  1  0.801300  0.171800  0.236100  1.0  -0.7759
  O  O422  1  0.954200  0.238600  0.265500  1.0  -0.8574
  O  O423  1  0.823700  0.070600  0.245300  1.0  -0.848
  O  O424  1  0.974100  0.137500  0.275500  1.0  -0.8481
  O  O425  1  0.124500  0.204400  0.306500  1.0  -0.8617
  O  O426  1  0.992900  0.038100  0.285900  1.0  -0.8102
  O  O427  1  0.143400  0.105000  0.314500  1.0  -0.7258
  O  O428  1  0.797100  0.130000  0.326500  1.0  -0.6519
  O  O429  1  0.950300  0.195500  0.357600  1.0  -0.6474
  O  O430  1  0.966500  0.094800  0.367200  1.0  -0.6697
  O  O431  1  0.611800  0.166100  0.725600  1.0  -0.6597
  O  O432  1  0.596100  0.083700  0.712400  1.0  -0.6291
  O  O433  1  0.376600  0.135700  0.836900  1.0  -0.6387
  O  O434  1  0.499900  0.104300  0.881700  1.0  -0.6186
  O  O435  1  0.682800  0.091500  0.817800  1.0  -0.6841
  O  O436  1  0.582800  0.195500  0.829300  1.0  -0.6626
  O  O437  1  0.399400  0.128100  0.730200  1.0  -0.6552
  O  O438  1  0.460100  0.533200  0.703300  1.0  -0.7002
  O  O439  1  0.019900  0.818800  0.815700  1.0  -0.6834
  O  O440  1  0.001500  0.919500  0.806200  1.0  -0.7205
  O  O441  1  0.852500  0.852900  0.776500  1.0  -0.6107
  O  O442  1  0.198700  0.828200  0.763900  1.0  -0.7747
  O  O443  1  0.045800  0.761400  0.734500  1.0  -0.8586
  O  O444  1  0.176300  0.929400  0.754700  1.0  -0.847
  O  O445  1  0.025900  0.862500  0.724500  1.0  -0.8481
  O  O446  1  0.875500  0.795600  0.693500  1.0  -0.8619
  O  O447  1  0.007100  0.961900  0.714100  1.0  -0.8101
  O  O448  1  0.856600  0.895000  0.685500  1.0  -0.7337
  O  O449  1  0.202900  0.870000  0.673500  1.0  -0.6517
  O  O450  1  0.049700  0.804500  0.642400  1.0  -0.6495
  O  O451  1  0.033500  0.905200  0.632800  1.0  -0.67
  O  O452  1  0.388200  0.833900  0.274400  1.0  -0.6577
  O  O453  1  0.403900  0.916300  0.287600  1.0  -0.6287
  O  O454  1  0.623400  0.864300  0.163100  1.0  -0.639
  O  O455  1  0.500100  0.895700  0.118300  1.0  -0.618
  O  O456  1  0.317200  0.908500  0.182200  1.0  -0.6823
  O  O457  1  0.417200  0.804500  0.170700  1.0  -0.6619
  O  O458  1  0.600600  0.871900  0.269800  1.0  -0.6547
  O  O459  1  0.539900  0.466800  0.296700  1.0  -0.6961
  O  O460  1  0.019900  0.318800  0.684300  1.0  -0.6832
  O  O461  1  0.001500  0.419500  0.693800  1.0  -0.7216
  O  O462  1  0.852500  0.352900  0.723500  1.0  -0.6118
  O  O463  1  0.198700  0.328200  0.736100  1.0  -0.7752
  O  O464  1  0.045800  0.261400  0.765500  1.0  -0.8586
  O  O465  1  0.176300  0.429400  0.745300  1.0  -0.847
  O  O466  1  0.025900  0.362500  0.775500  1.0  -0.8474
  O  O467  1  0.875500  0.295600  0.806500  1.0  -0.8637
  O  O468  1  0.007100  0.461900  0.785900  1.0  -0.8109
  O  O469  1  0.856600  0.395000  0.814500  1.0  -0.7245
  O  O470  1  0.202900  0.370000  0.826500  1.0  -0.6524
  O  O471  1  0.049700  0.304500  0.857600  1.0  -0.6501
  O  O472  1  0.033500  0.405200  0.867200  1.0  -0.6684
  O  O473  1  0.388200  0.333900  0.225600  1.0  -0.6581
  O  O474  1  0.403900  0.416300  0.212400  1.0  -0.6286
  O  O475  1  0.623400  0.364300  0.336900  1.0  -0.6376
  O  O476  1  0.500100  0.395700  0.381700  1.0  -0.6167
  O  O477  1  0.317200  0.408500  0.317800  1.0  -0.683
  O  O478  1  0.417200  0.304500  0.329300  1.0  -0.6623
  O  O479  1  0.600600  0.371900  0.230200  1.0  -0.6552
  O  O480  1  0.539900  0.966800  0.203300  1.0  -0.7012
