# generated using pymatgen
data_AlPO4
_symmetry_space_group_name_H-M   'P 1'
_cell_length_a   18.77320000
_cell_length_b   18.77320000
_cell_length_c   9.45370000
_cell_angle_alpha   90.00000000
_cell_angle_beta   90.00000000
_cell_angle_gamma   90.00000000
_symmetry_Int_Tables_number   1
_chemical_formula_structural   AlPO4
_chemical_formula_sum   'Al24 P24 O96'
_cell_volume   3331.79621361
_cell_formula_units_Z   24
loop_
 _symmetry_equiv_pos_site_id
 _symmetry_equiv_pos_as_xyz
  1  'x, y, z'
loop_
 _atom_site_type_symbol
 _atom_site_label
 _atom_site_symmetry_multiplicity
 _atom_site_fract_x
 _atom_site_fract_y
 _atom_site_fract_z
 _atom_site_occupancy
 _atom_site_charge
  Al  Al1  1  0.064120  0.665680  0.080900  1.0  2.0157
  Al  Al2  1  0.164010  0.455770  0.157800  1.0  1.9854
  Al  Al3  1  0.949300  0.434810  0.335800  1.0  2.0216
  Al  Al4  1  0.435880  0.834320  0.080900  1.0  2.0159
  Al  Al5  1  0.335990  0.044230  0.157800  1.0  1.985
  Al  Al6  1  0.550700  0.065190  0.335800  1.0  2.0212
  Al  Al7  1  0.834320  0.064120  0.080900  1.0  2.0146
  Al  Al8  1  0.044230  0.164010  0.157800  1.0  1.9856
  Al  Al9  1  0.065190  0.949300  0.335800  1.0  2.0223
  Al  Al10  1  0.665680  0.435880  0.080900  1.0  2.0147
  Al  Al11  1  0.455770  0.335990  0.157800  1.0  1.9851
  Al  Al12  1  0.434810  0.550700  0.335800  1.0  2.0214
  Al  Al13  1  0.935880  0.334320  0.919100  1.0  2.0154
  Al  Al14  1  0.835990  0.544230  0.842200  1.0  1.985
  Al  Al15  1  0.050700  0.565190  0.664200  1.0  2.021
  Al  Al16  1  0.564120  0.165680  0.919100  1.0  2.015
  Al  Al17  1  0.664010  0.955770  0.842200  1.0  1.9855
  Al  Al18  1  0.449300  0.934810  0.664200  1.0  2.0212
  Al  Al19  1  0.165680  0.935880  0.919100  1.0  2.0138
  Al  Al20  1  0.955770  0.835990  0.842200  1.0  1.985
  Al  Al21  1  0.934810  0.050700  0.664200  1.0  2.0211
  Al  Al22  1  0.334320  0.564120  0.919100  1.0  2.0139
  Al  Al23  1  0.544230  0.664010  0.842200  1.0  1.9857
  Al  Al24  1  0.565190  0.449300  0.664200  1.0  2.0222
  P  P25  1  0.064130  0.557680  0.336300  1.0  2.1524
  P  P26  1  0.050210  0.333150  0.162200  1.0  2.1581
  P  P27  1  0.834200  0.433760  0.094200  1.0  2.1551
  P  P28  1  0.435870  0.942320  0.336300  1.0  2.1521
  P  P29  1  0.449790  0.166850  0.162200  1.0  2.1483
  P  P30  1  0.665800  0.066240  0.094200  1.0  2.1561
  P  P31  1  0.942320  0.064130  0.336300  1.0  2.1506
  P  P32  1  0.166850  0.050210  0.162200  1.0  2.1615
  P  P33  1  0.066240  0.834200  0.094200  1.0  2.156
  P  P34  1  0.557680  0.435870  0.336300  1.0  2.1523
  P  P35  1  0.333150  0.449790  0.162200  1.0  2.1555
  P  P36  1  0.433760  0.665800  0.094200  1.0  2.1559
  P  P37  1  0.935870  0.442320  0.663700  1.0  2.1523
  P  P38  1  0.949790  0.666850  0.837800  1.0  2.126
  P  P39  1  0.165800  0.566240  0.905800  1.0  2.1552
  P  P40  1  0.564130  0.057680  0.663700  1.0  2.1524
  P  P41  1  0.550210  0.833150  0.837800  1.0  2.1363
  P  P42  1  0.334200  0.933760  0.905800  1.0  2.1543
  P  P43  1  0.057680  0.935870  0.663700  1.0  2.1523
  P  P44  1  0.833150  0.949790  0.837800  1.0  2.1303
  P  P45  1  0.933760  0.165800  0.905800  1.0  2.1552
  P  P46  1  0.442320  0.564130  0.663700  1.0  2.1506
  P  P47  1  0.666850  0.550210  0.837800  1.0  2.1363
  P  P48  1  0.566240  0.334200  0.905800  1.0  2.1555
  O  O49  1  0.057400  0.624300  0.246300  1.0  -1.0138
  O  O50  1  0.075400  0.580700  0.487800  1.0  -0.996
  O  O51  1  0.127300  0.512800  0.290300  1.0  -1.063
  O  O52  1  0.995000  0.516200  0.323900  1.0  -1.0872
  O  O53  1  0.015100  0.343300  0.018900  1.0  -1.0779
  O  O54  1  0.002600  0.364100  0.277500  1.0  -1.0724
  O  O55  1  0.122100  0.370800  0.159800  1.0  -1.0024
  O  O56  1  0.062400  0.255800  0.193200  1.0  -0.9952
  O  O57  1  0.844900  0.502100  0.012700  1.0  -1.0673
  O  O58  1  0.863000  0.370300  0.014600  1.0  -1.065
  O  O59  1  0.870300  0.440100  0.236300  1.0  -1.0208
  O  O60  1  0.755600  0.420500  0.120700  1.0  -1.0145
  O  O61  1  0.442600  0.875700  0.246300  1.0  -1.0131
  O  O62  1  0.424600  0.919300  0.487800  1.0  -0.997
  O  O63  1  0.372700  0.987200  0.290300  1.0  -1.063
  O  O64  1  0.505000  0.983800  0.323900  1.0  -1.0868
  O  O65  1  0.484900  0.156700  0.018900  1.0  -1.0782
  O  O66  1  0.497400  0.135900  0.277500  1.0  -1.0725
  O  O67  1  0.377900  0.129200  0.159800  1.0  -1.002
  O  O68  1  0.437600  0.244200  0.193200  1.0  -0.9959
  O  O69  1  0.655100  0.997900  0.012700  1.0  -1.0663
  O  O70  1  0.637000  0.129700  0.014600  1.0  -1.066
  O  O71  1  0.629700  0.059900  0.236300  1.0  -1.0201
  O  O72  1  0.744400  0.079500  0.120700  1.0  -1.0143
  O  O73  1  0.875700  0.057400  0.246300  1.0  -1.012
  O  O74  1  0.919300  0.075400  0.487800  1.0  -0.9978
  O  O75  1  0.987200  0.127300  0.290300  1.0  -1.0625
  O  O76  1  0.983800  0.995000  0.323900  1.0  -1.088
  O  O77  1  0.156700  0.015100  0.018900  1.0  -1.0795
  O  O78  1  0.135900  0.002600  0.277500  1.0  -1.071
  O  O79  1  0.129200  0.122100  0.159800  1.0  -1.0024
  O  O80  1  0.244200  0.062400  0.193200  1.0  -0.9955
  O  O81  1  0.997900  0.844900  0.012700  1.0  -1.0642
  O  O82  1  0.129700  0.863000  0.014600  1.0  -1.0648
  O  O83  1  0.059900  0.870300  0.236300  1.0  -1.0207
  O  O84  1  0.079500  0.755600  0.120700  1.0  -1.0134
  O  O85  1  0.624300  0.442600  0.246300  1.0  -1.0122
  O  O86  1  0.580700  0.424600  0.487800  1.0  -0.9957
  O  O87  1  0.512800  0.372700  0.290300  1.0  -1.0624
  O  O88  1  0.516200  0.505000  0.323900  1.0  -1.0894
  O  O89  1  0.343300  0.484900  0.018900  1.0  -1.0799
  O  O90  1  0.364100  0.497400  0.277500  1.0  -1.0711
  O  O91  1  0.370800  0.377900  0.159800  1.0  -1.0027
  O  O92  1  0.255800  0.437600  0.193200  1.0  -0.9955
  O  O93  1  0.502100  0.655100  0.012700  1.0  -1.0644
  O  O94  1  0.370300  0.637000  0.014600  1.0  -1.0656
  O  O95  1  0.440100  0.629700  0.236300  1.0  -1.0205
  O  O96  1  0.420500  0.744400  0.120700  1.0  -1.0133
  O  O97  1  0.942600  0.375700  0.753700  1.0  -1.0136
  O  O98  1  0.924600  0.419300  0.512200  1.0  -0.9964
  O  O99  1  0.872700  0.487200  0.709700  1.0  -1.0621
  O  O100  1  0.005000  0.483800  0.676100  1.0  -1.0867
  O  O101  1  0.984900  0.656700  0.981100  1.0  -1.0772
  O  O102  1  0.997400  0.635900  0.722500  1.0  -1.0713
  O  O103  1  0.877900  0.629200  0.840200  1.0  -1.0023
  O  O104  1  0.937600  0.744200  0.806800  1.0  -0.9949
  O  O105  1  0.155100  0.497900  0.987300  1.0  -1.0668
  O  O106  1  0.137000  0.629700  0.985400  1.0  -1.0656
  O  O107  1  0.129700  0.559900  0.763700  1.0  -1.0207
  O  O108  1  0.244400  0.579500  0.879300  1.0  -1.0135
  O  O109  1  0.557400  0.124300  0.753700  1.0  -1.0147
  O  O110  1  0.575400  0.080700  0.512200  1.0  -0.9953
  O  O111  1  0.627300  0.012800  0.709700  1.0  -1.0626
  O  O112  1  0.495000  0.016200  0.676100  1.0  -1.0872
  O  O113  1  0.515100  0.843300  0.981100  1.0  -1.0767
  O  O114  1  0.502600  0.864100  0.722500  1.0  -1.0708
  O  O115  1  0.622100  0.870800  0.840200  1.0  -1.0027
  O  O116  1  0.562400  0.755800  0.806800  1.0  -0.9948
  O  O117  1  0.344900  0.002100  0.987300  1.0  -1.0674
  O  O118  1  0.363000  0.870300  0.985400  1.0  -1.0647
  O  O119  1  0.370300  0.940100  0.763700  1.0  -1.0213
  O  O120  1  0.255600  0.920500  0.879300  1.0  -1.0145
  O  O121  1  0.124300  0.942600  0.753700  1.0  -1.0126
  O  O122  1  0.080700  0.924600  0.512200  1.0  -0.9949
  O  O123  1  0.012800  0.872700  0.709700  1.0  -1.064
  O  O124  1  0.016200  0.005000  0.676100  1.0  -1.0894
  O  O125  1  0.843300  0.984900  0.981100  1.0  -1.0789
  O  O126  1  0.864100  0.997400  0.722500  1.0  -1.0694
  O  O127  1  0.870800  0.877900  0.840200  1.0  -1.003
  O  O128  1  0.755800  0.937600  0.806800  1.0  -0.9952
  O  O129  1  0.002100  0.155100  0.987300  1.0  -1.0645
  O  O130  1  0.870300  0.137000  0.985400  1.0  -1.0672
  O  O131  1  0.940100  0.129700  0.763700  1.0  -1.0212
  O  O132  1  0.920500  0.244400  0.879300  1.0  -1.0124
  O  O133  1  0.375700  0.557400  0.753700  1.0  -1.0127
  O  O134  1  0.419300  0.575400  0.512200  1.0  -0.9967
  O  O135  1  0.487200  0.627300  0.709700  1.0  -1.0645
  O  O136  1  0.483800  0.495000  0.676100  1.0  -1.0879
  O  O137  1  0.656700  0.515100  0.981100  1.0  -1.0787
  O  O138  1  0.635900  0.502600  0.722500  1.0  -1.0698
  O  O139  1  0.629200  0.622100  0.840200  1.0  -1.0024
  O  O140  1  0.744200  0.562400  0.806800  1.0  -0.9948
  O  O141  1  0.497900  0.344900  0.987300  1.0  -1.0646
  O  O142  1  0.629700  0.363000  0.985400  1.0  -1.0662
  O  O143  1  0.559900  0.370300  0.763700  1.0  -1.021
  O  O144  1  0.579500  0.255600  0.879300  1.0  -1.0133
