# generated using pymatgen
data_AlPO4
_symmetry_space_group_name_H-M   'P 1'
_cell_length_a   18.69100000
_cell_length_b   18.69100000
_cell_length_c   9.42300000
_cell_angle_alpha   90.00000000
_cell_angle_beta   90.00000000
_cell_angle_gamma   90.00000000
_symmetry_Int_Tables_number   1
_chemical_formula_structural   AlPO4
_chemical_formula_sum   'Al24 P24 O96'
_cell_volume   3291.95785146
_cell_formula_units_Z   24
loop_
 _symmetry_equiv_pos_site_id
 _symmetry_equiv_pos_as_xyz
  1  'x, y, z'
loop_
 _atom_site_type_symbol
 _atom_site_label
 _atom_site_symmetry_multiplicity
 _atom_site_fract_x
 _atom_site_fract_y
 _atom_site_fract_z
 _atom_site_occupancy
 _atom_site_charge
  Al  Al1  1  0.065210  0.665480  0.080490  1.0  2.0004
  Al  Al2  1  0.163930  0.455810  0.156050  1.0  1.9792
  Al  Al3  1  0.050650  0.565770  0.665410  1.0  2.0104
  Al  Al4  1  0.434790  0.834520  0.080490  1.0  2.0003
  Al  Al5  1  0.336070  0.044190  0.156050  1.0  1.9788
  Al  Al6  1  0.449350  0.934230  0.665410  1.0  2.0107
  Al  Al7  1  0.834520  0.065210  0.080490  1.0  1.9994
  Al  Al8  1  0.044190  0.163930  0.156050  1.0  1.9793
  Al  Al9  1  0.934230  0.050650  0.665410  1.0  2.0097
  Al  Al10  1  0.665480  0.434790  0.080490  1.0  1.999
  Al  Al11  1  0.455810  0.336070  0.156050  1.0  1.9787
  Al  Al12  1  0.565770  0.449350  0.665410  1.0  2.0115
  Al  Al13  1  0.934790  0.334520  0.919510  1.0  1.9999
  Al  Al14  1  0.836070  0.544190  0.843950  1.0  1.9788
  Al  Al15  1  0.949350  0.434230  0.334590  1.0  2.0108
  Al  Al16  1  0.565210  0.165480  0.919510  1.0  2.0
  Al  Al17  1  0.663930  0.955810  0.843950  1.0  1.9794
  Al  Al18  1  0.550650  0.065770  0.334590  1.0  2.0104
  Al  Al19  1  0.165480  0.934790  0.919510  1.0  1.9984
  Al  Al20  1  0.955810  0.836070  0.843950  1.0  1.9787
  Al  Al21  1  0.065770  0.949350  0.334590  1.0  2.0114
  Al  Al22  1  0.334520  0.565210  0.919510  1.0  1.9989
  Al  Al23  1  0.544190  0.663930  0.843950  1.0  1.9794
  Al  Al24  1  0.434230  0.550650  0.334590  1.0  2.0098
  P  P25  1  0.064890  0.557200  0.335580  1.0  2.1315
  P  P26  1  0.949660  0.666410  0.839780  1.0  2.1144
  P  P27  1  0.165820  0.567330  0.904510  1.0  2.1226
  P  P28  1  0.435110  0.942800  0.335580  1.0  2.1313
  P  P29  1  0.550340  0.833590  0.839780  1.0  2.1195
  P  P30  1  0.334180  0.932670  0.904510  1.0  2.1217
  P  P31  1  0.942800  0.064890  0.335580  1.0  2.1296
  P  P32  1  0.833590  0.949660  0.839780  1.0  2.1106
  P  P33  1  0.932670  0.165820  0.904510  1.0  2.1225
  P  P34  1  0.557200  0.435110  0.335580  1.0  2.1315
  P  P35  1  0.666410  0.550340  0.839780  1.0  2.1116
  P  P36  1  0.567330  0.334180  0.904510  1.0  2.1227
  P  P37  1  0.935110  0.442800  0.664420  1.0  2.1318
  P  P38  1  0.050340  0.333590  0.160220  1.0  2.1407
  P  P39  1  0.834180  0.432670  0.095490  1.0  2.123
  P  P40  1  0.564890  0.057200  0.664420  1.0  2.1317
  P  P41  1  0.449660  0.166410  0.160220  1.0  2.1354
  P  P42  1  0.665820  0.067330  0.095490  1.0  2.1239
  P  P43  1  0.057200  0.935110  0.664420  1.0  2.1317
  P  P44  1  0.166410  0.050340  0.160220  1.0  2.1403
  P  P45  1  0.067330  0.834180  0.095490  1.0  2.1238
  P  P46  1  0.442800  0.564890  0.664420  1.0  2.13
  P  P47  1  0.333590  0.449660  0.160220  1.0  2.1394
  P  P48  1  0.432670  0.665820  0.095490  1.0  2.1237
  O  O49  1  0.059260  0.624050  0.245100  1.0  -1.0064
  O  O50  1  0.074940  0.580910  0.489100  1.0  -0.9946
  O  O51  1  0.128780  0.512580  0.293800  1.0  -1.0224
  O  O52  1  0.995390  0.516410  0.321400  1.0  -1.0834
  O  O53  1  0.985240  0.656440  0.983600  1.0  -1.0763
  O  O54  1  0.997130  0.637110  0.721600  1.0  -1.0514
  O  O55  1  0.878150  0.629160  0.842600  1.0  -0.9902
  O  O56  1  0.937420  0.744610  0.808800  1.0  -1.024
  O  O57  1  0.154100  0.499950  0.988600  1.0  -1.0722
  O  O58  1  0.138020  0.632610  0.983000  1.0  -1.0331
  O  O59  1  0.130090  0.560640  0.760900  1.0  -1.0092
  O  O60  1  0.244570  0.580170  0.877700  1.0  -1.0079
  O  O61  1  0.440740  0.875950  0.245100  1.0  -1.006
  O  O62  1  0.425060  0.919090  0.489100  1.0  -0.9948
  O  O63  1  0.371220  0.987420  0.293800  1.0  -1.0229
  O  O64  1  0.504610  0.983590  0.321400  1.0  -1.0829
  O  O65  1  0.514760  0.843560  0.983600  1.0  -1.0767
  O  O66  1  0.502870  0.862890  0.721600  1.0  -1.0504
  O  O67  1  0.621850  0.870840  0.842600  1.0  -0.9897
  O  O68  1  0.562580  0.755390  0.808800  1.0  -1.0241
  O  O69  1  0.345900  0.000050  0.988600  1.0  -1.0733
  O  O70  1  0.361980  0.867390  0.983000  1.0  -1.033
  O  O71  1  0.369910  0.939360  0.760900  1.0  -1.0088
  O  O72  1  0.255430  0.919830  0.877700  1.0  -1.0085
  O  O73  1  0.875950  0.059260  0.245100  1.0  -1.005
  O  O74  1  0.919090  0.074940  0.489100  1.0  -0.9954
  O  O75  1  0.987420  0.128780  0.293800  1.0  -1.0253
  O  O76  1  0.983590  0.995390  0.321400  1.0  -1.0846
  O  O77  1  0.843560  0.985240  0.983600  1.0  -1.0782
  O  O78  1  0.862890  0.997130  0.721600  1.0  -1.0494
  O  O79  1  0.870840  0.878150  0.842600  1.0  -0.9902
  O  O80  1  0.755390  0.937420  0.808800  1.0  -1.0244
  O  O81  1  0.000050  0.154100  0.988600  1.0  -1.0688
  O  O82  1  0.867390  0.138020  0.983000  1.0  -1.0328
  O  O83  1  0.939360  0.130090  0.760900  1.0  -1.0093
  O  O84  1  0.919830  0.244570  0.877700  1.0  -1.0072
  O  O85  1  0.624050  0.440740  0.245100  1.0  -1.0053
  O  O86  1  0.580910  0.425060  0.489100  1.0  -0.994
  O  O87  1  0.512580  0.371220  0.293800  1.0  -1.024
  O  O88  1  0.516410  0.504610  0.321400  1.0  -1.0859
  O  O89  1  0.656440  0.514760  0.983600  1.0  -1.0777
  O  O90  1  0.637110  0.502870  0.721600  1.0  -1.0493
  O  O91  1  0.629160  0.621850  0.842600  1.0  -0.9902
  O  O92  1  0.744610  0.562580  0.808800  1.0  -1.0248
  O  O93  1  0.499950  0.345900  0.988600  1.0  -1.0684
  O  O94  1  0.632610  0.361980  0.983000  1.0  -1.0327
  O  O95  1  0.560640  0.369910  0.760900  1.0  -1.0087
  O  O96  1  0.580170  0.255430  0.877700  1.0  -1.0074
  O  O97  1  0.940740  0.375950  0.754900  1.0  -1.0064
  O  O98  1  0.925060  0.419090  0.510900  1.0  -0.9935
  O  O99  1  0.871220  0.487420  0.706200  1.0  -1.0202
  O  O100  1  0.004610  0.483590  0.678600  1.0  -1.0828
  O  O101  1  0.014760  0.343560  0.016400  1.0  -1.0781
  O  O102  1  0.002870  0.362890  0.278400  1.0  -1.0534
  O  O103  1  0.121850  0.370840  0.157400  1.0  -0.9891
  O  O104  1  0.062580  0.255390  0.191200  1.0  -1.0238
  O  O105  1  0.845900  0.500050  0.011400  1.0  -1.0712
  O  O106  1  0.861980  0.367390  0.017000  1.0  -1.0328
  O  O107  1  0.869910  0.439360  0.239100  1.0  -1.0084
  O  O108  1  0.755430  0.419830  0.122300  1.0  -1.0084
  O  O109  1  0.559260  0.124050  0.754900  1.0  -1.007
  O  O110  1  0.574940  0.080910  0.510900  1.0  -0.9931
  O  O111  1  0.628780  0.012580  0.706200  1.0  -1.0198
  O  O112  1  0.495390  0.016410  0.678600  1.0  -1.0834
  O  O113  1  0.485240  0.156440  0.016400  1.0  -1.0779
  O  O114  1  0.497130  0.137110  0.278400  1.0  -1.0541
  O  O115  1  0.378150  0.129160  0.157400  1.0  -0.99
  O  O116  1  0.437420  0.244610  0.191200  1.0  -1.0245
  O  O117  1  0.654100  0.999950  0.011400  1.0  -1.0706
  O  O118  1  0.638020  0.132610  0.017000  1.0  -1.0329
  O  O119  1  0.630090  0.060640  0.239100  1.0  -1.0084
  O  O120  1  0.744570  0.080170  0.122300  1.0  -1.0085
  O  O121  1  0.124050  0.940740  0.754900  1.0  -1.0055
  O  O122  1  0.080910  0.925060  0.510900  1.0  -0.9925
  O  O123  1  0.012580  0.871220  0.706200  1.0  -1.0233
  O  O124  1  0.016410  0.004610  0.678600  1.0  -1.0858
  O  O125  1  0.156440  0.014760  0.016400  1.0  -1.0788
  O  O126  1  0.137110  0.002870  0.278400  1.0  -1.0518
  O  O127  1  0.129160  0.121850  0.157400  1.0  -0.9904
  O  O128  1  0.244610  0.062580  0.191200  1.0  -1.0249
  O  O129  1  0.999950  0.845900  0.011400  1.0  -1.0674
  O  O130  1  0.132610  0.861980  0.017000  1.0  -1.0324
  O  O131  1  0.060640  0.869910  0.239100  1.0  -1.0082
  O  O132  1  0.080170  0.755430  0.122300  1.0  -1.0075
  O  O133  1  0.375950  0.559260  0.754900  1.0  -1.0052
  O  O134  1  0.419090  0.574940  0.510900  1.0  -0.9938
  O  O135  1  0.487420  0.628780  0.706200  1.0  -1.0241
  O  O136  1  0.483590  0.495390  0.678600  1.0  -1.0845
  O  O137  1  0.343560  0.485240  0.016400  1.0  -1.0795
  O  O138  1  0.362890  0.497130  0.278400  1.0  -1.0524
  O  O139  1  0.370840  0.378150  0.157400  1.0  -0.9903
  O  O140  1  0.255390  0.437420  0.191200  1.0  -1.024
  O  O141  1  0.500050  0.654100  0.011400  1.0  -1.0681
  O  O142  1  0.367390  0.638020  0.017000  1.0  -1.0324
  O  O143  1  0.439360  0.630090  0.239100  1.0  -1.0084
  O  O144  1  0.419830  0.744570  0.122300  1.0  -1.0082
