# generated using pymatgen
data_AlPO4
_symmetry_space_group_name_H-M   'P 1'
_cell_length_a   18.74000000
_cell_length_b   18.74000000
_cell_length_c   9.43900000
_cell_angle_alpha   90.00000000
_cell_angle_beta   90.00000000
_cell_angle_gamma   90.00000000
_symmetry_Int_Tables_number   1
_chemical_formula_structural   AlPO4
_chemical_formula_sum   'Al24 P24 O96'
_cell_volume   3314.85975640
_cell_formula_units_Z   24
loop_
 _symmetry_equiv_pos_site_id
 _symmetry_equiv_pos_as_xyz
  1  'x, y, z'
loop_
 _atom_site_type_symbol
 _atom_site_label
 _atom_site_symmetry_multiplicity
 _atom_site_fract_x
 _atom_site_fract_y
 _atom_site_fract_z
 _atom_site_occupancy
 _atom_site_charge
  Al  Al1  1  0.066100  0.551310  0.335000  1.0  2.0482
  Al  Al2  1  0.954740  0.664170  0.842900  1.0  2.0115
  Al  Al3  1  0.165600  0.566000  0.916700  1.0  2.0086
  Al  Al4  1  0.433900  0.948690  0.335000  1.0  2.0506
  Al  Al5  1  0.545260  0.835830  0.842900  1.0  2.0134
  Al  Al6  1  0.334400  0.934000  0.916700  1.0  2.0106
  Al  Al7  1  0.948690  0.066100  0.335000  1.0  2.048
  Al  Al8  1  0.835830  0.954740  0.842900  1.0  2.0128
  Al  Al9  1  0.934000  0.165600  0.916700  1.0  2.0101
  Al  Al10  1  0.551310  0.433900  0.335000  1.0  2.0478
  Al  Al11  1  0.664170  0.545260  0.842900  1.0  2.0114
  Al  Al12  1  0.566000  0.334400  0.916700  1.0  2.0102
  Al  Al13  1  0.933900  0.448690  0.665000  1.0  2.0481
  Al  Al14  1  0.045260  0.335830  0.157100  1.0  2.013
  Al  Al15  1  0.834400  0.434000  0.083300  1.0  2.0105
  Al  Al16  1  0.566100  0.051310  0.665000  1.0  2.0482
  Al  Al17  1  0.454740  0.164170  0.157100  1.0  2.0117
  Al  Al18  1  0.665600  0.066000  0.083300  1.0  2.0089
  Al  Al19  1  0.051310  0.933900  0.665000  1.0  2.0506
  Al  Al20  1  0.164170  0.045260  0.157100  1.0  2.0112
  Al  Al21  1  0.066000  0.834400  0.083300  1.0  2.0102
  Al  Al22  1  0.448690  0.566100  0.665000  1.0  2.048
  Al  Al23  1  0.335830  0.454740  0.157100  1.0  2.0128
  Al  Al24  1  0.434000  0.665600  0.083300  1.0  2.0104
  P  P25  1  0.067500  0.666100  0.092400  1.0  1.8686
  P  P26  1  0.166300  0.451000  0.159600  1.0  1.8437
  P  P27  1  0.055440  0.565100  0.663900  1.0  1.8491
  P  P28  1  0.432500  0.833900  0.092400  1.0  1.8686
  P  P29  1  0.333700  0.049000  0.159600  1.0  1.8418
  P  P30  1  0.444560  0.934900  0.663900  1.0  1.8478
  P  P31  1  0.833900  0.067500  0.092400  1.0  1.8668
  P  P32  1  0.049000  0.166300  0.159600  1.0  1.8425
  P  P33  1  0.934900  0.055440  0.663900  1.0  1.853
  P  P34  1  0.666100  0.432500  0.092400  1.0  1.8688
  P  P35  1  0.451000  0.333700  0.159600  1.0  1.8411
  P  P36  1  0.565100  0.444560  0.663900  1.0  1.8498
  P  P37  1  0.932500  0.333900  0.907600  1.0  1.8706
  P  P38  1  0.833700  0.549000  0.840400  1.0  1.842
  P  P39  1  0.944560  0.434900  0.336100  1.0  1.8505
  P  P40  1  0.567500  0.166100  0.907600  1.0  1.8702
  P  P41  1  0.666300  0.951000  0.840400  1.0  1.8453
  P  P42  1  0.555440  0.065100  0.336100  1.0  1.8493
  P  P43  1  0.166100  0.932500  0.907600  1.0  1.8705
  P  P44  1  0.951000  0.833700  0.840400  1.0  1.8403
  P  P45  1  0.065100  0.944560  0.336100  1.0  1.853
  P  P46  1  0.333900  0.567500  0.907600  1.0  1.8692
  P  P47  1  0.549000  0.666300  0.840400  1.0  1.8449
  P  P48  1  0.434900  0.555440  0.336100  1.0  1.8533
  O  O49  1  0.060200  0.627800  0.239600  1.0  -0.9527
  O  O50  1  0.080300  0.574500  0.505800  1.0  -0.9277
  O  O51  1  0.137000  0.500200  0.282400  1.0  -0.9493
  O  O52  1  0.987100  0.505100  0.319800  1.0  -1.0324
  O  O53  1  0.999200  0.654400  0.006000  1.0  -1.0335
  O  O54  1  0.009700  0.630600  0.709100  1.0  -0.9612
  O  O55  1  0.873500  0.621400  0.844500  1.0  -0.9606
  O  O56  1  0.936100  0.752400  0.808600  1.0  -0.9469
  O  O57  1  0.156000  0.487300  0.011400  1.0  -1.0022
  O  O58  1  0.133200  0.636500  0.009600  1.0  -0.9983
  O  O59  1  0.123400  0.559900  0.756900  1.0  -0.9425
  O  O60  1  0.080000  0.747000  0.125500  1.0  -0.9305
  O  O61  1  0.439800  0.872200  0.239600  1.0  -0.9534
  O  O62  1  0.419700  0.925500  0.505800  1.0  -0.9276
  O  O63  1  0.363000  0.999800  0.282400  1.0  -0.9457
  O  O64  1  0.512900  0.994900  0.319800  1.0  -1.0313
  O  O65  1  0.500800  0.845600  0.006000  1.0  -1.0339
  O  O66  1  0.490300  0.869400  0.709100  1.0  -0.9583
  O  O67  1  0.626500  0.878600  0.844500  1.0  -0.9596
  O  O68  1  0.563900  0.747600  0.808600  1.0  -0.9463
  O  O69  1  0.344000  0.012700  0.011400  1.0  -1.0013
  O  O70  1  0.366800  0.863500  0.009600  1.0  -0.9988
  O  O71  1  0.376600  0.940100  0.756900  1.0  -0.9424
  O  O72  1  0.420000  0.753000  0.125500  1.0  -0.9312
  O  O73  1  0.872200  0.060200  0.239600  1.0  -0.9531
  O  O74  1  0.925500  0.080300  0.505800  1.0  -0.9281
  O  O75  1  0.999800  0.137000  0.282400  1.0  -0.948
  O  O76  1  0.994900  0.987100  0.319800  1.0  -1.0313
  O  O77  1  0.845600  0.999200  0.006000  1.0  -1.0362
  O  O78  1  0.869400  0.009700  0.709100  1.0  -0.9599
  O  O79  1  0.878600  0.873500  0.844500  1.0  -0.9596
  O  O80  1  0.747600  0.936100  0.808600  1.0  -0.949
  O  O81  1  0.012700  0.156000  0.011400  1.0  -1.0009
  O  O82  1  0.863500  0.133200  0.009600  1.0  -0.9986
  O  O83  1  0.940100  0.123400  0.756900  1.0  -0.9437
  O  O84  1  0.753000  0.080000  0.125500  1.0  -0.9307
  O  O85  1  0.627800  0.439800  0.239600  1.0  -0.9524
  O  O86  1  0.574500  0.419700  0.505800  1.0  -0.9276
  O  O87  1  0.500200  0.363000  0.282400  1.0  -0.9469
  O  O88  1  0.505100  0.512900  0.319800  1.0  -1.0301
  O  O89  1  0.654400  0.500800  0.006000  1.0  -1.0373
  O  O90  1  0.630600  0.490300  0.709100  1.0  -0.9588
  O  O91  1  0.621400  0.626500  0.844500  1.0  -0.959
  O  O92  1  0.752400  0.563900  0.808600  1.0  -0.9475
  O  O93  1  0.487300  0.344000  0.011400  1.0  -0.9997
  O  O94  1  0.636500  0.366800  0.009600  1.0  -0.9963
  O  O95  1  0.559900  0.376600  0.756900  1.0  -0.9434
  O  O96  1  0.747000  0.420000  0.125500  1.0  -0.9312
  O  O97  1  0.939800  0.372200  0.760400  1.0  -0.9522
  O  O98  1  0.919700  0.425500  0.494200  1.0  -0.9284
  O  O99  1  0.863000  0.499800  0.717600  1.0  -0.9444
  O  O100  1  0.012900  0.494900  0.680200  1.0  -1.0314
  O  O101  1  0.000800  0.345600  0.994000  1.0  -1.0327
  O  O102  1  0.990300  0.369400  0.290900  1.0  -0.9589
  O  O103  1  0.126500  0.378600  0.155500  1.0  -0.9602
  O  O104  1  0.063900  0.247600  0.191400  1.0  -0.9469
  O  O105  1  0.844000  0.512700  0.988600  1.0  -1.0031
  O  O106  1  0.866800  0.363500  0.990400  1.0  -0.9996
  O  O107  1  0.876600  0.440100  0.243100  1.0  -0.9417
  O  O108  1  0.920000  0.253000  0.874500  1.0  -0.9296
  O  O109  1  0.560200  0.127800  0.760400  1.0  -0.9521
  O  O110  1  0.580300  0.074500  0.494200  1.0  -0.9283
  O  O111  1  0.637000  0.000200  0.717600  1.0  -0.9477
  O  O112  1  0.487100  0.005100  0.680200  1.0  -1.0329
  O  O113  1  0.499200  0.154400  0.994000  1.0  -1.0331
  O  O114  1  0.509700  0.130600  0.290900  1.0  -0.9621
  O  O115  1  0.373500  0.121400  0.155500  1.0  -0.9609
  O  O116  1  0.436100  0.252400  0.191400  1.0  -0.9471
  O  O117  1  0.656000  0.987300  0.988600  1.0  -1.003
  O  O118  1  0.633200  0.136500  0.990400  1.0  -0.9982
  O  O119  1  0.623400  0.059900  0.243100  1.0  -0.9421
  O  O120  1  0.580000  0.247000  0.874500  1.0  -0.9286
  O  O121  1  0.127800  0.939800  0.760400  1.0  -0.9515
  O  O122  1  0.074500  0.919700  0.494200  1.0  -0.9284
  O  O123  1  0.000200  0.863000  0.717600  1.0  -0.9469
  O  O124  1  0.005100  0.012900  0.680200  1.0  -1.0302
  O  O125  1  0.154400  0.000800  0.994000  1.0  -1.0369
  O  O126  1  0.130600  0.990300  0.290900  1.0  -0.9617
  O  O127  1  0.121400  0.126500  0.155500  1.0  -0.959
  O  O128  1  0.252400  0.063900  0.191400  1.0  -0.9479
  O  O129  1  0.987300  0.844000  0.988600  1.0  -0.9994
  O  O130  1  0.136500  0.866800  0.990400  1.0  -0.9965
  O  O131  1  0.059900  0.876600  0.243100  1.0  -0.943
  O  O132  1  0.247000  0.920000  0.874500  1.0  -0.9295
  O  O133  1  0.372200  0.560200  0.760400  1.0  -0.9524
  O  O134  1  0.425500  0.580300  0.494200  1.0  -0.9287
  O  O135  1  0.499800  0.637000  0.717600  1.0  -0.9469
  O  O136  1  0.494900  0.487100  0.680200  1.0  -1.0314
  O  O137  1  0.345600  0.499200  0.994000  1.0  -1.0351
  O  O138  1  0.369400  0.509700  0.290900  1.0  -0.9595
  O  O139  1  0.378600  0.373500  0.155500  1.0  -0.9605
  O  O140  1  0.247600  0.436100  0.191400  1.0  -0.9492
  O  O141  1  0.512700  0.656000  0.988600  1.0  -1.0006
  O  O142  1  0.363500  0.633200  0.990400  1.0  -0.9987
  O  O143  1  0.440100  0.623400  0.243100  1.0  -0.9431
  O  O144  1  0.253000  0.580000  0.874500  1.0  -0.9289
