# generated using pymatgen
data_KCuH26C48(NO2)4
_symmetry_space_group_name_H-M   'P 1'
_cell_length_a   8.79000000
_cell_length_b   23.69970000
_cell_length_c   25.28530000
_cell_angle_alpha   85.41570000
_cell_angle_beta   79.99020000
_cell_angle_gamma   79.31290000
_symmetry_Int_Tables_number   1
_chemical_formula_structural   KCuH26C48(NO2)4
_chemical_formula_sum   'K4 Cu4 H104 C192 N16 O32'
_cell_volume   5091.09250273
_cell_formula_units_Z   4
loop_
 _symmetry_equiv_pos_site_id
 _symmetry_equiv_pos_as_xyz
  1  'x, y, z'
loop_
 _atom_site_type_symbol
 _atom_site_label
 _atom_site_symmetry_multiplicity
 _atom_site_fract_x
 _atom_site_fract_y
 _atom_site_fract_z
 _atom_site_occupancy
 _atom_site_charge
  K  K1  1  0.687110  0.487550  0.047430  1.0  0.9584
  K  K2  1  0.722090  0.012450  0.452570  1.0  0.9585
  K  K3  1  0.312890  0.512450  0.952570  1.0  0.9596
  K  K4  1  0.277910  0.987550  0.547430  1.0  0.9601
  Cu  Cu5  1  0.722930  0.509870  0.549690  1.0  0.5709
  Cu  Cu6  1  0.282490  0.990130  0.950310  1.0  0.5708
  Cu  Cu7  1  0.277070  0.490130  0.450310  1.0  0.5709
  Cu  Cu8  1  0.717510  0.009870  0.049690  1.0  0.571
  H  H9  1  0.844200  0.398600  0.722400  1.0  0.1353
  H  H10  1  0.959100  0.331200  0.651400  1.0  0.121
  H  H11  1  0.098500  0.357400  0.439200  1.0  0.1219
  H  H12  1  0.002000  0.428200  0.371400  1.0  0.1351
  H  H13  1  0.504800  0.599600  0.383400  1.0  0.1283
  H  H14  1  0.363500  0.661900  0.454300  1.0  0.1261
  H  H15  1  0.438700  0.682400  0.656200  1.0  0.1175
  H  H16  1  0.561700  0.617700  0.722700  1.0  0.1339
  H  H17  1  0.875000  0.560400  0.741800  1.0  0.1135
  H  H18  1  0.875200  0.559700  0.833300  1.0  0.1118
  H  H19  1  0.554700  0.455900  0.858700  1.0  0.0963
  H  H20  1  0.552300  0.457800  0.767800  1.0  0.1087
  H  H21  1  0.238100  0.334900  0.573700  1.0  0.1097
  H  H22  1  0.367800  0.241000  0.579200  1.0  0.1058
  H  H23  1  0.020500  0.187300  0.526100  1.0  0.1052
  H  H24  1  0.893600  0.281800  0.517800  1.0  0.0959
  H  H25  1  0.455000  0.113000  0.565000  1.0  0.3617
  H  H26  1  0.711100  0.435600  0.347400  1.0  0.1003
  H  H27  1  0.728400  0.437900  0.254300  1.0  0.1232
  H  H28  1  0.825300  0.597000  0.245400  1.0  0.115
  H  H29  1  0.799200  0.595800  0.338200  1.0  0.1077
  H  H30  1  0.873000  0.540000  0.120000  1.0  0.2525
  H  H31  1  0.503200  0.738400  0.506400  1.0  0.0861
  H  H32  1  0.346700  0.826900  0.509700  1.0  0.1309
  H  H33  1  0.019600  0.761100  0.613900  1.0  0.1258
  H  H34  1  0.183900  0.671100  0.609100  1.0  0.1072
  H  H35  1  0.465200  0.101400  0.777600  1.0  0.1367
  H  H36  1  0.441700  0.168800  0.848600  1.0  0.1219
  H  H37  1  0.395100  0.142600  0.060800  1.0  0.122
  H  H38  1  0.301600  0.071800  0.128600  1.0  0.1346
  H  H39  1  0.987800  0.900400  0.116600  1.0  0.1288
  H  H40  1  0.979700  0.838100  0.045700  1.0  0.1266
  H  H41  1  0.277300  0.817600  0.843800  1.0  0.1167
  H  H42  1  0.402100  0.882300  0.777300  1.0  0.1313
  H  H43  1  0.677200  0.939600  0.758200  1.0  0.1146
  H  H44  1  0.768200  0.940300  0.666667  1.0  0.1116
  H  H45  1  0.369300  0.044100  0.641300  1.0  0.095
  H  H46  1  0.277900  0.042200  0.732200  1.0  0.1085
  H  H47  1  0.646700  0.165100  0.926300  1.0  0.1105
  H  H48  1  0.688000  0.259000  0.920800  1.0  0.1059
  H  H49  1  0.233900  0.312700  0.973900  1.0  0.1054
  H  H50  1  0.193200  0.218200  0.982200  1.0  0.0973
  H  H51  1  0.633000  0.387000  0.935000  1.0  0.3626
  H  H52  1  0.994100  0.064400  0.152600  1.0  0.0997
  H  H53  1  0.920600  0.062100  0.245700  1.0  0.1243
  H  H54  1  0.167700  0.903000  0.254600  1.0  0.1144
  H  H55  1  0.233200  0.904200  0.161800  1.0  0.1085
  H  H56  1  0.033000  0.960000  0.380000  1.0  0.25
  H  H57  1  0.248000  0.761600  0.993600  1.0  0.0857
  H  H58  1  0.183300  0.673100  0.990300  1.0  0.1304
  H  H59  1  0.894600  0.738900  0.886100  1.0  0.1249
  H  H60  1  0.964100  0.828900  0.890900  1.0  0.1067
  H  H61  1  0.155800  0.601400  0.277600  1.0  0.1366
  H  H62  1  0.040900  0.668800  0.348600  1.0  0.121
  H  H63  1  0.901500  0.642600  0.560800  1.0  0.1222
  H  H64  1  0.998000  0.571800  0.628600  1.0  0.1348
  H  H65  1  0.495200  0.400400  0.616600  1.0  0.1283
  H  H66  1  0.636500  0.338100  0.545700  1.0  0.1261
  H  H67  1  0.561300  0.317600  0.343800  1.0  0.1179
  H  H68  1  0.438300  0.382300  0.277300  1.0  0.1319
  H  H69  1  0.125000  0.439600  0.258200  1.0  0.1141
  H  H70  1  0.124800  0.440300  0.166700  1.0  0.1116
  H  H71  1  0.445300  0.544100  0.141300  1.0  0.0951
  H  H72  1  0.447700  0.542200  0.232200  1.0  0.1081
  H  H73  1  0.761900  0.665100  0.426300  1.0  0.1098
  H  H74  1  0.632200  0.759000  0.420800  1.0  0.1076
  H  H75  1  0.979500  0.812700  0.473900  1.0  0.1055
  H  H76  1  0.106400  0.718200  0.482200  1.0  0.0963
  H  H77  1  0.545000  0.887000  0.435000  1.0  0.3622
  H  H78  1  0.288900  0.564400  0.652600  1.0  0.0998
  H  H79  1  0.271600  0.562100  0.745700  1.0  0.1237
  H  H80  1  0.174700  0.403000  0.754600  1.0  0.1149
  H  H81  1  0.200800  0.404200  0.661800  1.0  0.1089
  H  H82  1  0.127000  0.460000  0.880000  1.0  0.2517
  H  H83  1  0.496800  0.261600  0.493600  1.0  0.0859
  H  H84  1  0.653300  0.173100  0.490300  1.0  0.1309
  H  H85  1  0.980400  0.238900  0.386100  1.0  0.1252
  H  H86  1  0.816100  0.328900  0.390900  1.0  0.1072
  H  H87  1  0.534800  0.898600  0.222400  1.0  0.1353
  H  H88  1  0.558300  0.831200  0.151400  1.0  0.1212
  H  H89  1  0.604900  0.857400  0.939200  1.0  0.1218
  H  H90  1  0.698400  0.928200  0.871400  1.0  0.1353
  H  H91  1  0.012200  0.099600  0.883400  1.0  0.1295
  H  H92  1  0.020300  0.161900  0.954300  1.0  0.1268
  H  H93  1  0.722700  0.182400  0.156200  1.0  0.1165
  H  H94  1  0.597900  0.117700  0.222700  1.0  0.1341
  H  H95  1  0.322800  0.060400  0.241800  1.0  0.114
  H  H96  1  0.231800  0.059700  0.333333  1.0  0.1121
  H  H97  1  0.630700  0.955900  0.358700  1.0  0.0961
  H  H98  1  0.722100  0.957800  0.267800  1.0  0.1094
  H  H99  1  0.353300  0.834900  0.073700  1.0  0.1101
  H  H100  1  0.312000  0.741000  0.079200  1.0  0.1068
  H  H101  1  0.766100  0.687300  0.026100  1.0  0.1055
  H  H102  1  0.806800  0.781800  0.017800  1.0  0.0971
  H  H103  1  0.367000  0.613000  0.065000  1.0  0.3613
  H  H104  1  0.005900  0.935600  0.847400  1.0  0.0999
  H  H105  1  0.079400  0.937900  0.754300  1.0  0.1238
  H  H106  1  0.832300  0.097000  0.745400  1.0  0.1151
  H  H107  1  0.766800  0.095800  0.838200  1.0  0.1071
  H  H108  1  0.967000  0.040000  0.620000  1.0  0.2538
  H  H109  1  0.752000  0.238400  0.006400  1.0  0.0859
  H  H110  1  0.816700  0.326900  0.009700  1.0  0.1313
  H  H111  1  0.105400  0.261100  0.113900  1.0  0.1248
  H  H112  1  0.035900  0.171100  0.109100  1.0  0.1069
  C  C113  1  0.642600  0.558300  0.659500  1.0  0.1971
  C  C114  1  0.714300  0.509100  0.685700  1.0  -0.0998
  C  C115  1  0.782600  0.459100  0.659300  1.0  0.1781
  C  C116  1  0.846800  0.406000  0.685600  1.0  -0.1612
  C  C117  1  0.911300  0.369300  0.646500  1.0  -0.1575
  C  C118  1  0.893100  0.399400  0.595600  1.0  0.2155
  C  C119  1  0.958100  0.378300  0.546700  1.0  -0.0832
  C  C120  1  0.940400  0.408400  0.497800  1.0  0.2223
  C  C121  1  0.022200  0.389900  0.445700  1.0  -0.149
  C  C122  1  0.968100  0.428300  0.408300  1.0  -0.148
  C  C123  1  0.847000  0.470000  0.436800  1.0  0.2266
  C  C124  1  0.746700  0.513300  0.412500  1.0  -0.0666
  C  C125  1  0.635600  0.554300  0.441300  1.0  0.1739
  C  C126  1  0.521700  0.596700  0.418900  1.0  -0.1415
  C  C127  1  0.444500  0.631100  0.457700  1.0  -0.1298
  C  C128  1  0.510200  0.611800  0.505800  1.0  0.2354
  C  C129  1  0.470800  0.638300  0.554100  1.0  -0.0793
  C  C130  1  0.530300  0.616700  0.600300  1.0  0.2029
  C  C131  1  0.496700  0.645800  0.650600  1.0  -0.1483
  C  C132  1  0.564100  0.610500  0.686900  1.0  -0.1612
  C  C133  1  0.713300  0.509000  0.744400  1.0  0.0706
  C  C134  1  0.810200  0.539400  0.765200  1.0  -0.1023
  C  C135  1  0.811400  0.538700  0.820300  1.0  -0.0136
  C  C136  1  0.718100  0.507100  0.855100  1.0  -0.121
  C  C137  1  0.619400  0.476900  0.835100  1.0  -0.0516
  C  C138  1  0.618200  0.478100  0.780500  1.0  -0.0954
  C  C139  1  0.721500  0.504900  0.914500  1.0  0.7247
  C  C140  1  0.052400  0.318000  0.546000  1.0  0.054
  C  C141  1  0.193800  0.305400  0.563800  1.0  -0.082
  C  C142  1  0.271600  0.249100  0.567100  1.0  -0.0655
  C  C143  1  0.207400  0.205100  0.552700  1.0  -0.135
  C  C144  1  0.065400  0.217100  0.535100  1.0  -0.0572
  C  C145  1  0.988400  0.273600  0.530800  1.0  -0.1072
  C  C146  1  0.287000  0.143900  0.556300  1.0  0.6774
  C  C147  1  0.756100  0.514800  0.352800  1.0  0.0557
  C  C148  1  0.734000  0.468200  0.327000  1.0  -0.0747
  C  C149  1  0.745100  0.469300  0.270900  1.0  -0.1181
  C  C150  1  0.781200  0.517500  0.240900  1.0  -0.1393
  C  C151  1  0.801700  0.564500  0.265900  1.0  -0.0192
  C  C152  1  0.787500  0.563500  0.321700  1.0  -0.0836
  C  C153  1  0.794200  0.516300  0.180900  1.0  0.6309
  C  C154  1  0.362300  0.695200  0.556800  1.0  0.0608
  C  C155  1  0.405500  0.742400  0.528200  1.0  -0.1271
  C  C156  1  0.312400  0.795800  0.529800  1.0  -0.1485
  C  C157  1  0.167200  0.802600  0.562000  1.0  -0.1406
  C  C158  1  0.117100  0.756800  0.592000  1.0  -0.0271
  C  C159  1  0.217000  0.702400  0.589000  1.0  -0.0884
  C  C160  1  0.066100  0.860500  0.562300  1.0  0.708
  C  C161  1  0.360400  0.941700  0.840500  1.0  0.1993
  C  C162  1  0.409100  0.990900  0.814300  1.0  -0.1005
  C  C163  1  0.401000  0.040900  0.840700  1.0  0.1791
  C  C164  1  0.438400  0.094000  0.814400  1.0  -0.1623
  C  C165  1  0.427100  0.130700  0.853500  1.0  -0.157
  C  C166  1  0.388100  0.100600  0.904400  1.0  0.2149
  C  C167  1  0.383100  0.121700  0.953300  1.0  -0.0844
  C  C168  1  0.346600  0.091600  0.002200  1.0  0.2221
  C  C169  1  0.357800  0.110100  0.054300  1.0  -0.1491
  C  C170  1  0.304700  0.071700  0.091700  1.0  -0.1445
  C  C171  1  0.253800  0.030000  0.063200  1.0  0.2265
  C  C172  1  0.172500  0.986700  0.087500  1.0  -0.0662
  C  C173  1  0.131200  0.945700  0.058700  1.0  0.1733
  C  C174  1  0.037300  0.903300  0.081100  1.0  -0.1413
  C  C175  1  0.033300  0.868900  0.042300  1.0  -0.1314
  C  C176  1  0.127800  0.888200  0.994200  1.0  0.2343
  C  C177  1  0.163200  0.861700  0.945900  1.0  -0.0791
  C  C178  1  0.247300  0.883300  0.899700  1.0  0.2062
  C  C179  1  0.293100  0.854200  0.849400  1.0  -0.149
  C  C180  1  0.361500  0.889500  0.813100  1.0  -0.166
  C  C181  1  0.466700  0.991000  0.755600  1.0  0.0708
  C  C182  1  0.614800  0.960600  0.734800  1.0  -0.1013
  C  C183  1  0.670400  0.961300  0.679700  1.0  -0.0165
  C  C184  1  0.580300  0.992900  0.644900  1.0  -0.1211
  C  C185  1  0.431400  0.023100  0.664900  1.0  -0.0497
  C  C186  1  0.376800  0.021900  0.719500  1.0  -0.0969
  C  C187  1  0.640900  0.995100  0.585500  1.0  0.7266
  C  C188  1  0.416400  0.182000  0.954000  1.0  0.0542
  C  C189  1  0.563000  0.194600  0.936200  1.0  -0.0812
  C  C190  1  0.587800  0.250900  0.932900  1.0  -0.0676
  C  C191  1  0.465200  0.294900  0.947300  1.0  -0.1355
  C  C192  1  0.317600  0.282900  0.964900  1.0  -0.059
  C  C193  1  0.292800  0.226400  0.969200  1.0  -0.1097
  C  C194  1  0.487200  0.356100  0.943700  1.0  0.6757
  C  C195  1  0.123700  0.985200  0.147200  1.0  0.055
  C  C196  1  0.029200  0.031800  0.173000  1.0  -0.0737
  C  C197  1  0.985300  0.030700  0.229100  1.0  -0.1191
  C  C198  1  0.039600  0.982500  0.259100  1.0  -0.1391
  C  C199  1  0.132100  0.935500  0.234100  1.0  -0.0182
  C  C200  1  0.172700  0.936500  0.178300  1.0  -0.0844
  C  C201  1  0.991400  0.983700  0.319100  1.0  0.6304
  C  C202  1  0.114300  0.804800  0.943200  1.0  0.0604
  C  C203  1  0.176100  0.757600  0.971800  1.0  -0.1271
  C  C204  1  0.138000  0.704200  0.970200  1.0  -0.1508
  C  C205  1  0.031800  0.697400  0.938000  1.0  -0.1433
  C  C206  1  0.965900  0.743200  0.908000  1.0  -0.0274
  C  C207  1  0.008400  0.797600  0.911000  1.0  -0.088
  C  C208  1  0.988900  0.639500  0.937700  1.0  0.7063
  C  C209  1  0.357400  0.441700  0.340500  1.0  0.1995
  C  C210  1  0.285700  0.490900  0.314300  1.0  -0.1003
  C  C211  1  0.217400  0.540900  0.340700  1.0  0.1786
  C  C212  1  0.153200  0.594000  0.314400  1.0  -0.1618
  C  C213  1  0.088700  0.630700  0.353500  1.0  -0.1563
  C  C214  1  0.106900  0.600600  0.404400  1.0  0.215
  C  C215  1  0.041900  0.621700  0.453300  1.0  -0.0835
  C  C216  1  0.059600  0.591600  0.502200  1.0  0.2226
  C  C217  1  0.977800  0.610100  0.554300  1.0  -0.1483
  C  C218  1  0.031900  0.571700  0.591700  1.0  -0.1465
  C  C219  1  0.153000  0.530000  0.563200  1.0  0.2268
  C  C220  1  0.253300  0.486700  0.587500  1.0  -0.0658
  C  C221  1  0.364400  0.445700  0.558700  1.0  0.1739
  C  C222  1  0.478300  0.403300  0.581100  1.0  -0.1412
  C  C223  1  0.555500  0.368900  0.542300  1.0  -0.1299
  C  C224  1  0.489800  0.388200  0.494200  1.0  0.2355
  C  C225  1  0.529200  0.361700  0.445900  1.0  -0.081
  C  C226  1  0.469700  0.383300  0.399700  1.0  0.204
  C  C227  1  0.503300  0.354200  0.349400  1.0  -0.1492
  C  C228  1  0.435900  0.389500  0.313100  1.0  -0.1622
  C  C229  1  0.286700  0.491000  0.255600  1.0  0.0703
  C  C230  1  0.189800  0.460600  0.234800  1.0  -0.1001
  C  C231  1  0.188600  0.461300  0.179700  1.0  -0.0152
  C  C232  1  0.281900  0.492900  0.144900  1.0  -0.1206
  C  C233  1  0.380600  0.523100  0.164900  1.0  -0.0512
  C  C234  1  0.381800  0.521900  0.219500  1.0  -0.0977
  C  C235  1  0.278500  0.495100  0.085500  1.0  0.7293
  C  C236  1  0.947600  0.682000  0.454000  1.0  0.0538
  C  C237  1  0.806200  0.694600  0.436200  1.0  -0.0816
  C  C238  1  0.728400  0.750900  0.432900  1.0  -0.0655
  C  C239  1  0.792600  0.794900  0.447300  1.0  -0.1355
  C  C240  1  0.934600  0.782900  0.464900  1.0  -0.0594
  C  C241  1  0.011600  0.726400  0.469200  1.0  -0.1083
  C  C242  1  0.713000  0.856100  0.443700  1.0  0.6744
  C  C243  1  0.243900  0.485200  0.647200  1.0  0.0558
  C  C244  1  0.266000  0.531800  0.673000  1.0  -0.0742
  C  C245  1  0.254900  0.530700  0.729100  1.0  -0.118
  C  C246  1  0.218800  0.482500  0.759100  1.0  -0.1384
  C  C247  1  0.198300  0.435500  0.734100  1.0  -0.0196
  C  C248  1  0.212500  0.436500  0.678300  1.0  -0.0828
  C  C249  1  0.205800  0.483700  0.819100  1.0  0.6302
  C  C250  1  0.637700  0.304800  0.443200  1.0  0.0623
  C  C251  1  0.594500  0.257600  0.471800  1.0  -0.1258
  C  C252  1  0.687600  0.204200  0.470200  1.0  -0.1484
  C  C253  1  0.832800  0.197400  0.438000  1.0  -0.1423
  C  C254  1  0.882900  0.243200  0.408000  1.0  -0.0272
  C  C255  1  0.783000  0.297600  0.411000  1.0  -0.0889
  C  C256  1  0.933900  0.139500  0.437700  1.0  0.706
  C  C257  1  0.639600  0.058300  0.159500  1.0  0.1982
  C  C258  1  0.590900  0.009100  0.185700  1.0  -0.0999
  C  C259  1  0.599000  0.959100  0.159300  1.0  0.1796
  C  C260  1  0.561600  0.906000  0.185600  1.0  -0.1634
  C  C261  1  0.572900  0.869300  0.146500  1.0  -0.1581
  C  C262  1  0.611900  0.899400  0.095600  1.0  0.2151
  C  C263  1  0.616900  0.878300  0.046700  1.0  -0.0839
  C  C264  1  0.653400  0.908400  0.997800  1.0  0.2224
  C  C265  1  0.642200  0.889900  0.945700  1.0  -0.1486
  C  C266  1  0.695300  0.928300  0.908300  1.0  -0.1441
  C  C267  1  0.746200  0.970000  0.936800  1.0  0.2265
  C  C268  1  0.827500  0.013300  0.912500  1.0  -0.0669
  C  C269  1  0.868800  0.054300  0.941300  1.0  0.174
  C  C270  1  0.962700  0.096700  0.918900  1.0  -0.1403
  C  C271  1  0.966700  0.131100  0.957700  1.0  -0.1302
  C  C272  1  0.872200  0.111800  0.005800  1.0  0.2344
  C  C273  1  0.836800  0.138300  0.054100  1.0  -0.0795
  C  C274  1  0.752700  0.116700  0.100300  1.0  0.2035
  C  C275  1  0.706900  0.145800  0.150600  1.0  -0.1471
  C  C276  1  0.638500  0.110500  0.186900  1.0  -0.1658
  C  C277  1  0.533300  0.009000  0.244400  1.0  0.0703
  C  C278  1  0.385200  0.039400  0.265200  1.0  -0.1003
  C  C279  1  0.329600  0.038700  0.320300  1.0  -0.0142
  C  C280  1  0.419700  0.007100  0.355100  1.0  -0.1216
  C  C281  1  0.568600  0.976900  0.335100  1.0  -0.0491
  C  C282  1  0.623200  0.978100  0.280500  1.0  -0.0975
  C  C283  1  0.359100  0.004900  0.414500  1.0  0.7227
  C  C284  1  0.583600  0.818000  0.046000  1.0  0.0542
  C  C285  1  0.437000  0.805400  0.063800  1.0  -0.0805
  C  C286  1  0.412200  0.749100  0.067100  1.0  -0.0696
  C  C287  1  0.534800  0.705100  0.052700  1.0  -0.1343
  C  C288  1  0.682400  0.717100  0.035100  1.0  -0.0598
  C  C289  1  0.707200  0.773600  0.030800  1.0  -0.1083
  C  C290  1  0.512800  0.643900  0.056300  1.0  0.6779
  C  C291  1  0.876300  0.014800  0.852800  1.0  0.055
  C  C292  1  0.970800  0.968200  0.827000  1.0  -0.0739
  C  C293  1  0.014700  0.969300  0.770900  1.0  -0.1179
  C  C294  1  0.960400  0.017500  0.740900  1.0  -0.1402
  C  C295  1  0.867900  0.064500  0.765900  1.0  -0.0189
  C  C296  1  0.827300  0.063500  0.821700  1.0  -0.0856
  C  C297  1  0.008600  0.016300  0.680900  1.0  0.6307
  C  C298  1  0.885700  0.195200  0.056800  1.0  0.0587
  C  C299  1  0.823900  0.242400  0.028200  1.0  -0.127
  C  C300  1  0.862000  0.295800  0.029800  1.0  -0.1515
  C  C301  1  0.968200  0.302600  0.062000  1.0  -0.1423
  C  C302  1  0.034100  0.256800  0.092000  1.0  -0.0299
  C  C303  1  0.991600  0.202400  0.089000  1.0  -0.0877
  C  C304  1  0.011100  0.360500  0.062300  1.0  0.708
  N  N305  1  0.808550  0.453850  0.604050  1.0  -0.3681
  N  N306  1  0.837590  0.459210  0.491410  1.0  -0.3772
  N  N307  1  0.622360  0.562740  0.495740  1.0  -0.3788
  N  N308  1  0.623830  0.563770  0.606770  1.0  -0.4146
  N  N309  1  0.366450  0.046150  0.895950  1.0  -0.3689
  N  N310  1  0.288210  0.040790  0.008590  1.0  -0.3783
  N  N311  1  0.180840  0.937260  0.004260  1.0  -0.3831
  N  N312  1  0.294370  0.936230  0.893230  1.0  -0.4148
  N  N313  1  0.191450  0.546150  0.395950  1.0  -0.3687
  N  N314  1  0.162410  0.540790  0.508590  1.0  -0.3769
  N  N315  1  0.377640  0.437260  0.504260  1.0  -0.3809
  N  N316  1  0.376170  0.436230  0.393230  1.0  -0.4152
  N  N317  1  0.633550  0.953850  0.104050  1.0  -0.3673
  N  N318  1  0.711790  0.959210  0.991410  1.0  -0.3789
  N  N319  1  0.819160  0.062740  0.995740  1.0  -0.3817
  N  N320  1  0.705630  0.063770  0.106770  1.0  -0.4157
  O  O321  1  0.797420  0.536760  0.932000  1.0  -0.6059
  O  O322  1  0.643930  0.471420  0.944720  1.0  -0.6686
  O  O323  1  0.220600  0.103800  0.553400  1.0  -0.623
  O  O324  1  0.432100  0.137300  0.563500  1.0  -0.7191
  O  O325  1  0.772500  0.477400  0.158200  1.0  -0.4828
  O  O326  1  0.838500  0.562600  0.155600  1.0  -0.5044
  O  O327  1  0.111990  0.901230  0.536390  1.0  -0.5632
  O  O328  1  0.925410  0.863440  0.589940  1.0  -0.4967
  O  O329  1  0.766180  0.963240  0.568000  1.0  -0.6078
  O  O330  1  0.560070  0.028580  0.555280  1.0  -0.6695
  O  O331  1  0.377800  0.396200  0.946600  1.0  -0.6223
  O  O332  1  0.632900  0.362700  0.936500  1.0  -0.7206
  O  O333  1  0.908100  0.022600  0.341800  1.0  -0.482
  O  O334  1  0.056700  0.937400  0.344400  1.0  -0.5057
  O  O335  1  0.049610  0.598770  0.963610  1.0  -0.5659
  O  O336  1  0.878790  0.636560  0.910060  1.0  -0.4991
  O  O337  1  0.202580  0.463240  0.068000  1.0  -0.6057
  O  O338  1  0.356070  0.528580  0.055280  1.0  -0.6679
  O  O339  1  0.779400  0.896200  0.446600  1.0  -0.6217
  O  O340  1  0.567900  0.862700  0.436500  1.0  -0.7212
  O  O341  1  0.227500  0.522600  0.841800  1.0  -0.483
  O  O342  1  0.161500  0.437400  0.844400  1.0  -0.5056
  O  O343  1  0.888010  0.098770  0.463610  1.0  -0.566
  O  O344  1  0.074590  0.136560  0.410060  1.0  -0.4974
  O  O345  1  0.233820  0.036760  0.432000  1.0  -0.6079
  O  O346  1  0.439930  0.971420  0.444720  1.0  -0.6711
  O  O347  1  0.622200  0.603800  0.053400  1.0  -0.622
  O  O348  1  0.367100  0.637300  0.063500  1.0  -0.7199
  O  O349  1  0.091900  0.977400  0.658200  1.0  -0.4811
  O  O350  1  0.943300  0.062600  0.655600  1.0  -0.5028
  O  O351  1  0.950390  0.401230  0.036390  1.0  -0.5632
  O  O352  1  0.121210  0.363440  0.089940  1.0  -0.498
