# generated using pymatgen
data_NaZnH24C53N5O8
_symmetry_space_group_name_H-M   'P 1'
_cell_length_a   16.31500000
_cell_length_b   17.40500000
_cell_length_c   18.41000000
_cell_angle_alpha   89.59200000
_cell_angle_beta   84.33000000
_cell_angle_gamma   82.52100000
_symmetry_Int_Tables_number   1
_chemical_formula_structural   NaZnH24C53N5O8
_chemical_formula_sum   'Na2 Zn2 H48 C106 N10 O16'
_cell_volume   5157.82985606
_cell_formula_units_Z   2
loop_
 _symmetry_equiv_pos_site_id
 _symmetry_equiv_pos_as_xyz
  1  'x, y, z'
loop_
 _atom_site_type_symbol
 _atom_site_label
 _atom_site_symmetry_multiplicity
 _atom_site_fract_x
 _atom_site_fract_y
 _atom_site_fract_z
 _atom_site_occupancy
 _atom_site_charge
  Na  Na1  1  0.088780  0.050660  0.000200  1.0  0.9275
  Na  Na2  1  0.911220  0.949340  0.999800  1.0  0.93
  Zn  Zn3  1  0.525300  0.498900  0.190100  1.0  0.7474
  Zn  Zn4  1  0.474700  0.501100  0.809900  1.0  0.7512
  H  H5  1  0.605300  0.204900  0.156700  1.0  0.1246
  H  H6  1  0.455000  0.222200  0.160100  1.0  0.1186
  H  H7  1  0.217800  0.465500  0.175900  1.0  0.1313
  H  H8  1  0.218000  0.604800  0.174500  1.0  0.1188
  H  H9  1  0.449500  0.794000  0.178800  1.0  0.1148
  H  H10  1  0.598500  0.777800  0.178200  1.0  0.127
  H  H11  1  0.836200  0.533800  0.162500  1.0  0.1292
  H  H12  1  0.837100  0.392500  0.157500  1.0  0.1351
  H  H13  1  0.735300  0.252300  0.049500  1.0  0.1127
  H  H14  1  0.837100  0.148200  0.035800  1.0  0.0983
  H  H15  1  0.885200  0.168900  0.242000  1.0  0.1121
  H  H16  1  0.780700  0.274300  0.259500  1.0  0.1284
  H  H17  1  0.304900  0.342300  0.058900  1.0  0.1176
  H  H18  1  0.208400  0.258000  0.045000  1.0  0.0994
  H  H19  1  0.206100  0.203500  0.257600  1.0  0.1117
  H  H20  1  0.302600  0.287800  0.271500  1.0  0.1226
  H  H21  1  0.361100  0.757600  0.069600  1.0  0.1181
  H  H22  1  0.265500  0.866400  0.056300  1.0  0.1076
  H  H23  1  0.141300  0.820500  0.246200  1.0  0.1129
  H  H24  1  0.240400  0.715600  0.263100  1.0  0.1184
  H  H25  1  0.723400  0.714300  0.067200  1.0  0.1042
  H  H26  1  0.823500  0.795100  0.058200  1.0  0.1
  H  H27  1  0.881600  0.737400  0.258100  1.0  0.1107
  H  H28  1  0.779700  0.654200  0.268200  1.0  0.1216
  H  H29  1  0.394700  0.795100  0.843300  1.0  0.1245
  H  H30  1  0.545000  0.777800  0.839900  1.0  0.1187
  H  H31  1  0.782200  0.534500  0.824100  1.0  0.1303
  H  H32  1  0.782000  0.395200  0.825500  1.0  0.117
  H  H33  1  0.550500  0.206000  0.821200  1.0  0.1146
  H  H34  1  0.401500  0.222200  0.821800  1.0  0.1259
  H  H35  1  0.163800  0.466200  0.837500  1.0  0.1298
  H  H36  1  0.162900  0.607500  0.842500  1.0  0.1358
  H  H37  1  0.264700  0.747700  0.950500  1.0  0.1124
  H  H38  1  0.162900  0.851800  0.964200  1.0  0.0981
  H  H39  1  0.114800  0.831100  0.758000  1.0  0.1127
  H  H40  1  0.219300  0.725700  0.740500  1.0  0.1281
  H  H41  1  0.695100  0.657700  0.941100  1.0  0.1181
  H  H42  1  0.791600  0.742000  0.955000  1.0  0.1003
  H  H43  1  0.793900  0.796500  0.742400  1.0  0.1111
  H  H44  1  0.697400  0.712200  0.728500  1.0  0.1221
  H  H45  1  0.638900  0.242400  0.930400  1.0  0.1182
  H  H46  1  0.734500  0.133600  0.943700  1.0  0.108
  H  H47  1  0.858700  0.179500  0.753800  1.0  0.1124
  H  H48  1  0.759600  0.284400  0.736900  1.0  0.1182
  H  H49  1  0.276600  0.285700  0.932800  1.0  0.1048
  H  H50  1  0.176500  0.204900  0.941800  1.0  0.0997
  H  H51  1  0.118400  0.262600  0.741900  1.0  0.1108
  H  H52  1  0.220300  0.345800  0.731800  1.0  0.1226
  C  C53  1  0.704300  0.415500  0.168800  1.0  0.1999
  C  C54  1  0.679100  0.342100  0.165800  1.0  -0.0371
  C  C55  1  0.595800  0.326700  0.166800  1.0  0.2075
  C  C56  1  0.570600  0.251800  0.161100  1.0  -0.1663
  C  C57  1  0.488200  0.261400  0.163200  1.0  -0.1586
  C  C58  1  0.459600  0.342500  0.171200  1.0  0.1668
  C  C59  1  0.377500  0.377200  0.174300  1.0  -0.0459
  C  C60  1  0.349600  0.456400  0.177800  1.0  0.2021
  C  C61  1  0.264100  0.491500  0.176400  1.0  -0.1592
  C  C62  1  0.264300  0.567800  0.176000  1.0  -0.1544
  C  C63  1  0.348400  0.583400  0.178300  1.0  0.191
  C  C64  1  0.375400  0.656200  0.176000  1.0  -0.0433
  C  C65  1  0.458000  0.671900  0.176000  1.0  0.2003
  C  C66  1  0.484000  0.747000  0.177700  1.0  -0.1678
  C  C67  1  0.565300  0.738200  0.177500  1.0  -0.1487
  C  C68  1  0.594200  0.655400  0.175700  1.0  0.1999
  C  C69  1  0.676100  0.622000  0.173600  1.0  -0.0529
  C  C70  1  0.704000  0.541400  0.172600  1.0  0.2041
  C  C71  1  0.790000  0.507400  0.165100  1.0  -0.1728
  C  C72  1  0.790500  0.429700  0.162400  1.0  -0.161
  C  C73  1  0.745300  0.273800  0.156100  1.0  0.0766
  C  C74  1  0.764300  0.235600  0.088900  1.0  -0.144
  C  C75  1  0.825600  0.173400  0.080800  1.0  -0.0196
  C  C76  1  0.870300  0.147600  0.137400  1.0  -0.1187
  C  C77  1  0.854200  0.185600  0.203800  1.0  -0.0219
  C  C78  1  0.791500  0.249000  0.214500  1.0  -0.1467
  C  C79  1  0.937000  0.079200  0.127200  1.0  0.6941
  C  C80  1  0.313300  0.323400  0.166600  1.0  0.0889
  C  C81  1  0.285100  0.314500  0.098700  1.0  -0.142
  C  C82  1  0.227300  0.264000  0.090400  1.0  -0.02
  C  C83  1  0.197700  0.222400  0.149900  1.0  -0.124
  C  C84  1  0.225900  0.231300  0.217700  1.0  -0.0396
  C  C85  1  0.283700  0.281800  0.226100  1.0  -0.1411
  C  C86  1  0.133800  0.169000  0.137800  1.0  0.6292
  C  C87  1  0.311500  0.725200  0.167300  1.0  0.069
  C  C88  1  0.317800  0.770500  0.105900  1.0  -0.13
  C  C89  1  0.259900  0.835800  0.097600  1.0  -0.0394
  C  C90  1  0.194500  0.854900  0.150300  1.0  -0.1224
  C  C91  1  0.186400  0.808800  0.211300  1.0  -0.0275
  C  C92  1  0.245200  0.745100  0.221000  1.0  -0.1392
  C  C93  1  0.134400  0.925800  0.140000  1.0  0.6615
  C  C94  1  0.741400  0.675000  0.168400  1.0  0.0877
  C  C95  1  0.755200  0.718300  0.106000  1.0  -0.1463
  C  C96  1  0.814900  0.766800  0.100700  1.0  -0.0537
  C  C97  1  0.863300  0.774700  0.158000  1.0  -0.133
  C  C98  1  0.849800  0.732800  0.219400  1.0  -0.0196
  C  C99  1  0.788400  0.682400  0.225700  1.0  -0.152
  C  C100  1  0.926300  0.829500  0.149300  1.0  0.6816
  C  C101  1  0.453000  0.464700  0.346700  1.0  0.0842
  C  C102  1  0.447000  0.464800  0.422500  1.0  -0.1481
  C  C103  1  0.503400  0.499400  0.458940  1.0  0.1633
  C  C104  1  0.565900  0.533800  0.419500  1.0  -0.1556
  C  C105  1  0.572000  0.533700  0.343700  1.0  0.0669
  C  C106  1  0.295700  0.584500  0.831200  1.0  0.201
  C  C107  1  0.320900  0.657900  0.834200  1.0  -0.0372
  C  C108  1  0.404200  0.673300  0.833200  1.0  0.2073
  C  C109  1  0.429400  0.748200  0.838900  1.0  -0.1663
  C  C110  1  0.511800  0.738600  0.836800  1.0  -0.1578
  C  C111  1  0.540400  0.657500  0.828800  1.0  0.1656
  C  C112  1  0.622500  0.622800  0.825700  1.0  -0.0464
  C  C113  1  0.650400  0.543600  0.822200  1.0  0.2026
  C  C114  1  0.735900  0.508500  0.823600  1.0  -0.1577
  C  C115  1  0.735700  0.432200  0.824000  1.0  -0.1544
  C  C116  1  0.651600  0.416600  0.821700  1.0  0.189
  C  C117  1  0.624600  0.343800  0.824000  1.0  -0.0433
  C  C118  1  0.542000  0.328100  0.824000  1.0  0.2006
  C  C119  1  0.516000  0.253000  0.822300  1.0  -0.1649
  C  C120  1  0.434700  0.261800  0.822500  1.0  -0.15
  C  C121  1  0.405800  0.344600  0.824300  1.0  0.1992
  C  C122  1  0.323900  0.378000  0.826400  1.0  -0.053
  C  C123  1  0.296000  0.458600  0.827400  1.0  0.2044
  C  C124  1  0.210000  0.492600  0.834900  1.0  -0.173
  C  C125  1  0.209500  0.570300  0.837600  1.0  -0.1616
  C  C126  1  0.254700  0.726200  0.843900  1.0  0.0768
  C  C127  1  0.235700  0.764400  0.911100  1.0  -0.1444
  C  C128  1  0.174400  0.826600  0.919200  1.0  -0.0197
  C  C129  1  0.129700  0.852400  0.862600  1.0  -0.1183
  C  C130  1  0.145800  0.814400  0.796200  1.0  -0.0213
  C  C131  1  0.208500  0.751000  0.785500  1.0  -0.1448
  C  C132  1  0.063000  0.920800  0.872800  1.0  0.6956
  C  C133  1  0.686700  0.676600  0.833400  1.0  0.0913
  C  C134  1  0.714900  0.685500  0.901300  1.0  -0.1427
  C  C135  1  0.772700  0.736000  0.909600  1.0  -0.021
  C  C136  1  0.802300  0.777600  0.850100  1.0  -0.1241
  C  C137  1  0.774100  0.768700  0.782300  1.0  -0.0404
  C  C138  1  0.716300  0.718200  0.773900  1.0  -0.1392
  C  C139  1  0.866200  0.831000  0.862200  1.0  0.6298
  C  C140  1  0.688500  0.274800  0.832700  1.0  0.0692
  C  C141  1  0.682200  0.229500  0.894100  1.0  -0.1306
  C  C142  1  0.740100  0.164200  0.902400  1.0  -0.0399
  C  C143  1  0.805500  0.145100  0.849700  1.0  -0.1222
  C  C144  1  0.813600  0.191200  0.788700  1.0  -0.0285
  C  C145  1  0.754800  0.254900  0.779000  1.0  -0.138
  C  C146  1  0.865600  0.074200  0.860000  1.0  0.6653
  C  C147  1  0.258600  0.325000  0.831600  1.0  0.0867
  C  C148  1  0.244800  0.281700  0.894000  1.0  -0.1464
  C  C149  1  0.185100  0.233200  0.899300  1.0  -0.055
  C  C150  1  0.136700  0.225300  0.842000  1.0  -0.1343
  C  C151  1  0.150200  0.267200  0.780600  1.0  -0.0195
  C  C152  1  0.211600  0.317600  0.774300  1.0  -0.1515
  C  C153  1  0.073700  0.170500  0.850700  1.0  0.6856
  C  C154  1  0.547000  0.535300  0.653300  1.0  0.0828
  C  C155  1  0.553000  0.535200  0.577500  1.0  -0.1543
  C  C156  1  0.496600  0.500600  0.541060  1.0  0.1623
  C  C157  1  0.434100  0.466200  0.580500  1.0  -0.1575
  C  C158  1  0.428000  0.466300  0.656300  1.0  0.0744
  N  N159  1  0.528100  0.381300  0.173700  1.0  -0.3951
  N  N160  1  0.399500  0.513900  0.179900  1.0  -0.394
  N  N161  1  0.525700  0.616400  0.177100  1.0  -0.3917
  N  N162  1  0.654300  0.484400  0.174700  1.0  -0.3819
  N  N163  1  0.515500  0.499200  0.307250  1.0  -0.173
  N  N164  1  0.471900  0.618700  0.826300  1.0  -0.3957
  N  N165  1  0.600500  0.486100  0.820100  1.0  -0.3956
  N  N166  1  0.474300  0.383600  0.822900  1.0  -0.3903
  N  N167  1  0.345700  0.515600  0.825300  1.0  -0.3818
  N  N168  1  0.484500  0.500800  0.692750  1.0  -0.1719
  O  O169  1  0.954700  0.048500  0.067100  1.0  -0.6889
  O  O170  1  0.973400  0.058400  0.183300  1.0  -0.3182
  O  O171  1  0.117100  0.151900  0.077800  1.0  -0.6096
  O  O172  1  0.088900  0.152100  0.202200  1.0  -0.3573
  O  O173  1  0.147400  0.970600  0.090000  1.0  -0.6486
  O  O174  1  0.070800  0.937100  0.188400  1.0  -0.3176
  O  O175  1  0.940900  0.866100  0.095700  1.0  -0.6231
  O  O176  1  0.967200  0.832500  0.208800  1.0  -0.3869
  O  O177  1  0.045300  0.951500  0.932900  1.0  -0.6874
  O  O178  1  0.026600  0.941600  0.816700  1.0  -0.3203
  O  O179  1  0.882900  0.848100  0.922200  1.0  -0.6093
  O  O180  1  0.911100  0.847900  0.797800  1.0  -0.3618
  O  O181  1  0.852600  0.029400  0.910000  1.0  -0.6538
  O  O182  1  0.929200  0.062900  0.811600  1.0  -0.3213
  O  O183  1  0.059100  0.133900  0.904300  1.0  -0.6238
  O  O184  1  0.032800  0.167500  0.791200  1.0  -0.3998
