# generated using pymatgen
data_FeH8Au2(C8N5)2
_symmetry_space_group_name_H-M   'P 1'
_cell_length_a   11.91830000
_cell_length_b   16.99830000
_cell_length_c   15.49860000
_cell_angle_alpha   90.00000000
_cell_angle_beta   90.00000000
_cell_angle_gamma   90.00000000
_symmetry_Int_Tables_number   1
_chemical_formula_structural   FeH8Au2(C8N5)2
_chemical_formula_sum   'Fe4 H32 Au8 C64 N40'
_cell_volume   3139.87437562
_cell_formula_units_Z   4
loop_
 _symmetry_equiv_pos_site_id
 _symmetry_equiv_pos_as_xyz
  1  'x, y, z'
loop_
 _atom_site_type_symbol
 _atom_site_label
 _atom_site_symmetry_multiplicity
 _atom_site_fract_x
 _atom_site_fract_y
 _atom_site_fract_z
 _atom_site_occupancy
 _atom_site_charge
  Fe  Fe1  1  0.500000  0.250000  0.385940  1.0  0.7295
  Fe  Fe2  1  0.000000  0.750000  0.385940  1.0  0.7295
  Fe  Fe3  1  0.500000  0.750000  0.614060  1.0  0.7322
  Fe  Fe4  1  0.000000  0.250000  0.614060  1.0  0.7322
  H  H5  1  0.660500  0.250000  0.229600  1.0  0.0767
  H  H6  1  0.667100  0.250000  0.081100  1.0  0.1206
  H  H7  1  0.665800  0.250000  0.690900  1.0  0.1133
  H  H8  1  0.659500  0.250000  0.541300  1.0  0.0687
  H  H9  1  0.160500  0.750000  0.229600  1.0  0.0767
  H  H10  1  0.167100  0.750000  0.081100  1.0  0.1206
  H  H11  1  0.165800  0.750000  0.690900  1.0  0.1133
  H  H12  1  0.159500  0.750000  0.541300  1.0  0.0687
  H  H13  1  0.339500  0.250000  0.229600  1.0  0.0766
  H  H14  1  0.332900  0.250000  0.081100  1.0  0.1207
  H  H15  1  0.334200  0.250000  0.690900  1.0  0.1135
  H  H16  1  0.340500  0.250000  0.541300  1.0  0.0691
  H  H17  1  0.839500  0.750000  0.229600  1.0  0.0766
  H  H18  1  0.832900  0.750000  0.081100  1.0  0.1207
  H  H19  1  0.834200  0.750000  0.690900  1.0  0.1135
  H  H20  1  0.840500  0.750000  0.541300  1.0  0.0691
  H  H21  1  0.339500  0.750000  0.770400  1.0  0.0767
  H  H22  1  0.332900  0.750000  0.918900  1.0  0.1204
  H  H23  1  0.334200  0.750000  0.309100  1.0  0.1135
  H  H24  1  0.340500  0.750000  0.458700  1.0  0.0693
  H  H25  1  0.839500  0.250000  0.770400  1.0  0.0767
  H  H26  1  0.832900  0.250000  0.918900  1.0  0.1204
  H  H27  1  0.834200  0.250000  0.309100  1.0  0.1135
  H  H28  1  0.840500  0.250000  0.458700  1.0  0.0693
  H  H29  1  0.660500  0.750000  0.770400  1.0  0.0766
  H  H30  1  0.667100  0.750000  0.918900  1.0  0.1207
  H  H31  1  0.665800  0.750000  0.309100  1.0  0.113
  H  H32  1  0.659500  0.750000  0.458700  1.0  0.0691
  H  H33  1  0.160500  0.250000  0.770400  1.0  0.0766
  H  H34  1  0.167100  0.250000  0.918900  1.0  0.1207
  H  H35  1  0.165800  0.250000  0.309100  1.0  0.113
  H  H36  1  0.159500  0.250000  0.458700  1.0  0.0691
  Au  Au37  1  0.750000  0.000000  0.394340  1.0  0.1787
  Au  Au38  1  0.250000  0.500000  0.394340  1.0  0.1787
  Au  Au39  1  0.750000  0.500000  0.394340  1.0  0.1787
  Au  Au40  1  0.250000  0.000000  0.394340  1.0  0.1787
  Au  Au41  1  0.250000  0.500000  0.605660  1.0  0.1774
  Au  Au42  1  0.750000  0.000000  0.605660  1.0  0.1774
  Au  Au43  1  0.250000  0.000000  0.605660  1.0  0.1774
  Au  Au44  1  0.750000  0.500000  0.605660  1.0  0.1774
  C  C45  1  0.671400  0.102800  0.390000  1.0  0.0655
  C  C46  1  0.171400  0.602800  0.390000  1.0  0.0655
  C  C47  1  0.328600  0.397200  0.390000  1.0  0.0643
  C  C48  1  0.828600  0.897200  0.390000  1.0  0.0643
  C  C49  1  0.671400  0.397200  0.390000  1.0  0.0623
  C  C50  1  0.171400  0.897200  0.390000  1.0  0.0623
  C  C51  1  0.328600  0.102800  0.390000  1.0  0.065
  C  C52  1  0.828600  0.602800  0.390000  1.0  0.065
  C  C53  1  0.500000  0.250000  0.063800  1.0  0.0167
  C  C54  1  0.500000  0.250000  0.968900  1.0  0.2476
  C  C55  1  0.500000  0.250000  0.805100  1.0  0.4662
  C  C56  1  0.500000  0.250000  0.707600  1.0  -0.0867
  C  C57  1  0.000000  0.750000  0.063800  1.0  0.0167
  C  C58  1  0.000000  0.750000  0.968900  1.0  0.2476
  C  C59  1  0.000000  0.750000  0.805100  1.0  0.4662
  C  C60  1  0.000000  0.750000  0.707600  1.0  -0.0867
  C  C61  1  0.593400  0.250000  0.199000  1.0  0.2003
  C  C62  1  0.598400  0.250000  0.109500  1.0  -0.1568
  C  C63  1  0.597000  0.250000  0.662500  1.0  -0.1457
  C  C64  1  0.592000  0.250000  0.571400  1.0  0.1865
  C  C65  1  0.093400  0.750000  0.199000  1.0  0.2003
  C  C66  1  0.098400  0.750000  0.109500  1.0  -0.1568
  C  C67  1  0.097000  0.750000  0.662500  1.0  -0.1457
  C  C68  1  0.092000  0.750000  0.571400  1.0  0.1865
  C  C69  1  0.406600  0.250000  0.199000  1.0  0.202
  C  C70  1  0.401600  0.250000  0.109500  1.0  -0.1549
  C  C71  1  0.403000  0.250000  0.662500  1.0  -0.1462
  C  C72  1  0.408000  0.250000  0.571400  1.0  0.1867
  C  C73  1  0.906600  0.750000  0.199000  1.0  0.202
  C  C74  1  0.901600  0.750000  0.109500  1.0  -0.1549
  C  C75  1  0.903000  0.750000  0.662500  1.0  -0.1462
  C  C76  1  0.908000  0.750000  0.571400  1.0  0.1867
  C  C77  1  0.328600  0.602800  0.610000  1.0  0.0744
  C  C78  1  0.828600  0.102800  0.610000  1.0  0.0744
  C  C79  1  0.671400  0.897200  0.610000  1.0  0.0712
  C  C80  1  0.171400  0.397200  0.610000  1.0  0.0712
  C  C81  1  0.328600  0.897200  0.610000  1.0  0.073
  C  C82  1  0.828600  0.397200  0.610000  1.0  0.073
  C  C83  1  0.671400  0.602800  0.610000  1.0  0.0744
  C  C84  1  0.171400  0.102800  0.610000  1.0  0.0744
  C  C85  1  0.500000  0.750000  0.936200  1.0  0.0137
  C  C86  1  0.500000  0.750000  0.031100  1.0  0.2469
  C  C87  1  0.500000  0.750000  0.194900  1.0  0.4663
  C  C88  1  0.500000  0.750000  0.292400  1.0  -0.0867
  C  C89  1  0.000000  0.250000  0.936200  1.0  0.0137
  C  C90  1  0.000000  0.250000  0.031100  1.0  0.2469
  C  C91  1  0.000000  0.250000  0.194900  1.0  0.4663
  C  C92  1  0.000000  0.250000  0.292400  1.0  -0.0867
  C  C93  1  0.406600  0.750000  0.801000  1.0  0.2022
  C  C94  1  0.401600  0.750000  0.890500  1.0  -0.1547
  C  C95  1  0.403000  0.750000  0.337500  1.0  -0.1469
  C  C96  1  0.408000  0.750000  0.428600  1.0  0.1873
  C  C97  1  0.906600  0.250000  0.801000  1.0  0.2022
  C  C98  1  0.901600  0.250000  0.890500  1.0  -0.1547
  C  C99  1  0.903000  0.250000  0.337500  1.0  -0.1469
  C  C100  1  0.908000  0.250000  0.428600  1.0  0.1873
  C  C101  1  0.593400  0.750000  0.801000  1.0  0.2009
  C  C102  1  0.598400  0.750000  0.890500  1.0  -0.1564
  C  C103  1  0.597000  0.750000  0.337500  1.0  -0.1475
  C  C104  1  0.592000  0.750000  0.428600  1.0  0.1875
  C  C105  1  0.093400  0.250000  0.801000  1.0  0.2009
  C  C106  1  0.098400  0.250000  0.890500  1.0  -0.1564
  C  C107  1  0.097000  0.250000  0.337500  1.0  -0.1475
  C  C108  1  0.092000  0.250000  0.428600  1.0  0.1875
  N  N109  1  0.624500  0.159900  0.386700  1.0  -0.3543
  N  N110  1  0.124500  0.659900  0.386700  1.0  -0.3543
  N  N111  1  0.375500  0.340100  0.386700  1.0  -0.3578
  N  N112  1  0.875500  0.840100  0.386700  1.0  -0.3578
  N  N113  1  0.624500  0.340100  0.386700  1.0  -0.3582
  N  N114  1  0.124500  0.840100  0.386700  1.0  -0.3582
  N  N115  1  0.375500  0.159900  0.386700  1.0  -0.3533
  N  N116  1  0.875500  0.659900  0.386700  1.0  -0.3533
  N  N117  1  0.500000  0.250000  0.242400  1.0  -0.27
  N  N118  1  0.500000  0.250000  0.526900  1.0  -0.2958
  N  N119  1  0.000000  0.750000  0.242400  1.0  -0.27
  N  N120  1  0.000000  0.750000  0.526900  1.0  -0.2958
  N  N121  1  0.600200  0.250000  0.927300  1.0  -0.2383
  N  N122  1  0.598200  0.250000  0.840900  1.0  -0.2367
  N  N123  1  0.100200  0.750000  0.927300  1.0  -0.2383
  N  N124  1  0.098200  0.750000  0.840900  1.0  -0.2367
  N  N125  1  0.399800  0.250000  0.927300  1.0  -0.2382
  N  N126  1  0.401800  0.250000  0.840900  1.0  -0.2329
  N  N127  1  0.899800  0.750000  0.927300  1.0  -0.2382
  N  N128  1  0.901800  0.750000  0.840900  1.0  -0.2329
  N  N129  1  0.375500  0.659900  0.613300  1.0  -0.3535
  N  N130  1  0.875500  0.159900  0.613300  1.0  -0.3535
  N  N131  1  0.624500  0.840100  0.613300  1.0  -0.3575
  N  N132  1  0.124500  0.340100  0.613300  1.0  -0.3575
  N  N133  1  0.375500  0.840100  0.613300  1.0  -0.3572
  N  N134  1  0.875500  0.340100  0.613300  1.0  -0.3572
  N  N135  1  0.624500  0.659900  0.613300  1.0  -0.3543
  N  N136  1  0.124500  0.159900  0.613300  1.0  -0.3543
  N  N137  1  0.500000  0.750000  0.757600  1.0  -0.2712
  N  N138  1  0.500000  0.750000  0.473100  1.0  -0.2956
  N  N139  1  0.000000  0.250000  0.757600  1.0  -0.2712
  N  N140  1  0.000000  0.250000  0.473100  1.0  -0.2956
  N  N141  1  0.399800  0.750000  0.072700  1.0  -0.238
  N  N142  1  0.401800  0.750000  0.159100  1.0  -0.2332
  N  N143  1  0.899800  0.250000  0.072700  1.0  -0.238
  N  N144  1  0.901800  0.250000  0.159100  1.0  -0.2332
  N  N145  1  0.600200  0.750000  0.072700  1.0  -0.2382
  N  N146  1  0.598200  0.750000  0.159100  1.0  -0.2367
  N  N147  1  0.100200  0.250000  0.072700  1.0  -0.2382
  N  N148  1  0.098200  0.250000  0.159100  1.0  -0.2367
