# generated using pymatgen
data_FeH8Au2(C8N5)2
_symmetry_space_group_name_H-M   'P 1'
_cell_length_a   12.06600000
_cell_length_b   16.12100000
_cell_length_c   15.09900000
_cell_angle_alpha   90.00000000
_cell_angle_beta   90.00000000
_cell_angle_gamma   90.00000000
_symmetry_Int_Tables_number   1
_chemical_formula_structural   FeH8Au2(C8N5)2
_chemical_formula_sum   'Fe4 H32 Au8 C64 N40'
_cell_volume   2936.99687261
_cell_formula_units_Z   4
loop_
 _symmetry_equiv_pos_site_id
 _symmetry_equiv_pos_as_xyz
  1  'x, y, z'
loop_
 _atom_site_type_symbol
 _atom_site_label
 _atom_site_symmetry_multiplicity
 _atom_site_fract_x
 _atom_site_fract_y
 _atom_site_fract_z
 _atom_site_occupancy
 _atom_site_charge
  Fe  Fe1  1  0.500000  0.250000  0.384500  1.0  0.4491
  Fe  Fe2  1  0.000000  0.750000  0.384500  1.0  0.4491
  Fe  Fe3  1  0.500000  0.750000  0.615500  1.0  0.4522
  Fe  Fe4  1  0.000000  0.250000  0.615500  1.0  0.4522
  H  H5  1  0.662900  0.250000  0.238000  1.0  0.087
  H  H6  1  0.668900  0.250000  0.085200  1.0  0.1305
  H  H7  1  0.665500  0.250000  0.686000  1.0  0.1172
  H  H8  1  0.663300  0.250000  0.531700  1.0  0.097
  H  H9  1  0.162900  0.750000  0.238000  1.0  0.087
  H  H10  1  0.168900  0.750000  0.085200  1.0  0.1305
  H  H11  1  0.165500  0.750000  0.686000  1.0  0.1172
  H  H12  1  0.163300  0.750000  0.531700  1.0  0.097
  H  H13  1  0.337100  0.250000  0.238000  1.0  0.0872
  H  H14  1  0.331100  0.250000  0.085200  1.0  0.1307
  H  H15  1  0.334500  0.250000  0.686000  1.0  0.1174
  H  H16  1  0.336700  0.250000  0.531700  1.0  0.0971
  H  H17  1  0.837100  0.750000  0.238000  1.0  0.0872
  H  H18  1  0.831100  0.750000  0.085200  1.0  0.1307
  H  H19  1  0.834500  0.750000  0.686000  1.0  0.1174
  H  H20  1  0.836700  0.750000  0.531700  1.0  0.0971
  H  H21  1  0.337100  0.750000  0.762000  1.0  0.0874
  H  H22  1  0.331100  0.750000  0.914800  1.0  0.1313
  H  H23  1  0.334500  0.750000  0.314000  1.0  0.1175
  H  H24  1  0.336700  0.750000  0.468300  1.0  0.0978
  H  H25  1  0.837100  0.250000  0.762000  1.0  0.0874
  H  H26  1  0.831100  0.250000  0.914800  1.0  0.1313
  H  H27  1  0.834500  0.250000  0.314000  1.0  0.1175
  H  H28  1  0.836700  0.250000  0.468300  1.0  0.0978
  H  H29  1  0.662900  0.750000  0.762000  1.0  0.0872
  H  H30  1  0.668900  0.750000  0.914800  1.0  0.1312
  H  H31  1  0.665500  0.750000  0.314000  1.0  0.1175
  H  H32  1  0.663300  0.750000  0.468300  1.0  0.0976
  H  H33  1  0.162900  0.250000  0.762000  1.0  0.0872
  H  H34  1  0.168900  0.250000  0.914800  1.0  0.1312
  H  H35  1  0.165500  0.250000  0.314000  1.0  0.1175
  H  H36  1  0.163300  0.250000  0.468300  1.0  0.0976
  Au  Au37  1  0.750000  0.000000  0.392710  1.0  0.1013
  Au  Au38  1  0.250000  0.500000  0.392710  1.0  0.1013
  Au  Au39  1  0.750000  0.500000  0.392710  1.0  0.1013
  Au  Au40  1  0.250000  0.000000  0.392710  1.0  0.1013
  Au  Au41  1  0.250000  0.500000  0.607290  1.0  0.1014
  Au  Au42  1  0.750000  0.000000  0.607290  1.0  0.1014
  Au  Au43  1  0.250000  0.000000  0.607290  1.0  0.1014
  Au  Au44  1  0.750000  0.500000  0.607290  1.0  0.1014
  C  C45  1  0.664000  0.104200  0.389100  1.0  0.0908
  C  C46  1  0.164000  0.604200  0.389100  1.0  0.0908
  C  C47  1  0.336000  0.395800  0.389100  1.0  0.0893
  C  C48  1  0.836000  0.895800  0.389100  1.0  0.0893
  C  C49  1  0.664000  0.395800  0.389100  1.0  0.0887
  C  C50  1  0.164000  0.895800  0.389100  1.0  0.0887
  C  C51  1  0.336000  0.104200  0.389100  1.0  0.0908
  C  C52  1  0.836000  0.604200  0.389100  1.0  0.0908
  C  C53  1  0.500000  0.250000  0.067000  1.0  -0.0534
  C  C54  1  0.500000  0.250000  0.968900  1.0  0.2658
  C  C55  1  0.500000  0.250000  0.799800  1.0  0.3677
  C  C56  1  0.500000  0.250000  0.700600  1.0  -0.0974
  C  C57  1  0.000000  0.750000  0.067000  1.0  -0.0534
  C  C58  1  0.000000  0.750000  0.968900  1.0  0.2658
  C  C59  1  0.000000  0.750000  0.799800  1.0  0.3677
  C  C60  1  0.000000  0.750000  0.700600  1.0  -0.0974
  C  C61  1  0.595000  0.250000  0.206100  1.0  0.1938
  C  C62  1  0.599500  0.250000  0.115000  1.0  -0.1197
  C  C63  1  0.596900  0.250000  0.655200  1.0  -0.1016
  C  C64  1  0.594900  0.250000  0.562900  1.0  0.1726
  C  C65  1  0.095000  0.750000  0.206100  1.0  0.1938
  C  C66  1  0.099500  0.750000  0.115000  1.0  -0.1197
  C  C67  1  0.096900  0.750000  0.655200  1.0  -0.1016
  C  C68  1  0.094900  0.750000  0.562900  1.0  0.1726
  C  C69  1  0.405000  0.250000  0.206100  1.0  0.1946
  C  C70  1  0.400500  0.250000  0.115000  1.0  -0.1189
  C  C71  1  0.403100  0.250000  0.655200  1.0  -0.102
  C  C72  1  0.405100  0.250000  0.562900  1.0  0.1728
  C  C73  1  0.905000  0.750000  0.206100  1.0  0.1946
  C  C74  1  0.900500  0.750000  0.115000  1.0  -0.1189
  C  C75  1  0.903100  0.750000  0.655200  1.0  -0.102
  C  C76  1  0.905100  0.750000  0.562900  1.0  0.1728
  C  C77  1  0.336000  0.604200  0.610900  1.0  0.0904
  C  C78  1  0.836000  0.104200  0.610900  1.0  0.0904
  C  C79  1  0.664000  0.895800  0.610900  1.0  0.0883
  C  C80  1  0.164000  0.395800  0.610900  1.0  0.0883
  C  C81  1  0.336000  0.895800  0.610900  1.0  0.0994
  C  C82  1  0.836000  0.395800  0.610900  1.0  0.0994
  C  C83  1  0.664000  0.604200  0.610900  1.0  0.1011
  C  C84  1  0.164000  0.104200  0.610900  1.0  0.1011
  C  C85  1  0.500000  0.750000  0.933000  1.0  -0.0549
  C  C86  1  0.500000  0.750000  0.031100  1.0  0.2652
  C  C87  1  0.500000  0.750000  0.200200  1.0  0.3679
  C  C88  1  0.500000  0.750000  0.299400  1.0  -0.0962
  C  C89  1  0.000000  0.250000  0.933000  1.0  -0.0549
  C  C90  1  0.000000  0.250000  0.031100  1.0  0.2652
  C  C91  1  0.000000  0.250000  0.200200  1.0  0.3679
  C  C92  1  0.000000  0.250000  0.299400  1.0  -0.0962
  C  C93  1  0.405000  0.750000  0.793900  1.0  0.1937
  C  C94  1  0.400500  0.750000  0.885000  1.0  -0.1196
  C  C95  1  0.403100  0.750000  0.344800  1.0  -0.1014
  C  C96  1  0.405100  0.750000  0.437100  1.0  0.173
  C  C97  1  0.905000  0.250000  0.793900  1.0  0.1937
  C  C98  1  0.900500  0.250000  0.885000  1.0  -0.1196
  C  C99  1  0.903100  0.250000  0.344800  1.0  -0.1014
  C  C100  1  0.905100  0.250000  0.437100  1.0  0.173
  C  C101  1  0.595000  0.750000  0.793900  1.0  0.1926
  C  C102  1  0.599500  0.750000  0.885000  1.0  -0.1198
  C  C103  1  0.596900  0.750000  0.344800  1.0  -0.1021
  C  C104  1  0.594900  0.750000  0.437100  1.0  0.1729
  C  C105  1  0.095000  0.250000  0.793900  1.0  0.1926
  C  C106  1  0.099500  0.250000  0.885000  1.0  -0.1198
  C  C107  1  0.096900  0.250000  0.344800  1.0  -0.1021
  C  C108  1  0.094900  0.250000  0.437100  1.0  0.1729
  N  N109  1  0.610200  0.163100  0.385500  1.0  -0.3142
  N  N110  1  0.110200  0.663100  0.385500  1.0  -0.3142
  N  N111  1  0.389800  0.336900  0.385500  1.0  -0.3163
  N  N112  1  0.889800  0.836900  0.385500  1.0  -0.3163
  N  N113  1  0.610200  0.336900  0.385500  1.0  -0.3169
  N  N114  1  0.110200  0.836900  0.385500  1.0  -0.3169
  N  N115  1  0.389800  0.163100  0.385500  1.0  -0.3134
  N  N116  1  0.889800  0.663100  0.385500  1.0  -0.3134
  N  N117  1  0.500000  0.250000  0.252700  1.0  -0.2922
  N  N118  1  0.500000  0.250000  0.516400  1.0  -0.299
  N  N119  1  0.000000  0.750000  0.252700  1.0  -0.2922
  N  N120  1  0.000000  0.750000  0.516400  1.0  -0.299
  N  N121  1  0.598700  0.250000  0.927800  1.0  -0.223
  N  N122  1  0.598200  0.250000  0.839800  1.0  -0.1836
  N  N123  1  0.098700  0.750000  0.927800  1.0  -0.223
  N  N124  1  0.098200  0.750000  0.839800  1.0  -0.1836
  N  N125  1  0.401300  0.250000  0.927800  1.0  -0.2222
  N  N126  1  0.401800  0.250000  0.839800  1.0  -0.1815
  N  N127  1  0.901300  0.750000  0.927800  1.0  -0.2222
  N  N128  1  0.901800  0.750000  0.839800  1.0  -0.1815
  N  N129  1  0.389800  0.663100  0.614500  1.0  -0.3135
  N  N130  1  0.889800  0.163100  0.614500  1.0  -0.3135
  N  N131  1  0.610200  0.836900  0.614500  1.0  -0.3169
  N  N132  1  0.110200  0.336900  0.614500  1.0  -0.3169
  N  N133  1  0.389800  0.836900  0.614500  1.0  -0.3165
  N  N134  1  0.889800  0.336900  0.614500  1.0  -0.3165
  N  N135  1  0.610200  0.663100  0.614500  1.0  -0.3144
  N  N136  1  0.110200  0.163100  0.614500  1.0  -0.3144
  N  N137  1  0.500000  0.750000  0.747300  1.0  -0.291
  N  N138  1  0.500000  0.750000  0.483600  1.0  -0.2986
  N  N139  1  0.000000  0.250000  0.747300  1.0  -0.291
  N  N140  1  0.000000  0.250000  0.483600  1.0  -0.2986
  N  N141  1  0.401300  0.750000  0.072200  1.0  -0.2221
  N  N142  1  0.401800  0.750000  0.160200  1.0  -0.1813
  N  N143  1  0.901300  0.250000  0.072200  1.0  -0.2221
  N  N144  1  0.901800  0.250000  0.160200  1.0  -0.1813
  N  N145  1  0.598700  0.750000  0.072200  1.0  -0.2227
  N  N146  1  0.598200  0.750000  0.160200  1.0  -0.1834
  N  N147  1  0.098700  0.250000  0.072200  1.0  -0.2227
  N  N148  1  0.098200  0.250000  0.160200  1.0  -0.1834
