# generated using pymatgen
data_Ni2Mo5P2H49C48N24O17
_symmetry_space_group_name_H-M   'P 1'
_cell_length_a   18.57700000
_cell_length_b   20.12500000
_cell_length_c   20.89500000
_cell_angle_alpha   90.00000000
_cell_angle_beta   90.00000000
_cell_angle_gamma   90.00000000
_symmetry_Int_Tables_number   1
_chemical_formula_structural   Ni2Mo5P2H49C48N24O17
_chemical_formula_sum   'Ni8 Mo20 P8 H196 C192 N96 O68'
_cell_volume   7811.84910188
_cell_formula_units_Z   4
loop_
 _symmetry_equiv_pos_site_id
 _symmetry_equiv_pos_as_xyz
  1  'x, y, z'
loop_
 _atom_site_type_symbol
 _atom_site_label
 _atom_site_symmetry_multiplicity
 _atom_site_fract_x
 _atom_site_fract_y
 _atom_site_fract_z
 _atom_site_occupancy
 _atom_site_charge
  Ni  Ni1  1  0.450310  0.357970  0.187080  1.0  0.7601
  Ni  Ni2  1  0.280360  0.991850  0.012870  1.0  0.899
  Ni  Ni3  1  0.049690  0.642030  0.687080  1.0  0.7621
  Ni  Ni4  1  0.219640  0.008150  0.512870  1.0  0.8986
  Ni  Ni5  1  0.549690  0.857970  0.312920  1.0  0.7619
  Ni  Ni6  1  0.719640  0.491850  0.487130  1.0  0.8985
  Ni  Ni7  1  0.950310  0.142030  0.812920  1.0  0.7611
  Ni  Ni8  1  0.780360  0.508150  0.987130  1.0  0.899
  Mo  Mo9  1  0.331760  0.205930  0.178920  1.0  1.3522
  Mo  Mo10  1  0.313070  0.209530  0.341370  1.0  0.6646
  Mo  Mo11  1  0.365170  0.062160  0.401370  1.0  1.3249
  Mo  Mo12  1  0.392500  0.953980  0.275910  1.0  1.3415
  Mo  Mo13  1  0.408960  0.058610  0.137400  1.0  1.4017
  Mo  Mo14  1  0.168240  0.794070  0.678920  1.0  1.3549
  Mo  Mo15  1  0.186930  0.790470  0.841370  1.0  0.6635
  Mo  Mo16  1  0.134830  0.937840  0.901370  1.0  1.3258
  Mo  Mo17  1  0.107500  0.046020  0.775910  1.0  1.3393
  Mo  Mo18  1  0.091040  0.941390  0.637400  1.0  1.4018
  Mo  Mo19  1  0.668240  0.705930  0.321080  1.0  1.3531
  Mo  Mo20  1  0.686930  0.709530  0.158630  1.0  0.6632
  Mo  Mo21  1  0.634830  0.562160  0.098630  1.0  1.3282
  Mo  Mo22  1  0.607500  0.453980  0.224090  1.0  1.338
  Mo  Mo23  1  0.591040  0.558610  0.362600  1.0  1.402
  Mo  Mo24  1  0.831760  0.294070  0.821080  1.0  1.3538
  Mo  Mo25  1  0.813070  0.290470  0.658630  1.0  0.6629
  Mo  Mo26  1  0.865170  0.437840  0.598630  1.0  1.3277
  Mo  Mo27  1  0.892500  0.546020  0.724090  1.0  1.3395
  Mo  Mo28  1  0.908960  0.441390  0.862600  1.0  1.401
  P  P29  1  0.268640  0.068700  0.255610  1.0  1.7711
  P  P30  1  0.460390  0.122700  0.276530  1.0  1.8597
  P  P31  1  0.231360  0.931300  0.755610  1.0  1.7723
  P  P32  1  0.039610  0.877300  0.776530  1.0  1.8572
  P  P33  1  0.731360  0.568700  0.244390  1.0  1.7718
  P  P34  1  0.539610  0.622700  0.223470  1.0  1.8577
  P  P35  1  0.768640  0.431300  0.744390  1.0  1.7715
  P  P36  1  0.960390  0.377300  0.723470  1.0  1.8607
  H  H37  1  0.314700  0.364200  0.093800  1.0  0.0772
  H  H38  1  0.479200  0.474800  0.082100  1.0  0.096
  H  H39  1  0.384800  0.520700  0.943400  1.0  0.1241
  H  H40  1  0.445000  0.550500  0.987700  1.0  0.1132
  H  H41  1  0.287800  0.591300  0.929300  1.0  0.1209
  H  H42  1  0.211700  0.671300  0.963700  1.0  0.1168
  H  H43  1  0.316400  0.679800  0.132500  1.0  0.1352
  H  H44  1  0.390900  0.596700  0.092800  1.0  0.0754
  H  H45  1  0.182900  0.720500  0.116000  1.0  0.1331
  H  H46  1  0.162300  0.736700  0.045000  1.0  0.1258
  H  H47  1  0.291900  0.916400  0.153200  1.0  0.0873
  H  H48  1  0.238200  0.839300  0.994600  1.0  0.0938
  H  H49  1  0.502100  0.210900  0.142900  1.0  0.1095
  H  H50  1  0.596400  0.373700  0.098000  1.0  0.0771
  H  H51  1  0.659000  0.156800  0.066900  1.0  0.117
  H  H52  1  0.582800  0.128800  0.085100  1.0  0.1185
  H  H53  1  0.686200  0.187400  0.956100  1.0  0.1001
  H  H54  1  0.665500  0.164500  0.850000  1.0  0.1304
  H  H55  1  0.461100  0.116400  0.892700  1.0  0.084
  H  H56  1  0.488300  0.121600  0.000600  1.0  0.1012
  H  H57  1  0.587800  0.102800  0.774700  1.0  0.1224
  H  H58  1  0.545800  0.170200  0.771000  1.0  0.1304
  H  H59  1  0.327800  0.091100  0.746100  1.0  0.0943
  H  H60  1  0.493700  0.993400  0.788700  1.0  0.0914
  H  H61  1  0.953400  0.525600  0.983900  1.0  0.1051
  H  H62  1  0.826800  0.590200  0.117100  1.0  0.0889
  H  H63  1  0.070100  0.589300  0.017200  1.0  0.1238
  H  H64  1  0.051700  0.653500  0.055700  1.0  0.1321
  H  H65  1  0.139600  0.504800  0.066400  1.0  0.1233
  H  H66  1  0.228700  0.490800  0.140500  1.0  0.1034
  H  H67  1  0.145800  0.631700  0.245900  1.0  0.1104
  H  H68  1  0.056300  0.645500  0.174000  1.0  0.1242
  H  H69  1  0.293500  0.591800  0.232400  1.0  0.1629
  H  H70  1  0.239900  0.569800  0.285700  1.0  0.1557
  H  H71  1  0.408000  0.505700  0.233200  1.0  0.1172
  H  H72  1  0.289100  0.350100  0.250400  1.0  0.0824
  H  H73  1  0.262800  0.061500  0.873100  1.0  0.092
  H  H74  1  0.323500  0.150100  0.025200  1.0  0.0956
  H  H75  1  0.273300  0.278300  0.920300  1.0  0.1362
  H  H76  1  0.304800  0.270000  0.989400  1.0  0.1267
  H  H77  1  0.431200  0.286700  0.005500  1.0  0.0861
  H  H78  1  0.537000  0.335400  0.970800  1.0  0.1038
  H  H79  1  0.472300  0.306200  0.792100  1.0  0.085
  H  H80  1  0.367700  0.261700  0.827000  1.0  0.1292
  H  H81  1  0.583400  0.360900  0.806900  1.0  0.1214
  H  H82  1  0.621600  0.313400  0.855500  1.0  0.1293
  H  H83  1  0.712300  0.375300  0.917300  1.0  0.1096
  H  H84  1  0.619700  0.549000  0.930500  1.0  0.0968
  H  H85  1  0.371300  0.984400  0.765000  1.0  0.3049
  H  H86  1  0.185300  0.635800  0.593800  1.0  0.0761
  H  H87  1  0.020800  0.525200  0.582100  1.0  0.0963
  H  H88  1  0.115200  0.479300  0.443400  1.0  0.1243
  H  H89  1  0.055000  0.449500  0.487700  1.0  0.1154
  H  H90  1  0.212200  0.408700  0.429300  1.0  0.1212
  H  H91  1  0.288300  0.328700  0.463700  1.0  0.1163
  H  H92  1  0.183600  0.320200  0.632500  1.0  0.136
  H  H93  1  0.109100  0.403300  0.592800  1.0  0.0768
  H  H94  1  0.317100  0.279500  0.616000  1.0  0.1313
  H  H95  1  0.337700  0.263300  0.545000  1.0  0.1256
  H  H96  1  0.208100  0.083600  0.653200  1.0  0.0878
  H  H97  1  0.261800  0.160700  0.494600  1.0  0.0935
  H  H98  1  0.997900  0.789100  0.642900  1.0  0.1102
  H  H99  1  0.903600  0.626300  0.598000  1.0  0.0772
  H  H100  1  0.841000  0.843200  0.566900  1.0  0.116
  H  H101  1  0.917200  0.871200  0.585100  1.0  0.1154
  H  H102  1  0.813800  0.812600  0.456100  1.0  0.1003
  H  H103  1  0.834500  0.835500  0.350000  1.0  0.1307
  H  H104  1  0.038900  0.883600  0.392700  1.0  0.0851
  H  H105  1  0.011700  0.878400  0.500600  1.0  0.1016
  H  H106  1  0.912200  0.897200  0.274700  1.0  0.1232
  H  H107  1  0.954200  0.829800  0.271000  1.0  0.1306
  H  H108  1  0.172200  0.908900  0.246100  1.0  0.0925
  H  H109  1  0.006300  0.006600  0.288700  1.0  0.0921
  H  H110  1  0.546600  0.474400  0.483900  1.0  0.1045
  H  H111  1  0.673200  0.409800  0.617100  1.0  0.0895
  H  H112  1  0.429900  0.410700  0.517200  1.0  0.1234
  H  H113  1  0.448300  0.346500  0.555700  1.0  0.1321
  H  H114  1  0.360400  0.495200  0.566400  1.0  0.1218
  H  H115  1  0.271300  0.509200  0.640500  1.0  0.1033
  H  H116  1  0.354200  0.368300  0.745900  1.0  0.1107
  H  H117  1  0.443700  0.354500  0.674000  1.0  0.125
  H  H118  1  0.206500  0.408200  0.732400  1.0  0.1642
  H  H119  1  0.260100  0.430200  0.785700  1.0  0.1566
  H  H120  1  0.092000  0.494300  0.733200  1.0  0.1166
  H  H121  1  0.210900  0.649900  0.750400  1.0  0.0824
  H  H122  1  0.237200  0.938500  0.373100  1.0  0.092
  H  H123  1  0.176500  0.849900  0.525200  1.0  0.0953
  H  H124  1  0.226700  0.721700  0.420300  1.0  0.1361
  H  H125  1  0.195200  0.730000  0.489400  1.0  0.1274
  H  H126  1  0.068800  0.713300  0.505500  1.0  0.0864
  H  H127  1  0.963000  0.664600  0.470800  1.0  0.1036
  H  H128  1  0.027700  0.693800  0.292100  1.0  0.0849
  H  H129  1  0.132300  0.738300  0.327000  1.0  0.129
  H  H130  1  0.916600  0.639100  0.306900  1.0  0.1204
  H  H131  1  0.878400  0.686600  0.355500  1.0  0.129
  H  H132  1  0.787700  0.624700  0.417300  1.0  0.1097
  H  H133  1  0.880300  0.451000  0.430500  1.0  0.1002
  H  H134  1  0.128700  0.015600  0.265000  1.0  0.3034
  H  H135  1  0.685300  0.864200  0.406200  1.0  0.0774
  H  H136  1  0.520800  0.974800  0.417900  1.0  0.0964
  H  H137  1  0.615200  0.020700  0.556600  1.0  0.1257
  H  H138  1  0.555000  0.050500  0.512300  1.0  0.1148
  H  H139  1  0.712200  0.091300  0.570700  1.0  0.1216
  H  H140  1  0.788300  0.171300  0.536300  1.0  0.1161
  H  H141  1  0.683600  0.179800  0.367500  1.0  0.1363
  H  H142  1  0.609100  0.096700  0.407200  1.0  0.0762
  H  H143  1  0.817100  0.220500  0.384000  1.0  0.1322
  H  H144  1  0.837700  0.236700  0.455000  1.0  0.1252
  H  H145  1  0.708100  0.416400  0.346800  1.0  0.0876
  H  H146  1  0.761800  0.339300  0.505400  1.0  0.0936
  H  H147  1  0.497900  0.710900  0.357100  1.0  0.1099
  H  H148  1  0.403600  0.873700  0.402000  1.0  0.0768
  H  H149  1  0.341000  0.656800  0.433100  1.0  0.1161
  H  H150  1  0.417200  0.628800  0.414900  1.0  0.1174
  H  H151  1  0.313800  0.687400  0.543900  1.0  0.1001
  H  H152  1  0.334500  0.664500  0.650000  1.0  0.1307
  H  H153  1  0.538900  0.616400  0.607300  1.0  0.0848
  H  H154  1  0.511700  0.621600  0.499400  1.0  0.1016
  H  H155  1  0.412200  0.602800  0.725300  1.0  0.1246
  H  H156  1  0.454200  0.670200  0.729000  1.0  0.1312
  H  H157  1  0.672200  0.591100  0.753900  1.0  0.0929
  H  H158  1  0.506300  0.493400  0.711300  1.0  0.0917
  H  H159  1  0.046600  0.025600  0.516100  1.0  0.1044
  H  H160  1  0.173200  0.090200  0.382900  1.0  0.0889
  H  H161  1  0.929900  0.089300  0.482800  1.0  0.1226
  H  H162  1  0.948300  0.153500  0.444300  1.0  0.1332
  H  H163  1  0.860400  0.004800  0.433600  1.0  0.1215
  H  H164  1  0.771300  0.990800  0.359500  1.0  0.1031
  H  H165  1  0.854200  0.131700  0.254100  1.0  0.1105
  H  H166  1  0.943700  0.145500  0.326000  1.0  0.126
  H  H167  1  0.706500  0.091800  0.267600  1.0  0.1648
  H  H168  1  0.760100  0.069800  0.214300  1.0  0.1555
  H  H169  1  0.592000  0.005700  0.266800  1.0  0.1174
  H  H170  1  0.710900  0.850100  0.249600  1.0  0.0831
  H  H171  1  0.737200  0.561500  0.626900  1.0  0.093
  H  H172  1  0.676500  0.650100  0.474800  1.0  0.0952
  H  H173  1  0.726700  0.778300  0.579700  1.0  0.1356
  H  H174  1  0.695200  0.770000  0.510600  1.0  0.1265
  H  H175  1  0.568800  0.786700  0.494500  1.0  0.0865
  H  H176  1  0.463000  0.835400  0.529200  1.0  0.1036
  H  H177  1  0.527700  0.806200  0.707900  1.0  0.0856
  H  H178  1  0.632300  0.761700  0.673000  1.0  0.1292
  H  H179  1  0.416600  0.860900  0.693100  1.0  0.1205
  H  H180  1  0.378400  0.813400  0.644500  1.0  0.1299
  H  H181  1  0.287700  0.875300  0.582700  1.0  0.1098
  H  H182  1  0.380300  0.049000  0.569500  1.0  0.1
  H  H183  1  0.628700  0.484400  0.735000  1.0  0.3063
  H  H184  1  0.814700  0.135800  0.906200  1.0  0.0777
  H  H185  1  0.979200  0.025200  0.917900  1.0  0.0964
  H  H186  1  0.884800  0.979300  0.056600  1.0  0.1253
  H  H187  1  0.945000  0.949500  0.012300  1.0  0.1118
  H  H188  1  0.787800  0.908700  0.070700  1.0  0.1215
  H  H189  1  0.711700  0.828700  0.036300  1.0  0.1165
  H  H190  1  0.816400  0.820200  0.867500  1.0  0.1365
  H  H191  1  0.890900  0.903300  0.907200  1.0  0.0765
  H  H192  1  0.682900  0.779500  0.884000  1.0  0.1313
  H  H193  1  0.662300  0.763300  0.955000  1.0  0.1263
  H  H194  1  0.791900  0.583600  0.846800  1.0  0.0879
  H  H195  1  0.738200  0.660700  0.005400  1.0  0.0934
  H  H196  1  0.002100  0.289100  0.857100  1.0  0.1106
  H  H197  1  0.096400  0.126300  0.902000  1.0  0.0768
  H  H198  1  0.159000  0.343200  0.933100  1.0  0.1168
  H  H199  1  0.082800  0.371200  0.914900  1.0  0.1174
  H  H200  1  0.186200  0.312600  0.043900  1.0  0.1006
  H  H201  1  0.165500  0.335500  0.150000  1.0  0.1307
  H  H202  1  0.961100  0.383600  0.107300  1.0  0.0837
  H  H203  1  0.988300  0.378400  0.999400  1.0  0.1018
  H  H204  1  0.087800  0.397200  0.225300  1.0  0.1224
  H  H205  1  0.045800  0.329800  0.229000  1.0  0.132
  H  H206  1  0.827800  0.408900  0.253900  1.0  0.0944
  H  H207  1  0.993700  0.506600  0.211300  1.0  0.0916
  H  H208  1  0.453400  0.974400  0.016100  1.0  0.1047
  H  H209  1  0.326800  0.909800  0.882900  1.0  0.088
  H  H210  1  0.570100  0.910700  0.982800  1.0  0.1238
  H  H211  1  0.551700  0.846500  0.944300  1.0  0.1292
  H  H212  1  0.639600  0.995200  0.933600  1.0  0.1215
  H  H213  1  0.728700  0.009200  0.859500  1.0  0.1029
  H  H214  1  0.645800  0.868300  0.754100  1.0  0.1111
  H  H215  1  0.556300  0.854500  0.826000  1.0  0.124
  H  H216  1  0.793500  0.908200  0.767600  1.0  0.1641
  H  H217  1  0.739900  0.930200  0.714300  1.0  0.1551
  H  H218  1  0.908000  0.994300  0.766800  1.0  0.1145
  H  H219  1  0.789100  0.149900  0.749600  1.0  0.0833
  H  H220  1  0.762800  0.438500  0.126900  1.0  0.0926
  H  H221  1  0.823500  0.349900  0.974800  1.0  0.0954
  H  H222  1  0.773300  0.221700  0.079700  1.0  0.1369
  H  H223  1  0.804800  0.230000  0.010600  1.0  0.1274
  H  H224  1  0.931200  0.213300  0.994500  1.0  0.0864
  H  H225  1  0.037000  0.164600  0.029200  1.0  0.1036
  H  H226  1  0.972300  0.193800  0.207900  1.0  0.0853
  H  H227  1  0.867700  0.238300  0.173000  1.0  0.1291
  H  H228  1  0.083400  0.139100  0.193100  1.0  0.123
  H  H229  1  0.121600  0.186600  0.144500  1.0  0.1286
  H  H230  1  0.212300  0.124700  0.082700  1.0  0.11
  H  H231  1  0.119700  0.951000  0.069500  1.0  0.0991
  H  H232  1  0.871300  0.515600  0.235000  1.0  0.303
  C  C233  1  0.347200  0.395800  0.079100  1.0  0.29
  C  C234  1  0.435400  0.454300  0.073400  1.0  0.1645
  C  C235  1  0.396300  0.533100  0.987100  1.0  -0.1017
  C  C236  1  0.345100  0.585500  0.009400  1.0  0.1193
  C  C237  1  0.292900  0.608700  0.970300  1.0  -0.1209
  C  C238  1  0.248400  0.656400  0.990400  1.0  -0.1306
  C  C239  1  0.256700  0.684400  0.051800  1.0  0.0902
  C  C240  1  0.309800  0.662400  0.091700  1.0  -0.1893
  C  C241  1  0.353600  0.612400  0.067300  1.0  -0.0927
  C  C242  1  0.202000  0.735300  0.075200  1.0  -0.0936
  C  C243  1  0.272300  0.887500  0.123100  1.0  0.2536
  C  C244  1  0.244700  0.847700  0.038000  1.0  0.1458
  C  C245  1  0.532600  0.242300  0.124700  1.0  0.127
  C  C246  1  0.584300  0.328900  0.099500  1.0  0.2702
  C  C247  1  0.607700  0.162900  0.060800  1.0  -0.0755
  C  C248  1  0.590100  0.155700  0.991900  1.0  0.1118
  C  C249  1  0.642000  0.169900  0.943900  1.0  -0.0811
  C  C250  1  0.629300  0.158600  0.880200  1.0  -0.1981
  C  C251  1  0.559100  0.137500  0.861400  1.0  0.0828
  C  C252  1  0.507500  0.127300  0.905700  1.0  -0.131
  C  C253  1  0.523200  0.133100  0.970700  1.0  -0.0883
  C  C254  1  0.547400  0.127300  0.792200  1.0  -0.0942
  C  C255  1  0.375700  0.081800  0.755300  1.0  0.1415
  C  C256  1  0.462200  0.028000  0.779500  1.0  0.1095
  C  C257  1  0.935100  0.547900  0.019400  1.0  0.1347
  C  C258  1  0.868000  0.583300  0.092600  1.0  0.2693
  C  C259  1  0.050100  0.605400  0.057200  1.0  -0.1277
  C  C260  1  0.097900  0.583300  0.109400  1.0  0.1566
  C  C261  1  0.143300  0.533000  0.101500  1.0  -0.191
  C  C262  1  0.194600  0.524300  0.145900  1.0  -0.1483
  C  C263  1  0.197300  0.562400  0.196800  1.0  0.126
  C  C264  1  0.145500  0.607300  0.208100  1.0  -0.0843
  C  C265  1  0.094200  0.616600  0.165600  1.0  -0.1375
  C  C266  1  0.259000  0.557800  0.244000  1.0  -0.1502
  C  C267  1  0.369300  0.476900  0.238600  1.0  0.1112
  C  C268  1  0.303300  0.394400  0.250400  1.0  0.1728
  C  C269  1  0.276100  0.094600  0.901700  1.0  0.2717
  C  C270  1  0.308200  0.141300  0.983700  1.0  0.1467
  C  C271  1  0.310900  0.256800  0.945000  1.0  -0.1324
  C  C272  1  0.384100  0.282300  0.921500  1.0  0.0806
  C  C273  1  0.437600  0.295400  0.962200  1.0  -0.1066
  C  C274  1  0.502800  0.321700  0.941200  1.0  -0.1588
  C  C275  1  0.517000  0.327800  0.875800  1.0  0.0989
  C  C276  1  0.463800  0.304700  0.836000  1.0  -0.1051
  C  C277  1  0.400200  0.279900  0.856000  1.0  -0.1914
  C  C278  1  0.587700  0.349900  0.851900  1.0  -0.0877
  C  C279  1  0.679800  0.410300  0.914100  1.0  0.1228
  C  C280  1  0.629000  0.504800  0.920500  1.0  0.2488
  C  C281  1  0.152800  0.604200  0.579100  1.0  0.2868
  C  C282  1  0.064600  0.545700  0.573400  1.0  0.1636
  C  C283  1  0.103700  0.466900  0.487100  1.0  -0.0991
  C  C284  1  0.154900  0.414500  0.509400  1.0  0.1201
  C  C285  1  0.207100  0.391300  0.470300  1.0  -0.1215
  C  C286  1  0.251600  0.343600  0.490400  1.0  -0.1255
  C  C287  1  0.243300  0.315600  0.551800  1.0  0.0899
  C  C288  1  0.190200  0.337600  0.591700  1.0  -0.1885
  C  C289  1  0.146400  0.387600  0.567300  1.0  -0.094
  C  C290  1  0.298000  0.264700  0.575200  1.0  -0.0962
  C  C291  1  0.227700  0.112500  0.623100  1.0  0.2556
  C  C292  1  0.255300  0.152300  0.538000  1.0  0.1446
  C  C293  1  0.967400  0.757700  0.624700  1.0  0.1263
  C  C294  1  0.915700  0.671100  0.599500  1.0  0.274
  C  C295  1  0.892300  0.837100  0.560800  1.0  -0.0759
  C  C296  1  0.909900  0.844300  0.491900  1.0  0.1112
  C  C297  1  0.858000  0.830100  0.443900  1.0  -0.0731
  C  C298  1  0.870700  0.841400  0.380200  1.0  -0.1967
  C  C299  1  0.940900  0.862500  0.361400  1.0  0.0831
  C  C300  1  0.992500  0.872700  0.405700  1.0  -0.1299
  C  C301  1  0.976800  0.866900  0.470700  1.0  -0.0805
  C  C302  1  0.952600  0.872700  0.292200  1.0  -0.092
  C  C303  1  0.124300  0.918200  0.255300  1.0  0.1432
  C  C304  1  0.037800  0.972000  0.279500  1.0  0.1083
  C  C305  1  0.564900  0.452100  0.519400  1.0  0.1363
  C  C306  1  0.632000  0.416700  0.592600  1.0  0.2671
  C  C307  1  0.449900  0.394600  0.557200  1.0  -0.1257
  C  C308  1  0.402100  0.416700  0.609400  1.0  0.1566
  C  C309  1  0.356700  0.467000  0.601500  1.0  -0.193
  C  C310  1  0.305400  0.475700  0.645900  1.0  -0.1442
  C  C311  1  0.302700  0.437600  0.696800  1.0  0.1268
  C  C312  1  0.354500  0.392700  0.708100  1.0  -0.0761
  C  C313  1  0.405800  0.383400  0.665600  1.0  -0.1379
  C  C314  1  0.241000  0.442200  0.744000  1.0  -0.1506
  C  C315  1  0.130700  0.523100  0.738600  1.0  0.1093
  C  C316  1  0.196700  0.605600  0.750400  1.0  0.1716
  C  C317  1  0.223900  0.905400  0.401700  1.0  0.2702
  C  C318  1  0.191800  0.858700  0.483700  1.0  0.1467
  C  C319  1  0.189100  0.743200  0.445000  1.0  -0.1316
  C  C320  1  0.115900  0.717700  0.421500  1.0  0.0826
  C  C321  1  0.062400  0.704600  0.462200  1.0  -0.1133
  C  C322  1  0.997200  0.678300  0.441200  1.0  -0.1544
  C  C323  1  0.983000  0.672200  0.375800  1.0  0.0994
  C  C324  1  0.036200  0.695300  0.336000  1.0  -0.1055
  C  C325  1  0.099800  0.720100  0.356000  1.0  -0.1908
  C  C326  1  0.912300  0.650100  0.351900  1.0  -0.09
  C  C327  1  0.820200  0.589700  0.414100  1.0  0.1223
  C  C328  1  0.871000  0.495200  0.420500  1.0  0.2511
  C  C329  1  0.652800  0.895800  0.420900  1.0  0.288
  C  C330  1  0.564600  0.954300  0.426600  1.0  0.1648
  C  C331  1  0.603700  0.033100  0.512900  1.0  -0.1019
  C  C332  1  0.654900  0.085500  0.490600  1.0  0.1199
  C  C333  1  0.707100  0.108700  0.529700  1.0  -0.1201
  C  C334  1  0.751600  0.156400  0.509600  1.0  -0.1308
  C  C335  1  0.743300  0.184400  0.448200  1.0  0.0903
  C  C336  1  0.690200  0.162400  0.408300  1.0  -0.1892
  C  C337  1  0.646400  0.112400  0.432700  1.0  -0.0938
  C  C338  1  0.798000  0.235300  0.424800  1.0  -0.0961
  C  C339  1  0.727700  0.387500  0.376900  1.0  0.2552
  C  C340  1  0.755300  0.347700  0.462000  1.0  0.1452
  C  C341  1  0.467400  0.742300  0.375300  1.0  0.1267
  C  C342  1  0.415700  0.828900  0.400500  1.0  0.2723
  C  C343  1  0.392300  0.662900  0.439200  1.0  -0.0757
  C  C344  1  0.409900  0.655700  0.508100  1.0  0.1108
  C  C345  1  0.358000  0.669900  0.556100  1.0  -0.079
  C  C346  1  0.370700  0.658600  0.619800  1.0  -0.1965
  C  C347  1  0.440900  0.637500  0.638600  1.0  0.0848
  C  C348  1  0.492500  0.627300  0.594300  1.0  -0.129
  C  C349  1  0.476800  0.633100  0.529300  1.0  -0.0898
  C  C350  1  0.452600  0.627300  0.707800  1.0  -0.0945
  C  C351  1  0.624300  0.581800  0.744700  1.0  0.1412
  C  C352  1  0.537800  0.528000  0.720500  1.0  0.1068
  C  C353  1  0.064900  0.047900  0.480600  1.0  0.1334
  C  C354  1  0.132000  0.083300  0.407400  1.0  0.2676
  C  C355  1  0.949900  0.105400  0.442800  1.0  -0.1294
  C  C356  1  0.902100  0.083300  0.390600  1.0  0.1566
  C  C357  1  0.856700  0.033000  0.398500  1.0  -0.1925
  C  C358  1  0.805400  0.024300  0.354100  1.0  -0.1433
  C  C359  1  0.802700  0.062400  0.303200  1.0  0.128
  C  C360  1  0.854500  0.107300  0.291900  1.0  -0.0828
  C  C361  1  0.905800  0.116600  0.334400  1.0  -0.1376
  C  C362  1  0.741000  0.057800  0.256000  1.0  -0.1527
  C  C363  1  0.630700  0.976900  0.261400  1.0  0.1104
  C  C364  1  0.696700  0.894400  0.249600  1.0  0.1727
  C  C365  1  0.723900  0.594600  0.598300  1.0  0.2707
  C  C366  1  0.691800  0.641300  0.516300  1.0  0.1448
  C  C367  1  0.689100  0.756800  0.555000  1.0  -0.1309
  C  C368  1  0.615900  0.782300  0.578500  1.0  0.0837
  C  C369  1  0.562400  0.795400  0.537800  1.0  -0.1125
  C  C370  1  0.497200  0.821700  0.558800  1.0  -0.1533
  C  C371  1  0.483000  0.827800  0.624200  1.0  0.0991
  C  C372  1  0.536200  0.804700  0.664000  1.0  -0.1063
  C  C373  1  0.599800  0.779900  0.644000  1.0  -0.1905
  C  C374  1  0.412300  0.849900  0.648100  1.0  -0.0881
  C  C375  1  0.320200  0.910300  0.585900  1.0  0.1223
  C  C376  1  0.371000  0.004800  0.579500  1.0  0.2499
  C  C377  1  0.847200  0.104200  0.920900  1.0  0.2889
  C  C378  1  0.935400  0.045700  0.926600  1.0  0.1648
  C  C379  1  0.896300  0.966900  0.012900  1.0  -0.1017
  C  C380  1  0.845100  0.914500  0.990600  1.0  0.1201
  C  C381  1  0.792900  0.891300  0.029700  1.0  -0.1201
  C  C382  1  0.748400  0.843600  0.009600  1.0  -0.1314
  C  C383  1  0.756700  0.815600  0.948200  1.0  0.0896
  C  C384  1  0.809800  0.837600  0.908300  1.0  -0.1904
  C  C385  1  0.853600  0.887600  0.932700  1.0  -0.0936
  C  C386  1  0.702000  0.764700  0.924800  1.0  -0.0944
  C  C387  1  0.772300  0.612500  0.876900  1.0  0.2578
  C  C388  1  0.744700  0.652300  0.962000  1.0  0.1457
  C  C389  1  0.032600  0.257700  0.875300  1.0  0.1282
  C  C390  1  0.084300  0.171100  0.900500  1.0  0.2726
  C  C391  1  0.107700  0.337100  0.939200  1.0  -0.0762
  C  C392  1  0.090100  0.344300  0.008100  1.0  0.1114
  C  C393  1  0.142000  0.330100  0.056100  1.0  -0.075
  C  C394  1  0.129300  0.341400  0.119800  1.0  -0.1976
  C  C395  1  0.059100  0.362500  0.138600  1.0  0.084
  C  C396  1  0.007500  0.372700  0.094300  1.0  -0.1315
  C  C397  1  0.023200  0.366900  0.029300  1.0  -0.0872
  C  C398  1  0.047400  0.372700  0.207800  1.0  -0.0961
  C  C399  1  0.875700  0.418200  0.244700  1.0  0.1452
  C  C400  1  0.962200  0.472000  0.220500  1.0  0.1102
  C  C401  1  0.435100  0.952100  0.980600  1.0  0.134
  C  C402  1  0.368000  0.916700  0.907400  1.0  0.269
  C  C403  1  0.550100  0.894600  0.942800  1.0  -0.1251
  C  C404  1  0.597900  0.916700  0.890600  1.0  0.1569
  C  C405  1  0.643300  0.967000  0.898500  1.0  -0.1894
  C  C406  1  0.694600  0.975700  0.854100  1.0  -0.1422
  C  C407  1  0.697300  0.937600  0.803200  1.0  0.1276
  C  C408  1  0.645500  0.892700  0.791900  1.0  -0.0821
  C  C409  1  0.594200  0.883400  0.834400  1.0  -0.136
  C  C410  1  0.759000  0.942200  0.756000  1.0  -0.1528
  C  C411  1  0.869300  0.023100  0.761400  1.0  0.1109
  C  C412  1  0.803300  0.105600  0.749600  1.0  0.1702
  C  C413  1  0.776100  0.405400  0.098300  1.0  0.2711
  C  C414  1  0.808200  0.358700  0.016300  1.0  0.1461
  C  C415  1  0.810900  0.243200  0.055000  1.0  -0.1322
  C  C416  1  0.884100  0.217700  0.078500  1.0  0.0797
  C  C417  1  0.937600  0.204600  0.037800  1.0  -0.1048
  C  C418  1  0.002800  0.178300  0.058800  1.0  -0.1577
  C  C419  1  0.017000  0.172200  0.124200  1.0  0.0997
  C  C420  1  0.963800  0.195300  0.164000  1.0  -0.1062
  C  C421  1  0.900200  0.220100  0.144000  1.0  -0.1902
  C  C422  1  0.087700  0.150100  0.148100  1.0  -0.086
  C  C423  1  0.179800  0.089700  0.085900  1.0  0.1221
  C  C424  1  0.129000  0.995200  0.079500  1.0  0.2515
  N  N425  1  0.411000  0.402300  0.104600  1.0  -0.3685
  N  N426  1  0.331100  0.435900  0.032000  1.0  -0.3701
  N  N427  1  0.391800  0.473300  0.029200  1.0  0.1705
  N  N428  1  0.268400  0.904600  0.061000  1.0  -0.3637
  N  N429  1  0.247900  0.829300  0.140200  1.0  -0.3762
  N  N430  1  0.231100  0.804300  0.083100  1.0  0.1702
  N  N431  1  0.529400  0.306600  0.134400  1.0  -0.4271
  N  N432  1  0.620800  0.283200  0.067100  1.0  -0.3727
  N  N433  1  0.586300  0.229300  0.084500  1.0  0.1629
  N  N434  1  0.396200  0.020400  0.766300  1.0  -0.331
  N  N435  1  0.422300  0.128400  0.757300  1.0  -0.3814
  N  N436  1  0.480500  0.091000  0.778400  1.0  0.0455
  N  N437  1  0.869200  0.547100  0.036700  1.0  -0.3831
  N  N438  1  0.931900  0.606900  0.107400  1.0  -0.3582
  N  N439  1  0.974600  0.585300  0.059800  1.0  0.1651
  N  N440  1  0.370700  0.411000  0.234800  1.0  -0.4213
  N  N441  1  0.258200  0.440400  0.265300  1.0  -0.3674
  N  N442  1  0.299700  0.493800  0.251900  1.0  0.0205
  N  N443  1  0.290500  0.080300  0.962100  1.0  -0.3842
  N  N444  1  0.280800  0.156700  0.883200  1.0  -0.382
  N  N445  1  0.301500  0.185100  0.940400  1.0  0.1582
  N  N446  1  0.689800  0.472400  0.937600  1.0  -0.4383
  N  N447  1  0.583400  0.466000  0.887400  1.0  -0.3583
  N  N448  1  0.616900  0.407700  0.886200  1.0  0.1686
  N  N449  1  0.089000  0.597700  0.604600  1.0  -0.3695
  N  N450  1  0.168900  0.564100  0.532000  1.0  -0.3723
  N  N451  1  0.108200  0.526700  0.529200  1.0  0.1709
  N  N452  1  0.231600  0.095400  0.561000  1.0  -0.3653
  N  N453  1  0.252100  0.170700  0.640200  1.0  -0.3775
  N  N454  1  0.268900  0.195700  0.583100  1.0  0.1672
  N  N455  1  0.970600  0.693400  0.634400  1.0  -0.4269
  N  N456  1  0.879200  0.716800  0.567100  1.0  -0.3696
  N  N457  1  0.913700  0.770700  0.584500  1.0  0.1616
  N  N458  1  0.103800  0.979600  0.266300  1.0  -0.3312
  N  N459  1  0.077700  0.871600  0.257300  1.0  -0.3743
  N  N460  1  0.019500  0.909000  0.278400  1.0  0.0429
  N  N461  1  0.630800  0.452900  0.536700  1.0  -0.3824
  N  N462  1  0.568100  0.393100  0.607400  1.0  -0.356
  N  N463  1  0.525400  0.414700  0.559800  1.0  0.1652
  N  N464  1  0.129300  0.589000  0.734800  1.0  -0.4237
  N  N465  1  0.241800  0.559600  0.765300  1.0  -0.3678
  N  N466  1  0.200300  0.506200  0.751900  1.0  0.0207
  N  N467  1  0.209500  0.919700  0.462100  1.0  -0.3859
  N  N468  1  0.219200  0.843300  0.383200  1.0  -0.3822
  N  N469  1  0.198500  0.814900  0.440400  1.0  0.1646
  N  N470  1  0.810200  0.527600  0.437600  1.0  -0.4381
  N  N471  1  0.916600  0.534000  0.387400  1.0  -0.3558
  N  N472  1  0.883100  0.592300  0.386200  1.0  0.17
  N  N473  1  0.589000  0.902300  0.395400  1.0  -0.3684
  N  N474  1  0.668900  0.935900  0.468000  1.0  -0.3689
  N  N475  1  0.608200  0.973300  0.470800  1.0  0.1714
  N  N476  1  0.731600  0.404600  0.439000  1.0  -0.3639
  N  N477  1  0.752100  0.329300  0.359800  1.0  -0.3752
  N  N478  1  0.768900  0.304300  0.416900  1.0  0.1675
  N  N479  1  0.470600  0.806600  0.365600  1.0  -0.4281
  N  N480  1  0.379200  0.783200  0.432900  1.0  -0.3698
  N  N481  1  0.413700  0.729300  0.415500  1.0  0.1628
  N  N482  1  0.603800  0.520400  0.733700  1.0  -0.3285
  N  N483  1  0.577700  0.628400  0.742700  1.0  -0.378
  N  N484  1  0.519500  0.591000  0.721600  1.0  0.0445
  N  N485  1  0.130800  0.047100  0.463300  1.0  -0.3837
  N  N486  1  0.068100  0.106900  0.392600  1.0  -0.355
  N  N487  1  0.025400  0.085300  0.440200  1.0  0.1666
  N  N488  1  0.629300  0.911000  0.265200  1.0  -0.4242
  N  N489  1  0.741800  0.940400  0.234700  1.0  -0.3662
  N  N490  1  0.700300  0.993800  0.248100  1.0  0.0196
  N  N491  1  0.709500  0.580300  0.537900  1.0  -0.3842
  N  N492  1  0.719200  0.656700  0.616800  1.0  -0.3829
  N  N493  1  0.698500  0.685100  0.559600  1.0  0.1644
  N  N494  1  0.310200  0.972400  0.562400  1.0  -0.4372
  N  N495  1  0.416600  0.966000  0.612600  1.0  -0.358
  N  N496  1  0.383100  0.907700  0.613800  1.0  0.1711
  N  N497  1  0.911000  0.097700  0.895400  1.0  -0.3696
  N  N498  1  0.831100  0.064100  0.968000  1.0  -0.3687
  N  N499  1  0.891800  0.026700  0.970800  1.0  0.1711
  N  N500  1  0.768400  0.595400  0.939000  1.0  -0.3641
  N  N501  1  0.747900  0.670700  0.859800  1.0  -0.3745
  N  N502  1  0.731100  0.695700  0.916900  1.0  0.1687
  N  N503  1  0.029400  0.193400  0.865600  1.0  -0.4289
  N  N504  1  0.120800  0.216800  0.932900  1.0  -0.3708
  N  N505  1  0.086300  0.270700  0.915500  1.0  0.1624
  N  N506  1  0.896200  0.479600  0.233700  1.0  -0.3303
  N  N507  1  0.922300  0.371600  0.242700  1.0  -0.3814
  N  N508  1  0.980500  0.409000  0.221600  1.0  0.0461
  N  N509  1  0.369200  0.952900  0.963300  1.0  -0.3834
  N  N510  1  0.431900  0.893100  0.892600  1.0  -0.351
  N  N511  1  0.474600  0.914700  0.940200  1.0  0.1661
  N  N512  1  0.870700  0.089000  0.765200  1.0  -0.4237
  N  N513  1  0.758200  0.059600  0.734700  1.0  -0.367
  N  N514  1  0.799700  0.006200  0.748100  1.0  0.0186
  N  N515  1  0.790500  0.419700  0.037900  1.0  -0.3866
  N  N516  1  0.780800  0.343300  0.116800  1.0  -0.3823
  N  N517  1  0.801500  0.314900  0.059600  1.0  0.1651
  N  N518  1  0.189800  0.027600  0.062400  1.0  -0.4379
  N  N519  1  0.083400  0.034000  0.112600  1.0  -0.359
  N  N520  1  0.116900  0.092300  0.113800  1.0  0.1652
  O  O521  1  0.379800  0.278900  0.174800  1.0  -0.7352
  O  O522  1  0.396000  0.153300  0.128100  1.0  -0.6749
  O  O523  1  0.278200  0.221500  0.254600  1.0  -0.6638
  O  O524  1  0.410000  0.182300  0.271700  1.0  -0.9016
  O  O525  1  0.308700  0.101500  0.200200  1.0  -0.8812
  O  O526  1  0.366700  0.157700  0.401100  1.0  -0.6384
  O  O527  1  0.289300  0.101100  0.319400  1.0  -0.8004
  O  O528  1  0.288100  0.048500  0.445400  1.0  -0.6706
  O  O529  1  0.362900  0.978500  0.359300  1.0  -0.6701
  O  O530  1  0.480000  0.934400  0.294800  1.0  -0.7933
  O  O531  1  0.426200  0.065200  0.311600  1.0  -0.8896
  O  O532  1  0.480900  0.100300  0.208500  1.0  -0.806
  O  O533  1  0.283800  0.996000  0.256600  1.0  -0.8229
  O  O534  1  0.407100  0.985000  0.191100  1.0  -0.68
  O  O535  1  0.345200  0.032400  0.083500  1.0  -0.7026
  O  O536  1  0.529300  0.143300  0.311000  1.0  -0.665
  O  O537  1  0.187400  0.080200  0.243100  1.0  -0.8398
  O  O538  1  0.120200  0.721100  0.674800  1.0  -0.7377
  O  O539  1  0.104000  0.846700  0.628100  1.0  -0.676
  O  O540  1  0.221800  0.778500  0.754600  1.0  -0.6639
  O  O541  1  0.090000  0.817700  0.771700  1.0  -0.9011
  O  O542  1  0.191300  0.898500  0.700200  1.0  -0.8784
  O  O543  1  0.133300  0.842300  0.901100  1.0  -0.6384
  O  O544  1  0.210700  0.898900  0.819400  1.0  -0.8021
  O  O545  1  0.211900  0.951500  0.945400  1.0  -0.6722
  O  O546  1  0.137100  0.021500  0.859300  1.0  -0.669
  O  O547  1  0.020000  0.065600  0.794800  1.0  -0.7931
  O  O548  1  0.073800  0.934800  0.811600  1.0  -0.8889
  O  O549  1  0.019100  0.899700  0.708500  1.0  -0.805
  O  O550  1  0.216200  0.004000  0.756600  1.0  -0.8219
  O  O551  1  0.092900  0.015000  0.691100  1.0  -0.6832
  O  O552  1  0.154800  0.967600  0.583500  1.0  -0.7024
  O  O553  1  0.970700  0.856700  0.811000  1.0  -0.6542
  O  O554  1  0.312600  0.919800  0.743100  1.0  -0.8409
  O  O555  1  0.620200  0.778900  0.325200  1.0  -0.7376
  O  O556  1  0.604000  0.653300  0.371900  1.0  -0.6717
  O  O557  1  0.721800  0.721500  0.245400  1.0  -0.6629
  O  O558  1  0.590000  0.682300  0.228300  1.0  -0.9016
  O  O559  1  0.691300  0.601500  0.299800  1.0  -0.8782
  O  O560  1  0.633300  0.657700  0.098900  1.0  -0.6393
  O  O561  1  0.710700  0.601100  0.180600  1.0  -0.8008
  O  O562  1  0.711900  0.548500  0.054600  1.0  -0.6718
  O  O563  1  0.637100  0.478500  0.140700  1.0  -0.6691
  O  O564  1  0.520000  0.434400  0.205200  1.0  -0.7948
  O  O565  1  0.573800  0.565200  0.188400  1.0  -0.8888
  O  O566  1  0.519100  0.600300  0.291500  1.0  -0.8043
  O  O567  1  0.716200  0.496000  0.243400  1.0  -0.822
  O  O568  1  0.592900  0.485000  0.308900  1.0  -0.6814
  O  O569  1  0.654800  0.532400  0.416500  1.0  -0.7031
  O  O570  1  0.470700  0.643300  0.189000  1.0  -0.6593
  O  O571  1  0.812600  0.580200  0.256900  1.0  -0.8406
  O  O572  1  0.879800  0.221100  0.825200  1.0  -0.738
  O  O573  1  0.896000  0.346700  0.871900  1.0  -0.6727
  O  O574  1  0.778200  0.278500  0.745400  1.0  -0.6611
  O  O575  1  0.910000  0.317700  0.728300  1.0  -0.9007
  O  O576  1  0.808700  0.398500  0.799800  1.0  -0.8774
  O  O577  1  0.866700  0.342300  0.598900  1.0  -0.6386
  O  O578  1  0.789300  0.398900  0.680600  1.0  -0.8018
  O  O579  1  0.788100  0.451500  0.554600  1.0  -0.6701
  O  O580  1  0.862900  0.521500  0.640700  1.0  -0.6693
  O  O581  1  0.980000  0.565600  0.705200  1.0  -0.7955
  O  O582  1  0.926200  0.434800  0.688400  1.0  -0.8874
  O  O583  1  0.980900  0.399700  0.791500  1.0  -0.8051
  O  O584  1  0.783800  0.504000  0.743400  1.0  -0.8231
  O  O585  1  0.907100  0.515000  0.808900  1.0  -0.682
  O  O586  1  0.845200  0.467600  0.916500  1.0  -0.7028
  O  O587  1  0.029300  0.356700  0.689000  1.0  -0.6623
  O  O588  1  0.687400  0.419800  0.756900  1.0  -0.8412
