# generated using pymatgen
data_GaPO4
_symmetry_space_group_name_H-M   'P 1'
_cell_length_a   10.04100000
_cell_length_b   9.22000000
_cell_length_c   10.46900000
_cell_angle_alpha   90.00000000
_cell_angle_beta   91.60000000
_cell_angle_gamma   90.00000000
_symmetry_Int_Tables_number   1
_chemical_formula_structural   GaPO4
_chemical_formula_sum   'Ga8 P8 O32'
_cell_volume   968.82141515
_cell_formula_units_Z   8
loop_
 _symmetry_equiv_pos_site_id
 _symmetry_equiv_pos_as_xyz
  1  'x, y, z'
loop_
 _atom_site_type_symbol
 _atom_site_label
 _atom_site_symmetry_multiplicity
 _atom_site_fract_x
 _atom_site_fract_y
 _atom_site_fract_z
 _atom_site_occupancy
 _atom_site_charge
  Ga  Ga1  1  0.371340  0.091840  0.838950  1.0  1.5902
  Ga  Ga2  1  0.871340  0.591840  0.338950  1.0  1.5902
  Ga  Ga3  1  0.128660  0.091840  0.161050  1.0  1.5912
  Ga  Ga4  1  0.628660  0.591840  0.661050  1.0  1.5912
  Ga  Ga5  1  0.628660  0.908160  0.161050  1.0  1.5911
  Ga  Ga6  1  0.128660  0.408160  0.661050  1.0  1.5911
  Ga  Ga7  1  0.871340  0.908160  0.838950  1.0  1.5898
  Ga  Ga8  1  0.371340  0.408160  0.338950  1.0  1.5898
  P  P9  1  0.571900  0.833650  0.874200  1.0  1.8205
  P  P10  1  0.071900  0.333650  0.374200  1.0  1.8205
  P  P11  1  0.928100  0.833650  0.125800  1.0  1.8201
  P  P12  1  0.428100  0.333650  0.625800  1.0  1.8201
  P  P13  1  0.428100  0.166350  0.125800  1.0  1.8199
  P  P14  1  0.928100  0.666350  0.625800  1.0  1.8199
  P  P15  1  0.071900  0.166350  0.874200  1.0  1.8204
  P  P16  1  0.571900  0.666350  0.374200  1.0  1.8204
  O  O17  1  0.686700  0.934300  0.841900  1.0  -0.8448
  O  O18  1  0.581000  0.685800  0.810400  1.0  -0.9159
  O  O19  1  0.440500  0.903400  0.831700  1.0  -0.8161
  O  O20  1  0.570700  0.801800  0.018200  1.0  -0.8333
  O  O21  1  0.186700  0.434300  0.341900  1.0  -0.8448
  O  O22  1  0.081000  0.185800  0.310400  1.0  -0.9159
  O  O23  1  0.940500  0.403400  0.331700  1.0  -0.8161
  O  O24  1  0.070700  0.301800  0.518200  1.0  -0.8333
  O  O25  1  0.813300  0.934300  0.158100  1.0  -0.8446
  O  O26  1  0.919000  0.685800  0.189600  1.0  -0.9164
  O  O27  1  0.059500  0.903400  0.168300  1.0  -0.8159
  O  O28  1  0.929300  0.801800  0.981800  1.0  -0.834
  O  O29  1  0.313300  0.434300  0.658100  1.0  -0.8446
  O  O30  1  0.419000  0.185800  0.689600  1.0  -0.9164
  O  O31  1  0.559500  0.403400  0.668300  1.0  -0.8159
  O  O32  1  0.429300  0.301800  0.481800  1.0  -0.834
  O  O33  1  0.313300  0.065700  0.158100  1.0  -0.8454
  O  O34  1  0.419000  0.314200  0.189600  1.0  -0.9163
  O  O35  1  0.559500  0.096600  0.168300  1.0  -0.8171
  O  O36  1  0.429300  0.198200  0.981800  1.0  -0.834
  O  O37  1  0.813300  0.565700  0.658100  1.0  -0.8454
  O  O38  1  0.919000  0.814200  0.689600  1.0  -0.9163
  O  O39  1  0.059500  0.596600  0.668300  1.0  -0.8171
  O  O40  1  0.929300  0.698200  0.481800  1.0  -0.834
  O  O41  1  0.186700  0.065700  0.841900  1.0  -0.8459
  O  O42  1  0.081000  0.314200  0.810400  1.0  -0.9157
  O  O43  1  0.940500  0.096600  0.831700  1.0  -0.8149
  O  O44  1  0.070700  0.198200  0.018200  1.0  -0.8331
  O  O45  1  0.686700  0.565700  0.341900  1.0  -0.8459
  O  O46  1  0.581000  0.814200  0.310400  1.0  -0.9157
  O  O47  1  0.440500  0.596600  0.331700  1.0  -0.8149
  O  O48  1  0.570700  0.698200  0.518200  1.0  -0.8331
