# generated using pymatgen
data_ZnGeP3(HO4)3
_symmetry_space_group_name_H-M   'P 1'
_cell_length_a   9.98200000
_cell_length_b   10.00000000
_cell_length_c   9.57600000
_cell_angle_alpha   97.96000000
_cell_angle_beta   114.87000000
_cell_angle_gamma   107.67000000
_symmetry_Int_Tables_number   1
_chemical_formula_structural   ZnGeP3(HO4)3
_chemical_formula_sum   'Zn2 Ge2 P6 H6 O24'
_cell_volume   786.18298212
_cell_formula_units_Z   2
loop_
 _symmetry_equiv_pos_site_id
 _symmetry_equiv_pos_as_xyz
  1  'x, y, z'
loop_
 _atom_site_type_symbol
 _atom_site_label
 _atom_site_symmetry_multiplicity
 _atom_site_fract_x
 _atom_site_fract_y
 _atom_site_fract_z
 _atom_site_occupancy
 _atom_site_charge
  Zn  Zn1  1  0.791160  0.341020  0.312180  1.0  1.2374
  Zn  Zn2  1  0.208840  0.658980  0.687820  1.0  1.2375
  Ge  Ge3  1  0.033060  0.115450  0.863590  1.0  1.6239
  Ge  Ge4  1  0.966940  0.884550  0.136410  1.0  1.6269
  P  P5  1  0.400200  0.229100  0.174600  1.0  1.7547
  P  P6  1  0.028400  0.659500  0.336200  1.0  1.8012
  P  P7  1  0.969900  0.192900  0.153900  1.0  1.7952
  P  P8  1  0.599800  0.770900  0.825400  1.0  1.7536
  P  P9  1  0.971600  0.340500  0.663800  1.0  1.8011
  P  P10  1  0.030100  0.807100  0.846100  1.0  1.7947
  H  H11  1  0.077600  0.502700  0.192200  1.0  0.4206
  H  H12  1  0.205500  0.440600  0.260100  1.0  0.4663
  H  H13  1  0.392400  0.399500  0.381600  1.0  0.4475
  H  H14  1  0.922400  0.497300  0.807800  1.0  0.4213
  H  H15  1  0.794500  0.559400  0.739900  1.0  0.4662
  H  H16  1  0.607600  0.600500  0.618400  1.0  0.4451
  O  O17  1  0.557300  0.287400  0.169500  1.0  -0.7922
  O  O18  1  0.395500  0.333800  0.302100  1.0  -0.8035
  O  O19  1  0.263800  0.194300  0.005200  1.0  -0.8603
  O  O20  1  0.384100  0.078600  0.219900  1.0  -0.6317
  O  O21  1  0.887500  0.548600  0.339200  1.0  -0.8841
  O  O22  1  0.997200  0.795400  0.304600  1.0  -0.7631
  O  O23  1  0.186400  0.702200  0.493700  1.0  -0.8122
  O  O24  1  0.047300  0.591500  0.188700  1.0  -0.72
  O  O25  1  0.840700  0.221200  0.178700  1.0  -0.8318
  O  O26  1  0.117500  0.348100  0.220400  1.0  -0.8546
  O  O27  1  0.036400  0.093300  0.244500  1.0  -0.7762
  O  O28  1  0.906100  0.129400  0.971700  1.0  -0.8196
  O  O29  1  0.442700  0.712600  0.830500  1.0  -0.795
  O  O30  1  0.604500  0.666200  0.697900  1.0  -0.7964
  O  O31  1  0.736200  0.805700  0.994800  1.0  -0.8596
  O  O32  1  0.615900  0.921400  0.780100  1.0  -0.6315
  O  O33  1  0.112500  0.451400  0.660800  1.0  -0.8852
  O  O34  1  0.002800  0.204600  0.695400  1.0  -0.7606
  O  O35  1  0.813600  0.297800  0.506300  1.0  -0.8144
  O  O36  1  0.952700  0.408500  0.811300  1.0  -0.7194
  O  O37  1  0.159300  0.778800  0.821300  1.0  -0.8319
  O  O38  1  0.882500  0.651900  0.779600  1.0  -0.8558
  O  O39  1  0.963600  0.906700  0.755500  1.0  -0.7762
  O  O40  1  0.093900  0.870600  0.028300  1.0  -0.8178
