# generated using pymatgen
data_Tm12H58C139O86
_symmetry_space_group_name_H-M   'P 1'
_cell_length_a   27.70560000
_cell_length_b   23.39500000
_cell_length_c   21.07090000
_cell_angle_alpha   90.00000000
_cell_angle_beta   113.91100000
_cell_angle_gamma   90.00000000
_symmetry_Int_Tables_number   1
_chemical_formula_structural   Tm12H58C139O86
_chemical_formula_sum   'Tm24 H116 C278 O172'
_cell_volume   12485.43233441
_cell_formula_units_Z   2
loop_
 _symmetry_equiv_pos_site_id
 _symmetry_equiv_pos_as_xyz
  1  'x, y, z'
loop_
 _atom_site_type_symbol
 _atom_site_label
 _atom_site_symmetry_multiplicity
 _atom_site_fract_x
 _atom_site_fract_y
 _atom_site_fract_z
 _atom_site_occupancy
 _atom_site_charge
  Tm  Tm1  1  0.434080  0.235530  0.793780  1.0  2.1476
  Tm  Tm2  1  0.930250  0.222950  0.289990  1.0  2.1493
  Tm  Tm3  1  0.934080  0.735530  0.793780  1.0  2.1476
  Tm  Tm4  1  0.430250  0.722950  0.289990  1.0  2.1493
  Tm  Tm5  1  0.565920  0.235530  0.206220  1.0  2.1487
  Tm  Tm6  1  0.069750  0.222950  0.710010  1.0  2.1505
  Tm  Tm7  1  0.065920  0.735530  0.206220  1.0  2.1487
  Tm  Tm8  1  0.569750  0.722950  0.710010  1.0  2.1505
  Tm  Tm9  1  0.565920  0.764470  0.206220  1.0  2.1486
  Tm  Tm10  1  0.069750  0.777050  0.710010  1.0  2.1494
  Tm  Tm11  1  0.065920  0.264470  0.206220  1.0  2.1486
  Tm  Tm12  1  0.569750  0.277050  0.710010  1.0  2.1494
  Tm  Tm13  1  0.434080  0.764470  0.793780  1.0  2.1472
  Tm  Tm14  1  0.930250  0.777050  0.289990  1.0  2.148
  Tm  Tm15  1  0.934080  0.264470  0.793780  1.0  2.1472
  Tm  Tm16  1  0.430250  0.277050  0.289990  1.0  2.148
  Tm  Tm17  1  0.866180  0.500000  0.913850  1.0  2.1663
  Tm  Tm18  1  0.661180  0.500000  0.607080  1.0  2.1102
  Tm  Tm19  1  0.366180  0.000000  0.913850  1.0  2.1663
  Tm  Tm20  1  0.161180  0.000000  0.607080  1.0  2.1102
  Tm  Tm21  1  0.133820  0.500000  0.086150  1.0  2.1674
  Tm  Tm22  1  0.338820  0.500000  0.392920  1.0  2.1117
  Tm  Tm23  1  0.633820  0.000000  0.086150  1.0  2.1674
  Tm  Tm24  1  0.838820  0.000000  0.392920  1.0  2.1117
  H  H25  1  0.253400  0.274800  0.616000  1.0  0.1116
  H  H26  1  0.730800  0.384700  0.952200  1.0  0.1095
  H  H27  1  0.651100  0.332100  0.903700  1.0  0.1036
  H  H28  1  0.879100  0.359200  0.092100  1.0  0.1093
  H  H29  1  0.682300  0.308000  0.105100  1.0  0.1108
  H  H30  1  0.034100  0.266000  0.460600  1.0  0.0979
  H  H31  1  0.148300  0.322000  0.404000  1.0  0.1065
  H  H32  1  0.760200  0.277100  0.111000  1.0  0.1013
  H  H33  1  0.535800  0.282300  0.960900  1.0  0.0963
  H  H34  1  0.179300  0.297500  0.604900  1.0  0.1119
  H  H35  1  0.373500  0.363000  0.588000  1.0  0.1195
  H  H36  1  0.223000  0.376900  0.449200  1.0  0.1094
  H  H37  1  0.943100  0.610500  0.874700  1.0  0.0677
  H  H38  1  0.918000  0.101100  0.363800  1.0  0.0347
  H  H39  1  0.753400  0.774800  0.616000  1.0  0.1116
  H  H40  1  0.230800  0.884700  0.952200  1.0  0.1095
  H  H41  1  0.151100  0.832100  0.903700  1.0  0.1036
  H  H42  1  0.379100  0.859200  0.092100  1.0  0.1093
  H  H43  1  0.182300  0.808000  0.105100  1.0  0.1108
  H  H44  1  0.534100  0.766000  0.460600  1.0  0.0979
  H  H45  1  0.648300  0.822000  0.404000  1.0  0.1065
  H  H46  1  0.260200  0.777100  0.111000  1.0  0.1013
  H  H47  1  0.035800  0.782300  0.960900  1.0  0.0963
  H  H48  1  0.679300  0.797500  0.604900  1.0  0.1119
  H  H49  1  0.873500  0.863000  0.588000  1.0  0.1195
  H  H50  1  0.723000  0.876900  0.449200  1.0  0.1094
  H  H51  1  0.443100  0.110500  0.874700  1.0  0.0677
  H  H52  1  0.418000  0.601100  0.363800  1.0  0.0347
  H  H53  1  0.746600  0.274800  0.384000  1.0  0.1099
  H  H54  1  0.269200  0.384700  0.047800  1.0  0.1094
  H  H55  1  0.348900  0.332100  0.096300  1.0  0.1044
  H  H56  1  0.120900  0.359200  0.907900  1.0  0.1084
  H  H57  1  0.317700  0.308000  0.894900  1.0  0.1108
  H  H58  1  0.965900  0.266000  0.539400  1.0  0.0982
  H  H59  1  0.851700  0.322000  0.596000  1.0  0.1072
  H  H60  1  0.239800  0.277100  0.889000  1.0  0.1008
  H  H61  1  0.464200  0.282300  0.039100  1.0  0.0969
  H  H62  1  0.820700  0.297500  0.395100  1.0  0.111
  H  H63  1  0.626500  0.363000  0.412000  1.0  0.1186
  H  H64  1  0.777000  0.376900  0.550800  1.0  0.1089
  H  H65  1  0.056900  0.610500  0.125300  1.0  0.0655
  H  H66  1  0.082000  0.101100  0.636200  1.0  0.0352
  H  H67  1  0.246600  0.774800  0.384000  1.0  0.1099
  H  H68  1  0.769200  0.884700  0.047800  1.0  0.1094
  H  H69  1  0.848900  0.832100  0.096300  1.0  0.1044
  H  H70  1  0.620900  0.859200  0.907900  1.0  0.1084
  H  H71  1  0.817700  0.808000  0.894900  1.0  0.1108
  H  H72  1  0.465900  0.766000  0.539400  1.0  0.0982
  H  H73  1  0.351700  0.822000  0.596000  1.0  0.1072
  H  H74  1  0.739800  0.777100  0.889000  1.0  0.1008
  H  H75  1  0.964200  0.782300  0.039100  1.0  0.0969
  H  H76  1  0.320700  0.797500  0.395100  1.0  0.111
  H  H77  1  0.126500  0.863000  0.412000  1.0  0.1186
  H  H78  1  0.277000  0.876900  0.550800  1.0  0.1089
  H  H79  1  0.556900  0.110500  0.125300  1.0  0.0655
  H  H80  1  0.582000  0.601100  0.636200  1.0  0.0352
  H  H81  1  0.746600  0.725200  0.384000  1.0  0.1105
  H  H82  1  0.269200  0.615300  0.047800  1.0  0.1092
  H  H83  1  0.348900  0.667900  0.096300  1.0  0.1044
  H  H84  1  0.120900  0.640800  0.907900  1.0  0.1086
  H  H85  1  0.317700  0.692000  0.894900  1.0  0.1109
  H  H86  1  0.965900  0.734000  0.539400  1.0  0.0983
  H  H87  1  0.851700  0.678000  0.596000  1.0  0.1075
  H  H88  1  0.239800  0.722900  0.889000  1.0  0.1005
  H  H89  1  0.464200  0.717700  0.039100  1.0  0.097
  H  H90  1  0.820700  0.702500  0.395100  1.0  0.1108
  H  H91  1  0.626500  0.637000  0.412000  1.0  0.1187
  H  H92  1  0.777000  0.623100  0.550800  1.0  0.1093
  H  H93  1  0.056900  0.389500  0.125300  1.0  0.0658
  H  H94  1  0.082000  0.898900  0.636200  1.0  0.0344
  H  H95  1  0.246600  0.225200  0.384000  1.0  0.1105
  H  H96  1  0.769200  0.115300  0.047800  1.0  0.1092
  H  H97  1  0.848900  0.167900  0.096300  1.0  0.1044
  H  H98  1  0.620900  0.140800  0.907900  1.0  0.1086
  H  H99  1  0.817700  0.192000  0.894900  1.0  0.1109
  H  H100  1  0.465900  0.234000  0.539400  1.0  0.0983
  H  H101  1  0.351700  0.178000  0.596000  1.0  0.1075
  H  H102  1  0.739800  0.222900  0.889000  1.0  0.1005
  H  H103  1  0.964200  0.217700  0.039100  1.0  0.097
  H  H104  1  0.320700  0.202500  0.395100  1.0  0.1108
  H  H105  1  0.126500  0.137000  0.412000  1.0  0.1187
  H  H106  1  0.277000  0.123100  0.550800  1.0  0.1093
  H  H107  1  0.556900  0.889500  0.125300  1.0  0.0658
  H  H108  1  0.582000  0.398900  0.636200  1.0  0.0344
  H  H109  1  0.253400  0.725200  0.616000  1.0  0.1119
  H  H110  1  0.730800  0.615300  0.952200  1.0  0.109
  H  H111  1  0.651100  0.667900  0.903700  1.0  0.1043
  H  H112  1  0.879100  0.640800  0.092100  1.0  0.1089
  H  H113  1  0.682300  0.692000  0.105100  1.0  0.1112
  H  H114  1  0.034100  0.734000  0.460600  1.0  0.098
  H  H115  1  0.148300  0.678000  0.404000  1.0  0.107
  H  H116  1  0.760200  0.722900  0.111000  1.0  0.1014
  H  H117  1  0.535800  0.717700  0.960900  1.0  0.0964
  H  H118  1  0.179300  0.702500  0.604900  1.0  0.1121
  H  H119  1  0.373500  0.637000  0.588000  1.0  0.1186
  H  H120  1  0.223000  0.623100  0.449200  1.0  0.1094
  H  H121  1  0.943100  0.389500  0.874700  1.0  0.0666
  H  H122  1  0.918000  0.898900  0.363800  1.0  0.0346
  H  H123  1  0.753400  0.225200  0.616000  1.0  0.1119
  H  H124  1  0.230800  0.115300  0.952200  1.0  0.109
  H  H125  1  0.151100  0.167900  0.903700  1.0  0.1043
  H  H126  1  0.379100  0.140800  0.092100  1.0  0.1089
  H  H127  1  0.182300  0.192000  0.105100  1.0  0.1112
  H  H128  1  0.534100  0.234000  0.460600  1.0  0.098
  H  H129  1  0.648300  0.178000  0.404000  1.0  0.107
  H  H130  1  0.260200  0.222900  0.111000  1.0  0.1014
  H  H131  1  0.035800  0.217700  0.960900  1.0  0.0964
  H  H132  1  0.679300  0.202500  0.604900  1.0  0.1121
  H  H133  1  0.873500  0.137000  0.588000  1.0  0.1186
  H  H134  1  0.723000  0.123100  0.449200  1.0  0.1094
  H  H135  1  0.443100  0.889500  0.874700  1.0  0.0666
  H  H136  1  0.418000  0.398900  0.363800  1.0  0.0346
  H  H137  1  0.738000  0.500000  0.787500  1.0  0.0062
  H  H138  1  0.238000  0.000000  0.787500  1.0  0.0062
  H  H139  1  0.262000  0.500000  0.212500  1.0  0.0064
  H  H140  1  0.762000  0.000000  0.212500  1.0  0.0064
  C  C141  1  0.589630  0.273100  0.097240  1.0  0.6933
  C  C142  1  0.548300  0.310470  0.846370  1.0  0.733
  C  C143  1  0.360070  0.288620  0.677410  1.0  0.6696
  C  C144  1  0.269180  0.300380  0.589060  1.0  -0.0149
  C  C145  1  0.827860  0.419410  0.977000  1.0  0.6892
  C  C146  1  0.862000  0.282820  0.174850  1.0  0.7022
  C  C147  1  0.754160  0.367070  0.992510  1.0  -0.0471
  C  C148  1  0.640120  0.322270  0.938550  1.0  -0.0532
  C  C149  1  0.587130  0.310030  0.921080  1.0  -0.1448
  C  C150  1  0.321810  0.314870  0.611510  1.0  -0.125
  C  C151  1  0.315570  0.417080  0.470000  1.0  0.6675
  C  C152  1  0.843130  0.351430  0.075560  1.0  0.0059
  C  C153  1  0.734430  0.330330  0.028210  1.0  0.017
  C  C154  1  0.659000  0.306820  0.058590  1.0  -0.0722
  C  C155  1  0.606540  0.291880  0.041530  1.0  -0.1272
  C  C156  1  0.230510  0.324420  0.528780  1.0  0.0613
  C  C157  1  0.174050  0.310360  0.508100  1.0  0.0423
  C  C158  1  0.088770  0.258900  0.597500  1.0  0.7181
  C  C159  1  0.068700  0.278040  0.472550  1.0  -0.011
  C  C160  1  0.137410  0.311080  0.438600  1.0  -0.063
  C  C161  1  0.677490  0.320090  0.007660  1.0  0.0543
  C  C162  1  0.808420  0.378130  0.015810  1.0  -0.1424
  C  C163  1  0.104440  0.278630  0.541760  1.0  -0.1085
  C  C164  1  0.771970  0.303150  0.087170  1.0  -0.088
  C  C165  1  0.570680  0.292940  0.972660  1.0  0.0043
  C  C166  1  0.085370  0.295850  0.420810  1.0  -0.1431
  C  C167  1  0.156020  0.295700  0.558430  1.0  -0.1037
  C  C168  1  0.338070  0.353040  0.573000  1.0  0.0086
  C  C169  1  0.300940  0.375830  0.512350  1.0  -0.15
  C  C170  1  0.247550  0.361480  0.490270  1.0  -0.0731
  C  C171  1  0.046610  0.295170  0.345400  1.0  0.7653
  C  C172  1  0.906700  0.613500  0.849800  1.0  0.5914
  C  C173  1  0.883800  0.106900  0.330900  1.0  0.6842
  C  C174  1  0.824740  0.313320  0.110810  1.0  -0.1602
  C  C175  1  0.089630  0.773100  0.097240  1.0  0.6933
  C  C176  1  0.048300  0.810470  0.846370  1.0  0.733
  C  C177  1  0.860070  0.788620  0.677410  1.0  0.6696
  C  C178  1  0.769180  0.800380  0.589060  1.0  -0.0149
  C  C179  1  0.327860  0.919410  0.977000  1.0  0.6892
  C  C180  1  0.362000  0.782820  0.174850  1.0  0.7022
  C  C181  1  0.254160  0.867070  0.992510  1.0  -0.0471
  C  C182  1  0.140120  0.822270  0.938550  1.0  -0.0532
  C  C183  1  0.087130  0.810030  0.921080  1.0  -0.1448
  C  C184  1  0.821810  0.814870  0.611510  1.0  -0.125
  C  C185  1  0.815570  0.917080  0.470000  1.0  0.6675
  C  C186  1  0.343130  0.851430  0.075560  1.0  0.0059
  C  C187  1  0.234430  0.830330  0.028210  1.0  0.017
  C  C188  1  0.159000  0.806820  0.058590  1.0  -0.0722
  C  C189  1  0.106540  0.791880  0.041530  1.0  -0.1272
  C  C190  1  0.730510  0.824420  0.528780  1.0  0.0613
  C  C191  1  0.674050  0.810360  0.508100  1.0  0.0423
  C  C192  1  0.588770  0.758900  0.597500  1.0  0.7181
  C  C193  1  0.568700  0.778040  0.472550  1.0  -0.011
  C  C194  1  0.637410  0.811080  0.438600  1.0  -0.063
  C  C195  1  0.177490  0.820090  0.007660  1.0  0.0543
  C  C196  1  0.308420  0.878130  0.015810  1.0  -0.1424
  C  C197  1  0.604440  0.778630  0.541760  1.0  -0.1085
  C  C198  1  0.271970  0.803150  0.087170  1.0  -0.088
  C  C199  1  0.070680  0.792940  0.972660  1.0  0.0043
  C  C200  1  0.585370  0.795850  0.420810  1.0  -0.1431
  C  C201  1  0.656020  0.795700  0.558430  1.0  -0.1037
  C  C202  1  0.838070  0.853040  0.573000  1.0  0.0086
  C  C203  1  0.800940  0.875830  0.512350  1.0  -0.15
  C  C204  1  0.747550  0.861480  0.490270  1.0  -0.0731
  C  C205  1  0.546610  0.795170  0.345400  1.0  0.7653
  C  C206  1  0.406700  0.113500  0.849800  1.0  0.5914
  C  C207  1  0.383800  0.606900  0.330900  1.0  0.6842
  C  C208  1  0.324740  0.813320  0.110810  1.0  -0.1602
  C  C209  1  0.410370  0.273100  0.902760  1.0  0.6917
  C  C210  1  0.451700  0.310470  0.153630  1.0  0.7331
  C  C211  1  0.639930  0.288620  0.322590  1.0  0.6702
  C  C212  1  0.730820  0.300380  0.410940  1.0  -0.0129
  C  C213  1  0.172140  0.419410  0.023000  1.0  0.6898
  C  C214  1  0.138000  0.282820  0.825150  1.0  0.7021
  C  C215  1  0.245840  0.367070  0.007490  1.0  -0.0462
  C  C216  1  0.359880  0.322270  0.061450  1.0  -0.0532
  C  C217  1  0.412870  0.310030  0.078920  1.0  -0.1443
  C  C218  1  0.678190  0.314870  0.388490  1.0  -0.1255
  C  C219  1  0.684430  0.417080  0.530000  1.0  0.6681
  C  C220  1  0.156870  0.351430  0.924440  1.0  0.006
  C  C221  1  0.265570  0.330330  0.971790  1.0  0.0172
  C  C222  1  0.341000  0.306820  0.941410  1.0  -0.0717
  C  C223  1  0.393460  0.291880  0.958470  1.0  -0.1269
  C  C224  1  0.769490  0.324420  0.471220  1.0  0.0606
  C  C225  1  0.825950  0.310360  0.491900  1.0  0.0425
  C  C226  1  0.911230  0.258900  0.402500  1.0  0.7176
  C  C227  1  0.931300  0.278040  0.527450  1.0  -0.0098
  C  C228  1  0.862590  0.311080  0.561400  1.0  -0.0626
  C  C229  1  0.322510  0.320090  0.992340  1.0  0.0541
  C  C230  1  0.191580  0.378130  0.984190  1.0  -0.1411
  C  C231  1  0.895560  0.278630  0.458240  1.0  -0.1075
  C  C232  1  0.228030  0.303150  0.912830  1.0  -0.0872
  C  C233  1  0.429320  0.292940  0.027340  1.0  0.0058
  C  C234  1  0.914630  0.295850  0.579190  1.0  -0.1432
  C  C235  1  0.843980  0.295700  0.441570  1.0  -0.1032
  C  C236  1  0.661930  0.353040  0.427000  1.0  0.0076
  C  C237  1  0.699060  0.375830  0.487650  1.0  -0.1502
  C  C238  1  0.752450  0.361480  0.509730  1.0  -0.0731
  C  C239  1  0.953390  0.295170  0.654600  1.0  0.7644
  C  C240  1  0.093300  0.613500  0.150200  1.0  0.5929
  C  C241  1  0.116200  0.106900  0.669100  1.0  0.6853
  C  C242  1  0.175260  0.313320  0.889190  1.0  -0.1611
  C  C243  1  0.910370  0.773100  0.902760  1.0  0.6917
  C  C244  1  0.951700  0.810470  0.153630  1.0  0.7331
  C  C245  1  0.139930  0.788620  0.322590  1.0  0.6702
  C  C246  1  0.230820  0.800380  0.410940  1.0  -0.0129
  C  C247  1  0.672140  0.919410  0.023000  1.0  0.6898
  C  C248  1  0.638000  0.782820  0.825150  1.0  0.7021
  C  C249  1  0.745840  0.867070  0.007490  1.0  -0.0462
  C  C250  1  0.859880  0.822270  0.061450  1.0  -0.0532
  C  C251  1  0.912870  0.810030  0.078920  1.0  -0.1443
  C  C252  1  0.178190  0.814870  0.388490  1.0  -0.1255
  C  C253  1  0.184430  0.917080  0.530000  1.0  0.6681
  C  C254  1  0.656870  0.851430  0.924440  1.0  0.006
  C  C255  1  0.765570  0.830330  0.971790  1.0  0.0172
  C  C256  1  0.841000  0.806820  0.941410  1.0  -0.0717
  C  C257  1  0.893460  0.791880  0.958470  1.0  -0.1269
  C  C258  1  0.269490  0.824420  0.471220  1.0  0.0606
  C  C259  1  0.325950  0.810360  0.491900  1.0  0.0425
  C  C260  1  0.411230  0.758900  0.402500  1.0  0.7176
  C  C261  1  0.431300  0.778040  0.527450  1.0  -0.0098
  C  C262  1  0.362590  0.811080  0.561400  1.0  -0.0626
  C  C263  1  0.822510  0.820090  0.992340  1.0  0.0541
  C  C264  1  0.691580  0.878130  0.984190  1.0  -0.1411
  C  C265  1  0.395560  0.778630  0.458240  1.0  -0.1075
  C  C266  1  0.728030  0.803150  0.912830  1.0  -0.0872
  C  C267  1  0.929320  0.792940  0.027340  1.0  0.0058
  C  C268  1  0.414630  0.795850  0.579190  1.0  -0.1432
  C  C269  1  0.343980  0.795700  0.441570  1.0  -0.1032
  C  C270  1  0.161930  0.853040  0.427000  1.0  0.0076
  C  C271  1  0.199060  0.875830  0.487650  1.0  -0.1502
  C  C272  1  0.252450  0.861480  0.509730  1.0  -0.0731
  C  C273  1  0.453390  0.795170  0.654600  1.0  0.7644
  C  C274  1  0.593300  0.113500  0.150200  1.0  0.5929
  C  C275  1  0.616200  0.606900  0.669100  1.0  0.6853
  C  C276  1  0.675260  0.813320  0.889190  1.0  -0.1611
  C  C277  1  0.410370  0.726900  0.902760  1.0  0.6917
  C  C278  1  0.451700  0.689530  0.153630  1.0  0.7364
  C  C279  1  0.639930  0.711380  0.322590  1.0  0.6696
  C  C280  1  0.730820  0.699620  0.410940  1.0  -0.0134
  C  C281  1  0.172140  0.580590  0.023000  1.0  0.6902
  C  C282  1  0.138000  0.717180  0.825150  1.0  0.7018
  C  C283  1  0.245840  0.632930  0.007490  1.0  -0.0459
  C  C284  1  0.359880  0.677730  0.061450  1.0  -0.0531
  C  C285  1  0.412870  0.689970  0.078920  1.0  -0.1445
  C  C286  1  0.678190  0.685130  0.388490  1.0  -0.1251
  C  C287  1  0.684430  0.582920  0.530000  1.0  0.668
  C  C288  1  0.156870  0.648570  0.924440  1.0  0.0055
  C  C289  1  0.265570  0.669670  0.971790  1.0  0.0167
  C  C290  1  0.341000  0.693180  0.941410  1.0  -0.0714
  C  C291  1  0.393460  0.708120  0.958470  1.0  -0.1266
  C  C292  1  0.769490  0.675580  0.471220  1.0  0.0612
  C  C293  1  0.825950  0.689640  0.491900  1.0  0.0427
  C  C294  1  0.911230  0.741100  0.402500  1.0  0.7176
  C  C295  1  0.931300  0.721960  0.527450  1.0  -0.0099
  C  C296  1  0.862590  0.688920  0.561400  1.0  -0.064
  C  C297  1  0.322510  0.679910  0.992340  1.0  0.0535
  C  C298  1  0.191580  0.621870  0.984190  1.0  -0.1406
  C  C299  1  0.895560  0.721370  0.458240  1.0  -0.1078
  C  C300  1  0.228030  0.696850  0.912830  1.0  -0.0867
  C  C301  1  0.429320  0.707060  0.027340  1.0  0.006
  C  C302  1  0.914630  0.704150  0.579190  1.0  -0.1427
  C  C303  1  0.843980  0.704300  0.441570  1.0  -0.1033
  C  C304  1  0.661930  0.646960  0.427000  1.0  0.0059
  C  C305  1  0.699060  0.624170  0.487650  1.0  -0.1501
  C  C306  1  0.752450  0.638520  0.509730  1.0  -0.0731
  C  C307  1  0.953390  0.704830  0.654600  1.0  0.7661
  C  C308  1  0.093300  0.386500  0.150200  1.0  0.5924
  C  C309  1  0.116200  0.893100  0.669100  1.0  0.6857
  C  C310  1  0.175260  0.686680  0.889190  1.0  -0.1611
  C  C311  1  0.910370  0.226900  0.902760  1.0  0.6917
  C  C312  1  0.951700  0.189530  0.153630  1.0  0.7364
  C  C313  1  0.139930  0.211380  0.322590  1.0  0.6696
  C  C314  1  0.230820  0.199620  0.410940  1.0  -0.0134
  C  C315  1  0.672140  0.080590  0.023000  1.0  0.6902
  C  C316  1  0.638000  0.217180  0.825150  1.0  0.7018
  C  C317  1  0.745840  0.132930  0.007490  1.0  -0.0459
  C  C318  1  0.859880  0.177730  0.061450  1.0  -0.0531
  C  C319  1  0.912870  0.189970  0.078920  1.0  -0.1445
  C  C320  1  0.178190  0.185130  0.388490  1.0  -0.1251
  C  C321  1  0.184430  0.082920  0.530000  1.0  0.668
  C  C322  1  0.656870  0.148570  0.924440  1.0  0.0055
  C  C323  1  0.765570  0.169670  0.971790  1.0  0.0167
  C  C324  1  0.841000  0.193180  0.941410  1.0  -0.0714
  C  C325  1  0.893460  0.208120  0.958470  1.0  -0.1266
  C  C326  1  0.269490  0.175580  0.471220  1.0  0.0612
  C  C327  1  0.325950  0.189640  0.491900  1.0  0.0427
  C  C328  1  0.411230  0.241100  0.402500  1.0  0.7176
  C  C329  1  0.431300  0.221960  0.527450  1.0  -0.0099
  C  C330  1  0.362590  0.188920  0.561400  1.0  -0.064
  C  C331  1  0.822510  0.179910  0.992340  1.0  0.0535
  C  C332  1  0.691580  0.121870  0.984190  1.0  -0.1406
  C  C333  1  0.395560  0.221370  0.458240  1.0  -0.1078
  C  C334  1  0.728030  0.196850  0.912830  1.0  -0.0867
  C  C335  1  0.929320  0.207060  0.027340  1.0  0.006
  C  C336  1  0.414630  0.204150  0.579190  1.0  -0.1427
  C  C337  1  0.343980  0.204300  0.441570  1.0  -0.1033
  C  C338  1  0.161930  0.146960  0.427000  1.0  0.0059
  C  C339  1  0.199060  0.124170  0.487650  1.0  -0.1501
  C  C340  1  0.252450  0.138520  0.509730  1.0  -0.0731
  C  C341  1  0.453390  0.204830  0.654600  1.0  0.7661
  C  C342  1  0.593300  0.886500  0.150200  1.0  0.5924
  C  C343  1  0.616200  0.393100  0.669100  1.0  0.6857
  C  C344  1  0.675260  0.186680  0.889190  1.0  -0.1611
  C  C345  1  0.589630  0.726900  0.097240  1.0  0.6936
  C  C346  1  0.548300  0.689530  0.846370  1.0  0.7346
  C  C347  1  0.360070  0.711380  0.677410  1.0  0.6699
  C  C348  1  0.269180  0.699620  0.589060  1.0  -0.0152
  C  C349  1  0.827860  0.580590  0.977000  1.0  0.6896
  C  C350  1  0.862000  0.717180  0.174850  1.0  0.7025
  C  C351  1  0.754160  0.632930  0.992510  1.0  -0.0464
  C  C352  1  0.640120  0.677730  0.938550  1.0  -0.053
  C  C353  1  0.587130  0.689970  0.921080  1.0  -0.1445
  C  C354  1  0.321810  0.685130  0.611510  1.0  -0.1251
  C  C355  1  0.315570  0.582920  0.470000  1.0  0.6674
  C  C356  1  0.843130  0.648570  0.075560  1.0  0.005
  C  C357  1  0.734430  0.669670  0.028210  1.0  0.0165
  C  C358  1  0.659000  0.693180  0.058590  1.0  -0.0724
  C  C359  1  0.606540  0.708120  0.041530  1.0  -0.1273
  C  C360  1  0.230510  0.675580  0.528780  1.0  0.0621
  C  C361  1  0.174050  0.689640  0.508100  1.0  0.0426
  C  C362  1  0.088770  0.741100  0.597500  1.0  0.7184
  C  C363  1  0.068700  0.721960  0.472550  1.0  -0.0106
  C  C364  1  0.137410  0.688920  0.438600  1.0  -0.0629
  C  C365  1  0.677490  0.679910  0.007660  1.0  0.0539
  C  C366  1  0.808420  0.621870  0.015810  1.0  -0.142
  C  C367  1  0.104440  0.721370  0.541760  1.0  -0.1085
  C  C368  1  0.771970  0.696850  0.087170  1.0  -0.0874
  C  C369  1  0.570680  0.707060  0.972660  1.0  0.005
  C  C370  1  0.085370  0.704150  0.420810  1.0  -0.1427
  C  C371  1  0.156020  0.704300  0.558430  1.0  -0.1041
  C  C372  1  0.338070  0.646960  0.573000  1.0  0.0084
  C  C373  1  0.300940  0.624170  0.512350  1.0  -0.1498
  C  C374  1  0.247550  0.638520  0.490270  1.0  -0.0721
  C  C375  1  0.046610  0.704830  0.345400  1.0  0.766
  C  C376  1  0.906700  0.386500  0.849800  1.0  0.5922
  C  C377  1  0.883800  0.893100  0.330900  1.0  0.6847
  C  C378  1  0.824740  0.686680  0.110810  1.0  -0.1603
  C  C379  1  0.089630  0.226900  0.097240  1.0  0.6936
  C  C380  1  0.048300  0.189530  0.846370  1.0  0.7346
  C  C381  1  0.860070  0.211380  0.677410  1.0  0.6699
  C  C382  1  0.769180  0.199620  0.589060  1.0  -0.0152
  C  C383  1  0.327860  0.080590  0.977000  1.0  0.6896
  C  C384  1  0.362000  0.217180  0.174850  1.0  0.7025
  C  C385  1  0.254160  0.132930  0.992510  1.0  -0.0464
  C  C386  1  0.140120  0.177730  0.938550  1.0  -0.053
  C  C387  1  0.087130  0.189970  0.921080  1.0  -0.1445
  C  C388  1  0.821810  0.185130  0.611510  1.0  -0.1251
  C  C389  1  0.815570  0.082920  0.470000  1.0  0.6674
  C  C390  1  0.343130  0.148570  0.075560  1.0  0.005
  C  C391  1  0.234430  0.169670  0.028210  1.0  0.0165
  C  C392  1  0.159000  0.193180  0.058590  1.0  -0.0724
  C  C393  1  0.106540  0.208120  0.041530  1.0  -0.1273
  C  C394  1  0.730510  0.175580  0.528780  1.0  0.0621
  C  C395  1  0.674050  0.189640  0.508100  1.0  0.0426
  C  C396  1  0.588770  0.241100  0.597500  1.0  0.7184
  C  C397  1  0.568700  0.221960  0.472550  1.0  -0.0106
  C  C398  1  0.637410  0.188920  0.438600  1.0  -0.0629
  C  C399  1  0.177490  0.179910  0.007660  1.0  0.0539
  C  C400  1  0.308420  0.121870  0.015810  1.0  -0.142
  C  C401  1  0.604440  0.221370  0.541760  1.0  -0.1085
  C  C402  1  0.271970  0.196850  0.087170  1.0  -0.0874
  C  C403  1  0.070680  0.207060  0.972660  1.0  0.005
  C  C404  1  0.585370  0.204150  0.420810  1.0  -0.1427
  C  C405  1  0.656020  0.204300  0.558430  1.0  -0.1041
  C  C406  1  0.838070  0.146960  0.573000  1.0  0.0084
  C  C407  1  0.800940  0.124170  0.512350  1.0  -0.1498
  C  C408  1  0.747550  0.138520  0.490270  1.0  -0.0721
  C  C409  1  0.546610  0.204830  0.345400  1.0  0.766
  C  C410  1  0.406700  0.886500  0.849800  1.0  0.5922
  C  C411  1  0.383800  0.393100  0.330900  1.0  0.6847
  C  C412  1  0.324740  0.186680  0.110810  1.0  -0.1603
  C  C413  1  0.000000  0.500000  0.000000  1.0  0.4195
  C  C414  1  0.500000  0.000000  0.000000  1.0  0.4195
  C  C415  1  0.760600  0.500000  0.764600  1.0  0.6595
  C  C416  1  0.260600  0.000000  0.764600  1.0  0.6595
  C  C417  1  0.239400  0.500000  0.235400  1.0  0.6585
  C  C418  1  0.739400  0.000000  0.235400  1.0  0.6585
  O  O419  1  0.501010  0.298310  0.831910  1.0  -0.7454
  O  O420  1  0.551120  0.239420  0.083060  1.0  -0.6562
  O  O421  1  0.844660  0.244180  0.200410  1.0  -0.6422
  O  O422  1  0.054040  0.221500  0.585930  1.0  -0.6331
  O  O423  1  0.346670  0.246960  0.703620  1.0  -0.5881
  O  O424  1  0.894120  0.655670  0.810520  1.0  -0.6027
  O  O425  1  0.910480  0.297500  0.202260  1.0  -0.5999
  O  O426  1  0.062720  0.309560  0.300150  1.0  -0.6909
  O  O427  1  0.565370  0.323270  0.801640  1.0  -0.7072
  O  O428  1  0.112110  0.280550  0.657750  1.0  -0.5852
  O  O429  1  0.615030  0.290240  0.159250  1.0  -0.6364
  O  O430  1  0.875970  0.433610  0.002760  1.0  -0.605
  O  O431  1  0.797340  0.439410  0.920860  1.0  -0.6003
  O  O432  1  0.407090  0.308380  0.706170  1.0  -0.6327
  O  O433  1  0.000610  0.279660  0.332270  1.0  -0.7513
  O  O434  1  0.877690  0.149700  0.294650  1.0  -0.6245
  O  O435  1  0.363110  0.432220  0.487250  1.0  -0.6172
  O  O436  1  0.852100  0.071250  0.330140  1.0  -0.6446
  O  O437  1  0.883870  0.577010  0.862590  1.0  -0.6391
  O  O438  1  0.281150  0.438050  0.416880  1.0  -0.6028
  O  O439  1  0.001010  0.798310  0.831910  1.0  -0.7454
  O  O440  1  0.051120  0.739420  0.083060  1.0  -0.6562
  O  O441  1  0.344660  0.744180  0.200410  1.0  -0.6422
  O  O442  1  0.554040  0.721500  0.585930  1.0  -0.6331
  O  O443  1  0.846670  0.746960  0.703620  1.0  -0.5881
  O  O444  1  0.394120  0.155670  0.810520  1.0  -0.6027
  O  O445  1  0.410480  0.797500  0.202260  1.0  -0.5999
  O  O446  1  0.562720  0.809560  0.300150  1.0  -0.6909
  O  O447  1  0.065370  0.823270  0.801640  1.0  -0.7072
  O  O448  1  0.612110  0.780550  0.657750  1.0  -0.5852
  O  O449  1  0.115030  0.790240  0.159250  1.0  -0.6364
  O  O450  1  0.375970  0.933610  0.002760  1.0  -0.605
  O  O451  1  0.297340  0.939410  0.920860  1.0  -0.6003
  O  O452  1  0.907090  0.808380  0.706170  1.0  -0.6327
  O  O453  1  0.500610  0.779660  0.332270  1.0  -0.7513
  O  O454  1  0.377690  0.649700  0.294650  1.0  -0.6245
  O  O455  1  0.863110  0.932220  0.487250  1.0  -0.6172
  O  O456  1  0.352100  0.571250  0.330140  1.0  -0.6446
  O  O457  1  0.383870  0.077010  0.862590  1.0  -0.6391
  O  O458  1  0.781150  0.938050  0.416880  1.0  -0.6028
  O  O459  1  0.498990  0.298310  0.168090  1.0  -0.7478
  O  O460  1  0.448880  0.239420  0.916940  1.0  -0.6561
  O  O461  1  0.155340  0.244180  0.799590  1.0  -0.645
  O  O462  1  0.945960  0.221500  0.414070  1.0  -0.634
  O  O463  1  0.653330  0.246960  0.296380  1.0  -0.5869
  O  O464  1  0.105880  0.655670  0.189480  1.0  -0.6022
  O  O465  1  0.089520  0.297500  0.797740  1.0  -0.5996
  O  O466  1  0.937280  0.309560  0.699850  1.0  -0.6891
  O  O467  1  0.434630  0.323270  0.198360  1.0  -0.7075
  O  O468  1  0.887890  0.280550  0.342250  1.0  -0.5845
  O  O469  1  0.384970  0.290240  0.840750  1.0  -0.6351
  O  O470  1  0.124030  0.433610  0.997240  1.0  -0.6068
  O  O471  1  0.202660  0.439410  0.079140  1.0  -0.6016
  O  O472  1  0.592910  0.308380  0.293830  1.0  -0.6301
  O  O473  1  0.999390  0.279660  0.667730  1.0  -0.7498
  O  O474  1  0.122310  0.149700  0.705350  1.0  -0.6228
  O  O475  1  0.636890  0.432220  0.512750  1.0  -0.6187
  O  O476  1  0.147900  0.071250  0.669860  1.0  -0.6431
  O  O477  1  0.116130  0.577010  0.137410  1.0  -0.6397
  O  O478  1  0.718850  0.438050  0.583120  1.0  -0.6019
  O  O479  1  0.998990  0.798310  0.168090  1.0  -0.7478
  O  O480  1  0.948880  0.739420  0.916940  1.0  -0.6561
  O  O481  1  0.655340  0.744180  0.799590  1.0  -0.645
  O  O482  1  0.445960  0.721500  0.414070  1.0  -0.634
  O  O483  1  0.153330  0.746960  0.296380  1.0  -0.5869
  O  O484  1  0.605880  0.155670  0.189480  1.0  -0.6022
  O  O485  1  0.589520  0.797500  0.797740  1.0  -0.5996
  O  O486  1  0.437280  0.809560  0.699850  1.0  -0.6891
  O  O487  1  0.934630  0.823270  0.198360  1.0  -0.7075
  O  O488  1  0.387890  0.780550  0.342250  1.0  -0.5845
  O  O489  1  0.884970  0.790240  0.840750  1.0  -0.6351
  O  O490  1  0.624030  0.933610  0.997240  1.0  -0.6068
  O  O491  1  0.702660  0.939410  0.079140  1.0  -0.6016
  O  O492  1  0.092910  0.808380  0.293830  1.0  -0.6301
  O  O493  1  0.499390  0.779660  0.667730  1.0  -0.7498
  O  O494  1  0.622310  0.649700  0.705350  1.0  -0.6228
  O  O495  1  0.136890  0.932220  0.512750  1.0  -0.6187
  O  O496  1  0.647900  0.571250  0.669860  1.0  -0.6431
  O  O497  1  0.616130  0.077010  0.137410  1.0  -0.6397
  O  O498  1  0.218850  0.938050  0.583120  1.0  -0.6019
  O  O499  1  0.498990  0.701690  0.168090  1.0  -0.7457
  O  O500  1  0.448880  0.760580  0.916940  1.0  -0.6558
  O  O501  1  0.155340  0.755820  0.799590  1.0  -0.6452
  O  O502  1  0.945960  0.778500  0.414070  1.0  -0.6335
  O  O503  1  0.653330  0.753040  0.296380  1.0  -0.5883
  O  O504  1  0.105880  0.344330  0.189480  1.0  -0.6022
  O  O505  1  0.089520  0.702500  0.797740  1.0  -0.6007
  O  O506  1  0.937280  0.690440  0.699850  1.0  -0.688
  O  O507  1  0.434630  0.676730  0.198360  1.0  -0.7078
  O  O508  1  0.887890  0.719450  0.342250  1.0  -0.5834
  O  O509  1  0.384970  0.709760  0.840750  1.0  -0.6345
  O  O510  1  0.124030  0.566390  0.997240  1.0  -0.6072
  O  O511  1  0.202660  0.560590  0.079140  1.0  -0.6019
  O  O512  1  0.592910  0.691620  0.293830  1.0  -0.6299
  O  O513  1  0.999390  0.720340  0.667730  1.0  -0.7494
  O  O514  1  0.122310  0.850300  0.705350  1.0  -0.6239
  O  O515  1  0.636890  0.567780  0.512750  1.0  -0.618
  O  O516  1  0.147900  0.928750  0.669860  1.0  -0.6437
  O  O517  1  0.116130  0.422990  0.137410  1.0  -0.6383
  O  O518  1  0.718850  0.561950  0.583120  1.0  -0.6016
  O  O519  1  0.998990  0.201690  0.168090  1.0  -0.7457
  O  O520  1  0.948880  0.260580  0.916940  1.0  -0.6558
  O  O521  1  0.655340  0.255820  0.799590  1.0  -0.6452
  O  O522  1  0.445960  0.278500  0.414070  1.0  -0.6335
  O  O523  1  0.153330  0.253040  0.296380  1.0  -0.5883
  O  O524  1  0.605880  0.844330  0.189480  1.0  -0.6022
  O  O525  1  0.589520  0.202500  0.797740  1.0  -0.6007
  O  O526  1  0.437280  0.190440  0.699850  1.0  -0.688
  O  O527  1  0.934630  0.176730  0.198360  1.0  -0.7078
  O  O528  1  0.387890  0.219450  0.342250  1.0  -0.5834
  O  O529  1  0.884970  0.209760  0.840750  1.0  -0.6345
  O  O530  1  0.624030  0.066390  0.997240  1.0  -0.6072
  O  O531  1  0.702660  0.060590  0.079140  1.0  -0.6019
  O  O532  1  0.092910  0.191620  0.293830  1.0  -0.6299
  O  O533  1  0.499390  0.220340  0.667730  1.0  -0.7494
  O  O534  1  0.622310  0.350300  0.705350  1.0  -0.6239
  O  O535  1  0.136890  0.067780  0.512750  1.0  -0.6177
  O  O536  1  0.647900  0.428750  0.669860  1.0  -0.6437
  O  O537  1  0.616130  0.922990  0.137410  1.0  -0.6383
  O  O538  1  0.218850  0.061950  0.583120  1.0  -0.6016
  O  O539  1  0.501010  0.701690  0.831910  1.0  -0.7453
  O  O540  1  0.551120  0.760580  0.083060  1.0  -0.6554
  O  O541  1  0.844660  0.755820  0.200410  1.0  -0.6426
  O  O542  1  0.054040  0.778500  0.585930  1.0  -0.6329
  O  O543  1  0.346670  0.753040  0.703620  1.0  -0.5895
  O  O544  1  0.894120  0.344330  0.810520  1.0  -0.6022
  O  O545  1  0.910480  0.702500  0.202260  1.0  -0.5995
  O  O546  1  0.062720  0.690440  0.300150  1.0  -0.6903
  O  O547  1  0.565370  0.676730  0.801640  1.0  -0.706
  O  O548  1  0.112110  0.719450  0.657750  1.0  -0.5847
  O  O549  1  0.615030  0.709760  0.159250  1.0  -0.6359
  O  O550  1  0.875970  0.566390  0.002760  1.0  -0.6046
  O  O551  1  0.797340  0.560590  0.920860  1.0  -0.6004
  O  O552  1  0.407090  0.691620  0.706170  1.0  -0.6312
  O  O553  1  0.000610  0.720340  0.332270  1.0  -0.751
  O  O554  1  0.877690  0.850300  0.294650  1.0  -0.6244
  O  O555  1  0.363110  0.567780  0.487250  1.0  -0.6172
  O  O556  1  0.852100  0.928750  0.330140  1.0  -0.6443
  O  O557  1  0.883870  0.422990  0.862590  1.0  -0.6381
  O  O558  1  0.281150  0.561950  0.416880  1.0  -0.6026
  O  O559  1  0.001010  0.201690  0.831910  1.0  -0.7453
  O  O560  1  0.051120  0.260580  0.083060  1.0  -0.6554
  O  O561  1  0.344660  0.255820  0.200410  1.0  -0.6426
  O  O562  1  0.554040  0.278500  0.585930  1.0  -0.6329
  O  O563  1  0.846670  0.253040  0.703620  1.0  -0.5895
  O  O564  1  0.394120  0.844330  0.810520  1.0  -0.6022
  O  O565  1  0.410480  0.202500  0.202260  1.0  -0.5995
  O  O566  1  0.562720  0.190440  0.300150  1.0  -0.6903
  O  O567  1  0.065370  0.176730  0.801640  1.0  -0.706
  O  O568  1  0.612110  0.219450  0.657750  1.0  -0.5847
  O  O569  1  0.115030  0.209760  0.159250  1.0  -0.6359
  O  O570  1  0.375970  0.066390  0.002760  1.0  -0.6046
  O  O571  1  0.297340  0.060590  0.920860  1.0  -0.6004
  O  O572  1  0.907090  0.191620  0.706170  1.0  -0.6312
  O  O573  1  0.500610  0.220340  0.332270  1.0  -0.751
  O  O574  1  0.377690  0.350300  0.294650  1.0  -0.6244
  O  O575  1  0.863110  0.067780  0.487250  1.0  -0.6169
  O  O576  1  0.352100  0.428750  0.330140  1.0  -0.6443
  O  O577  1  0.383870  0.922990  0.862590  1.0  -0.6381
  O  O578  1  0.781150  0.061950  0.416880  1.0  -0.6026
  O  O579  1  0.956770  0.500000  0.970900  1.0  -0.5944
  O  O580  1  0.805910  0.500000  0.802200  1.0  -0.6519
  O  O581  1  0.738330  0.500000  0.702800  1.0  -0.6482
  O  O582  1  0.456770  0.000000  0.970900  1.0  -0.5944
  O  O583  1  0.305910  0.000000  0.802200  1.0  -0.6519
  O  O584  1  0.238330  0.000000  0.702800  1.0  -0.648
  O  O585  1  0.043230  0.500000  0.029100  1.0  -0.5949
  O  O586  1  0.194090  0.500000  0.197800  1.0  -0.6526
  O  O587  1  0.261670  0.500000  0.297200  1.0  -0.6488
  O  O588  1  0.543230  0.000000  0.029100  1.0  -0.5949
  O  O589  1  0.694090  0.000000  0.197800  1.0  -0.6526
  O  O590  1  0.761670  0.000000  0.297200  1.0  -0.6489
