# generated using pymatgen
data_GaPHO3F2
_symmetry_space_group_name_H-M   'P 1'
_cell_length_a   18.31500000
_cell_length_b   18.31500000
_cell_length_c   13.13600000
_cell_angle_alpha   90.00000000
_cell_angle_beta   90.00000000
_cell_angle_gamma   120.00000000
_symmetry_Int_Tables_number   1
_chemical_formula_structural   GaPHO3F2
_chemical_formula_sum   'Ga18 P18 H18 O54 F36'
_cell_volume   3815.99342266
_cell_formula_units_Z   18
loop_
 _symmetry_equiv_pos_site_id
 _symmetry_equiv_pos_as_xyz
  1  'x, y, z'
loop_
 _atom_site_type_symbol
 _atom_site_label
 _atom_site_symmetry_multiplicity
 _atom_site_fract_x
 _atom_site_fract_y
 _atom_site_fract_z
 _atom_site_occupancy
 _atom_site_charge
  Ga  Ga1  1  0.894250  0.659450  0.096440  1.0  1.5935
  Ga  Ga2  1  0.560920  0.992780  0.429770  1.0  1.5935
  Ga  Ga3  1  0.227580  0.326120  0.763110  1.0  1.5935
  Ga  Ga4  1  0.340550  0.234800  0.096440  1.0  1.5924
  Ga  Ga5  1  0.007220  0.568130  0.429770  1.0  1.5924
  Ga  Ga6  1  0.673880  0.901470  0.763110  1.0  1.5924
  Ga  Ga7  1  0.765200  0.105750  0.096440  1.0  1.5939
  Ga  Ga8  1  0.431870  0.439080  0.429770  1.0  1.5939
  Ga  Ga9  1  0.098530  0.772420  0.763110  1.0  1.5939
  Ga  Ga10  1  0.105750  0.340550  0.903560  1.0  1.5931
  Ga  Ga11  1  0.772420  0.673880  0.236890  1.0  1.5931
  Ga  Ga12  1  0.439080  0.007220  0.570230  1.0  1.5931
  Ga  Ga13  1  0.659450  0.765200  0.903560  1.0  1.5913
  Ga  Ga14  1  0.326120  0.098530  0.236890  1.0  1.5913
  Ga  Ga15  1  0.992780  0.431870  0.570230  1.0  1.5913
  Ga  Ga16  1  0.234800  0.894250  0.903560  1.0  1.5923
  Ga  Ga17  1  0.901470  0.227580  0.236890  1.0  1.5923
  Ga  Ga18  1  0.568130  0.560920  0.570230  1.0  1.5923
  P  P19  1  0.050990  0.795140  0.981230  1.0  1.5882
  P  P20  1  0.717660  0.128470  0.314560  1.0  1.5882
  P  P21  1  0.384320  0.461810  0.647900  1.0  1.5885
  P  P22  1  0.204860  0.255850  0.981230  1.0  1.5896
  P  P23  1  0.871530  0.589180  0.314560  1.0  1.5896
  P  P24  1  0.538190  0.922520  0.647900  1.0  1.5896
  P  P25  1  0.744150  0.949010  0.981230  1.0  1.5855
  P  P26  1  0.410820  0.282340  0.314560  1.0  1.5855
  P  P27  1  0.077480  0.615680  0.647900  1.0  1.5855
  P  P28  1  0.949010  0.204860  0.018770  1.0  1.5885
  P  P29  1  0.615680  0.538190  0.352100  1.0  1.5887
  P  P30  1  0.282340  0.871530  0.685440  1.0  1.5885
  P  P31  1  0.795140  0.744150  0.018770  1.0  1.5854
  P  P32  1  0.461810  0.077480  0.352100  1.0  1.5854
  P  P33  1  0.128470  0.410820  0.685440  1.0  1.5854
  P  P34  1  0.255850  0.050990  0.018770  1.0  1.576
  P  P35  1  0.922520  0.384320  0.352100  1.0  1.576
  P  P36  1  0.589180  0.717660  0.685440  1.0  1.576
  H  H37  1  0.024000  0.850000  0.980000  1.0  -0.0533
  H  H38  1  0.690670  0.183330  0.313330  1.0  -0.0533
  H  H39  1  0.357330  0.516670  0.646670  1.0  -0.0558
  H  H40  1  0.150000  0.174000  0.980000  1.0  -0.054
  H  H41  1  0.816670  0.507330  0.313330  1.0  -0.054
  H  H42  1  0.483330  0.840670  0.646670  1.0  -0.0515
  H  H43  1  0.826000  0.976000  0.980000  1.0  -0.0549
  H  H44  1  0.492670  0.309330  0.313330  1.0  -0.0549
  H  H45  1  0.159330  0.642670  0.646670  1.0  -0.055
  H  H46  1  0.976000  0.150000  0.020000  1.0  -0.0516
  H  H47  1  0.642670  0.483330  0.353330  1.0  -0.0539
  H  H48  1  0.309330  0.816670  0.686670  1.0  -0.0516
  H  H49  1  0.850000  0.826000  0.020000  1.0  -0.0536
  H  H50  1  0.516670  0.159330  0.353330  1.0  -0.051
  H  H51  1  0.183330  0.492670  0.686670  1.0  -0.0536
  H  H52  1  0.174000  0.024000  0.020000  1.0  -0.0557
  H  H53  1  0.840670  0.357330  0.353330  1.0  -0.0564
  H  H54  1  0.507330  0.690670  0.686670  1.0  -0.0557
  O  O55  1  0.144660  0.850300  0.003600  1.0  -0.7628
  O  O56  1  0.028940  0.743920  0.883600  1.0  -0.7663
  O  O57  1  0.011220  0.736970  0.072900  1.0  -0.7471
  O  O58  1  0.811330  0.183630  0.336930  1.0  -0.7627
  O  O59  1  0.695610  0.077250  0.216930  1.0  -0.7663
  O  O60  1  0.677890  0.070300  0.406230  1.0  -0.7471
  O  O61  1  0.477990  0.516970  0.670270  1.0  -0.7626
  O  O62  1  0.362270  0.410590  0.550270  1.0  -0.7665
  O  O63  1  0.344550  0.403640  0.739570  1.0  -0.7471
  O  O64  1  0.149700  0.294360  0.003600  1.0  -0.7654
  O  O65  1  0.256080  0.285020  0.883600  1.0  -0.7687
  O  O66  1  0.263030  0.274250  0.072900  1.0  -0.7476
  O  O67  1  0.816370  0.627690  0.336930  1.0  -0.7653
  O  O68  1  0.922750  0.618350  0.216930  1.0  -0.7687
  O  O69  1  0.929700  0.607580  0.406230  1.0  -0.7476
  O  O70  1  0.483030  0.961030  0.670270  1.0  -0.7652
  O  O71  1  0.589410  0.951690  0.550270  1.0  -0.7685
  O  O72  1  0.596360  0.940920  0.739570  1.0  -0.7476
  O  O73  1  0.705640  0.855340  0.003600  1.0  -0.7642
  O  O74  1  0.714980  0.971060  0.883600  1.0  -0.7673
  O  O75  1  0.725750  0.988780  0.072900  1.0  -0.7467
  O  O76  1  0.372310  0.188670  0.336930  1.0  -0.7641
  O  O77  1  0.381650  0.304390  0.216930  1.0  -0.7673
  O  O78  1  0.392420  0.322110  0.406230  1.0  -0.7467
  O  O79  1  0.038970  0.522010  0.670270  1.0  -0.764
  O  O80  1  0.048310  0.637730  0.550270  1.0  -0.7676
  O  O81  1  0.059080  0.655450  0.739570  1.0  -0.7467
  O  O82  1  0.855340  0.149700  0.996400  1.0  -0.7673
  O  O83  1  0.971060  0.256080  0.116400  1.0  -0.7689
  O  O84  1  0.988780  0.263030  0.927100  1.0  -0.7458
  O  O85  1  0.522010  0.483030  0.329730  1.0  -0.7671
  O  O86  1  0.637730  0.589410  0.449730  1.0  -0.7692
  O  O87  1  0.655450  0.596360  0.260430  1.0  -0.7458
  O  O88  1  0.188670  0.816370  0.663070  1.0  -0.7672
  O  O89  1  0.304390  0.922750  0.783070  1.0  -0.7689
  O  O90  1  0.322110  0.929700  0.593770  1.0  -0.7458
  O  O91  1  0.850300  0.705640  0.996400  1.0  -0.7673
  O  O92  1  0.743920  0.714980  0.116400  1.0  -0.7676
  O  O93  1  0.736970  0.725750  0.927100  1.0  -0.7484
  O  O94  1  0.516970  0.038970  0.329730  1.0  -0.7671
  O  O95  1  0.410590  0.048310  0.449730  1.0  -0.7673
  O  O96  1  0.403640  0.059080  0.260430  1.0  -0.7484
  O  O97  1  0.183630  0.372310  0.663070  1.0  -0.7672
  O  O98  1  0.077250  0.381650  0.783070  1.0  -0.7676
  O  O99  1  0.070300  0.392420  0.593770  1.0  -0.7485
  O  O100  1  0.294360  0.144660  0.996400  1.0  -0.7663
  O  O101  1  0.285020  0.028940  0.116400  1.0  -0.7672
  O  O102  1  0.274250  0.011220  0.927100  1.0  -0.7475
  O  O103  1  0.961030  0.477990  0.329730  1.0  -0.7661
  O  O104  1  0.951690  0.362270  0.449730  1.0  -0.7675
  O  O105  1  0.940920  0.344550  0.260430  1.0  -0.7475
  O  O106  1  0.627690  0.811330  0.663070  1.0  -0.7661
  O  O107  1  0.618350  0.695610  0.783070  1.0  -0.7672
  O  O108  1  0.607580  0.677890  0.593770  1.0  -0.7475
  F  F109  1  0.777340  0.590930  0.142520  1.0  -0.5142
  F  F110  1  0.884680  0.574710  0.013140  1.0  -0.3345
  F  F111  1  0.444010  0.924260  0.475850  1.0  -0.5039
  F  F112  1  0.551350  0.908040  0.346470  1.0  -0.3344
  F  F113  1  0.110670  0.257600  0.809190  1.0  -0.5142
  F  F114  1  0.218010  0.241380  0.679810  1.0  -0.3345
  F  F115  1  0.409070  0.186410  0.142520  1.0  -0.5162
  F  F116  1  0.425290  0.309970  0.013140  1.0  -0.3288
  F  F117  1  0.075740  0.519740  0.475850  1.0  -0.5192
  F  F118  1  0.091960  0.643300  0.346470  1.0  -0.3288
  F  F119  1  0.742400  0.853080  0.809190  1.0  -0.5162
  F  F120  1  0.758620  0.976640  0.679810  1.0  -0.3347
  F  F121  1  0.813590  0.222660  0.142520  1.0  -0.5049
  F  F122  1  0.690030  0.115320  0.013140  1.0  -0.3346
  F  F123  1  0.480260  0.555990  0.475850  1.0  -0.5134
  F  F124  1  0.356700  0.448650  0.346470  1.0  -0.3346
  F  F125  1  0.146920  0.889330  0.809190  1.0  -0.5049
  F  F126  1  0.023360  0.781990  0.679810  1.0  -0.3279
  F  F127  1  0.222660  0.409070  0.857480  1.0  -0.5138
  F  F128  1  0.115320  0.425290  0.986860  1.0  -0.3328
  F  F129  1  0.889330  0.742400  0.190810  1.0  -0.5138
  F  F130  1  0.781990  0.758620  0.320190  1.0  -0.3328
  F  F131  1  0.555990  0.075740  0.524150  1.0  -0.5033
  F  F132  1  0.448650  0.091960  0.653530  1.0  -0.3328
  F  F133  1  0.590930  0.813590  0.857480  1.0  -0.5111
  F  F134  1  0.574710  0.690030  0.986860  1.0  -0.3287
  F  F135  1  0.257600  0.146920  0.190810  1.0  -0.5111
  F  F136  1  0.241380  0.023360  0.320190  1.0  -0.3347
  F  F137  1  0.924260  0.480260  0.524150  1.0  -0.514
  F  F138  1  0.908040  0.356700  0.653530  1.0  -0.3287
  F  F139  1  0.186410  0.777340  0.857480  1.0  -0.5087
  F  F140  1  0.309970  0.884680  0.986860  1.0  -0.3368
  F  F141  1  0.853080  0.110670  0.190810  1.0  -0.5087
  F  F142  1  0.976640  0.218010  0.320190  1.0  -0.329
  F  F143  1  0.519740  0.444010  0.524150  1.0  -0.5165
  F  F144  1  0.643300  0.551350  0.653530  1.0  -0.3368
