# generated using pymatgen
data_Ga2P3(H2O5)2
_symmetry_space_group_name_H-M   'P 1'
_cell_length_a   11.31840000
_cell_length_b   11.01590000
_cell_length_c   18.75190000
_cell_angle_alpha   90.00000000
_cell_angle_beta   92.56900000
_cell_angle_gamma   90.00000000
_symmetry_Int_Tables_number   1
_chemical_formula_structural   Ga2P3(H2O5)2
_chemical_formula_sum   'Ga16 P24 H32 O80'
_cell_volume   2335.68139671
_cell_formula_units_Z   8
loop_
 _symmetry_equiv_pos_site_id
 _symmetry_equiv_pos_as_xyz
  1  'x, y, z'
loop_
 _atom_site_type_symbol
 _atom_site_label
 _atom_site_symmetry_multiplicity
 _atom_site_fract_x
 _atom_site_fract_y
 _atom_site_fract_z
 _atom_site_occupancy
 _atom_site_charge
  Ga  Ga1  1  0.257260  0.949380  0.292730  1.0  1.5997
  Ga  Ga2  1  0.281870  0.905800  0.108240  1.0  1.6894
  Ga  Ga3  1  0.243890  0.073380  0.792320  1.0  1.5862
  Ga  Ga4  1  0.214040  0.120800  0.607470  1.0  1.6588
  Ga  Ga5  1  0.242740  0.449380  0.207270  1.0  1.6013
  Ga  Ga6  1  0.218130  0.405800  0.391760  1.0  1.6865
  Ga  Ga7  1  0.256110  0.573380  0.707680  1.0  1.589
  Ga  Ga8  1  0.285960  0.620800  0.892530  1.0  1.6571
  Ga  Ga9  1  0.742740  0.050620  0.707270  1.0  1.6017
  Ga  Ga10  1  0.718130  0.094200  0.891760  1.0  1.6857
  Ga  Ga11  1  0.756110  0.926620  0.207680  1.0  1.5896
  Ga  Ga12  1  0.785960  0.879200  0.392530  1.0  1.6571
  Ga  Ga13  1  0.757260  0.550620  0.792730  1.0  1.6008
  Ga  Ga14  1  0.781870  0.594200  0.608240  1.0  1.6886
  Ga  Ga15  1  0.743890  0.426620  0.292320  1.0  1.5868
  Ga  Ga16  1  0.714040  0.379200  0.107470  1.0  1.6597
  P  P17  1  0.038040  0.970960  0.182800  1.0  1.5661
  P  P18  1  0.324600  0.166430  0.186700  1.0  1.6339
  P  P19  1  0.192040  0.118540  0.434010  1.0  1.5425
  P  P20  1  0.262220  0.909190  0.931230  1.0  1.672
  P  P21  1  0.466120  0.121110  0.691230  1.0  1.5342
  P  P22  1  0.179700  0.860790  0.682150  1.0  1.6268
  P  P23  1  0.461960  0.470960  0.317200  1.0  1.5668
  P  P24  1  0.175400  0.666430  0.313300  1.0  1.6344
  P  P25  1  0.307960  0.618540  0.065990  1.0  1.5522
  P  P26  1  0.237780  0.409190  0.568770  1.0  1.6711
  P  P27  1  0.033880  0.621110  0.808770  1.0  1.5347
  P  P28  1  0.320300  0.360790  0.817850  1.0  1.6288
  P  P29  1  0.961960  0.029040  0.817200  1.0  1.5788
  P  P30  1  0.675400  0.833570  0.813300  1.0  1.6343
  P  P31  1  0.807960  0.881460  0.565990  1.0  1.5519
  P  P32  1  0.737780  0.090810  0.068770  1.0  1.6715
  P  P33  1  0.533880  0.878890  0.308770  1.0  1.5449
  P  P34  1  0.820300  0.139210  0.317850  1.0  1.6288
  P  P35  1  0.538040  0.529040  0.682800  1.0  1.5786
  P  P36  1  0.824600  0.333570  0.686700  1.0  1.6338
  P  P37  1  0.692040  0.381460  0.934010  1.0  1.5422
  P  P38  1  0.762220  0.590810  0.431230  1.0  1.6728
  P  P39  1  0.966120  0.378890  0.191230  1.0  1.5451
  P  P40  1  0.679700  0.639210  0.182150  1.0  1.6267
  H  H41  1  0.028000  0.084000  0.180000  1.0  0.0133
  H  H42  1  0.456000  0.183000  0.199000  1.0  -0.0661
  H  H43  1  0.076000  0.135000  0.431000  1.0  -0.0969
  H  H44  1  0.141000  0.893000  0.917000  1.0  -0.0904
  H  H45  1  0.505000  0.225000  0.701000  1.0  0.048
  H  H46  1  0.052000  0.847000  0.684000  1.0  -0.0871
  H  H47  1  0.309000  0.791200  0.211000  1.0  0.4464
  H  H48  1  0.171000  0.228000  0.705000  1.0  0.4026
  H  H49  1  0.472000  0.584000  0.320000  1.0  0.0119
  H  H50  1  0.044000  0.683000  0.301000  1.0  -0.067
  H  H51  1  0.424000  0.635000  0.069000  1.0  -0.0946
  H  H52  1  0.359000  0.393000  0.583000  1.0  -0.09
  H  H53  1  0.995000  0.725000  0.799000  1.0  0.0479
  H  H54  1  0.448000  0.347000  0.816000  1.0  -0.0887
  H  H55  1  0.191000  0.291200  0.289000  1.0  0.4463
  H  H56  1  0.329000  0.728000  0.795000  1.0  0.4007
  H  H57  1  0.972000  0.916000  0.820000  1.0  0.0122
  H  H58  1  0.544000  0.817000  0.801000  1.0  -0.0672
  H  H59  1  0.924000  0.865000  0.569000  1.0  -0.095
  H  H60  1  0.859000  0.107000  0.083000  1.0  -0.0899
  H  H61  1  0.495000  0.775000  0.299000  1.0  0.0479
  H  H62  1  0.948000  0.153000  0.316000  1.0  -0.0912
  H  H63  1  0.691000  0.208800  0.789000  1.0  0.4467
  H  H64  1  0.829000  0.772000  0.295000  1.0  0.4013
  H  H65  1  0.528000  0.416000  0.680000  1.0  0.0132
  H  H66  1  0.956000  0.317000  0.699000  1.0  -0.0672
  H  H67  1  0.576000  0.365000  0.931000  1.0  -0.0968
  H  H68  1  0.641000  0.607000  0.417000  1.0  -0.0904
  H  H69  1  0.005000  0.275000  0.201000  1.0  0.0482
  H  H70  1  0.552000  0.653000  0.184000  1.0  -0.0897
  H  H71  1  0.809000  0.708800  0.711000  1.0  0.4471
  H  H72  1  0.671000  0.272000  0.205000  1.0  0.4025
  O  O73  1  0.309200  0.866400  0.208290  1.0  -0.9412
  O  O74  1  0.090000  0.946000  0.257900  1.0  -0.8182
  O  O75  1  0.274100  0.115800  0.254340  1.0  -0.8227
  O  O76  1  0.212100  0.015100  0.383410  1.0  -0.8796
  O  O77  1  0.267400  0.285400  0.163300  1.0  -0.8091
  O  O78  1  0.572800  0.045000  0.671700  1.0  -0.7926
  O  O79  1  0.114000  0.924900  0.123060  1.0  -0.8065
  O  O80  1  0.316700  0.076400  0.125800  1.0  -0.8207
  O  O81  1  0.278200  0.950100  0.008370  1.0  -0.8692
  O  O82  1  0.253400  0.234900  0.414080  1.0  -0.8208
  O  O83  1  0.182200  0.152100  0.705160  1.0  -0.9671
  O  O84  1  0.915600  0.917600  0.170370  1.0  -0.8346
  O  O85  1  0.407300  0.072500  0.756650  1.0  -0.822
  O  O86  1  0.233600  0.738800  0.665540  1.0  -0.8174
  O  O87  1  0.306200  0.007800  0.882500  1.0  -0.7745
  O  O88  1  0.215300  0.907800  0.755970  1.0  -0.8104
  O  O89  1  0.382800  0.134600  0.625300  1.0  -0.8287
  O  O90  1  0.229600  0.074400  0.508950  1.0  -0.8214
  O  O91  1  0.323300  0.787900  0.919060  1.0  -0.8237
  O  O92  1  0.209800  0.947200  0.622880  1.0  -0.8109
  O  O93  1  0.190800  0.366400  0.291710  1.0  -0.9415
  O  O94  1  0.410000  0.446000  0.242100  1.0  -0.8183
  O  O95  1  0.225900  0.615800  0.245660  1.0  -0.825
  O  O96  1  0.287900  0.515100  0.116590  1.0  -0.8808
  O  O97  1  0.232600  0.785400  0.336700  1.0  -0.8073
  O  O98  1  0.927200  0.545000  0.828300  1.0  -0.7901
  O  O99  1  0.386000  0.424900  0.376940  1.0  -0.806
  O  O100  1  0.183300  0.576400  0.374200  1.0  -0.8224
  O  O101  1  0.221800  0.450100  0.491630  1.0  -0.8687
  O  O102  1  0.246600  0.734900  0.085920  1.0  -0.8196
  O  O103  1  0.317800  0.652100  0.794840  1.0  -0.9665
  O  O104  1  0.584400  0.417600  0.329630  1.0  -0.8355
  O  O105  1  0.092700  0.572500  0.743350  1.0  -0.8215
  O  O106  1  0.266400  0.238800  0.834460  1.0  -0.8192
  O  O107  1  0.193800  0.507800  0.617500  1.0  -0.7746
  O  O108  1  0.284700  0.407800  0.744030  1.0  -0.8103
  O  O109  1  0.117200  0.634600  0.874700  1.0  -0.8288
  O  O110  1  0.270400  0.574400  0.991050  1.0  -0.821
  O  O111  1  0.176700  0.287900  0.580940  1.0  -0.8268
  O  O112  1  0.290200  0.447200  0.877120  1.0  -0.813
  O  O113  1  0.690800  0.133600  0.791710  1.0  -0.9427
  O  O114  1  0.910000  0.054000  0.742100  1.0  -0.818
  O  O115  1  0.725900  0.884200  0.745660  1.0  -0.8251
  O  O116  1  0.787900  0.984900  0.616590  1.0  -0.8814
  O  O117  1  0.732600  0.714600  0.836700  1.0  -0.8077
  O  O118  1  0.427200  0.955000  0.328300  1.0  -0.7902
  O  O119  1  0.886000  0.075100  0.876940  1.0  -0.8063
  O  O120  1  0.683300  0.923600  0.874200  1.0  -0.8223
  O  O121  1  0.721800  0.049900  0.991630  1.0  -0.8671
  O  O122  1  0.746600  0.765100  0.585920  1.0  -0.8187
  O  O123  1  0.817800  0.847900  0.294840  1.0  -0.9648
  O  O124  1  0.084400  0.082400  0.829630  1.0  -0.835
  O  O125  1  0.592700  0.927500  0.243350  1.0  -0.821
  O  O126  1  0.766400  0.261200  0.334460  1.0  -0.8195
  O  O127  1  0.693800  0.992200  0.117500  1.0  -0.7754
  O  O128  1  0.784700  0.092200  0.244030  1.0  -0.8104
  O  O129  1  0.617200  0.865400  0.374700  1.0  -0.8292
  O  O130  1  0.770400  0.925600  0.491050  1.0  -0.8213
  O  O131  1  0.676700  0.212100  0.080940  1.0  -0.8255
  O  O132  1  0.790200  0.052800  0.377120  1.0  -0.8132
  O  O133  1  0.809200  0.633600  0.708290  1.0  -0.9429
  O  O134  1  0.590000  0.554000  0.757900  1.0  -0.8183
  O  O135  1  0.774100  0.384200  0.754340  1.0  -0.8231
  O  O136  1  0.712100  0.484900  0.883410  1.0  -0.8806
  O  O137  1  0.767400  0.214600  0.663300  1.0  -0.8097
  O  O138  1  0.072800  0.455000  0.171700  1.0  -0.7921
  O  O139  1  0.614000  0.575100  0.623060  1.0  -0.8074
  O  O140  1  0.816700  0.423600  0.625800  1.0  -0.8196
  O  O141  1  0.778200  0.549900  0.508370  1.0  -0.868
  O  O142  1  0.753400  0.265100  0.914080  1.0  -0.8211
  O  O143  1  0.682200  0.347900  0.205160  1.0  -0.9662
  O  O144  1  0.415600  0.582400  0.670370  1.0  -0.8348
  O  O145  1  0.907300  0.427500  0.256650  1.0  -0.8221
  O  O146  1  0.733600  0.761200  0.165540  1.0  -0.8172
  O  O147  1  0.806200  0.492200  0.382500  1.0  -0.7749
  O  O148  1  0.715300  0.592200  0.255970  1.0  -0.8103
  O  O149  1  0.882800  0.365400  0.125300  1.0  -0.8291
  O  O150  1  0.729600  0.425600  0.008950  1.0  -0.8222
  O  O151  1  0.823300  0.712100  0.419060  1.0  -0.8245
  O  O152  1  0.709800  0.552800  0.122880  1.0  -0.8119
