# generated using pymatgen
data_GaPHO3F2
_symmetry_space_group_name_H-M   'P 1'
_cell_length_a   17.84760000
_cell_length_b   17.84760000
_cell_length_c   13.51590000
_cell_angle_alpha   90.00000000
_cell_angle_beta   90.00000000
_cell_angle_gamma   120.00000000
_symmetry_Int_Tables_number   1
_chemical_formula_structural   GaPHO3F2
_chemical_formula_sum   'Ga18 P18 H18 O54 F36'
_cell_volume   3728.50946214
_cell_formula_units_Z   18
loop_
 _symmetry_equiv_pos_site_id
 _symmetry_equiv_pos_as_xyz
  1  'x, y, z'
loop_
 _atom_site_type_symbol
 _atom_site_label
 _atom_site_symmetry_multiplicity
 _atom_site_fract_x
 _atom_site_fract_y
 _atom_site_fract_z
 _atom_site_occupancy
 _atom_site_charge
  Ga  Ga1  1  0.874830  0.641200  0.586020  1.0  1.5927
  Ga  Ga2  1  0.541500  0.974530  0.919350  1.0  1.5927
  Ga  Ga3  1  0.208160  0.307870  0.252690  1.0  1.5927
  Ga  Ga4  1  0.358800  0.233630  0.586020  1.0  1.5927
  Ga  Ga5  1  0.025470  0.566960  0.919350  1.0  1.5927
  Ga  Ga6  1  0.692130  0.900300  0.252690  1.0  1.5932
  Ga  Ga7  1  0.766370  0.125170  0.586020  1.0  1.5921
  Ga  Ga8  1  0.433040  0.458500  0.919350  1.0  1.5921
  Ga  Ga9  1  0.099700  0.791840  0.252690  1.0  1.592
  Ga  Ga10  1  0.125170  0.358800  0.413980  1.0  1.593
  Ga  Ga11  1  0.791840  0.692130  0.747310  1.0  1.593
  Ga  Ga12  1  0.458500  0.025470  0.080650  1.0  1.5929
  Ga  Ga13  1  0.641200  0.766370  0.413980  1.0  1.5918
  Ga  Ga14  1  0.307870  0.099700  0.747310  1.0  1.5923
  Ga  Ga15  1  0.974530  0.433040  0.080650  1.0  1.5917
  Ga  Ga16  1  0.233630  0.874830  0.413980  1.0  1.593
  Ga  Ga17  1  0.900300  0.208160  0.747310  1.0  1.5928
  Ga  Ga18  1  0.566960  0.541500  0.080650  1.0  1.5929
  P  P19  1  0.887010  0.590550  0.804210  1.0  1.6899
  P  P20  1  0.553680  0.923880  0.137540  1.0  1.6899
  P  P21  1  0.220340  0.257220  0.470880  1.0  1.6899
  P  P22  1  0.409450  0.296460  0.804210  1.0  1.6869
  P  P23  1  0.076120  0.629790  0.137540  1.0  1.6869
  P  P24  1  0.742780  0.963130  0.470880  1.0  1.6869
  P  P25  1  0.703540  0.112990  0.804210  1.0  1.6862
  P  P26  1  0.370210  0.446320  0.137540  1.0  1.6862
  P  P27  1  0.036870  0.779660  0.470880  1.0  1.6862
  P  P28  1  0.112990  0.409450  0.195790  1.0  1.6908
  P  P29  1  0.779660  0.742780  0.529120  1.0  1.6908
  P  P30  1  0.446320  0.076120  0.862460  1.0  1.6908
  P  P31  1  0.590550  0.703540  0.195790  1.0  1.685
  P  P32  1  0.257220  0.036870  0.529120  1.0  1.685
  P  P33  1  0.923880  0.370210  0.862460  1.0  1.685
  P  P34  1  0.296460  0.887010  0.195790  1.0  1.6861
  P  P35  1  0.963130  0.220340  0.529120  1.0  1.6861
  P  P36  1  0.629790  0.553680  0.862460  1.0  1.6861
  H  H37  1  0.831000  0.501000  0.828000  1.0  -0.0696
  H  H38  1  0.497670  0.834330  0.161330  1.0  -0.0696
  H  H39  1  0.164330  0.167670  0.494670  1.0  -0.0697
  H  H40  1  0.499000  0.330000  0.828000  1.0  -0.0708
  H  H41  1  0.165670  0.663330  0.161330  1.0  -0.0708
  H  H42  1  0.832330  0.996670  0.494670  1.0  -0.0671
  H  H43  1  0.670000  0.169000  0.828000  1.0  -0.0674
  H  H44  1  0.336670  0.502330  0.161330  1.0  -0.0675
  H  H45  1  0.003330  0.835670  0.494670  1.0  -0.071
  H  H46  1  0.169000  0.499000  0.172000  1.0  -0.0692
  H  H47  1  0.835670  0.832330  0.505330  1.0  -0.0692
  H  H48  1  0.502330  0.165670  0.838670  1.0  -0.0692
  H  H49  1  0.501000  0.670000  0.172000  1.0  -0.0718
  H  H50  1  0.167670  0.003330  0.505330  1.0  -0.0685
  H  H51  1  0.834330  0.336670  0.838670  1.0  -0.0718
  H  H52  1  0.330000  0.831000  0.172000  1.0  -0.0685
  H  H53  1  0.996670  0.164330  0.505330  1.0  -0.0717
  H  H54  1  0.663330  0.497670  0.838670  1.0  -0.0686
  O  O55  1  0.908800  0.593700  0.694800  1.0  -0.7565
  O  O56  1  0.968300  0.625100  0.867800  1.0  -0.7654
  O  O57  1  0.839100  0.638100  0.833000  1.0  -0.784
  O  O58  1  0.575470  0.927030  0.028130  1.0  -0.7568
  O  O59  1  0.634970  0.958430  0.201130  1.0  -0.7655
  O  O60  1  0.505770  0.971430  0.166330  1.0  -0.7838
  O  O61  1  0.242130  0.260370  0.361470  1.0  -0.7565
  O  O62  1  0.301630  0.291770  0.534470  1.0  -0.7655
  O  O63  1  0.172430  0.304770  0.499670  1.0  -0.784
  O  O64  1  0.406300  0.315100  0.694800  1.0  -0.7578
  O  O65  1  0.374900  0.343200  0.867800  1.0  -0.7648
  O  O66  1  0.361900  0.201000  0.833000  1.0  -0.7829
  O  O67  1  0.072970  0.648430  0.028130  1.0  -0.7578
  O  O68  1  0.041570  0.676530  0.201130  1.0  -0.7648
  O  O69  1  0.028570  0.534330  0.166330  1.0  -0.783
  O  O70  1  0.739630  0.981770  0.361470  1.0  -0.7577
  O  O71  1  0.708230  0.009870  0.534470  1.0  -0.7649
  O  O72  1  0.695230  0.867670  0.499670  1.0  -0.7829
  O  O73  1  0.684900  0.091200  0.694800  1.0  -0.7541
  O  O74  1  0.656800  0.031700  0.867800  1.0  -0.7634
  O  O75  1  0.799000  0.160900  0.833000  1.0  -0.7813
  O  O76  1  0.351570  0.424530  0.028130  1.0  -0.7535
  O  O77  1  0.323470  0.365030  0.201130  1.0  -0.7635
  O  O78  1  0.465670  0.494230  0.166330  1.0  -0.7813
  O  O79  1  0.018230  0.757870  0.361470  1.0  -0.7535
  O  O80  1  0.990130  0.698370  0.534470  1.0  -0.7633
  O  O81  1  0.132330  0.827570  0.499670  1.0  -0.7813
  O  O82  1  0.091200  0.406300  0.305200  1.0  -0.7539
  O  O83  1  0.031700  0.374900  0.132200  1.0  -0.7669
  O  O84  1  0.160900  0.361900  0.167000  1.0  -0.7865
  O  O85  1  0.757870  0.739630  0.638530  1.0  -0.7539
  O  O86  1  0.698370  0.708230  0.465530  1.0  -0.7669
  O  O87  1  0.827570  0.695230  0.500330  1.0  -0.7865
  O  O88  1  0.424530  0.072970  0.971870  1.0  -0.7544
  O  O89  1  0.365030  0.041570  0.798870  1.0  -0.767
  O  O90  1  0.494230  0.028570  0.833670  1.0  -0.7863
  O  O91  1  0.593700  0.684900  0.305200  1.0  -0.7571
  O  O92  1  0.625100  0.656800  0.132200  1.0  -0.7644
  O  O93  1  0.638100  0.799000  0.167000  1.0  -0.7849
  O  O94  1  0.260370  0.018230  0.638530  1.0  -0.757
  O  O95  1  0.291770  0.990130  0.465530  1.0  -0.7646
  O  O96  1  0.304770  0.132330  0.500330  1.0  -0.7849
  O  O97  1  0.927030  0.351570  0.971870  1.0  -0.7571
  O  O98  1  0.958430  0.323470  0.798870  1.0  -0.7645
  O  O99  1  0.971430  0.465670  0.833670  1.0  -0.785
  O  O100  1  0.315100  0.908800  0.305200  1.0  -0.7561
  O  O101  1  0.343200  0.968300  0.132200  1.0  -0.7632
  O  O102  1  0.201000  0.839100  0.167000  1.0  -0.7851
  O  O103  1  0.981770  0.242130  0.638530  1.0  -0.7556
  O  O104  1  0.009870  0.301630  0.465530  1.0  -0.7632
  O  O105  1  0.867670  0.172430  0.500330  1.0  -0.7852
  O  O106  1  0.648430  0.575470  0.971870  1.0  -0.7556
  O  O107  1  0.676530  0.634970  0.798870  1.0  -0.7633
  O  O108  1  0.534330  0.505770  0.833670  1.0  -0.7852
  F  F109  1  0.763490  0.593560  0.655660  1.0  -0.5474
  F  F110  1  0.838560  0.545410  0.505600  1.0  -0.3573
  F  F111  1  0.430160  0.926890  0.988990  1.0  -0.5472
  F  F112  1  0.505230  0.878740  0.838930  1.0  -0.3573
  F  F113  1  0.096820  0.260230  0.322330  1.0  -0.5474
  F  F114  1  0.171890  0.212080  0.172270  1.0  -0.3573
  F  F115  1  0.406440  0.169930  0.655660  1.0  -0.5514
  F  F116  1  0.454590  0.293150  0.505600  1.0  -0.3501
  F  F117  1  0.073110  0.503260  0.988990  1.0  -0.5513
  F  F118  1  0.121260  0.626480  0.838930  1.0  -0.3501
  F  F119  1  0.739770  0.836600  0.322330  1.0  -0.5514
  F  F120  1  0.787920  0.959820  0.172270  1.0  -0.3589
  F  F121  1  0.830070  0.236510  0.655660  1.0  -0.5505
  F  F122  1  0.706850  0.161440  0.505600  1.0  -0.3604
  F  F123  1  0.496740  0.569840  0.988990  1.0  -0.5507
  F  F124  1  0.373520  0.494770  0.838930  1.0  -0.3604
  F  F125  1  0.163400  0.903180  0.322330  1.0  -0.5507
  F  F126  1  0.040180  0.828110  0.172270  1.0  -0.3527
  F  F127  1  0.236510  0.406440  0.344340  1.0  -0.5471
  F  F128  1  0.161440  0.454590  0.494400  1.0  -0.3587
  F  F129  1  0.903180  0.739770  0.677670  1.0  -0.5471
  F  F130  1  0.828110  0.787920  0.827730  1.0  -0.3587
  F  F131  1  0.569840  0.073110  0.011010  1.0  -0.5469
  F  F132  1  0.494770  0.121260  0.161070  1.0  -0.3587
  F  F133  1  0.593560  0.830070  0.344340  1.0  -0.5486
  F  F134  1  0.545410  0.706850  0.494400  1.0  -0.3485
  F  F135  1  0.260230  0.163400  0.677670  1.0  -0.5486
  F  F136  1  0.212080  0.040180  0.827730  1.0  -0.3582
  F  F137  1  0.926890  0.496740  0.011010  1.0  -0.5486
  F  F138  1  0.878740  0.373520  0.161070  1.0  -0.3485
  F  F139  1  0.169930  0.763490  0.344340  1.0  -0.551
  F  F140  1  0.293150  0.838560  0.494400  1.0  -0.3631
  F  F141  1  0.836600  0.096820  0.677670  1.0  -0.5512
  F  F142  1  0.959820  0.171890  0.827730  1.0  -0.3546
  F  F143  1  0.503260  0.430160  0.011010  1.0  -0.5512
  F  F144  1  0.626480  0.505230  0.161070  1.0  -0.3631
