# generated using pymatgen
data_Y2H22C42N4O15
_symmetry_space_group_name_H-M   'P 1'
_cell_length_a   28.96030000
_cell_length_b   28.96030000
_cell_length_c   10.50230000
_cell_angle_alpha   90.00000000
_cell_angle_beta   90.00000000
_cell_angle_gamma   90.00000000
_symmetry_Int_Tables_number   1
_chemical_formula_structural   Y2H22C42N4O15
_chemical_formula_sum   'Y16 H176 C336 N32 O120'
_cell_volume   8808.26825659
_cell_formula_units_Z   8
loop_
 _symmetry_equiv_pos_site_id
 _symmetry_equiv_pos_as_xyz
  1  'x, y, z'
loop_
 _atom_site_type_symbol
 _atom_site_label
 _atom_site_symmetry_multiplicity
 _atom_site_fract_x
 _atom_site_fract_y
 _atom_site_fract_z
 _atom_site_occupancy
 _atom_site_charge
  Y  Y1  1  0.891170  0.183310  0.214660  1.0  2.034
  Y  Y2  1  0.391170  0.683310  0.714660  1.0  2.034
  Y  Y3  1  0.108830  0.816690  0.214660  1.0  2.0342
  Y  Y4  1  0.608830  0.316690  0.714660  1.0  2.0342
  Y  Y5  1  0.183310  0.108830  0.785340  1.0  2.0367
  Y  Y6  1  0.683310  0.608830  0.285340  1.0  2.0367
  Y  Y7  1  0.816690  0.891170  0.785340  1.0  2.0361
  Y  Y8  1  0.316690  0.391170  0.285340  1.0  2.0361
  Y  Y9  1  0.608830  0.183310  0.535340  1.0  2.035
  Y  Y10  1  0.108830  0.683310  0.035340  1.0  2.035
  Y  Y11  1  0.391170  0.816690  0.535340  1.0  2.035
  Y  Y12  1  0.891170  0.316690  0.035340  1.0  2.035
  Y  Y13  1  0.316690  0.108830  0.964660  1.0  2.0358
  Y  Y14  1  0.816690  0.608830  0.464660  1.0  2.0358
  Y  Y15  1  0.683310  0.891170  0.964660  1.0  2.0365
  Y  Y16  1  0.183310  0.391170  0.464660  1.0  2.0365
  H  H17  1  0.007900  0.216800  0.417500  1.0  0.1191
  H  H18  1  0.083700  0.248600  0.507100  1.0  0.1176
  H  H19  1  0.787900  0.131600  0.937300  1.0  0.1313
  H  H20  1  0.989000  0.123000  0.160300  1.0  0.0836
  H  H21  1  0.052800  0.087300  0.255200  1.0  0.1088
  H  H22  1  0.058500  0.084700  0.475600  1.0  0.1078
  H  H23  1  0.022700  0.104600  0.692800  1.0  0.1058
  H  H24  1  0.961700  0.131000  0.805800  1.0  0.1022
  H  H25  1  0.882500  0.168800  0.810200  1.0  0.1089
  H  H26  1  0.820600  0.196900  0.696700  1.0  0.1029
  H  H27  1  0.825300  0.203100  0.476400  1.0  0.087
  H  H28  1  0.507900  0.716800  0.917500  1.0  0.1191
  H  H29  1  0.583700  0.748600  0.007100  1.0  0.1176
  H  H30  1  0.287900  0.631600  0.437300  1.0  0.1313
  H  H31  1  0.489000  0.623000  0.660300  1.0  0.0836
  H  H32  1  0.552800  0.587300  0.755200  1.0  0.1088
  H  H33  1  0.558500  0.584700  0.975600  1.0  0.1078
  H  H34  1  0.522700  0.604600  0.192800  1.0  0.1058
  H  H35  1  0.461700  0.631000  0.305800  1.0  0.1022
  H  H36  1  0.382500  0.668800  0.310200  1.0  0.1089
  H  H37  1  0.320600  0.696900  0.196700  1.0  0.1029
  H  H38  1  0.325300  0.703100  0.976400  1.0  0.087
  H  H39  1  0.992100  0.783200  0.417500  1.0  0.1195
  H  H40  1  0.916300  0.751400  0.507100  1.0  0.1164
  H  H41  1  0.212100  0.868400  0.937300  1.0  0.1319
  H  H42  1  0.011000  0.877000  0.160300  1.0  0.084
  H  H43  1  0.947200  0.912700  0.255200  1.0  0.1085
  H  H44  1  0.941500  0.915300  0.475600  1.0  0.1075
  H  H45  1  0.977300  0.895400  0.692800  1.0  0.1056
  H  H46  1  0.038300  0.869000  0.805800  1.0  0.1022
  H  H47  1  0.117500  0.831200  0.810200  1.0  0.1086
  H  H48  1  0.179400  0.803100  0.696700  1.0  0.1032
  H  H49  1  0.174700  0.796900  0.476400  1.0  0.0869
  H  H50  1  0.492100  0.283200  0.917500  1.0  0.1195
  H  H51  1  0.416300  0.251400  0.007100  1.0  0.1164
  H  H52  1  0.712100  0.368400  0.437300  1.0  0.1319
  H  H53  1  0.511000  0.377000  0.660300  1.0  0.084
  H  H54  1  0.447200  0.412700  0.755200  1.0  0.1085
  H  H55  1  0.441500  0.415300  0.975600  1.0  0.1075
  H  H56  1  0.477300  0.395400  0.192800  1.0  0.1056
  H  H57  1  0.538300  0.369000  0.305800  1.0  0.1022
  H  H58  1  0.617500  0.331200  0.310200  1.0  0.1086
  H  H59  1  0.679400  0.303100  0.196700  1.0  0.1032
  H  H60  1  0.674700  0.296900  0.976400  1.0  0.0869
  H  H61  1  0.216800  0.992100  0.582500  1.0  0.1195
  H  H62  1  0.248600  0.916300  0.492900  1.0  0.1169
  H  H63  1  0.131600  0.212100  0.062700  1.0  0.1315
  H  H64  1  0.123000  0.011000  0.839700  1.0  0.0833
  H  H65  1  0.087300  0.947200  0.744800  1.0  0.109
  H  H66  1  0.084700  0.941500  0.524400  1.0  0.1083
  H  H67  1  0.104600  0.977300  0.307200  1.0  0.105
  H  H68  1  0.131000  0.038300  0.194200  1.0  0.1036
  H  H69  1  0.168800  0.117500  0.189800  1.0  0.1089
  H  H70  1  0.196900  0.179400  0.303300  1.0  0.1026
  H  H71  1  0.203100  0.174700  0.523600  1.0  0.0869
  H  H72  1  0.716800  0.492100  0.082500  1.0  0.1195
  H  H73  1  0.748600  0.416300  0.992900  1.0  0.1169
  H  H74  1  0.631600  0.712100  0.562700  1.0  0.1315
  H  H75  1  0.623000  0.511000  0.339700  1.0  0.0833
  H  H76  1  0.587300  0.447200  0.244800  1.0  0.109
  H  H77  1  0.584700  0.441500  0.024400  1.0  0.1083
  H  H78  1  0.604600  0.477300  0.807200  1.0  0.105
  H  H79  1  0.631000  0.538300  0.694200  1.0  0.1036
  H  H80  1  0.668800  0.617500  0.689800  1.0  0.1089
  H  H81  1  0.696900  0.679400  0.803300  1.0  0.1026
  H  H82  1  0.703100  0.674700  0.023600  1.0  0.0869
  H  H83  1  0.783200  0.007900  0.582500  1.0  0.1199
  H  H84  1  0.751400  0.083700  0.492900  1.0  0.1176
  H  H85  1  0.868400  0.787900  0.062700  1.0  0.1315
  H  H86  1  0.877000  0.989000  0.839700  1.0  0.0835
  H  H87  1  0.912700  0.052800  0.744800  1.0  0.1083
  H  H88  1  0.915300  0.058500  0.524400  1.0  0.1081
  H  H89  1  0.895400  0.022700  0.307200  1.0  0.1052
  H  H90  1  0.869000  0.961700  0.194200  1.0  0.1033
  H  H91  1  0.831200  0.882500  0.189800  1.0  0.1088
  H  H92  1  0.803100  0.820600  0.303300  1.0  0.1024
  H  H93  1  0.796900  0.825300  0.523600  1.0  0.0873
  H  H94  1  0.283200  0.507900  0.082500  1.0  0.1199
  H  H95  1  0.251400  0.583700  0.992900  1.0  0.1176
  H  H96  1  0.368400  0.287900  0.562700  1.0  0.1315
  H  H97  1  0.377000  0.489000  0.339700  1.0  0.0835
  H  H98  1  0.412700  0.552800  0.244800  1.0  0.1083
  H  H99  1  0.415300  0.558500  0.024400  1.0  0.1081
  H  H100  1  0.395400  0.522700  0.807200  1.0  0.1052
  H  H101  1  0.369000  0.461700  0.694200  1.0  0.1033
  H  H102  1  0.331200  0.382500  0.689800  1.0  0.1088
  H  H103  1  0.303100  0.320600  0.803300  1.0  0.1024
  H  H104  1  0.296900  0.325300  0.023600  1.0  0.0873
  H  H105  1  0.492100  0.216800  0.332500  1.0  0.1189
  H  H106  1  0.416300  0.248600  0.242900  1.0  0.1169
  H  H107  1  0.712100  0.131600  0.812700  1.0  0.1316
  H  H108  1  0.511000  0.123000  0.589700  1.0  0.0832
  H  H109  1  0.447200  0.087300  0.494800  1.0  0.1083
  H  H110  1  0.441500  0.084700  0.274400  1.0  0.1078
  H  H111  1  0.477300  0.104600  0.057200  1.0  0.1054
  H  H112  1  0.538300  0.131000  0.944200  1.0  0.1029
  H  H113  1  0.617500  0.168800  0.939800  1.0  0.1087
  H  H114  1  0.679400  0.196900  0.053300  1.0  0.1026
  H  H115  1  0.674700  0.203100  0.273600  1.0  0.0863
  H  H116  1  0.992100  0.716800  0.832500  1.0  0.1189
  H  H117  1  0.916300  0.748600  0.742900  1.0  0.1169
  H  H118  1  0.212100  0.631600  0.312700  1.0  0.1316
  H  H119  1  0.011000  0.623000  0.089700  1.0  0.0832
  H  H120  1  0.947200  0.587300  0.994800  1.0  0.1083
  H  H121  1  0.941500  0.584700  0.774400  1.0  0.1078
  H  H122  1  0.977300  0.604600  0.557200  1.0  0.1054
  H  H123  1  0.038300  0.631000  0.444200  1.0  0.1029
  H  H124  1  0.117500  0.668800  0.439800  1.0  0.1087
  H  H125  1  0.179400  0.696900  0.553300  1.0  0.1026
  H  H126  1  0.174700  0.703100  0.773600  1.0  0.0863
  H  H127  1  0.507900  0.783200  0.332500  1.0  0.1196
  H  H128  1  0.583700  0.751400  0.242900  1.0  0.1172
  H  H129  1  0.287900  0.868400  0.812700  1.0  0.1317
  H  H130  1  0.489000  0.877000  0.589700  1.0  0.0834
  H  H131  1  0.552800  0.912700  0.494800  1.0  0.1077
  H  H132  1  0.558500  0.915300  0.274400  1.0  0.1078
  H  H133  1  0.522700  0.895400  0.057200  1.0  0.1053
  H  H134  1  0.461700  0.869000  0.944200  1.0  0.1029
  H  H135  1  0.382500  0.831200  0.939800  1.0  0.1087
  H  H136  1  0.320600  0.803100  0.053300  1.0  0.1029
  H  H137  1  0.325300  0.796900  0.273600  1.0  0.0872
  H  H138  1  0.007900  0.283200  0.832500  1.0  0.1196
  H  H139  1  0.083700  0.251400  0.742900  1.0  0.1172
  H  H140  1  0.787900  0.368400  0.312700  1.0  0.1317
  H  H141  1  0.989000  0.377000  0.089700  1.0  0.0834
  H  H142  1  0.052800  0.412700  0.994800  1.0  0.1077
  H  H143  1  0.058500  0.415300  0.774400  1.0  0.1078
  H  H144  1  0.022700  0.395400  0.557200  1.0  0.1053
  H  H145  1  0.961700  0.369000  0.444200  1.0  0.1029
  H  H146  1  0.882500  0.331200  0.439800  1.0  0.1087
  H  H147  1  0.820600  0.303100  0.553300  1.0  0.1029
  H  H148  1  0.825300  0.296900  0.773600  1.0  0.0872
  H  H149  1  0.283200  0.992100  0.167500  1.0  0.1198
  H  H150  1  0.251400  0.916300  0.257100  1.0  0.1178
  H  H151  1  0.368400  0.212100  0.687300  1.0  0.1317
  H  H152  1  0.377000  0.011000  0.910300  1.0  0.0842
  H  H153  1  0.412700  0.947200  0.005200  1.0  0.1089
  H  H154  1  0.415300  0.941500  0.225600  1.0  0.108
  H  H155  1  0.395400  0.977300  0.442800  1.0  0.1052
  H  H156  1  0.369000  0.038300  0.555800  1.0  0.1024
  H  H157  1  0.331200  0.117500  0.560200  1.0  0.1087
  H  H158  1  0.303100  0.179400  0.446700  1.0  0.103
  H  H159  1  0.296900  0.174700  0.226400  1.0  0.0876
  H  H160  1  0.783200  0.492100  0.667500  1.0  0.1198
  H  H161  1  0.751400  0.416300  0.757100  1.0  0.1178
  H  H162  1  0.868400  0.712100  0.187300  1.0  0.1317
  H  H163  1  0.877000  0.511000  0.410300  1.0  0.0842
  H  H164  1  0.912700  0.447200  0.505200  1.0  0.1089
  H  H165  1  0.915300  0.441500  0.725600  1.0  0.108
  H  H166  1  0.895400  0.477300  0.942800  1.0  0.1052
  H  H167  1  0.869000  0.538300  0.055800  1.0  0.1024
  H  H168  1  0.831200  0.617500  0.060200  1.0  0.1087
  H  H169  1  0.803100  0.679400  0.946700  1.0  0.103
  H  H170  1  0.796900  0.674700  0.726400  1.0  0.0876
  H  H171  1  0.716800  0.007900  0.167500  1.0  0.1198
  H  H172  1  0.748600  0.083700  0.257100  1.0  0.1167
  H  H173  1  0.631600  0.787900  0.687300  1.0  0.1314
  H  H174  1  0.623000  0.989000  0.910300  1.0  0.084
  H  H175  1  0.587300  0.052800  0.005200  1.0  0.1091
  H  H176  1  0.584700  0.058500  0.225600  1.0  0.1078
  H  H177  1  0.604600  0.022700  0.442800  1.0  0.1055
  H  H178  1  0.631000  0.961700  0.555800  1.0  0.1027
  H  H179  1  0.668800  0.882500  0.560200  1.0  0.1094
  H  H180  1  0.696900  0.820600  0.446700  1.0  0.103
  H  H181  1  0.703100  0.825300  0.226400  1.0  0.0869
  H  H182  1  0.216800  0.507900  0.667500  1.0  0.1198
  H  H183  1  0.248600  0.583700  0.757100  1.0  0.1167
  H  H184  1  0.131600  0.287900  0.187300  1.0  0.1314
  H  H185  1  0.123000  0.489000  0.410300  1.0  0.084
  H  H186  1  0.087300  0.552800  0.505200  1.0  0.1091
  H  H187  1  0.084700  0.558500  0.725600  1.0  0.1078
  H  H188  1  0.104600  0.522700  0.942800  1.0  0.1055
  H  H189  1  0.131000  0.461700  0.055800  1.0  0.1027
  H  H190  1  0.168800  0.382500  0.060200  1.0  0.1094
  H  H191  1  0.196900  0.320600  0.946700  1.0  0.103
  H  H192  1  0.203100  0.325300  0.726400  1.0  0.0869
  C  C193  1  0.958070  0.281720  0.258900  1.0  0.6762
  C  C194  1  0.001510  0.281000  0.333200  1.0  0.0728
  C  C195  1  0.020350  0.246710  0.403800  1.0  -0.1489
  C  C196  1  0.062460  0.264470  0.453600  1.0  -0.1693
  C  C197  1  0.066470  0.307700  0.410700  1.0  0.0993
  C  C198  1  0.102040  0.342310  0.435300  1.0  0.6706
  C  C199  1  0.824720  0.222980  0.983800  1.0  0.679
  C  C200  1  0.782870  0.202730  0.925900  1.0  0.1027
  C  C201  1  0.771100  0.157880  0.909000  1.0  -0.1677
  C  C202  1  0.990840  0.121950  0.250600  1.0  0.1541
  C  C203  1  0.029400  0.100500  0.306800  1.0  -0.1248
  C  C204  1  0.032600  0.099000  0.436400  1.0  -0.0015
  C  C205  1  0.997680  0.118360  0.511400  1.0  0.025
  C  C206  1  0.997000  0.117250  0.648700  1.0  -0.1368
  C  C207  1  0.961330  0.133510  0.715600  1.0  -0.1751
  C  C208  1  0.923100  0.154370  0.655000  1.0  0.035
  C  C209  1  0.883800  0.170120  0.719900  1.0  -0.0321
  C  C210  1  0.847800  0.187100  0.653700  1.0  -0.1167
  C  C211  1  0.850700  0.190250  0.521100  1.0  0.1696
  C  C212  1  0.922550  0.157210  0.519400  1.0  0.1205
  C  C213  1  0.960300  0.138820  0.447200  1.0  0.1612
  C  C214  1  0.458070  0.781720  0.758900  1.0  0.6762
  C  C215  1  0.501510  0.781000  0.833200  1.0  0.0728
  C  C216  1  0.520350  0.746710  0.903800  1.0  -0.1489
  C  C217  1  0.562460  0.764470  0.953600  1.0  -0.1693
  C  C218  1  0.566470  0.807700  0.910700  1.0  0.0993
  C  C219  1  0.602040  0.842310  0.935300  1.0  0.6706
  C  C220  1  0.324720  0.722980  0.483800  1.0  0.679
  C  C221  1  0.282870  0.702730  0.425900  1.0  0.1027
  C  C222  1  0.271100  0.657880  0.409000  1.0  -0.1677
  C  C223  1  0.490840  0.621950  0.750600  1.0  0.1541
  C  C224  1  0.529400  0.600500  0.806800  1.0  -0.1248
  C  C225  1  0.532600  0.599000  0.936400  1.0  -0.0015
  C  C226  1  0.497680  0.618360  0.011400  1.0  0.025
  C  C227  1  0.497000  0.617250  0.148700  1.0  -0.1368
  C  C228  1  0.461330  0.633510  0.215600  1.0  -0.1751
  C  C229  1  0.423100  0.654370  0.155000  1.0  0.035
  C  C230  1  0.383800  0.670120  0.219900  1.0  -0.0321
  C  C231  1  0.347800  0.687100  0.153700  1.0  -0.1167
  C  C232  1  0.350700  0.690250  0.021100  1.0  0.1696
  C  C233  1  0.422550  0.657210  0.019400  1.0  0.1205
  C  C234  1  0.460300  0.638820  0.947200  1.0  0.1612
  C  C235  1  0.041930  0.718280  0.258900  1.0  0.6755
  C  C236  1  0.998490  0.719000  0.333200  1.0  0.0739
  C  C237  1  0.979650  0.753290  0.403800  1.0  -0.1477
  C  C238  1  0.937540  0.735530  0.453600  1.0  -0.1708
  C  C239  1  0.933530  0.692300  0.410700  1.0  0.0986
  C  C240  1  0.897960  0.657690  0.435300  1.0  0.6703
  C  C241  1  0.175280  0.777020  0.983800  1.0  0.6793
  C  C242  1  0.217130  0.797270  0.925900  1.0  0.1029
  C  C243  1  0.228900  0.842120  0.909000  1.0  -0.1675
  C  C244  1  0.009160  0.878050  0.250600  1.0  0.1532
  C  C245  1  0.970600  0.899500  0.306800  1.0  -0.1249
  C  C246  1  0.967400  0.901000  0.436400  1.0  -0.0023
  C  C247  1  0.002320  0.881640  0.511400  1.0  0.0252
  C  C248  1  0.003000  0.882750  0.648700  1.0  -0.1381
  C  C249  1  0.038670  0.866490  0.715600  1.0  -0.1746
  C  C250  1  0.076900  0.845630  0.655000  1.0  0.0349
  C  C251  1  0.116200  0.829880  0.719900  1.0  -0.0303
  C  C252  1  0.152200  0.812900  0.653700  1.0  -0.1154
  C  C253  1  0.149300  0.809750  0.521100  1.0  0.1697
  C  C254  1  0.077450  0.842790  0.519400  1.0  0.1202
  C  C255  1  0.039700  0.861180  0.447200  1.0  0.1608
  C  C256  1  0.541930  0.218280  0.758900  1.0  0.6755
  C  C257  1  0.498490  0.219000  0.833200  1.0  0.0739
  C  C258  1  0.479650  0.253290  0.903800  1.0  -0.1477
  C  C259  1  0.437540  0.235530  0.953600  1.0  -0.1708
  C  C260  1  0.433530  0.192300  0.910700  1.0  0.0986
  C  C261  1  0.397960  0.157690  0.935300  1.0  0.6703
  C  C262  1  0.675280  0.277020  0.483800  1.0  0.6793
  C  C263  1  0.717130  0.297270  0.425900  1.0  0.1029
  C  C264  1  0.728900  0.342120  0.409000  1.0  -0.1675
  C  C265  1  0.509160  0.378050  0.750600  1.0  0.1532
  C  C266  1  0.470600  0.399500  0.806800  1.0  -0.1249
  C  C267  1  0.467400  0.401000  0.936400  1.0  -0.0023
  C  C268  1  0.502320  0.381640  0.011400  1.0  0.0252
  C  C269  1  0.503000  0.382750  0.148700  1.0  -0.1381
  C  C270  1  0.538670  0.366490  0.215600  1.0  -0.1746
  C  C271  1  0.576900  0.345630  0.155000  1.0  0.0349
  C  C272  1  0.616200  0.329880  0.219900  1.0  -0.0303
  C  C273  1  0.652200  0.312900  0.153700  1.0  -0.1154
  C  C274  1  0.649300  0.309750  0.021100  1.0  0.1697
  C  C275  1  0.577450  0.342790  0.019400  1.0  0.1202
  C  C276  1  0.539700  0.361180  0.947200  1.0  0.1608
  C  C277  1  0.281720  0.041930  0.741100  1.0  0.6779
  C  C278  1  0.281000  0.998490  0.666800  1.0  0.0727
  C  C279  1  0.246710  0.979650  0.596200  1.0  -0.1476
  C  C280  1  0.264470  0.937540  0.546400  1.0  -0.1716
  C  C281  1  0.307700  0.933530  0.589300  1.0  0.1001
  C  C282  1  0.342310  0.897960  0.564700  1.0  0.6704
  C  C283  1  0.222980  0.175280  0.016200  1.0  0.6842
  C  C284  1  0.202730  0.217130  0.074100  1.0  0.1033
  C  C285  1  0.157880  0.228900  0.091000  1.0  -0.1652
  C  C286  1  0.121950  0.009160  0.749400  1.0  0.1529
  C  C287  1  0.100500  0.970600  0.693200  1.0  -0.1273
  C  C288  1  0.099000  0.967400  0.563600  1.0  -0.0045
  C  C289  1  0.118360  0.002320  0.488600  1.0  0.025
  C  C290  1  0.117250  0.003000  0.351300  1.0  -0.1377
  C  C291  1  0.133510  0.038670  0.284400  1.0  -0.1736
  C  C292  1  0.154370  0.076900  0.345000  1.0  0.0328
  C  C293  1  0.170120  0.116200  0.280100  1.0  -0.0312
  C  C294  1  0.187100  0.152200  0.346300  1.0  -0.1151
  C  C295  1  0.190250  0.149300  0.478900  1.0  0.1692
  C  C296  1  0.157210  0.077450  0.480600  1.0  0.1202
  C  C297  1  0.138820  0.039700  0.552800  1.0  0.1607
  C  C298  1  0.781720  0.541930  0.241100  1.0  0.6779
  C  C299  1  0.781000  0.498490  0.166800  1.0  0.0727
  C  C300  1  0.746710  0.479650  0.096200  1.0  -0.1476
  C  C301  1  0.764470  0.437540  0.046400  1.0  -0.1716
  C  C302  1  0.807700  0.433530  0.089300  1.0  0.1001
  C  C303  1  0.842310  0.397960  0.064700  1.0  0.6704
  C  C304  1  0.722980  0.675280  0.516200  1.0  0.6842
  C  C305  1  0.702730  0.717130  0.574100  1.0  0.1033
  C  C306  1  0.657880  0.728900  0.591000  1.0  -0.1652
  C  C307  1  0.621950  0.509160  0.249400  1.0  0.1529
  C  C308  1  0.600500  0.470600  0.193200  1.0  -0.1273
  C  C309  1  0.599000  0.467400  0.063600  1.0  -0.0045
  C  C310  1  0.618360  0.502320  0.988600  1.0  0.025
  C  C311  1  0.617250  0.503000  0.851300  1.0  -0.1377
  C  C312  1  0.633510  0.538670  0.784400  1.0  -0.1736
  C  C313  1  0.654370  0.576900  0.845000  1.0  0.0328
  C  C314  1  0.670120  0.616200  0.780100  1.0  -0.0312
  C  C315  1  0.687100  0.652200  0.846300  1.0  -0.1151
  C  C316  1  0.690250  0.649300  0.978900  1.0  0.1692
  C  C317  1  0.657210  0.577450  0.980600  1.0  0.1202
  C  C318  1  0.638820  0.539700  0.052800  1.0  0.1607
  C  C319  1  0.718280  0.958070  0.741100  1.0  0.6778
  C  C320  1  0.719000  0.001510  0.666800  1.0  0.0726
  C  C321  1  0.753290  0.020350  0.596200  1.0  -0.147
  C  C322  1  0.735530  0.062460  0.546400  1.0  -0.1703
  C  C323  1  0.692300  0.066470  0.589300  1.0  0.099
  C  C324  1  0.657690  0.102040  0.564700  1.0  0.6709
  C  C325  1  0.777020  0.824720  0.016200  1.0  0.684
  C  C326  1  0.797270  0.782870  0.074100  1.0  0.1027
  C  C327  1  0.842120  0.771100  0.091000  1.0  -0.1661
  C  C328  1  0.878050  0.990840  0.749400  1.0  0.1535
  C  C329  1  0.899500  0.029400  0.693200  1.0  -0.1267
  C  C330  1  0.901000  0.032600  0.563600  1.0  -0.0038
  C  C331  1  0.881640  0.997680  0.488600  1.0  0.0254
  C  C332  1  0.882750  0.997000  0.351300  1.0  -0.139
  C  C333  1  0.866490  0.961330  0.284400  1.0  -0.1732
  C  C334  1  0.845630  0.923100  0.345000  1.0  0.0333
  C  C335  1  0.829880  0.883800  0.280100  1.0  -0.0309
  C  C336  1  0.812900  0.847800  0.346300  1.0  -0.1147
  C  C337  1  0.809750  0.850700  0.478900  1.0  0.1693
  C  C338  1  0.842790  0.922550  0.480600  1.0  0.12
  C  C339  1  0.861180  0.960300  0.552800  1.0  0.1615
  C  C340  1  0.218280  0.458070  0.241100  1.0  0.6778
  C  C341  1  0.219000  0.501510  0.166800  1.0  0.0726
  C  C342  1  0.253290  0.520350  0.096200  1.0  -0.147
  C  C343  1  0.235530  0.562460  0.046400  1.0  -0.1703
  C  C344  1  0.192300  0.566470  0.089300  1.0  0.099
  C  C345  1  0.157690  0.602040  0.064700  1.0  0.6709
  C  C346  1  0.277020  0.324720  0.516200  1.0  0.684
  C  C347  1  0.297270  0.282870  0.574100  1.0  0.1027
  C  C348  1  0.342120  0.271100  0.591000  1.0  -0.1661
  C  C349  1  0.378050  0.490840  0.249400  1.0  0.1535
  C  C350  1  0.399500  0.529400  0.193200  1.0  -0.1267
  C  C351  1  0.401000  0.532600  0.063600  1.0  -0.0038
  C  C352  1  0.381640  0.497680  0.988600  1.0  0.0254
  C  C353  1  0.382750  0.497000  0.851300  1.0  -0.139
  C  C354  1  0.366490  0.461330  0.784400  1.0  -0.1732
  C  C355  1  0.345630  0.423100  0.845000  1.0  0.0333
  C  C356  1  0.329880  0.383800  0.780100  1.0  -0.0309
  C  C357  1  0.312900  0.347800  0.846300  1.0  -0.1147
  C  C358  1  0.309750  0.350700  0.978900  1.0  0.1693
  C  C359  1  0.342790  0.422550  0.980600  1.0  0.12
  C  C360  1  0.361180  0.460300  0.052800  1.0  0.1615
  C  C361  1  0.541930  0.281720  0.491100  1.0  0.6758
  C  C362  1  0.498490  0.281000  0.416800  1.0  0.0737
  C  C363  1  0.479650  0.246710  0.346200  1.0  -0.1484
  C  C364  1  0.437540  0.264470  0.296400  1.0  -0.1707
  C  C365  1  0.433530  0.307700  0.339300  1.0  0.0993
  C  C366  1  0.397960  0.342310  0.314700  1.0  0.6703
  C  C367  1  0.675280  0.222980  0.766200  1.0  0.6798
  C  C368  1  0.717130  0.202730  0.824100  1.0  0.1026
  C  C369  1  0.728900  0.157880  0.841000  1.0  -0.1683
  C  C370  1  0.509160  0.121950  0.499400  1.0  0.1528
  C  C371  1  0.470600  0.100500  0.443200  1.0  -0.1253
  C  C372  1  0.467400  0.099000  0.313600  1.0  -0.0017
  C  C373  1  0.502320  0.118360  0.238600  1.0  0.025
  C  C374  1  0.503000  0.117250  0.101300  1.0  -0.1383
  C  C375  1  0.538670  0.133510  0.034400  1.0  -0.172
  C  C376  1  0.576900  0.154370  0.095000  1.0  0.0352
  C  C377  1  0.616200  0.170120  0.030100  1.0  -0.0298
  C  C378  1  0.652200  0.187100  0.096300  1.0  -0.1154
  C  C379  1  0.649300  0.190250  0.228900  1.0  0.1703
  C  C380  1  0.577450  0.157210  0.230600  1.0  0.1198
  C  C381  1  0.539700  0.138820  0.302800  1.0  0.1604
  C  C382  1  0.041930  0.781720  0.991100  1.0  0.6758
  C  C383  1  0.998490  0.781000  0.916800  1.0  0.0737
  C  C384  1  0.979650  0.746710  0.846200  1.0  -0.1484
  C  C385  1  0.937540  0.764470  0.796400  1.0  -0.1707
  C  C386  1  0.933530  0.807700  0.839300  1.0  0.0993
  C  C387  1  0.897960  0.842310  0.814700  1.0  0.6703
  C  C388  1  0.175280  0.722980  0.266200  1.0  0.6798
  C  C389  1  0.217130  0.702730  0.324100  1.0  0.1026
  C  C390  1  0.228900  0.657880  0.341000  1.0  -0.1683
  C  C391  1  0.009160  0.621950  0.999400  1.0  0.1528
  C  C392  1  0.970600  0.600500  0.943200  1.0  -0.1253
  C  C393  1  0.967400  0.599000  0.813600  1.0  -0.0017
  C  C394  1  0.002320  0.618360  0.738600  1.0  0.025
  C  C395  1  0.003000  0.617250  0.601300  1.0  -0.1383
  C  C396  1  0.038670  0.633510  0.534400  1.0  -0.172
  C  C397  1  0.076900  0.654370  0.595000  1.0  0.0352
  C  C398  1  0.116200  0.670120  0.530100  1.0  -0.0298
  C  C399  1  0.152200  0.687100  0.596300  1.0  -0.1154
  C  C400  1  0.149300  0.690250  0.728900  1.0  0.1703
  C  C401  1  0.077450  0.657210  0.730600  1.0  0.1198
  C  C402  1  0.039700  0.638820  0.802800  1.0  0.1604
  C  C403  1  0.458070  0.718280  0.491100  1.0  0.6767
  C  C404  1  0.501510  0.719000  0.416800  1.0  0.0727
  C  C405  1  0.520350  0.753290  0.346200  1.0  -0.1487
  C  C406  1  0.562460  0.735530  0.296400  1.0  -0.1708
  C  C407  1  0.566470  0.692300  0.339300  1.0  0.0987
  C  C408  1  0.602040  0.657690  0.314700  1.0  0.6703
  C  C409  1  0.324720  0.777020  0.766200  1.0  0.6794
  C  C410  1  0.282870  0.797270  0.824100  1.0  0.1019
  C  C411  1  0.271100  0.842120  0.841000  1.0  -0.1667
  C  C412  1  0.490840  0.878050  0.499400  1.0  0.1527
  C  C413  1  0.529400  0.899500  0.443200  1.0  -0.1249
  C  C414  1  0.532600  0.901000  0.313600  1.0  -0.0021
  C  C415  1  0.497680  0.881640  0.238600  1.0  0.0255
  C  C416  1  0.497000  0.882750  0.101300  1.0  -0.1374
  C  C417  1  0.461330  0.866490  0.034400  1.0  -0.1741
  C  C418  1  0.423100  0.845630  0.095000  1.0  0.0349
  C  C419  1  0.383800  0.829880  0.030100  1.0  -0.0307
  C  C420  1  0.347800  0.812900  0.096300  1.0  -0.1172
  C  C421  1  0.350700  0.809750  0.228900  1.0  0.1704
  C  C422  1  0.422550  0.842790  0.230600  1.0  0.1201
  C  C423  1  0.460300  0.861180  0.302800  1.0  0.1612
  C  C424  1  0.958070  0.218280  0.991100  1.0  0.6767
  C  C425  1  0.001510  0.219000  0.916800  1.0  0.0727
  C  C426  1  0.020350  0.253290  0.846200  1.0  -0.1487
  C  C427  1  0.062460  0.235530  0.796400  1.0  -0.1708
  C  C428  1  0.066470  0.192300  0.839300  1.0  0.0987
  C  C429  1  0.102040  0.157690  0.814700  1.0  0.6703
  C  C430  1  0.824720  0.277020  0.266200  1.0  0.6794
  C  C431  1  0.782870  0.297270  0.324100  1.0  0.1019
  C  C432  1  0.771100  0.342120  0.341000  1.0  -0.1667
  C  C433  1  0.990840  0.378050  0.999400  1.0  0.1527
  C  C434  1  0.029400  0.399500  0.943200  1.0  -0.1249
  C  C435  1  0.032600  0.401000  0.813600  1.0  -0.0021
  C  C436  1  0.997680  0.381640  0.738600  1.0  0.0255
  C  C437  1  0.997000  0.382750  0.601300  1.0  -0.1374
  C  C438  1  0.961330  0.366490  0.534400  1.0  -0.1741
  C  C439  1  0.923100  0.345630  0.595000  1.0  0.0349
  C  C440  1  0.883800  0.329880  0.530100  1.0  -0.0307
  C  C441  1  0.847800  0.312900  0.596300  1.0  -0.1172
  C  C442  1  0.850700  0.309750  0.728900  1.0  0.1704
  C  C443  1  0.922550  0.342790  0.730600  1.0  0.1201
  C  C444  1  0.960300  0.361180  0.802800  1.0  0.1612
  C  C445  1  0.218280  0.041930  0.008900  1.0  0.6766
  C  C446  1  0.219000  0.998490  0.083200  1.0  0.0717
  C  C447  1  0.253290  0.979650  0.153800  1.0  -0.1464
  C  C448  1  0.235530  0.937540  0.203600  1.0  -0.1702
  C  C449  1  0.192300  0.933530  0.160700  1.0  0.0986
  C  C450  1  0.157690  0.897960  0.185300  1.0  0.6716
  C  C451  1  0.277020  0.175280  0.733800  1.0  0.6834
  C  C452  1  0.297270  0.217130  0.675900  1.0  0.1036
  C  C453  1  0.342120  0.228900  0.659000  1.0  -0.1658
  C  C454  1  0.378050  0.009160  0.000600  1.0  0.1546
  C  C455  1  0.399500  0.970600  0.056800  1.0  -0.1268
  C  C456  1  0.401000  0.967400  0.186400  1.0  -0.0043
  C  C457  1  0.381640  0.002320  0.261400  1.0  0.0248
  C  C458  1  0.382750  0.003000  0.398700  1.0  -0.1367
  C  C459  1  0.366490  0.038670  0.465600  1.0  -0.1747
  C  C460  1  0.345630  0.076900  0.405000  1.0  0.0333
  C  C461  1  0.329880  0.116200  0.469900  1.0  -0.0318
  C  C462  1  0.312900  0.152200  0.403700  1.0  -0.1153
  C  C463  1  0.309750  0.149300  0.271100  1.0  0.1683
  C  C464  1  0.342790  0.077450  0.269400  1.0  0.1204
  C  C465  1  0.361180  0.039700  0.197200  1.0  0.1614
  C  C466  1  0.718280  0.541930  0.508900  1.0  0.6766
  C  C467  1  0.719000  0.498490  0.583200  1.0  0.0717
  C  C468  1  0.753290  0.479650  0.653800  1.0  -0.1464
  C  C469  1  0.735530  0.437540  0.703600  1.0  -0.1702
  C  C470  1  0.692300  0.433530  0.660700  1.0  0.0986
  C  C471  1  0.657690  0.397960  0.685300  1.0  0.6716
  C  C472  1  0.777020  0.675280  0.233800  1.0  0.6834
  C  C473  1  0.797270  0.717130  0.175900  1.0  0.1036
  C  C474  1  0.842120  0.728900  0.159000  1.0  -0.1658
  C  C475  1  0.878050  0.509160  0.500600  1.0  0.1546
  C  C476  1  0.899500  0.470600  0.556800  1.0  -0.1268
  C  C477  1  0.901000  0.467400  0.686400  1.0  -0.0043
  C  C478  1  0.881640  0.502320  0.761400  1.0  0.0248
  C  C479  1  0.882750  0.503000  0.898700  1.0  -0.1367
  C  C480  1  0.866490  0.538670  0.965600  1.0  -0.1747
  C  C481  1  0.845630  0.576900  0.905000  1.0  0.0333
  C  C482  1  0.829880  0.616200  0.969900  1.0  -0.0318
  C  C483  1  0.812900  0.652200  0.903700  1.0  -0.1153
  C  C484  1  0.809750  0.649300  0.771100  1.0  0.1683
  C  C485  1  0.842790  0.577450  0.769400  1.0  0.1204
  C  C486  1  0.861180  0.539700  0.697200  1.0  0.1614
  C  C487  1  0.781720  0.958070  0.008900  1.0  0.6782
  C  C488  1  0.781000  0.001510  0.083200  1.0  0.0729
  C  C489  1  0.746710  0.020350  0.153800  1.0  -0.1479
  C  C490  1  0.764470  0.062460  0.203600  1.0  -0.1707
  C  C491  1  0.807700  0.066470  0.160700  1.0  0.1005
  C  C492  1  0.842310  0.102040  0.185300  1.0  0.6719
  C  C493  1  0.722980  0.824720  0.733800  1.0  0.6837
  C  C494  1  0.702730  0.782870  0.675900  1.0  0.1043
  C  C495  1  0.657880  0.771100  0.659000  1.0  -0.1652
  C  C496  1  0.621950  0.990840  0.000600  1.0  0.1544
  C  C497  1  0.600500  0.029400  0.056800  1.0  -0.1266
  C  C498  1  0.599000  0.032600  0.186400  1.0  -0.0031
  C  C499  1  0.618360  0.997680  0.261400  1.0  0.0251
  C  C500  1  0.617250  0.997000  0.398700  1.0  -0.1399
  C  C501  1  0.633510  0.961330  0.465600  1.0  -0.1763
  C  C502  1  0.654370  0.923100  0.405000  1.0  0.0324
  C  C503  1  0.670120  0.883800  0.469900  1.0  -0.0321
  C  C504  1  0.687100  0.847800  0.403700  1.0  -0.1141
  C  C505  1  0.690250  0.850700  0.271100  1.0  0.1687
  C  C506  1  0.657210  0.922550  0.269400  1.0  0.1208
  C  C507  1  0.638820  0.960300  0.197200  1.0  0.161
  C  C508  1  0.281720  0.458070  0.508900  1.0  0.6782
  C  C509  1  0.281000  0.501510  0.583200  1.0  0.0729
  C  C510  1  0.246710  0.520350  0.653800  1.0  -0.1479
  C  C511  1  0.264470  0.562460  0.703600  1.0  -0.1707
  C  C512  1  0.307700  0.566470  0.660700  1.0  0.1005
  C  C513  1  0.342310  0.602040  0.685300  1.0  0.6719
  C  C514  1  0.222980  0.324720  0.233800  1.0  0.6837
  C  C515  1  0.202730  0.282870  0.175900  1.0  0.1043
  C  C516  1  0.157880  0.271100  0.159000  1.0  -0.1652
  C  C517  1  0.121950  0.490840  0.500600  1.0  0.1544
  C  C518  1  0.100500  0.529400  0.556800  1.0  -0.1266
  C  C519  1  0.099000  0.532600  0.686400  1.0  -0.0031
  C  C520  1  0.118360  0.497680  0.761400  1.0  0.0251
  C  C521  1  0.117250  0.497000  0.898700  1.0  -0.1399
  C  C522  1  0.133510  0.461330  0.965600  1.0  -0.1763
  C  C523  1  0.154370  0.423100  0.905000  1.0  0.0324
  C  C524  1  0.170120  0.383800  0.969900  1.0  -0.0321
  C  C525  1  0.187100  0.347800  0.903700  1.0  -0.1141
  C  C526  1  0.190250  0.350700  0.771100  1.0  0.1687
  C  C527  1  0.157210  0.422550  0.769400  1.0  0.1208
  C  C528  1  0.138820  0.460300  0.697200  1.0  0.161
  N  N529  1  0.957350  0.140500  0.317400  1.0  -0.3787
  N  N530  1  0.886650  0.176380  0.454600  1.0  -0.3749
  N  N531  1  0.457350  0.640500  0.817400  1.0  -0.3787
  N  N532  1  0.386650  0.676380  0.954600  1.0  -0.3749
  N  N533  1  0.042650  0.859500  0.317400  1.0  -0.3805
  N  N534  1  0.113350  0.823620  0.454600  1.0  -0.3752
  N  N535  1  0.542650  0.359500  0.817400  1.0  -0.3805
  N  N536  1  0.613350  0.323620  0.954600  1.0  -0.3752
  N  N537  1  0.140500  0.042650  0.682600  1.0  -0.3827
  N  N538  1  0.176380  0.113350  0.545400  1.0  -0.3724
  N  N539  1  0.640500  0.542650  0.182600  1.0  -0.3827
  N  N540  1  0.676380  0.613350  0.045400  1.0  -0.3724
  N  N541  1  0.859500  0.957350  0.682600  1.0  -0.38
  N  N542  1  0.823620  0.886650  0.545400  1.0  -0.372
  N  N543  1  0.359500  0.457350  0.182600  1.0  -0.38
  N  N544  1  0.323620  0.386650  0.045400  1.0  -0.372
  N  N545  1  0.542650  0.140500  0.432600  1.0  -0.3802
  N  N546  1  0.613350  0.176380  0.295400  1.0  -0.3732
  N  N547  1  0.042650  0.640500  0.932600  1.0  -0.3802
  N  N548  1  0.113350  0.676380  0.795400  1.0  -0.3732
  N  N549  1  0.457350  0.859500  0.432600  1.0  -0.3792
  N  N550  1  0.386650  0.823620  0.295400  1.0  -0.3734
  N  N551  1  0.957350  0.359500  0.932600  1.0  -0.3792
  N  N552  1  0.886650  0.323620  0.795400  1.0  -0.3734
  N  N553  1  0.359500  0.042650  0.067400  1.0  -0.3822
  N  N554  1  0.323620  0.113350  0.204600  1.0  -0.3741
  N  N555  1  0.859500  0.542650  0.567400  1.0  -0.3822
  N  N556  1  0.823620  0.613350  0.704600  1.0  -0.3741
  N  N557  1  0.640500  0.957350  0.067400  1.0  -0.3802
  N  N558  1  0.676380  0.886650  0.204600  1.0  -0.3738
  N  N559  1  0.140500  0.457350  0.567400  1.0  -0.3802
  N  N560  1  0.176380  0.386650  0.704600  1.0  -0.3738
  O  O561  1  0.948900  0.316450  0.192500  1.0  -0.6752
  O  O562  1  0.933700  0.245430  0.267600  1.0  -0.7455
  O  O563  1  0.029250  0.319000  0.334300  1.0  -0.2114
  O  O564  1  0.102060  0.382040  0.386100  1.0  -0.6228
  O  O565  1  0.133940  0.329480  0.510500  1.0  -0.6416
  O  O566  1  0.830700  0.265870  0.979500  1.0  -0.6629
  O  O567  1  0.851550  0.193850  0.031500  1.0  -0.699
  O  O568  1  0.448900  0.816450  0.692500  1.0  -0.6752
  O  O569  1  0.433700  0.745430  0.767600  1.0  -0.7455
  O  O570  1  0.529250  0.819000  0.834300  1.0  -0.2114
  O  O571  1  0.602060  0.882040  0.886100  1.0  -0.6228
  O  O572  1  0.633940  0.829480  0.010500  1.0  -0.6416
  O  O573  1  0.330700  0.765870  0.479500  1.0  -0.6629
  O  O574  1  0.351550  0.693850  0.531500  1.0  -0.699
  O  O575  1  0.051100  0.683550  0.192500  1.0  -0.6761
  O  O576  1  0.066300  0.754570  0.267600  1.0  -0.745
  O  O577  1  0.970750  0.681000  0.334300  1.0  -0.2118
  O  O578  1  0.897940  0.617960  0.386100  1.0  -0.6222
  O  O579  1  0.866060  0.670520  0.510500  1.0  -0.6428
  O  O580  1  0.169300  0.734130  0.979500  1.0  -0.6626
  O  O581  1  0.148450  0.806150  0.031500  1.0  -0.6973
  O  O582  1  0.551100  0.183550  0.692500  1.0  -0.6761
  O  O583  1  0.566300  0.254570  0.767600  1.0  -0.745
  O  O584  1  0.470750  0.181000  0.834300  1.0  -0.2118
  O  O585  1  0.397940  0.117960  0.886100  1.0  -0.6222
  O  O586  1  0.366060  0.170520  0.010500  1.0  -0.6428
  O  O587  1  0.669300  0.234130  0.479500  1.0  -0.6626
  O  O588  1  0.648450  0.306150  0.531500  1.0  -0.6973
  O  O589  1  0.316450  0.051100  0.807500  1.0  -0.6744
  O  O590  1  0.245430  0.066300  0.732400  1.0  -0.7433
  O  O591  1  0.319000  0.970750  0.665700  1.0  -0.2137
  O  O592  1  0.382040  0.897940  0.613900  1.0  -0.6205
  O  O593  1  0.329480  0.866060  0.489500  1.0  -0.6436
  O  O594  1  0.265870  0.169300  0.020500  1.0  -0.6628
  O  O595  1  0.193850  0.148450  0.968500  1.0  -0.6994
  O  O596  1  0.816450  0.551100  0.307500  1.0  -0.6744
  O  O597  1  0.745430  0.566300  0.232400  1.0  -0.7433
  O  O598  1  0.819000  0.470750  0.165700  1.0  -0.2137
  O  O599  1  0.882040  0.397940  0.113900  1.0  -0.6205
  O  O600  1  0.829480  0.366060  0.989500  1.0  -0.6436
  O  O601  1  0.765870  0.669300  0.520500  1.0  -0.6628
  O  O602  1  0.693850  0.648450  0.468500  1.0  -0.6994
  O  O603  1  0.683550  0.948900  0.807500  1.0  -0.6745
  O  O604  1  0.754570  0.933700  0.732400  1.0  -0.744
  O  O605  1  0.681000  0.029250  0.665700  1.0  -0.2146
  O  O606  1  0.617960  0.102060  0.613900  1.0  -0.621
  O  O607  1  0.670520  0.133940  0.489500  1.0  -0.6436
  O  O608  1  0.734130  0.830700  0.020500  1.0  -0.6621
  O  O609  1  0.806150  0.851550  0.968500  1.0  -0.699
  O  O610  1  0.183550  0.448900  0.307500  1.0  -0.6745
  O  O611  1  0.254570  0.433700  0.232400  1.0  -0.744
  O  O612  1  0.181000  0.529250  0.165700  1.0  -0.2146
  O  O613  1  0.117960  0.602060  0.113900  1.0  -0.621
  O  O614  1  0.170520  0.633940  0.989500  1.0  -0.6436
  O  O615  1  0.234130  0.330700  0.520500  1.0  -0.6621
  O  O616  1  0.306150  0.351550  0.468500  1.0  -0.699
  O  O617  1  0.551100  0.316450  0.557500  1.0  -0.6762
  O  O618  1  0.566300  0.245430  0.482400  1.0  -0.7452
  O  O619  1  0.470750  0.319000  0.415700  1.0  -0.2127
  O  O620  1  0.397940  0.382040  0.363900  1.0  -0.6224
  O  O621  1  0.366060  0.329480  0.239500  1.0  -0.6417
  O  O622  1  0.669300  0.265870  0.770500  1.0  -0.6637
  O  O623  1  0.648450  0.193850  0.718500  1.0  -0.6986
  O  O624  1  0.051100  0.816450  0.057500  1.0  -0.6762
  O  O625  1  0.066300  0.745430  0.982400  1.0  -0.7452
  O  O626  1  0.970750  0.819000  0.915700  1.0  -0.2127
  O  O627  1  0.897940  0.882040  0.863900  1.0  -0.6224
  O  O628  1  0.866060  0.829480  0.739500  1.0  -0.6417
  O  O629  1  0.169300  0.765870  0.270500  1.0  -0.6637
  O  O630  1  0.148450  0.693850  0.218500  1.0  -0.6986
  O  O631  1  0.448900  0.683550  0.557500  1.0  -0.6754
  O  O632  1  0.433700  0.754570  0.482400  1.0  -0.7452
  O  O633  1  0.529250  0.681000  0.415700  1.0  -0.2126
  O  O634  1  0.602060  0.617960  0.363900  1.0  -0.6201
  O  O635  1  0.633940  0.670520  0.239500  1.0  -0.6422
  O  O636  1  0.330700  0.734130  0.770500  1.0  -0.6626
  O  O637  1  0.351550  0.806150  0.718500  1.0  -0.6981
  O  O638  1  0.948900  0.183550  0.057500  1.0  -0.6754
  O  O639  1  0.933700  0.254570  0.982400  1.0  -0.7452
  O  O640  1  0.029250  0.181000  0.915700  1.0  -0.2126
  O  O641  1  0.102060  0.117960  0.863900  1.0  -0.6201
  O  O642  1  0.133940  0.170520  0.739500  1.0  -0.6422
  O  O643  1  0.830700  0.234130  0.270500  1.0  -0.6626
  O  O644  1  0.851550  0.306150  0.218500  1.0  -0.6981
  O  O645  1  0.183550  0.051100  0.942500  1.0  -0.6746
  O  O646  1  0.254570  0.066300  0.017600  1.0  -0.7437
  O  O647  1  0.181000  0.970750  0.084300  1.0  -0.2128
  O  O648  1  0.117960  0.897940  0.136100  1.0  -0.622
  O  O649  1  0.170520  0.866060  0.260500  1.0  -0.6434
  O  O650  1  0.234130  0.169300  0.729500  1.0  -0.6636
  O  O651  1  0.306150  0.148450  0.781500  1.0  -0.6989
  O  O652  1  0.683550  0.551100  0.442500  1.0  -0.6746
  O  O653  1  0.754570  0.566300  0.517600  1.0  -0.7437
  O  O654  1  0.681000  0.470750  0.584300  1.0  -0.2128
  O  O655  1  0.617960  0.397940  0.636100  1.0  -0.622
  O  O656  1  0.670520  0.366060  0.760500  1.0  -0.6434
  O  O657  1  0.734130  0.669300  0.229500  1.0  -0.6636
  O  O658  1  0.806150  0.648450  0.281500  1.0  -0.6989
  O  O659  1  0.816450  0.948900  0.942500  1.0  -0.6744
  O  O660  1  0.745430  0.933700  0.017600  1.0  -0.7441
  O  O661  1  0.819000  0.029250  0.084300  1.0  -0.2137
  O  O662  1  0.882040  0.102060  0.136100  1.0  -0.6213
  O  O663  1  0.829480  0.133940  0.260500  1.0  -0.6443
  O  O664  1  0.765870  0.830700  0.729500  1.0  -0.6635
  O  O665  1  0.693850  0.851550  0.781500  1.0  -0.6989
  O  O666  1  0.316450  0.448900  0.442500  1.0  -0.6744
  O  O667  1  0.245430  0.433700  0.517600  1.0  -0.7441
  O  O668  1  0.319000  0.529250  0.584300  1.0  -0.2137
  O  O669  1  0.382040  0.602060  0.636100  1.0  -0.6213
  O  O670  1  0.329480  0.633940  0.760500  1.0  -0.6443
  O  O671  1  0.265870  0.330700  0.229500  1.0  -0.6635
  O  O672  1  0.193850  0.351550  0.281500  1.0  -0.6989
  O  O673  1  0.750000  0.231240  0.875000  1.0  -0.183
  O  O674  1  0.250000  0.731240  0.375000  1.0  -0.183
  O  O675  1  0.250000  0.768760  0.875000  1.0  -0.1827
  O  O676  1  0.750000  0.268760  0.375000  1.0  -0.1827
  O  O677  1  0.231240  0.250000  0.125000  1.0  -0.1879
  O  O678  1  0.768760  0.750000  0.125000  1.0  -0.1903
  O  O679  1  0.268760  0.250000  0.625000  1.0  -0.1903
  O  O680  1  0.731240  0.750000  0.625000  1.0  -0.1879
