# generated using pymatgen
data_Y2H22C42N4O15
_symmetry_space_group_name_H-M   'P 1'
_cell_length_a   28.93410000
_cell_length_b   28.93410000
_cell_length_c   10.51230000
_cell_angle_alpha   90.00000000
_cell_angle_beta   90.00000000
_cell_angle_gamma   90.00000000
_symmetry_Int_Tables_number   1
_chemical_formula_structural   Y2H22C42N4O15
_chemical_formula_sum   'Y16 H176 C336 N32 O120'
_cell_volume   8800.70983986
_cell_formula_units_Z   8
loop_
 _symmetry_equiv_pos_site_id
 _symmetry_equiv_pos_as_xyz
  1  'x, y, z'
loop_
 _atom_site_type_symbol
 _atom_site_label
 _atom_site_symmetry_multiplicity
 _atom_site_fract_x
 _atom_site_fract_y
 _atom_site_fract_z
 _atom_site_occupancy
 _atom_site_charge
  Y  Y1  1  0.391050  0.816620  0.035520  1.0  2.0171
  Y  Y2  1  0.891050  0.316620  0.535520  1.0  2.0171
  Y  Y3  1  0.608950  0.183380  0.035520  1.0  2.0172
  Y  Y4  1  0.108950  0.683380  0.535520  1.0  2.0172
  Y  Y5  1  0.816620  0.608950  0.964480  1.0  2.0164
  Y  Y6  1  0.316620  0.108950  0.464480  1.0  2.0164
  Y  Y7  1  0.183380  0.391050  0.964480  1.0  2.017
  Y  Y8  1  0.683380  0.891050  0.464480  1.0  2.017
  Y  Y9  1  0.108950  0.816620  0.714480  1.0  2.0172
  Y  Y10  1  0.608950  0.316620  0.214480  1.0  2.0172
  Y  Y11  1  0.891050  0.183380  0.714480  1.0  2.0173
  Y  Y12  1  0.391050  0.683380  0.214480  1.0  2.0173
  Y  Y13  1  0.683380  0.608950  0.785520  1.0  2.017
  Y  Y14  1  0.183380  0.108950  0.285520  1.0  2.017
  Y  Y15  1  0.316620  0.391050  0.785520  1.0  2.0164
  Y  Y16  1  0.816620  0.891050  0.285520  1.0  2.0164
  H  H17  1  0.507800  0.782900  0.832800  1.0  0.1111
  H  H18  1  0.583900  0.751600  0.744900  1.0  0.1204
  H  H19  1  0.287700  0.631600  0.937400  1.0  0.1259
  H  H20  1  0.488500  0.877500  0.089600  1.0  0.0845
  H  H21  1  0.552800  0.912200  0.995100  1.0  0.1077
  H  H22  1  0.557800  0.915100  0.773200  1.0  0.1063
  H  H23  1  0.522500  0.896500  0.558400  1.0  0.1078
  H  H24  1  0.462100  0.868200  0.445000  1.0  0.1104
  H  H25  1  0.382800  0.831000  0.441200  1.0  0.1019
  H  H26  1  0.319900  0.803000  0.553100  1.0  0.1069
  H  H27  1  0.324400  0.797900  0.774900  1.0  0.0909
  H  H28  1  0.007800  0.282900  0.332800  1.0  0.1111
  H  H29  1  0.083900  0.251600  0.244900  1.0  0.1204
  H  H30  1  0.787700  0.131600  0.437400  1.0  0.1259
  H  H31  1  0.988500  0.377500  0.589600  1.0  0.0845
  H  H32  1  0.052800  0.412200  0.495100  1.0  0.1077
  H  H33  1  0.057800  0.415100  0.273200  1.0  0.1063
  H  H34  1  0.022500  0.396500  0.058400  1.0  0.1078
  H  H35  1  0.962100  0.368200  0.945000  1.0  0.1104
  H  H36  1  0.882800  0.331000  0.941200  1.0  0.1019
  H  H37  1  0.819900  0.303000  0.053100  1.0  0.1069
  H  H38  1  0.824400  0.297900  0.274900  1.0  0.0909
  H  H39  1  0.492200  0.217100  0.832800  1.0  0.111
  H  H40  1  0.416100  0.248400  0.744900  1.0  0.1202
  H  H41  1  0.712300  0.368400  0.937400  1.0  0.1264
  H  H42  1  0.511500  0.122500  0.089600  1.0  0.0845
  H  H43  1  0.447200  0.087800  0.995100  1.0  0.1081
  H  H44  1  0.442200  0.084900  0.773200  1.0  0.1064
  H  H45  1  0.477500  0.103500  0.558400  1.0  0.1077
  H  H46  1  0.537900  0.131800  0.445000  1.0  0.1101
  H  H47  1  0.617200  0.169000  0.441200  1.0  0.1017
  H  H48  1  0.680100  0.197000  0.553100  1.0  0.1064
  H  H49  1  0.675600  0.202100  0.774900  1.0  0.0901
  H  H50  1  0.992200  0.717100  0.332800  1.0  0.111
  H  H51  1  0.916100  0.748400  0.244900  1.0  0.1202
  H  H52  1  0.212300  0.868400  0.437400  1.0  0.1264
  H  H53  1  0.011500  0.622500  0.589600  1.0  0.0845
  H  H54  1  0.947200  0.587800  0.495100  1.0  0.1081
  H  H55  1  0.942200  0.584900  0.273200  1.0  0.1064
  H  H56  1  0.977500  0.603500  0.058400  1.0  0.1077
  H  H57  1  0.037900  0.631800  0.945000  1.0  0.1101
  H  H58  1  0.117200  0.669000  0.941200  1.0  0.1017
  H  H59  1  0.180100  0.697000  0.053100  1.0  0.1064
  H  H60  1  0.175600  0.702100  0.274900  1.0  0.0901
  H  H61  1  0.782900  0.492200  0.167200  1.0  0.1113
  H  H62  1  0.751600  0.416100  0.255100  1.0  0.121
  H  H63  1  0.631600  0.712300  0.062600  1.0  0.1261
  H  H64  1  0.877500  0.511500  0.910400  1.0  0.0853
  H  H65  1  0.912200  0.447200  0.004900  1.0  0.1083
  H  H66  1  0.915100  0.442200  0.226800  1.0  0.1064
  H  H67  1  0.896500  0.477500  0.441600  1.0  0.1078
  H  H68  1  0.868200  0.537900  0.555000  1.0  0.1095
  H  H69  1  0.831000  0.617200  0.558800  1.0  0.1012
  H  H70  1  0.803000  0.680100  0.446900  1.0  0.1067
  H  H71  1  0.797900  0.675600  0.225100  1.0  0.0913
  H  H72  1  0.282900  0.992200  0.667200  1.0  0.1113
  H  H73  1  0.251600  0.916100  0.755100  1.0  0.121
  H  H74  1  0.131600  0.212300  0.562600  1.0  0.1261
  H  H75  1  0.377500  0.011500  0.410400  1.0  0.0853
  H  H76  1  0.412200  0.947200  0.504900  1.0  0.1083
  H  H77  1  0.415100  0.942200  0.726800  1.0  0.1064
  H  H78  1  0.396500  0.977500  0.941600  1.0  0.1078
  H  H79  1  0.368200  0.037900  0.055000  1.0  0.1095
  H  H80  1  0.331000  0.117200  0.058800  1.0  0.1012
  H  H81  1  0.303000  0.180100  0.946900  1.0  0.1067
  H  H82  1  0.297900  0.175600  0.725100  1.0  0.0913
  H  H83  1  0.217100  0.507800  0.167200  1.0  0.1114
  H  H84  1  0.248400  0.583900  0.255100  1.0  0.1201
  H  H85  1  0.368400  0.287700  0.062600  1.0  0.1262
  H  H86  1  0.122500  0.488500  0.910400  1.0  0.0852
  H  H87  1  0.087800  0.552800  0.004900  1.0  0.1087
  H  H88  1  0.084900  0.557800  0.226800  1.0  0.1063
  H  H89  1  0.103500  0.522500  0.441600  1.0  0.1079
  H  H90  1  0.131800  0.462100  0.555000  1.0  0.1101
  H  H91  1  0.169000  0.382800  0.558800  1.0  0.1016
  H  H92  1  0.197000  0.319900  0.446900  1.0  0.107
  H  H93  1  0.202100  0.324400  0.225100  1.0  0.0908
  H  H94  1  0.717100  0.007800  0.667200  1.0  0.1114
  H  H95  1  0.748400  0.083900  0.755100  1.0  0.1201
  H  H96  1  0.868400  0.787700  0.562600  1.0  0.1262
  H  H97  1  0.622500  0.988500  0.410400  1.0  0.0852
  H  H98  1  0.587800  0.052800  0.504900  1.0  0.1087
  H  H99  1  0.584900  0.057800  0.726800  1.0  0.1063
  H  H100  1  0.603500  0.022500  0.941600  1.0  0.1079
  H  H101  1  0.631800  0.962100  0.055000  1.0  0.1101
  H  H102  1  0.669000  0.882800  0.058800  1.0  0.1016
  H  H103  1  0.697000  0.819900  0.946900  1.0  0.107
  H  H104  1  0.702100  0.824400  0.725100  1.0  0.0908
  H  H105  1  0.992200  0.782900  0.917200  1.0  0.1114
  H  H106  1  0.916100  0.751600  0.005100  1.0  0.1199
  H  H107  1  0.212300  0.631600  0.812600  1.0  0.1261
  H  H108  1  0.011500  0.877500  0.660400  1.0  0.0847
  H  H109  1  0.947200  0.912200  0.754900  1.0  0.1084
  H  H110  1  0.942200  0.915100  0.976800  1.0  0.106
  H  H111  1  0.977500  0.896500  0.191600  1.0  0.1083
  H  H112  1  0.037900  0.868200  0.305000  1.0  0.1093
  H  H113  1  0.117200  0.831000  0.308800  1.0  0.1012
  H  H114  1  0.180100  0.803000  0.196900  1.0  0.1069
  H  H115  1  0.175600  0.797900  0.975100  1.0  0.0904
  H  H116  1  0.492200  0.282900  0.417200  1.0  0.1114
  H  H117  1  0.416100  0.251600  0.505100  1.0  0.1199
  H  H118  1  0.712300  0.131600  0.312600  1.0  0.1261
  H  H119  1  0.511500  0.377500  0.160400  1.0  0.0847
  H  H120  1  0.447200  0.412200  0.254900  1.0  0.1084
  H  H121  1  0.442200  0.415100  0.476800  1.0  0.106
  H  H122  1  0.477500  0.396500  0.691600  1.0  0.1083
  H  H123  1  0.537900  0.368200  0.805000  1.0  0.1093
  H  H124  1  0.617200  0.331000  0.808800  1.0  0.1012
  H  H125  1  0.680100  0.303000  0.696900  1.0  0.1069
  H  H126  1  0.675600  0.297900  0.475100  1.0  0.0904
  H  H127  1  0.007800  0.217100  0.917200  1.0  0.1108
  H  H128  1  0.083900  0.248400  0.005100  1.0  0.121
  H  H129  1  0.787700  0.368400  0.812600  1.0  0.1262
  H  H130  1  0.988500  0.122500  0.660400  1.0  0.0849
  H  H131  1  0.052800  0.087800  0.754900  1.0  0.1087
  H  H132  1  0.057800  0.084900  0.976800  1.0  0.1065
  H  H133  1  0.022500  0.103500  0.191600  1.0  0.1086
  H  H134  1  0.962100  0.131800  0.305000  1.0  0.1094
  H  H135  1  0.882800  0.169000  0.308800  1.0  0.1014
  H  H136  1  0.819900  0.197000  0.196900  1.0  0.1066
  H  H137  1  0.824400  0.202100  0.975100  1.0  0.0907
  H  H138  1  0.507800  0.717100  0.417200  1.0  0.1108
  H  H139  1  0.583900  0.748400  0.505100  1.0  0.121
  H  H140  1  0.287700  0.868400  0.312600  1.0  0.1262
  H  H141  1  0.488500  0.622500  0.160400  1.0  0.0849
  H  H142  1  0.552800  0.587800  0.254900  1.0  0.1087
  H  H143  1  0.557800  0.584900  0.476800  1.0  0.1065
  H  H144  1  0.522500  0.603500  0.691600  1.0  0.1086
  H  H145  1  0.462100  0.631800  0.805000  1.0  0.1094
  H  H146  1  0.382800  0.669000  0.808800  1.0  0.1014
  H  H147  1  0.319900  0.697000  0.696900  1.0  0.1066
  H  H148  1  0.324400  0.702100  0.475100  1.0  0.0907
  H  H149  1  0.717100  0.492200  0.582800  1.0  0.1111
  H  H150  1  0.748400  0.416100  0.494900  1.0  0.1202
  H  H151  1  0.868400  0.712300  0.687400  1.0  0.1262
  H  H152  1  0.622500  0.511500  0.839600  1.0  0.0844
  H  H153  1  0.587800  0.447200  0.745100  1.0  0.1085
  H  H154  1  0.584900  0.442200  0.523200  1.0  0.1066
  H  H155  1  0.603500  0.477500  0.308400  1.0  0.1071
  H  H156  1  0.631800  0.537900  0.195000  1.0  0.1109
  H  H157  1  0.669000  0.617200  0.191200  1.0  0.1024
  H  H158  1  0.697000  0.680100  0.303100  1.0  0.1065
  H  H159  1  0.702100  0.675600  0.524900  1.0  0.0908
  H  H160  1  0.217100  0.992200  0.082800  1.0  0.1111
  H  H161  1  0.248400  0.916100  0.994900  1.0  0.1202
  H  H162  1  0.368400  0.212300  0.187400  1.0  0.1262
  H  H163  1  0.122500  0.011500  0.339600  1.0  0.0844
  H  H164  1  0.087800  0.947200  0.245100  1.0  0.1085
  H  H165  1  0.084900  0.942200  0.023200  1.0  0.1066
  H  H166  1  0.103500  0.977500  0.808400  1.0  0.1071
  H  H167  1  0.131800  0.037900  0.695000  1.0  0.1109
  H  H168  1  0.169000  0.117200  0.691200  1.0  0.1024
  H  H169  1  0.197000  0.180100  0.803100  1.0  0.1065
  H  H170  1  0.202100  0.175600  0.024900  1.0  0.0908
  H  H171  1  0.282900  0.507800  0.582800  1.0  0.1113
  H  H172  1  0.251600  0.583900  0.494900  1.0  0.1209
  H  H173  1  0.131600  0.287700  0.687400  1.0  0.126
  H  H174  1  0.377500  0.488500  0.839600  1.0  0.0846
  H  H175  1  0.412200  0.552800  0.745100  1.0  0.1074
  H  H176  1  0.415100  0.557800  0.523200  1.0  0.1065
  H  H177  1  0.396500  0.522500  0.308400  1.0  0.1074
  H  H178  1  0.368200  0.462100  0.195000  1.0  0.1107
  H  H179  1  0.331000  0.382800  0.191200  1.0  0.1019
  H  H180  1  0.303000  0.319900  0.303100  1.0  0.1063
  H  H181  1  0.297900  0.324400  0.524900  1.0  0.0911
  H  H182  1  0.782900  0.007800  0.082800  1.0  0.1113
  H  H183  1  0.751600  0.083900  0.994900  1.0  0.1209
  H  H184  1  0.631600  0.787700  0.187400  1.0  0.126
  H  H185  1  0.877500  0.988500  0.339600  1.0  0.0846
  H  H186  1  0.912200  0.052800  0.245100  1.0  0.1074
  H  H187  1  0.915100  0.057800  0.023200  1.0  0.1065
  H  H188  1  0.896500  0.022500  0.808400  1.0  0.1074
  H  H189  1  0.868200  0.962100  0.695000  1.0  0.1107
  H  H190  1  0.831000  0.882800  0.691200  1.0  0.1019
  H  H191  1  0.803000  0.819900  0.803100  1.0  0.1063
  H  H192  1  0.797900  0.824400  0.024900  1.0  0.0911
  C  C193  1  0.458120  0.718340  0.990600  1.0  0.7033
  C  C194  1  0.501070  0.718970  0.916900  1.0  0.0566
  C  C195  1  0.520270  0.752930  0.846700  1.0  -0.1482
  C  C196  1  0.562440  0.735600  0.797300  1.0  -0.1737
  C  C197  1  0.565990  0.691850  0.839600  1.0  0.1072
  C  C198  1  0.602340  0.657170  0.814700  1.0  0.6503
  C  C199  1  0.324720  0.723270  0.984000  1.0  0.677
  C  C200  1  0.282610  0.702810  0.927300  1.0  0.0951
  C  C201  1  0.270970  0.657880  0.909300  1.0  -0.1646
  C  C202  1  0.490610  0.878160  0.999500  1.0  0.1446
  C  C203  1  0.529090  0.899200  0.943800  1.0  -0.1229
  C  C204  1  0.532020  0.900800  0.812800  1.0  -0.0072
  C  C205  1  0.497430  0.881430  0.739100  1.0  0.0223
  C  C206  1  0.497000  0.883190  0.602000  1.0  -0.1413
  C  C207  1  0.461520  0.866480  0.535300  1.0  -0.1411
  C  C208  1  0.423260  0.846380  0.596400  1.0  0.0253
  C  C209  1  0.383700  0.830010  0.531500  1.0  -0.0106
  C  C210  1  0.347000  0.812900  0.596500  1.0  -0.1232
  C  C211  1  0.349960  0.810230  0.729500  1.0  0.1728
  C  C212  1  0.422480  0.842810  0.731300  1.0  0.1527
  C  C213  1  0.460140  0.861180  0.803200  1.0  0.2023
  C  C214  1  0.958120  0.218340  0.490600  1.0  0.7033
  C  C215  1  0.001070  0.218970  0.416900  1.0  0.0566
  C  C216  1  0.020270  0.252930  0.346700  1.0  -0.1482
  C  C217  1  0.062440  0.235600  0.297300  1.0  -0.1737
  C  C218  1  0.065990  0.191850  0.339600  1.0  0.1072
  C  C219  1  0.102340  0.157170  0.314700  1.0  0.6503
  C  C220  1  0.824720  0.223270  0.484000  1.0  0.677
  C  C221  1  0.782610  0.202810  0.427300  1.0  0.0951
  C  C222  1  0.770970  0.157880  0.409300  1.0  -0.1646
  C  C223  1  0.990610  0.378160  0.499500  1.0  0.1446
  C  C224  1  0.029090  0.399200  0.443800  1.0  -0.1229
  C  C225  1  0.032020  0.400800  0.312800  1.0  -0.0072
  C  C226  1  0.997430  0.381430  0.239100  1.0  0.0223
  C  C227  1  0.997000  0.383190  0.102000  1.0  -0.1413
  C  C228  1  0.961520  0.366480  0.035300  1.0  -0.1411
  C  C229  1  0.923260  0.346380  0.096400  1.0  0.0253
  C  C230  1  0.883700  0.330010  0.031500  1.0  -0.0106
  C  C231  1  0.847000  0.312900  0.096500  1.0  -0.1232
  C  C232  1  0.849960  0.310230  0.229500  1.0  0.1728
  C  C233  1  0.922480  0.342810  0.231300  1.0  0.1527
  C  C234  1  0.960140  0.361180  0.303200  1.0  0.2023
  C  C235  1  0.541880  0.281660  0.990600  1.0  0.7016
  C  C236  1  0.498930  0.281030  0.916900  1.0  0.0576
  C  C237  1  0.479730  0.247070  0.846700  1.0  -0.1483
  C  C238  1  0.437560  0.264400  0.797300  1.0  -0.1732
  C  C239  1  0.434010  0.308150  0.839600  1.0  0.1074
  C  C240  1  0.397660  0.342830  0.814700  1.0  0.6499
  C  C241  1  0.675280  0.276730  0.984000  1.0  0.6769
  C  C242  1  0.717390  0.297190  0.927300  1.0  0.0952
  C  C243  1  0.729030  0.342120  0.909300  1.0  -0.1638
  C  C244  1  0.509390  0.121840  0.999500  1.0  0.1449
  C  C245  1  0.470910  0.100800  0.943800  1.0  -0.1252
  C  C246  1  0.467980  0.099200  0.812800  1.0  -0.0074
  C  C247  1  0.502570  0.118570  0.739100  1.0  0.0215
  C  C248  1  0.503000  0.116810  0.602000  1.0  -0.1426
  C  C249  1  0.538480  0.133520  0.535300  1.0  -0.1387
  C  C250  1  0.576740  0.153620  0.596400  1.0  0.0252
  C  C251  1  0.616300  0.169990  0.531500  1.0  -0.0097
  C  C252  1  0.653000  0.187100  0.596500  1.0  -0.1231
  C  C253  1  0.650040  0.189770  0.729500  1.0  0.1733
  C  C254  1  0.577520  0.157190  0.731300  1.0  0.1521
  C  C255  1  0.539860  0.138820  0.803200  1.0  0.202
  C  C256  1  0.041880  0.781660  0.490600  1.0  0.7016
  C  C257  1  0.998930  0.781030  0.416900  1.0  0.0576
  C  C258  1  0.979730  0.747070  0.346700  1.0  -0.1483
  C  C259  1  0.937560  0.764400  0.297300  1.0  -0.1732
  C  C260  1  0.934010  0.808150  0.339600  1.0  0.1074
  C  C261  1  0.897660  0.842830  0.314700  1.0  0.6499
  C  C262  1  0.175280  0.776730  0.484000  1.0  0.6769
  C  C263  1  0.217390  0.797190  0.427300  1.0  0.0952
  C  C264  1  0.229030  0.842120  0.409300  1.0  -0.1638
  C  C265  1  0.009390  0.621840  0.499500  1.0  0.1449
  C  C266  1  0.970910  0.600800  0.443800  1.0  -0.1252
  C  C267  1  0.967980  0.599200  0.312800  1.0  -0.0074
  C  C268  1  0.002570  0.618570  0.239100  1.0  0.0215
  C  C269  1  0.003000  0.616810  0.102000  1.0  -0.1426
  C  C270  1  0.038480  0.633520  0.035300  1.0  -0.1387
  C  C271  1  0.076740  0.653620  0.096400  1.0  0.0252
  C  C272  1  0.116300  0.669990  0.031500  1.0  -0.0097
  C  C273  1  0.153000  0.687100  0.096500  1.0  -0.1231
  C  C274  1  0.150040  0.689770  0.229500  1.0  0.1733
  C  C275  1  0.077520  0.657190  0.231300  1.0  0.1521
  C  C276  1  0.039860  0.638820  0.303200  1.0  0.202
  C  C277  1  0.718340  0.541880  0.009400  1.0  0.703
  C  C278  1  0.718970  0.498930  0.083100  1.0  0.0565
  C  C279  1  0.752930  0.479730  0.153300  1.0  -0.1466
  C  C280  1  0.735600  0.437560  0.202700  1.0  -0.1727
  C  C281  1  0.691850  0.434010  0.160400  1.0  0.1079
  C  C282  1  0.657170  0.397660  0.185300  1.0  0.6537
  C  C283  1  0.723270  0.675280  0.016000  1.0  0.683
  C  C284  1  0.702810  0.717390  0.072700  1.0  0.0962
  C  C285  1  0.657880  0.729030  0.090700  1.0  -0.1623
  C  C286  1  0.878160  0.509390  0.000500  1.0  0.1479
  C  C287  1  0.899200  0.470910  0.056200  1.0  -0.1262
  C  C288  1  0.900800  0.467980  0.187200  1.0  -0.0102
  C  C289  1  0.881430  0.502570  0.260900  1.0  0.0221
  C  C290  1  0.883190  0.503000  0.398000  1.0  -0.1404
  C  C291  1  0.866480  0.538480  0.464700  1.0  -0.1419
  C  C292  1  0.846380  0.576740  0.403600  1.0  0.0245
  C  C293  1  0.830010  0.616300  0.468500  1.0  -0.0117
  C  C294  1  0.812900  0.653000  0.403500  1.0  -0.1221
  C  C295  1  0.810230  0.650040  0.270500  1.0  0.1712
  C  C296  1  0.842810  0.577520  0.268700  1.0  0.1527
  C  C297  1  0.861180  0.539860  0.196800  1.0  0.2025
  C  C298  1  0.218340  0.041880  0.509400  1.0  0.703
  C  C299  1  0.218970  0.998930  0.583100  1.0  0.0565
  C  C300  1  0.252930  0.979730  0.653300  1.0  -0.1466
  C  C301  1  0.235600  0.937560  0.702700  1.0  -0.1727
  C  C302  1  0.191850  0.934010  0.660400  1.0  0.1079
  C  C303  1  0.157170  0.897660  0.685300  1.0  0.6537
  C  C304  1  0.223270  0.175280  0.516000  1.0  0.683
  C  C305  1  0.202810  0.217390  0.572700  1.0  0.0962
  C  C306  1  0.157880  0.229030  0.590700  1.0  -0.1623
  C  C307  1  0.378160  0.009390  0.500500  1.0  0.1479
  C  C308  1  0.399200  0.970910  0.556200  1.0  -0.1262
  C  C309  1  0.400800  0.967980  0.687200  1.0  -0.0102
  C  C310  1  0.381430  0.002570  0.760900  1.0  0.0221
  C  C311  1  0.383190  0.003000  0.898000  1.0  -0.1404
  C  C312  1  0.366480  0.038480  0.964700  1.0  -0.1419
  C  C313  1  0.346380  0.076740  0.903600  1.0  0.0245
  C  C314  1  0.330010  0.116300  0.968500  1.0  -0.0117
  C  C315  1  0.312900  0.153000  0.903500  1.0  -0.1221
  C  C316  1  0.310230  0.150040  0.770500  1.0  0.1712
  C  C317  1  0.342810  0.077520  0.768700  1.0  0.1527
  C  C318  1  0.361180  0.039860  0.696800  1.0  0.2025
  C  C319  1  0.281660  0.458120  0.009400  1.0  0.7033
  C  C320  1  0.281030  0.501070  0.083100  1.0  0.0572
  C  C321  1  0.247070  0.520270  0.153300  1.0  -0.1485
  C  C322  1  0.264400  0.562440  0.202700  1.0  -0.1733
  C  C323  1  0.308150  0.565990  0.160400  1.0  0.1084
  C  C324  1  0.342830  0.602340  0.185300  1.0  0.6535
  C  C325  1  0.276730  0.324720  0.016000  1.0  0.6833
  C  C326  1  0.297190  0.282610  0.072700  1.0  0.0954
  C  C327  1  0.342120  0.270970  0.090700  1.0  -0.1631
  C  C328  1  0.121840  0.490610  0.000500  1.0  0.1479
  C  C329  1  0.100800  0.529090  0.056200  1.0  -0.1262
  C  C330  1  0.099200  0.532020  0.187200  1.0  -0.0092
  C  C331  1  0.118570  0.497430  0.260900  1.0  0.0219
  C  C332  1  0.116810  0.497000  0.398000  1.0  -0.1425
  C  C333  1  0.133520  0.461520  0.464700  1.0  -0.1419
  C  C334  1  0.153620  0.423260  0.403600  1.0  0.0239
  C  C335  1  0.169990  0.383700  0.468500  1.0  -0.0131
  C  C336  1  0.187100  0.347000  0.403500  1.0  -0.12
  C  C337  1  0.189770  0.349960  0.270500  1.0  0.1718
  C  C338  1  0.157190  0.422480  0.268700  1.0  0.1528
  C  C339  1  0.138820  0.460140  0.196800  1.0  0.2025
  C  C340  1  0.781660  0.958120  0.509400  1.0  0.7033
  C  C341  1  0.781030  0.001070  0.583100  1.0  0.0572
  C  C342  1  0.747070  0.020270  0.653300  1.0  -0.1485
  C  C343  1  0.764400  0.062440  0.702700  1.0  -0.1733
  C  C344  1  0.808150  0.065990  0.660400  1.0  0.1084
  C  C345  1  0.842830  0.102340  0.685300  1.0  0.6535
  C  C346  1  0.776730  0.824720  0.516000  1.0  0.6833
  C  C347  1  0.797190  0.782610  0.572700  1.0  0.0954
  C  C348  1  0.842120  0.770970  0.590700  1.0  -0.1631
  C  C349  1  0.621840  0.990610  0.500500  1.0  0.1479
  C  C350  1  0.600800  0.029090  0.556200  1.0  -0.1262
  C  C351  1  0.599200  0.032020  0.687200  1.0  -0.0092
  C  C352  1  0.618570  0.997430  0.760900  1.0  0.0219
  C  C353  1  0.616810  0.997000  0.898000  1.0  -0.1425
  C  C354  1  0.633520  0.961520  0.964700  1.0  -0.1419
  C  C355  1  0.653620  0.923260  0.903600  1.0  0.0239
  C  C356  1  0.669990  0.883700  0.968500  1.0  -0.0131
  C  C357  1  0.687100  0.847000  0.903500  1.0  -0.12
  C  C358  1  0.689770  0.849960  0.770500  1.0  0.1718
  C  C359  1  0.657190  0.922480  0.768700  1.0  0.1528
  C  C360  1  0.638820  0.960140  0.696800  1.0  0.2025
  C  C361  1  0.041880  0.718340  0.759400  1.0  0.7013
  C  C362  1  0.998930  0.718970  0.833100  1.0  0.0566
  C  C363  1  0.979730  0.752930  0.903300  1.0  -0.1472
  C  C364  1  0.937560  0.735600  0.952700  1.0  -0.1729
  C  C365  1  0.934010  0.691850  0.910400  1.0  0.1069
  C  C366  1  0.897660  0.657170  0.935300  1.0  0.6505
  C  C367  1  0.175280  0.723270  0.766000  1.0  0.6777
  C  C368  1  0.217390  0.702810  0.822700  1.0  0.0954
  C  C369  1  0.229030  0.657880  0.840700  1.0  -0.1647
  C  C370  1  0.009390  0.878160  0.750500  1.0  0.1466
  C  C371  1  0.970910  0.899200  0.806200  1.0  -0.1252
  C  C372  1  0.967980  0.900800  0.937200  1.0  -0.0089
  C  C373  1  0.002570  0.881430  0.010900  1.0  0.0213
  C  C374  1  0.003000  0.883190  0.148000  1.0  -0.1421
  C  C375  1  0.038480  0.866480  0.214700  1.0  -0.1405
  C  C376  1  0.076740  0.846380  0.153600  1.0  0.025
  C  C377  1  0.116300  0.830010  0.218500  1.0  -0.0117
  C  C378  1  0.153000  0.812900  0.153500  1.0  -0.1229
  C  C379  1  0.150040  0.810230  0.020500  1.0  0.1725
  C  C380  1  0.077520  0.842810  0.018700  1.0  0.1527
  C  C381  1  0.039860  0.861180  0.946800  1.0  0.2023
  C  C382  1  0.541880  0.218340  0.259400  1.0  0.7013
  C  C383  1  0.498930  0.218970  0.333100  1.0  0.0566
  C  C384  1  0.479730  0.252930  0.403300  1.0  -0.1472
  C  C385  1  0.437560  0.235600  0.452700  1.0  -0.1729
  C  C386  1  0.434010  0.191850  0.410400  1.0  0.1069
  C  C387  1  0.397660  0.157170  0.435300  1.0  0.6505
  C  C388  1  0.675280  0.223270  0.266000  1.0  0.6777
  C  C389  1  0.717390  0.202810  0.322700  1.0  0.0954
  C  C390  1  0.729030  0.157880  0.340700  1.0  -0.1647
  C  C391  1  0.509390  0.378160  0.250500  1.0  0.1466
  C  C392  1  0.470910  0.399200  0.306200  1.0  -0.1252
  C  C393  1  0.467980  0.400800  0.437200  1.0  -0.0089
  C  C394  1  0.502570  0.381430  0.510900  1.0  0.0213
  C  C395  1  0.503000  0.383190  0.648000  1.0  -0.1421
  C  C396  1  0.538480  0.366480  0.714700  1.0  -0.1405
  C  C397  1  0.576740  0.346380  0.653600  1.0  0.025
  C  C398  1  0.616300  0.330010  0.718500  1.0  -0.0117
  C  C399  1  0.653000  0.312900  0.653500  1.0  -0.1229
  C  C400  1  0.650040  0.310230  0.520500  1.0  0.1725
  C  C401  1  0.577520  0.342810  0.518700  1.0  0.1527
  C  C402  1  0.539860  0.361180  0.446800  1.0  0.2023
  C  C403  1  0.958120  0.281660  0.759400  1.0  0.7024
  C  C404  1  0.001070  0.281030  0.833100  1.0  0.0565
  C  C405  1  0.020270  0.247070  0.903300  1.0  -0.1483
  C  C406  1  0.062440  0.264400  0.952700  1.0  -0.1717
  C  C407  1  0.065990  0.308150  0.910400  1.0  0.1077
  C  C408  1  0.102340  0.342830  0.935300  1.0  0.6518
  C  C409  1  0.824720  0.276730  0.766000  1.0  0.6773
  C  C410  1  0.782610  0.297190  0.822700  1.0  0.0946
  C  C411  1  0.770970  0.342120  0.840700  1.0  -0.1629
  C  C412  1  0.990610  0.121840  0.750500  1.0  0.1467
  C  C413  1  0.029090  0.100800  0.806200  1.0  -0.1248
  C  C414  1  0.032020  0.099200  0.937200  1.0  -0.0075
  C  C415  1  0.997430  0.118570  0.010900  1.0  0.0219
  C  C416  1  0.997000  0.116810  0.148000  1.0  -0.1407
  C  C417  1  0.961520  0.133520  0.214700  1.0  -0.1412
  C  C418  1  0.923260  0.153620  0.153600  1.0  0.0252
  C  C419  1  0.883700  0.169990  0.218500  1.0  -0.0129
  C  C420  1  0.847000  0.187100  0.153500  1.0  -0.1234
  C  C421  1  0.849960  0.189770  0.020500  1.0  0.1726
  C  C422  1  0.922480  0.157190  0.018700  1.0  0.1528
  C  C423  1  0.960140  0.138820  0.946800  1.0  0.2026
  C  C424  1  0.458120  0.781660  0.259400  1.0  0.7024
  C  C425  1  0.501070  0.781030  0.333100  1.0  0.0565
  C  C426  1  0.520270  0.747070  0.403300  1.0  -0.1483
  C  C427  1  0.562440  0.764400  0.452700  1.0  -0.1717
  C  C428  1  0.565990  0.808150  0.410400  1.0  0.1077
  C  C429  1  0.602340  0.842830  0.435300  1.0  0.6518
  C  C430  1  0.324720  0.776730  0.266000  1.0  0.6773
  C  C431  1  0.282610  0.797190  0.322700  1.0  0.0946
  C  C432  1  0.270970  0.842120  0.340700  1.0  -0.1629
  C  C433  1  0.490610  0.621840  0.250500  1.0  0.1467
  C  C434  1  0.529090  0.600800  0.306200  1.0  -0.1248
  C  C435  1  0.532020  0.599200  0.437200  1.0  -0.0075
  C  C436  1  0.497430  0.618570  0.510900  1.0  0.0219
  C  C437  1  0.497000  0.616810  0.648000  1.0  -0.1407
  C  C438  1  0.461520  0.633520  0.714700  1.0  -0.1412
  C  C439  1  0.423260  0.653620  0.653600  1.0  0.0252
  C  C440  1  0.383700  0.669990  0.718500  1.0  -0.0129
  C  C441  1  0.347000  0.687100  0.653500  1.0  -0.1234
  C  C442  1  0.349960  0.689770  0.520500  1.0  0.1726
  C  C443  1  0.422480  0.657190  0.518700  1.0  0.1528
  C  C444  1  0.460140  0.638820  0.446800  1.0  0.2026
  C  C445  1  0.781660  0.541880  0.740600  1.0  0.7043
  C  C446  1  0.781030  0.498930  0.666900  1.0  0.0577
  C  C447  1  0.747070  0.479730  0.596700  1.0  -0.1479
  C  C448  1  0.764400  0.437560  0.547300  1.0  -0.1743
  C  C449  1  0.808150  0.434010  0.589600  1.0  0.1084
  C  C450  1  0.842830  0.397660  0.564700  1.0  0.6531
  C  C451  1  0.776730  0.675280  0.734000  1.0  0.6821
  C  C452  1  0.797190  0.717390  0.677300  1.0  0.0958
  C  C453  1  0.842120  0.729030  0.659300  1.0  -0.1626
  C  C454  1  0.621840  0.509390  0.749500  1.0  0.1455
  C  C455  1  0.600800  0.470910  0.693800  1.0  -0.1264
  C  C456  1  0.599200  0.467980  0.562800  1.0  -0.0099
  C  C457  1  0.618570  0.502570  0.489100  1.0  0.0218
  C  C458  1  0.616810  0.503000  0.352000  1.0  -0.1419
  C  C459  1  0.633520  0.538480  0.285300  1.0  -0.1402
  C  C460  1  0.653620  0.576740  0.346400  1.0  0.0242
  C  C461  1  0.669990  0.616300  0.281500  1.0  -0.0108
  C  C462  1  0.687100  0.653000  0.346500  1.0  -0.121
  C  C463  1  0.689770  0.650040  0.479500  1.0  0.1716
  C  C464  1  0.657190  0.577520  0.481300  1.0  0.1525
  C  C465  1  0.638820  0.539860  0.553200  1.0  0.2022
  C  C466  1  0.281660  0.041880  0.240600  1.0  0.7043
  C  C467  1  0.281030  0.998930  0.166900  1.0  0.0577
  C  C468  1  0.247070  0.979730  0.096700  1.0  -0.1479
  C  C469  1  0.264400  0.937560  0.047300  1.0  -0.1743
  C  C470  1  0.308150  0.934010  0.089600  1.0  0.1084
  C  C471  1  0.342830  0.897660  0.064700  1.0  0.6531
  C  C472  1  0.276730  0.175280  0.234000  1.0  0.6821
  C  C473  1  0.297190  0.217390  0.177300  1.0  0.0958
  C  C474  1  0.342120  0.229030  0.159300  1.0  -0.1626
  C  C475  1  0.121840  0.009390  0.249500  1.0  0.1455
  C  C476  1  0.100800  0.970910  0.193800  1.0  -0.1264
  C  C477  1  0.099200  0.967980  0.062800  1.0  -0.0099
  C  C478  1  0.118570  0.002570  0.989100  1.0  0.0218
  C  C479  1  0.116810  0.003000  0.852000  1.0  -0.1419
  C  C480  1  0.133520  0.038480  0.785300  1.0  -0.1402
  C  C481  1  0.153620  0.076740  0.846400  1.0  0.0242
  C  C482  1  0.169990  0.116300  0.781500  1.0  -0.0108
  C  C483  1  0.187100  0.153000  0.846500  1.0  -0.121
  C  C484  1  0.189770  0.150040  0.979500  1.0  0.1716
  C  C485  1  0.157190  0.077520  0.981300  1.0  0.1525
  C  C486  1  0.138820  0.039860  0.053200  1.0  0.2022
  C  C487  1  0.218340  0.458120  0.740600  1.0  0.7031
  C  C488  1  0.218970  0.501070  0.666900  1.0  0.0575
  C  C489  1  0.252930  0.520270  0.596700  1.0  -0.1473
  C  C490  1  0.235600  0.562440  0.547300  1.0  -0.1738
  C  C491  1  0.191850  0.565990  0.589600  1.0  0.108
  C  C492  1  0.157170  0.602340  0.564700  1.0  0.6535
  C  C493  1  0.223270  0.324720  0.734000  1.0  0.6827
  C  C494  1  0.202810  0.282610  0.677300  1.0  0.0968
  C  C495  1  0.157880  0.270970  0.659300  1.0  -0.1621
  C  C496  1  0.378160  0.490610  0.749500  1.0  0.1461
  C  C497  1  0.399200  0.529090  0.693800  1.0  -0.1246
  C  C498  1  0.400800  0.532020  0.562800  1.0  -0.0085
  C  C499  1  0.381430  0.497430  0.489100  1.0  0.0226
  C  C500  1  0.383190  0.497000  0.352000  1.0  -0.1415
  C  C501  1  0.366480  0.461520  0.285300  1.0  -0.1412
  C  C502  1  0.346380  0.423260  0.346400  1.0  0.0246
  C  C503  1  0.330010  0.383700  0.281500  1.0  -0.0103
  C  C504  1  0.312900  0.347000  0.346500  1.0  -0.1214
  C  C505  1  0.310230  0.349960  0.479500  1.0  0.1725
  C  C506  1  0.342810  0.422480  0.481300  1.0  0.1523
  C  C507  1  0.361180  0.460140  0.553200  1.0  0.2021
  C  C508  1  0.718340  0.958120  0.240600  1.0  0.7031
  C  C509  1  0.718970  0.001070  0.166900  1.0  0.0575
  C  C510  1  0.752930  0.020270  0.096700  1.0  -0.1473
  C  C511  1  0.735600  0.062440  0.047300  1.0  -0.1738
  C  C512  1  0.691850  0.065990  0.089600  1.0  0.108
  C  C513  1  0.657170  0.102340  0.064700  1.0  0.6535
  C  C514  1  0.723270  0.824720  0.234000  1.0  0.6827
  C  C515  1  0.702810  0.782610  0.177300  1.0  0.0968
  C  C516  1  0.657880  0.770970  0.159300  1.0  -0.1621
  C  C517  1  0.878160  0.990610  0.249500  1.0  0.1461
  C  C518  1  0.899200  0.029090  0.193800  1.0  -0.1246
  C  C519  1  0.900800  0.032020  0.062800  1.0  -0.0085
  C  C520  1  0.881430  0.997430  0.989100  1.0  0.0226
  C  C521  1  0.883190  0.997000  0.852000  1.0  -0.1415
  C  C522  1  0.866480  0.961520  0.785300  1.0  -0.1412
  C  C523  1  0.846380  0.923260  0.846400  1.0  0.0246
  C  C524  1  0.830010  0.883700  0.781500  1.0  -0.0103
  C  C525  1  0.812900  0.847000  0.846500  1.0  -0.1214
  C  C526  1  0.810230  0.849960  0.979500  1.0  0.1725
  C  C527  1  0.842810  0.922480  0.981300  1.0  0.1523
  C  C528  1  0.861180  0.960140  0.053200  1.0  0.2021
  N  N529  1  0.457340  0.859270  0.932500  1.0  -0.3767
  N  N530  1  0.386720  0.823990  0.795600  1.0  -0.4247
  N  N531  1  0.957340  0.359270  0.432500  1.0  -0.3767
  N  N532  1  0.886720  0.323990  0.295600  1.0  -0.4247
  N  N533  1  0.542660  0.140730  0.932500  1.0  -0.3771
  N  N534  1  0.613280  0.176010  0.795600  1.0  -0.4236
  N  N535  1  0.042660  0.640730  0.432500  1.0  -0.3771
  N  N536  1  0.113280  0.676010  0.295600  1.0  -0.4236
  N  N537  1  0.859270  0.542660  0.067500  1.0  -0.3776
  N  N538  1  0.823990  0.613280  0.204400  1.0  -0.4245
  N  N539  1  0.359270  0.042660  0.567500  1.0  -0.3776
  N  N540  1  0.323990  0.113280  0.704400  1.0  -0.4245
  N  N541  1  0.140730  0.457340  0.067500  1.0  -0.3766
  N  N542  1  0.176010  0.386720  0.204400  1.0  -0.4244
  N  N543  1  0.640730  0.957340  0.567500  1.0  -0.3766
  N  N544  1  0.676010  0.886720  0.704400  1.0  -0.4244
  N  N545  1  0.042660  0.859270  0.817500  1.0  -0.377
  N  N546  1  0.113280  0.823990  0.954400  1.0  -0.4253
  N  N547  1  0.542660  0.359270  0.317500  1.0  -0.377
  N  N548  1  0.613280  0.323990  0.454400  1.0  -0.4253
  N  N549  1  0.957340  0.140730  0.817500  1.0  -0.3753
  N  N550  1  0.886720  0.176010  0.954400  1.0  -0.4258
  N  N551  1  0.457340  0.640730  0.317500  1.0  -0.3753
  N  N552  1  0.386720  0.676010  0.454400  1.0  -0.4258
  N  N553  1  0.640730  0.542660  0.682500  1.0  -0.3794
  N  N554  1  0.676010  0.613280  0.545600  1.0  -0.4239
  N  N555  1  0.140730  0.042660  0.182500  1.0  -0.3794
  N  N556  1  0.176010  0.113280  0.045600  1.0  -0.4239
  N  N557  1  0.359270  0.457340  0.682500  1.0  -0.3763
  N  N558  1  0.323990  0.386720  0.545600  1.0  -0.4222
  N  N559  1  0.859270  0.957340  0.182500  1.0  -0.3763
  N  N560  1  0.823990  0.886720  0.045600  1.0  -0.4222
  O  O561  1  0.448730  0.683650  0.057300  1.0  -0.6898
  O  O562  1  0.433680  0.754650  0.982300  1.0  -0.73
  O  O563  1  0.529140  0.680750  0.916200  1.0  -0.2141
  O  O564  1  0.602060  0.617940  0.865100  1.0  -0.6165
  O  O565  1  0.633760  0.670310  0.740200  1.0  -0.6366
  O  O566  1  0.330820  0.766100  0.978900  1.0  -0.6788
  O  O567  1  0.351430  0.693800  0.032300  1.0  -0.7111
  O  O568  1  0.948730  0.183650  0.557300  1.0  -0.6898
  O  O569  1  0.933680  0.254650  0.482300  1.0  -0.73
  O  O570  1  0.029140  0.180750  0.416200  1.0  -0.2141
  O  O571  1  0.102060  0.117940  0.365100  1.0  -0.6165
  O  O572  1  0.133760  0.170310  0.240200  1.0  -0.6366
  O  O573  1  0.830820  0.266100  0.478900  1.0  -0.6788
  O  O574  1  0.851430  0.193800  0.532300  1.0  -0.7111
  O  O575  1  0.551270  0.316350  0.057300  1.0  -0.6909
  O  O576  1  0.566320  0.245350  0.982300  1.0  -0.7295
  O  O577  1  0.470860  0.319250  0.916200  1.0  -0.2151
  O  O578  1  0.397940  0.382060  0.865100  1.0  -0.6189
  O  O579  1  0.366240  0.329690  0.740200  1.0  -0.6359
  O  O580  1  0.669180  0.233900  0.978900  1.0  -0.6786
  O  O581  1  0.648570  0.306200  0.032300  1.0  -0.7095
  O  O582  1  0.051270  0.816350  0.557300  1.0  -0.6909
  O  O583  1  0.066320  0.745350  0.482300  1.0  -0.7295
  O  O584  1  0.970860  0.819250  0.416200  1.0  -0.2151
  O  O585  1  0.897940  0.882060  0.365100  1.0  -0.6189
  O  O586  1  0.866240  0.829690  0.240200  1.0  -0.6359
  O  O587  1  0.169180  0.733900  0.478900  1.0  -0.6786
  O  O588  1  0.148570  0.806200  0.532300  1.0  -0.7095
  O  O589  1  0.683650  0.551270  0.942700  1.0  -0.6898
  O  O590  1  0.754650  0.566320  0.017700  1.0  -0.7283
  O  O591  1  0.680750  0.470860  0.083800  1.0  -0.2156
  O  O592  1  0.617940  0.397940  0.134900  1.0  -0.618
  O  O593  1  0.670310  0.366240  0.259800  1.0  -0.6379
  O  O594  1  0.766100  0.669180  0.021100  1.0  -0.6776
  O  O595  1  0.693800  0.648570  0.967700  1.0  -0.7114
  O  O596  1  0.183650  0.051270  0.442700  1.0  -0.6898
  O  O597  1  0.254650  0.066320  0.517700  1.0  -0.7283
  O  O598  1  0.180750  0.970860  0.583800  1.0  -0.2156
  O  O599  1  0.117940  0.897940  0.634900  1.0  -0.618
  O  O600  1  0.170310  0.866240  0.759800  1.0  -0.6379
  O  O601  1  0.266100  0.169180  0.521100  1.0  -0.6776
  O  O602  1  0.193800  0.148570  0.467700  1.0  -0.7114
  O  O603  1  0.316350  0.448730  0.942700  1.0  -0.6893
  O  O604  1  0.245350  0.433680  0.017700  1.0  -0.7289
  O  O605  1  0.319250  0.529140  0.083800  1.0  -0.216
  O  O606  1  0.382060  0.602060  0.134900  1.0  -0.6173
  O  O607  1  0.329690  0.633760  0.259800  1.0  -0.6385
  O  O608  1  0.233900  0.330820  0.021100  1.0  -0.6769
  O  O609  1  0.306200  0.351430  0.967700  1.0  -0.711
  O  O610  1  0.816350  0.948730  0.442700  1.0  -0.6893
  O  O611  1  0.745350  0.933680  0.517700  1.0  -0.7289
  O  O612  1  0.819250  0.029140  0.583800  1.0  -0.216
  O  O613  1  0.882060  0.102060  0.634900  1.0  -0.6173
  O  O614  1  0.829690  0.133760  0.759800  1.0  -0.6385
  O  O615  1  0.733900  0.830820  0.521100  1.0  -0.6769
  O  O616  1  0.806200  0.851430  0.467700  1.0  -0.711
  O  O617  1  0.051270  0.683650  0.692700  1.0  -0.6904
  O  O618  1  0.066320  0.754650  0.767700  1.0  -0.7298
  O  O619  1  0.970860  0.680750  0.833800  1.0  -0.2134
  O  O620  1  0.897940  0.617940  0.884900  1.0  -0.6185
  O  O621  1  0.866240  0.670310  0.009800  1.0  -0.6364
  O  O622  1  0.169180  0.766100  0.771100  1.0  -0.6784
  O  O623  1  0.148570  0.693800  0.717700  1.0  -0.7106
  O  O624  1  0.551270  0.183650  0.192700  1.0  -0.6904
  O  O625  1  0.566320  0.254650  0.267700  1.0  -0.7298
  O  O626  1  0.470860  0.180750  0.333800  1.0  -0.2134
  O  O627  1  0.397940  0.117940  0.384900  1.0  -0.6185
  O  O628  1  0.366240  0.170310  0.509800  1.0  -0.6364
  O  O629  1  0.669180  0.266100  0.271100  1.0  -0.6784
  O  O630  1  0.648570  0.193800  0.217700  1.0  -0.7106
  O  O631  1  0.948730  0.316350  0.692700  1.0  -0.6896
  O  O632  1  0.933680  0.245350  0.767700  1.0  -0.7298
  O  O633  1  0.029140  0.319250  0.833800  1.0  -0.2136
  O  O634  1  0.102060  0.382060  0.884900  1.0  -0.6187
  O  O635  1  0.133760  0.329690  0.009800  1.0  -0.6354
  O  O636  1  0.830820  0.233900  0.771100  1.0  -0.6784
  O  O637  1  0.851430  0.306200  0.717700  1.0  -0.7104
  O  O638  1  0.448730  0.816350  0.192700  1.0  -0.6896
  O  O639  1  0.433680  0.745350  0.267700  1.0  -0.7298
  O  O640  1  0.529140  0.819250  0.333800  1.0  -0.2136
  O  O641  1  0.602060  0.882060  0.384900  1.0  -0.6187
  O  O642  1  0.633760  0.829690  0.509800  1.0  -0.6354
  O  O643  1  0.330820  0.733900  0.271100  1.0  -0.6784
  O  O644  1  0.351430  0.806200  0.217700  1.0  -0.7104
  O  O645  1  0.816350  0.551270  0.807300  1.0  -0.6893
  O  O646  1  0.745350  0.566320  0.732300  1.0  -0.728
  O  O647  1  0.819250  0.470860  0.666200  1.0  -0.2158
  O  O648  1  0.882060  0.397940  0.615100  1.0  -0.617
  O  O649  1  0.829690  0.366240  0.490200  1.0  -0.6386
  O  O650  1  0.733900  0.669180  0.728900  1.0  -0.6777
  O  O651  1  0.806200  0.648570  0.782300  1.0  -0.7108
  O  O652  1  0.316350  0.051270  0.307300  1.0  -0.6893
  O  O653  1  0.245350  0.066320  0.232300  1.0  -0.728
  O  O654  1  0.319250  0.970860  0.166200  1.0  -0.2158
  O  O655  1  0.382060  0.897940  0.115100  1.0  -0.617
  O  O656  1  0.329690  0.866240  0.990200  1.0  -0.6386
  O  O657  1  0.233900  0.169180  0.228900  1.0  -0.6777
  O  O658  1  0.306200  0.148570  0.282300  1.0  -0.7108
  O  O659  1  0.183650  0.448730  0.807300  1.0  -0.6898
  O  O660  1  0.254650  0.433680  0.732300  1.0  -0.7286
  O  O661  1  0.180750  0.529140  0.666200  1.0  -0.217
  O  O662  1  0.117940  0.602060  0.615100  1.0  -0.617
  O  O663  1  0.170310  0.633760  0.490200  1.0  -0.6383
  O  O664  1  0.266100  0.330820  0.728900  1.0  -0.6784
  O  O665  1  0.193800  0.351430  0.782300  1.0  -0.7108
  O  O666  1  0.683650  0.948730  0.307300  1.0  -0.6898
  O  O667  1  0.754650  0.933680  0.232300  1.0  -0.7286
  O  O668  1  0.680750  0.029140  0.166200  1.0  -0.217
  O  O669  1  0.617940  0.102060  0.115100  1.0  -0.617
  O  O670  1  0.670310  0.133760  0.990200  1.0  -0.6383
  O  O671  1  0.766100  0.830820  0.228900  1.0  -0.6784
  O  O672  1  0.693800  0.851430  0.282300  1.0  -0.7108
  O  O673  1  0.250000  0.731530  0.875000  1.0  -0.1835
  O  O674  1  0.750000  0.231530  0.375000  1.0  -0.1835
  O  O675  1  0.750000  0.268470  0.875000  1.0  -0.1834
  O  O676  1  0.250000  0.768470  0.375000  1.0  -0.1834
  O  O677  1  0.731530  0.750000  0.125000  1.0  -0.1881
  O  O678  1  0.268470  0.250000  0.125000  1.0  -0.1914
  O  O679  1  0.768470  0.750000  0.625000  1.0  -0.1914
  O  O680  1  0.231530  0.250000  0.625000  1.0  -0.1881
