# generated using pymatgen
data_Eu2H22C42N4O15
_symmetry_space_group_name_H-M   'P 1'
_cell_length_a   29.19340000
_cell_length_b   29.19340000
_cell_length_c   10.50410000
_cell_angle_alpha   90.00000000
_cell_angle_beta   90.00000000
_cell_angle_gamma   90.00000000
_symmetry_Int_Tables_number   1
_chemical_formula_structural   Eu2H22C42N4O15
_chemical_formula_sum   'Eu16 H176 C336 N32 O120'
_cell_volume   8952.16758125
_cell_formula_units_Z   8
loop_
 _symmetry_equiv_pos_site_id
 _symmetry_equiv_pos_as_xyz
  1  'x, y, z'
loop_
 _atom_site_type_symbol
 _atom_site_label
 _atom_site_symmetry_multiplicity
 _atom_site_fract_x
 _atom_site_fract_y
 _atom_site_fract_z
 _atom_site_occupancy
 _atom_site_charge
  Eu  Eu1  1  0.391840  0.683310  0.214450  1.0  2.1219
  Eu  Eu2  1  0.891840  0.183310  0.714450  1.0  2.1219
  Eu  Eu3  1  0.608160  0.316690  0.214450  1.0  2.1214
  Eu  Eu4  1  0.108160  0.816690  0.714450  1.0  2.1214
  Eu  Eu5  1  0.683310  0.608160  0.785550  1.0  2.1206
  Eu  Eu6  1  0.183310  0.108160  0.285550  1.0  2.1206
  Eu  Eu7  1  0.316690  0.391840  0.785550  1.0  2.1208
  Eu  Eu8  1  0.816690  0.891840  0.285550  1.0  2.1208
  Eu  Eu9  1  0.108160  0.683310  0.535550  1.0  2.1219
  Eu  Eu10  1  0.608160  0.183310  0.035550  1.0  2.1219
  Eu  Eu11  1  0.891840  0.316690  0.535550  1.0  2.1216
  Eu  Eu12  1  0.391840  0.816690  0.035550  1.0  2.1216
  Eu  Eu13  1  0.816690  0.608160  0.964450  1.0  2.1178
  Eu  Eu14  1  0.316690  0.108160  0.464450  1.0  2.1178
  Eu  Eu15  1  0.183310  0.391840  0.964450  1.0  2.118
  Eu  Eu16  1  0.683310  0.891840  0.464450  1.0  2.118
  H  H17  1  0.247800  0.584700  0.251900  1.0  0.1194
  H  H18  1  0.217100  0.508600  0.167500  1.0  0.119
  H  H19  1  0.287000  0.867500  0.313500  1.0  0.1277
  H  H20  1  0.488100  0.621500  0.162600  1.0  0.0796
  H  H21  1  0.554200  0.589300  0.255500  1.0  0.1129
  H  H22  1  0.558100  0.585300  0.480400  1.0  0.0949
  H  H23  1  0.522900  0.604600  0.696700  1.0  0.1124
  H  H24  1  0.463500  0.631300  0.807400  1.0  0.095
  H  H25  1  0.384800  0.669600  0.812400  1.0  0.0864
  H  H26  1  0.321500  0.696200  0.700700  1.0  0.1102
  H  H27  1  0.326900  0.700900  0.476800  1.0  0.0778
  H  H28  1  0.747800  0.084700  0.751900  1.0  0.1194
  H  H29  1  0.717100  0.008600  0.667500  1.0  0.119
  H  H30  1  0.787000  0.367500  0.813500  1.0  0.1277
  H  H31  1  0.988100  0.121500  0.662600  1.0  0.0796
  H  H32  1  0.054200  0.089300  0.755500  1.0  0.1129
  H  H33  1  0.058100  0.085300  0.980400  1.0  0.0949
  H  H34  1  0.022900  0.104600  0.196700  1.0  0.1124
  H  H35  1  0.963500  0.131300  0.307400  1.0  0.095
  H  H36  1  0.884800  0.169600  0.312400  1.0  0.0864
  H  H37  1  0.821500  0.196200  0.200700  1.0  0.1102
  H  H38  1  0.826900  0.200900  0.976800  1.0  0.0778
  H  H39  1  0.752200  0.415300  0.251900  1.0  0.1196
  H  H40  1  0.782900  0.491400  0.167500  1.0  0.1188
  H  H41  1  0.713000  0.132500  0.313500  1.0  0.1275
  H  H42  1  0.511900  0.378500  0.162600  1.0  0.0789
  H  H43  1  0.445800  0.410700  0.255500  1.0  0.1129
  H  H44  1  0.441900  0.414700  0.480400  1.0  0.0948
  H  H45  1  0.477100  0.395400  0.696700  1.0  0.1119
  H  H46  1  0.536500  0.368700  0.807400  1.0  0.0951
  H  H47  1  0.615200  0.330400  0.812400  1.0  0.0862
  H  H48  1  0.678500  0.303800  0.700700  1.0  0.1105
  H  H49  1  0.673100  0.299100  0.476800  1.0  0.0778
  H  H50  1  0.252200  0.915300  0.751900  1.0  0.1196
  H  H51  1  0.282900  0.991400  0.667500  1.0  0.1188
  H  H52  1  0.213000  0.632500  0.813500  1.0  0.1275
  H  H53  1  0.011900  0.878500  0.662600  1.0  0.0789
  H  H54  1  0.945800  0.910700  0.755500  1.0  0.1129
  H  H55  1  0.941900  0.914700  0.980400  1.0  0.0948
  H  H56  1  0.977100  0.895400  0.196700  1.0  0.1119
  H  H57  1  0.036500  0.868700  0.307400  1.0  0.0951
  H  H58  1  0.115200  0.830400  0.312400  1.0  0.0862
  H  H59  1  0.178500  0.803800  0.200700  1.0  0.1105
  H  H60  1  0.173100  0.799100  0.976800  1.0  0.0778
  H  H61  1  0.584700  0.752200  0.748100  1.0  0.119
  H  H62  1  0.508600  0.782900  0.832500  1.0  0.1179
  H  H63  1  0.867500  0.713000  0.686500  1.0  0.1275
  H  H64  1  0.621500  0.511900  0.837400  1.0  0.0776
  H  H65  1  0.589300  0.445800  0.744500  1.0  0.1134
  H  H66  1  0.585300  0.441900  0.519600  1.0  0.0951
  H  H67  1  0.604600  0.477100  0.303300  1.0  0.1112
  H  H68  1  0.631300  0.536500  0.192600  1.0  0.0967
  H  H69  1  0.669600  0.615200  0.187600  1.0  0.0866
  H  H70  1  0.696200  0.678500  0.299300  1.0  0.1107
  H  H71  1  0.700900  0.673100  0.523200  1.0  0.0785
  H  H72  1  0.084700  0.252200  0.248100  1.0  0.119
  H  H73  1  0.008600  0.282900  0.332500  1.0  0.1179
  H  H74  1  0.367500  0.213000  0.186500  1.0  0.1275
  H  H75  1  0.121500  0.011900  0.337400  1.0  0.0776
  H  H76  1  0.089300  0.945800  0.244500  1.0  0.1134
  H  H77  1  0.085300  0.941900  0.019600  1.0  0.0951
  H  H78  1  0.104600  0.977100  0.803300  1.0  0.1112
  H  H79  1  0.131300  0.036500  0.692600  1.0  0.0967
  H  H80  1  0.169600  0.115200  0.687600  1.0  0.0866
  H  H81  1  0.196200  0.178500  0.799300  1.0  0.1107
  H  H82  1  0.200900  0.173100  0.023200  1.0  0.0785
  H  H83  1  0.415300  0.247800  0.748100  1.0  0.1188
  H  H84  1  0.491400  0.217100  0.832500  1.0  0.1171
  H  H85  1  0.132500  0.287000  0.686500  1.0  0.1274
  H  H86  1  0.378500  0.488100  0.837400  1.0  0.078
  H  H87  1  0.410700  0.554200  0.744500  1.0  0.1131
  H  H88  1  0.414700  0.558100  0.519600  1.0  0.095
  H  H89  1  0.395400  0.522900  0.303300  1.0  0.1118
  H  H90  1  0.368700  0.463500  0.192600  1.0  0.0964
  H  H91  1  0.330400  0.384800  0.187600  1.0  0.0861
  H  H92  1  0.303800  0.321500  0.299300  1.0  0.1108
  H  H93  1  0.299100  0.326900  0.523200  1.0  0.0788
  H  H94  1  0.915300  0.747800  0.248100  1.0  0.1188
  H  H95  1  0.991400  0.717100  0.332500  1.0  0.1171
  H  H96  1  0.632500  0.787000  0.186500  1.0  0.1274
  H  H97  1  0.878500  0.988100  0.337400  1.0  0.078
  H  H98  1  0.910700  0.054200  0.244500  1.0  0.1131
  H  H99  1  0.914700  0.058100  0.019600  1.0  0.095
  H  H100  1  0.895400  0.022900  0.803300  1.0  0.1118
  H  H101  1  0.868700  0.963500  0.692600  1.0  0.0964
  H  H102  1  0.830400  0.884800  0.687600  1.0  0.0861
  H  H103  1  0.803800  0.821500  0.799300  1.0  0.1108
  H  H104  1  0.799100  0.826900  0.023200  1.0  0.0788
  H  H105  1  0.252200  0.584700  0.498100  1.0  0.1196
  H  H106  1  0.282900  0.508600  0.582500  1.0  0.1182
  H  H107  1  0.213000  0.867500  0.436500  1.0  0.1278
  H  H108  1  0.011900  0.621500  0.587400  1.0  0.0788
  H  H109  1  0.945800  0.589300  0.494500  1.0  0.1125
  H  H110  1  0.941900  0.585300  0.269600  1.0  0.095
  H  H111  1  0.977100  0.604600  0.053300  1.0  0.1118
  H  H112  1  0.036500  0.631300  0.942600  1.0  0.096
  H  H113  1  0.115200  0.669600  0.937600  1.0  0.0866
  H  H114  1  0.178500  0.696200  0.049300  1.0  0.1104
  H  H115  1  0.173100  0.700900  0.273200  1.0  0.0775
  H  H116  1  0.752200  0.084700  0.998100  1.0  0.1196
  H  H117  1  0.782900  0.008600  0.082500  1.0  0.1182
  H  H118  1  0.713000  0.367500  0.936500  1.0  0.1278
  H  H119  1  0.511900  0.121500  0.087400  1.0  0.0788
  H  H120  1  0.445800  0.089300  0.994500  1.0  0.1125
  H  H121  1  0.441900  0.085300  0.769600  1.0  0.095
  H  H122  1  0.477100  0.104600  0.553300  1.0  0.1118
  H  H123  1  0.536500  0.131300  0.442600  1.0  0.096
  H  H124  1  0.615200  0.169600  0.437600  1.0  0.0866
  H  H125  1  0.678500  0.196200  0.549300  1.0  0.1104
  H  H126  1  0.673100  0.200900  0.773200  1.0  0.0775
  H  H127  1  0.747800  0.415300  0.498100  1.0  0.1189
  H  H128  1  0.717100  0.491400  0.582500  1.0  0.1182
  H  H129  1  0.787000  0.132500  0.436500  1.0  0.1275
  H  H130  1  0.988100  0.378500  0.587400  1.0  0.0791
  H  H131  1  0.054200  0.410700  0.494500  1.0  0.1128
  H  H132  1  0.058100  0.414700  0.269600  1.0  0.0949
  H  H133  1  0.022900  0.395400  0.053300  1.0  0.112
  H  H134  1  0.963500  0.368700  0.942600  1.0  0.0959
  H  H135  1  0.884800  0.330400  0.937600  1.0  0.0868
  H  H136  1  0.821500  0.303800  0.049300  1.0  0.1107
  H  H137  1  0.826900  0.299100  0.273200  1.0  0.0779
  H  H138  1  0.247800  0.915300  0.998100  1.0  0.1189
  H  H139  1  0.217100  0.991400  0.082500  1.0  0.1182
  H  H140  1  0.287000  0.632500  0.936500  1.0  0.1275
  H  H141  1  0.488100  0.878500  0.087400  1.0  0.0791
  H  H142  1  0.554200  0.910700  0.994500  1.0  0.1128
  H  H143  1  0.558100  0.914700  0.769600  1.0  0.0949
  H  H144  1  0.522900  0.895400  0.553300  1.0  0.112
  H  H145  1  0.463500  0.868700  0.442600  1.0  0.0959
  H  H146  1  0.384800  0.830400  0.437600  1.0  0.0868
  H  H147  1  0.321500  0.803800  0.549300  1.0  0.1107
  H  H148  1  0.326900  0.799100  0.773200  1.0  0.0779
  H  H149  1  0.915300  0.752200  0.001900  1.0  0.1188
  H  H150  1  0.991400  0.782900  0.917500  1.0  0.1186
  H  H151  1  0.632500  0.713000  0.063500  1.0  0.1273
  H  H152  1  0.878500  0.511900  0.912600  1.0  0.078
  H  H153  1  0.910700  0.445800  0.005500  1.0  0.1136
  H  H154  1  0.914700  0.441900  0.230400  1.0  0.0948
  H  H155  1  0.895400  0.477100  0.446700  1.0  0.1116
  H  H156  1  0.868700  0.536500  0.557400  1.0  0.0954
  H  H157  1  0.830400  0.615200  0.562400  1.0  0.0864
  H  H158  1  0.803800  0.678500  0.450700  1.0  0.1109
  H  H159  1  0.799100  0.673100  0.226800  1.0  0.0792
  H  H160  1  0.415300  0.252200  0.501900  1.0  0.1188
  H  H161  1  0.491400  0.282900  0.417500  1.0  0.1186
  H  H162  1  0.132500  0.213000  0.563500  1.0  0.1273
  H  H163  1  0.378500  0.011900  0.412600  1.0  0.078
  H  H164  1  0.410700  0.945800  0.505500  1.0  0.1136
  H  H165  1  0.414700  0.941900  0.730400  1.0  0.0948
  H  H166  1  0.395400  0.977100  0.946700  1.0  0.1116
  H  H167  1  0.368700  0.036500  0.057400  1.0  0.0954
  H  H168  1  0.330400  0.115200  0.062400  1.0  0.0864
  H  H169  1  0.303800  0.178500  0.950700  1.0  0.1109
  H  H170  1  0.299100  0.173100  0.726800  1.0  0.0792
  H  H171  1  0.084700  0.247800  0.001900  1.0  0.1193
  H  H172  1  0.008600  0.217100  0.917500  1.0  0.1179
  H  H173  1  0.367500  0.287000  0.063500  1.0  0.1275
  H  H174  1  0.121500  0.488100  0.912600  1.0  0.0781
  H  H175  1  0.089300  0.554200  0.005500  1.0  0.1134
  H  H176  1  0.085300  0.558100  0.230400  1.0  0.0948
  H  H177  1  0.104600  0.522900  0.446700  1.0  0.1117
  H  H178  1  0.131300  0.463500  0.557400  1.0  0.096
  H  H179  1  0.169600  0.384800  0.562400  1.0  0.0866
  H  H180  1  0.196200  0.321500  0.450700  1.0  0.1106
  H  H181  1  0.200900  0.326900  0.226800  1.0  0.0782
  H  H182  1  0.584700  0.747800  0.501900  1.0  0.1193
  H  H183  1  0.508600  0.717100  0.417500  1.0  0.1179
  H  H184  1  0.867500  0.787000  0.563500  1.0  0.1275
  H  H185  1  0.621500  0.988100  0.412600  1.0  0.0781
  H  H186  1  0.589300  0.054200  0.505500  1.0  0.1134
  H  H187  1  0.585300  0.058100  0.730400  1.0  0.0948
  H  H188  1  0.604600  0.022900  0.946700  1.0  0.1117
  H  H189  1  0.631300  0.963500  0.057400  1.0  0.096
  H  H190  1  0.669600  0.884800  0.062400  1.0  0.0866
  H  H191  1  0.696200  0.821500  0.950700  1.0  0.1106
  H  H192  1  0.700900  0.826900  0.726800  1.0  0.0782
  C  C193  1  0.341900  0.601500  0.188300  1.0  0.658
  C  C194  1  0.307800  0.566600  0.160900  1.0  0.1027
  C  C195  1  0.263900  0.563100  0.201200  1.0  -0.1824
  C  C196  1  0.246700  0.521200  0.153500  1.0  -0.1557
  C  C197  1  0.281200  0.502800  0.083500  1.0  0.0912
  C  C198  1  0.282600  0.459500  0.009800  1.0  0.6705
  C  C199  1  0.324100  0.776300  0.268000  1.0  0.668
  C  C200  1  0.282800  0.796800  0.324800  1.0  0.0537
  C  C201  1  0.270500  0.841400  0.341800  1.0  -0.0977
  C  C202  1  0.491000  0.621600  0.252700  1.0  0.1334
  C  C203  1  0.530300  0.601300  0.307000  1.0  -0.0866
  C  C204  1  0.532700  0.599600  0.440500  1.0  -0.0349
  C  C205  1  0.497900  0.618900  0.515700  1.0  0.0237
  C  C206  1  0.497500  0.617400  0.652700  1.0  -0.1444
  C  C207  1  0.462900  0.633200  0.717200  1.0  -0.103
  C  C208  1  0.424300  0.653200  0.657500  1.0  0.0305
  C  C209  1  0.385400  0.670000  0.722000  1.0  -0.0082
  C  C210  1  0.348500  0.686700  0.657600  1.0  -0.1319
  C  C211  1  0.352100  0.689100  0.523400  1.0  0.154
  C  C212  1  0.424100  0.657100  0.522900  1.0  0.1494
  C  C213  1  0.461600  0.638600  0.451000  1.0  0.1764
  C  C214  1  0.841900  0.101500  0.688300  1.0  0.658
  C  C215  1  0.807800  0.066600  0.660900  1.0  0.1027
  C  C216  1  0.763900  0.063100  0.701200  1.0  -0.1824
  C  C217  1  0.746700  0.021200  0.653500  1.0  -0.1557
  C  C218  1  0.781200  0.002800  0.583500  1.0  0.0912
  C  C219  1  0.782600  0.959500  0.509800  1.0  0.6705
  C  C220  1  0.824100  0.276300  0.768000  1.0  0.668
  C  C221  1  0.782800  0.296800  0.824800  1.0  0.0537
  C  C222  1  0.770500  0.341400  0.841800  1.0  -0.0977
  C  C223  1  0.991000  0.121600  0.752700  1.0  0.1334
  C  C224  1  0.030300  0.101300  0.807000  1.0  -0.0866
  C  C225  1  0.032700  0.099600  0.940500  1.0  -0.0349
  C  C226  1  0.997900  0.118900  0.015700  1.0  0.0237
  C  C227  1  0.997500  0.117400  0.152700  1.0  -0.1444
  C  C228  1  0.962900  0.133200  0.217200  1.0  -0.103
  C  C229  1  0.924300  0.153200  0.157500  1.0  0.0305
  C  C230  1  0.885400  0.170000  0.222000  1.0  -0.0082
  C  C231  1  0.848500  0.186700  0.157600  1.0  -0.1319
  C  C232  1  0.852100  0.189100  0.023400  1.0  0.154
  C  C233  1  0.924100  0.157100  0.022900  1.0  0.1494
  C  C234  1  0.961600  0.138600  0.951000  1.0  0.1764
  C  C235  1  0.658100  0.398500  0.188300  1.0  0.6578
  C  C236  1  0.692200  0.433400  0.160900  1.0  0.1023
  C  C237  1  0.736100  0.436900  0.201200  1.0  -0.1823
  C  C238  1  0.753300  0.478800  0.153500  1.0  -0.1549
  C  C239  1  0.718800  0.497200  0.083500  1.0  0.0913
  C  C240  1  0.717400  0.540500  0.009800  1.0  0.6705
  C  C241  1  0.675900  0.223700  0.268000  1.0  0.6706
  C  C242  1  0.717200  0.203200  0.324800  1.0  0.0536
  C  C243  1  0.729500  0.158600  0.341800  1.0  -0.0991
  C  C244  1  0.509000  0.378400  0.252700  1.0  0.133
  C  C245  1  0.469700  0.398700  0.307000  1.0  -0.0873
  C  C246  1  0.467300  0.400400  0.440500  1.0  -0.0357
  C  C247  1  0.502100  0.381100  0.515700  1.0  0.0243
  C  C248  1  0.502500  0.382600  0.652700  1.0  -0.1457
  C  C249  1  0.537100  0.366800  0.717200  1.0  -0.1038
  C  C250  1  0.575700  0.346800  0.657500  1.0  0.0307
  C  C251  1  0.614600  0.330000  0.722000  1.0  -0.0073
  C  C252  1  0.651500  0.313300  0.657600  1.0  -0.1292
  C  C253  1  0.647900  0.310900  0.523400  1.0  0.1539
  C  C254  1  0.575900  0.342900  0.522900  1.0  0.1492
  C  C255  1  0.538400  0.361400  0.451000  1.0  0.1766
  C  C256  1  0.158100  0.898500  0.688300  1.0  0.6578
  C  C257  1  0.192200  0.933400  0.660900  1.0  0.1023
  C  C258  1  0.236100  0.936900  0.701200  1.0  -0.1823
  C  C259  1  0.253300  0.978800  0.653500  1.0  -0.1549
  C  C260  1  0.218800  0.997200  0.583500  1.0  0.0913
  C  C261  1  0.217400  0.040500  0.509800  1.0  0.6705
  C  C262  1  0.175900  0.723700  0.768000  1.0  0.6706
  C  C263  1  0.217200  0.703200  0.824800  1.0  0.0536
  C  C264  1  0.229500  0.658600  0.841800  1.0  -0.0991
  C  C265  1  0.009000  0.878400  0.752700  1.0  0.133
  C  C266  1  0.969700  0.898700  0.807000  1.0  -0.0873
  C  C267  1  0.967300  0.900400  0.940500  1.0  -0.0357
  C  C268  1  0.002100  0.881100  0.015700  1.0  0.0243
  C  C269  1  0.002500  0.882600  0.152700  1.0  -0.1457
  C  C270  1  0.037100  0.866800  0.217200  1.0  -0.1038
  C  C271  1  0.075700  0.846800  0.157500  1.0  0.0307
  C  C272  1  0.114600  0.830000  0.222000  1.0  -0.0073
  C  C273  1  0.151500  0.813300  0.157600  1.0  -0.1292
  C  C274  1  0.147900  0.810900  0.023400  1.0  0.1539
  C  C275  1  0.075900  0.842900  0.022900  1.0  0.1492
  C  C276  1  0.038400  0.861400  0.951000  1.0  0.1766
  C  C277  1  0.601500  0.658100  0.811700  1.0  0.6575
  C  C278  1  0.566600  0.692200  0.839100  1.0  0.1014
  C  C279  1  0.563100  0.736100  0.798800  1.0  -0.1824
  C  C280  1  0.521200  0.753300  0.846500  1.0  -0.1554
  C  C281  1  0.502800  0.718800  0.916500  1.0  0.0914
  C  C282  1  0.459500  0.717400  0.990200  1.0  0.6692
  C  C283  1  0.776300  0.675900  0.732000  1.0  0.6747
  C  C284  1  0.796800  0.717200  0.675200  1.0  0.0542
  C  C285  1  0.841400  0.729500  0.658200  1.0  -0.0972
  C  C286  1  0.621600  0.509000  0.747300  1.0  0.132
  C  C287  1  0.601300  0.469700  0.693000  1.0  -0.0874
  C  C288  1  0.599600  0.467300  0.559500  1.0  -0.0373
  C  C289  1  0.618900  0.502100  0.484300  1.0  0.0244
  C  C290  1  0.617400  0.502500  0.347300  1.0  -0.1464
  C  C291  1  0.633200  0.537100  0.282800  1.0  -0.1048
  C  C292  1  0.653200  0.575700  0.342500  1.0  0.0301
  C  C293  1  0.670000  0.614600  0.278000  1.0  -0.0054
  C  C294  1  0.686700  0.651500  0.342400  1.0  -0.1267
  C  C295  1  0.689100  0.647900  0.476600  1.0  0.1541
  C  C296  1  0.657100  0.575900  0.477100  1.0  0.1486
  C  C297  1  0.638600  0.538400  0.549000  1.0  0.176
  C  C298  1  0.101500  0.158100  0.311700  1.0  0.6575
  C  C299  1  0.066600  0.192200  0.339100  1.0  0.1014
  C  C300  1  0.063100  0.236100  0.298800  1.0  -0.1824
  C  C301  1  0.021200  0.253300  0.346500  1.0  -0.1554
  C  C302  1  0.002800  0.218800  0.416500  1.0  0.0914
  C  C303  1  0.959500  0.217400  0.490200  1.0  0.6692
  C  C304  1  0.276300  0.175900  0.232000  1.0  0.6747
  C  C305  1  0.296800  0.217200  0.175200  1.0  0.0542
  C  C306  1  0.341400  0.229500  0.158200  1.0  -0.0972
  C  C307  1  0.121600  0.009000  0.247300  1.0  0.132
  C  C308  1  0.101300  0.969700  0.193000  1.0  -0.0874
  C  C309  1  0.099600  0.967300  0.059500  1.0  -0.0373
  C  C310  1  0.118900  0.002100  0.984300  1.0  0.0244
  C  C311  1  0.117400  0.002500  0.847300  1.0  -0.1464
  C  C312  1  0.133200  0.037100  0.782800  1.0  -0.1048
  C  C313  1  0.153200  0.075700  0.842500  1.0  0.0301
  C  C314  1  0.170000  0.114600  0.778000  1.0  -0.0054
  C  C315  1  0.186700  0.151500  0.842400  1.0  -0.1267
  C  C316  1  0.189100  0.147900  0.976600  1.0  0.1541
  C  C317  1  0.157100  0.075900  0.977100  1.0  0.1486
  C  C318  1  0.138600  0.038400  0.049000  1.0  0.176
  C  C319  1  0.398500  0.341900  0.811700  1.0  0.6589
  C  C320  1  0.433400  0.307800  0.839100  1.0  0.1012
  C  C321  1  0.436900  0.263900  0.798800  1.0  -0.1826
  C  C322  1  0.478800  0.246700  0.846500  1.0  -0.1554
  C  C323  1  0.497200  0.281200  0.916500  1.0  0.0926
  C  C324  1  0.540500  0.282600  0.990200  1.0  0.6682
  C  C325  1  0.223700  0.324100  0.732000  1.0  0.6745
  C  C326  1  0.203200  0.282800  0.675200  1.0  0.0552
  C  C327  1  0.158600  0.270500  0.658200  1.0  -0.097
  C  C328  1  0.378400  0.491000  0.747300  1.0  0.1329
  C  C329  1  0.398700  0.530300  0.693000  1.0  -0.086
  C  C330  1  0.400400  0.532700  0.559500  1.0  -0.0353
  C  C331  1  0.381100  0.497900  0.484300  1.0  0.0239
  C  C332  1  0.382600  0.497500  0.347300  1.0  -0.1471
  C  C333  1  0.366800  0.462900  0.282800  1.0  -0.1052
  C  C334  1  0.346800  0.424300  0.342500  1.0  0.0305
  C  C335  1  0.330000  0.385400  0.278000  1.0  -0.005
  C  C336  1  0.313300  0.348500  0.342400  1.0  -0.1286
  C  C337  1  0.310900  0.352100  0.476600  1.0  0.1537
  C  C338  1  0.342900  0.424100  0.477100  1.0  0.149
  C  C339  1  0.361400  0.461600  0.549000  1.0  0.1761
  C  C340  1  0.898500  0.841900  0.311700  1.0  0.6589
  C  C341  1  0.933400  0.807800  0.339100  1.0  0.1012
  C  C342  1  0.936900  0.763900  0.298800  1.0  -0.1826
  C  C343  1  0.978800  0.746700  0.346500  1.0  -0.1554
  C  C344  1  0.997200  0.781200  0.416500  1.0  0.0926
  C  C345  1  0.040500  0.782600  0.490200  1.0  0.6682
  C  C346  1  0.723700  0.824100  0.232000  1.0  0.6745
  C  C347  1  0.703200  0.782800  0.175200  1.0  0.0552
  C  C348  1  0.658600  0.770500  0.158200  1.0  -0.097
  C  C349  1  0.878400  0.991000  0.247300  1.0  0.1329
  C  C350  1  0.898700  0.030300  0.193000  1.0  -0.086
  C  C351  1  0.900400  0.032700  0.059500  1.0  -0.0353
  C  C352  1  0.881100  0.997900  0.984300  1.0  0.0239
  C  C353  1  0.882600  0.997500  0.847300  1.0  -0.1471
  C  C354  1  0.866800  0.962900  0.782800  1.0  -0.1052
  C  C355  1  0.846800  0.924300  0.842500  1.0  0.0305
  C  C356  1  0.830000  0.885400  0.778000  1.0  -0.005
  C  C357  1  0.813300  0.848500  0.842400  1.0  -0.1286
  C  C358  1  0.810900  0.852100  0.976600  1.0  0.1537
  C  C359  1  0.842900  0.924100  0.977100  1.0  0.149
  C  C360  1  0.861400  0.961600  0.049000  1.0  0.1761
  C  C361  1  0.158100  0.601500  0.561700  1.0  0.658
  C  C362  1  0.192200  0.566600  0.589100  1.0  0.1019
  C  C363  1  0.236100  0.563100  0.548800  1.0  -0.1833
  C  C364  1  0.253300  0.521200  0.596500  1.0  -0.1551
  C  C365  1  0.218800  0.502800  0.666500  1.0  0.0928
  C  C366  1  0.217400  0.459500  0.740200  1.0  0.6707
  C  C367  1  0.175900  0.776300  0.482000  1.0  0.6703
  C  C368  1  0.217200  0.796800  0.425200  1.0  0.0534
  C  C369  1  0.229500  0.841400  0.408200  1.0  -0.0995
  C  C370  1  0.009000  0.621600  0.497300  1.0  0.1318
  C  C371  1  0.969700  0.601300  0.443000  1.0  -0.0854
  C  C372  1  0.967300  0.599600  0.309500  1.0  -0.0346
  C  C373  1  0.002100  0.618900  0.234300  1.0  0.0247
  C  C374  1  0.002500  0.617400  0.097300  1.0  -0.1457
  C  C375  1  0.037100  0.633200  0.032800  1.0  -0.1033
  C  C376  1  0.075700  0.653200  0.092500  1.0  0.0309
  C  C377  1  0.114600  0.670000  0.028000  1.0  -0.0047
  C  C378  1  0.151500  0.686700  0.092400  1.0  -0.1305
  C  C379  1  0.147900  0.689100  0.226600  1.0  0.1546
  C  C380  1  0.075900  0.657100  0.227100  1.0  0.1491
  C  C381  1  0.038400  0.638600  0.299000  1.0  0.1758
  C  C382  1  0.658100  0.101500  0.061700  1.0  0.658
  C  C383  1  0.692200  0.066600  0.089100  1.0  0.1019
  C  C384  1  0.736100  0.063100  0.048800  1.0  -0.1833
  C  C385  1  0.753300  0.021200  0.096500  1.0  -0.1551
  C  C386  1  0.718800  0.002800  0.166500  1.0  0.0928
  C  C387  1  0.717400  0.959500  0.240200  1.0  0.6707
  C  C388  1  0.675900  0.276300  0.982000  1.0  0.6703
  C  C389  1  0.717200  0.296800  0.925200  1.0  0.0534
  C  C390  1  0.729500  0.341400  0.908200  1.0  -0.0995
  C  C391  1  0.509000  0.121600  0.997300  1.0  0.1318
  C  C392  1  0.469700  0.101300  0.943000  1.0  -0.0854
  C  C393  1  0.467300  0.099600  0.809500  1.0  -0.0346
  C  C394  1  0.502100  0.118900  0.734300  1.0  0.0247
  C  C395  1  0.502500  0.117400  0.597300  1.0  -0.1457
  C  C396  1  0.537100  0.133200  0.532800  1.0  -0.1033
  C  C397  1  0.575700  0.153200  0.592500  1.0  0.0309
  C  C398  1  0.614600  0.170000  0.528000  1.0  -0.0047
  C  C399  1  0.651500  0.186700  0.592400  1.0  -0.1305
  C  C400  1  0.647900  0.189100  0.726600  1.0  0.1546
  C  C401  1  0.575900  0.157100  0.727100  1.0  0.1491
  C  C402  1  0.538400  0.138600  0.799000  1.0  0.1758
  C  C403  1  0.841900  0.398500  0.561700  1.0  0.6578
  C  C404  1  0.807800  0.433400  0.589100  1.0  0.1028
  C  C405  1  0.763900  0.436900  0.548800  1.0  -0.1837
  C  C406  1  0.746700  0.478800  0.596500  1.0  -0.1557
  C  C407  1  0.781200  0.497200  0.666500  1.0  0.092
  C  C408  1  0.782600  0.540500  0.740200  1.0  0.6708
  C  C409  1  0.824100  0.223700  0.482000  1.0  0.6684
  C  C410  1  0.782800  0.203200  0.425200  1.0  0.0542
  C  C411  1  0.770500  0.158600  0.408200  1.0  -0.099
  C  C412  1  0.991000  0.378400  0.497300  1.0  0.1308
  C  C413  1  0.030300  0.398700  0.443000  1.0  -0.0857
  C  C414  1  0.032700  0.400400  0.309500  1.0  -0.0348
  C  C415  1  0.997900  0.381100  0.234300  1.0  0.0235
  C  C416  1  0.997500  0.382600  0.097300  1.0  -0.1462
  C  C417  1  0.962900  0.366800  0.032800  1.0  -0.1057
  C  C418  1  0.924300  0.346800  0.092500  1.0  0.0305
  C  C419  1  0.885400  0.330000  0.028000  1.0  -0.0049
  C  C420  1  0.848500  0.313300  0.092400  1.0  -0.1311
  C  C421  1  0.852100  0.310900  0.226600  1.0  0.1549
  C  C422  1  0.924100  0.342900  0.227100  1.0  0.1497
  C  C423  1  0.961600  0.361400  0.299000  1.0  0.176
  C  C424  1  0.341900  0.898500  0.061700  1.0  0.6578
  C  C425  1  0.307800  0.933400  0.089100  1.0  0.1028
  C  C426  1  0.263900  0.936900  0.048800  1.0  -0.1837
  C  C427  1  0.246700  0.978800  0.096500  1.0  -0.1557
  C  C428  1  0.281200  0.997200  0.166500  1.0  0.092
  C  C429  1  0.282600  0.040500  0.240200  1.0  0.6708
  C  C430  1  0.324100  0.723700  0.982000  1.0  0.6684
  C  C431  1  0.282800  0.703200  0.925200  1.0  0.0542
  C  C432  1  0.270500  0.658600  0.908200  1.0  -0.099
  C  C433  1  0.491000  0.878400  0.997300  1.0  0.1308
  C  C434  1  0.530300  0.898700  0.943000  1.0  -0.0857
  C  C435  1  0.532700  0.900400  0.809500  1.0  -0.0348
  C  C436  1  0.497900  0.881100  0.734300  1.0  0.0235
  C  C437  1  0.497500  0.882600  0.597300  1.0  -0.1462
  C  C438  1  0.462900  0.866800  0.532800  1.0  -0.1057
  C  C439  1  0.424300  0.846800  0.592500  1.0  0.0305
  C  C440  1  0.385400  0.830000  0.528000  1.0  -0.0049
  C  C441  1  0.348500  0.813300  0.592400  1.0  -0.1311
  C  C442  1  0.352100  0.810900  0.726600  1.0  0.1549
  C  C443  1  0.424100  0.842900  0.727100  1.0  0.1497
  C  C444  1  0.461600  0.861400  0.799000  1.0  0.176
  C  C445  1  0.898500  0.658100  0.938300  1.0  0.6584
  C  C446  1  0.933400  0.692200  0.910900  1.0  0.1015
  C  C447  1  0.936900  0.736100  0.951200  1.0  -0.1821
  C  C448  1  0.978800  0.753300  0.903500  1.0  -0.1543
  C  C449  1  0.997200  0.718800  0.833500  1.0  0.0921
  C  C450  1  0.040500  0.717400  0.759800  1.0  0.6674
  C  C451  1  0.723700  0.675900  0.018000  1.0  0.6747
  C  C452  1  0.703200  0.717200  0.074800  1.0  0.0558
  C  C453  1  0.658600  0.729500  0.091800  1.0  -0.0966
  C  C454  1  0.878400  0.509000  0.002700  1.0  0.1345
  C  C455  1  0.898700  0.469700  0.057000  1.0  -0.0878
  C  C456  1  0.900400  0.467300  0.190500  1.0  -0.0367
  C  C457  1  0.881100  0.502100  0.265700  1.0  0.0242
  C  C458  1  0.882600  0.502500  0.402700  1.0  -0.1445
  C  C459  1  0.866800  0.537100  0.467200  1.0  -0.103
  C  C460  1  0.846800  0.575700  0.407500  1.0  0.0304
  C  C461  1  0.830000  0.614600  0.472000  1.0  -0.008
  C  C462  1  0.813300  0.651500  0.407600  1.0  -0.1283
  C  C463  1  0.810900  0.647900  0.273400  1.0  0.1529
  C  C464  1  0.842900  0.575900  0.272900  1.0  0.1486
  C  C465  1  0.861400  0.538400  0.201000  1.0  0.1766
  C  C466  1  0.398500  0.158100  0.438300  1.0  0.6584
  C  C467  1  0.433400  0.192200  0.410900  1.0  0.1015
  C  C468  1  0.436900  0.236100  0.451200  1.0  -0.1821
  C  C469  1  0.478800  0.253300  0.403500  1.0  -0.1543
  C  C470  1  0.497200  0.218800  0.333500  1.0  0.0921
  C  C471  1  0.540500  0.217400  0.259800  1.0  0.6674
  C  C472  1  0.223700  0.175900  0.518000  1.0  0.6747
  C  C473  1  0.203200  0.217200  0.574800  1.0  0.0558
  C  C474  1  0.158600  0.229500  0.591800  1.0  -0.0966
  C  C475  1  0.378400  0.009000  0.502700  1.0  0.1345
  C  C476  1  0.398700  0.969700  0.557000  1.0  -0.0878
  C  C477  1  0.400400  0.967300  0.690500  1.0  -0.0367
  C  C478  1  0.381100  0.002100  0.765700  1.0  0.0242
  C  C479  1  0.382600  0.002500  0.902700  1.0  -0.1445
  C  C480  1  0.366800  0.037100  0.967200  1.0  -0.103
  C  C481  1  0.346800  0.075700  0.907500  1.0  0.0304
  C  C482  1  0.330000  0.114600  0.972000  1.0  -0.008
  C  C483  1  0.313300  0.151500  0.907600  1.0  -0.1283
  C  C484  1  0.310900  0.147900  0.773400  1.0  0.1529
  C  C485  1  0.342900  0.075900  0.772900  1.0  0.1486
  C  C486  1  0.361400  0.038400  0.701000  1.0  0.1766
  C  C487  1  0.101500  0.341900  0.938300  1.0  0.658
  C  C488  1  0.066600  0.307800  0.910900  1.0  0.1011
  C  C489  1  0.063100  0.263900  0.951200  1.0  -0.181
  C  C490  1  0.021200  0.246700  0.903500  1.0  -0.1555
  C  C491  1  0.002800  0.281200  0.833500  1.0  0.0904
  C  C492  1  0.959500  0.282600  0.759800  1.0  0.669
  C  C493  1  0.276300  0.324100  0.018000  1.0  0.6746
  C  C494  1  0.296800  0.282800  0.074800  1.0  0.0551
  C  C495  1  0.341400  0.270500  0.091800  1.0  -0.0965
  C  C496  1  0.121600  0.491000  0.002700  1.0  0.1344
  C  C497  1  0.101300  0.530300  0.057000  1.0  -0.0881
  C  C498  1  0.099600  0.532700  0.190500  1.0  -0.0361
  C  C499  1  0.118900  0.497900  0.265700  1.0  0.0239
  C  C500  1  0.117400  0.497500  0.402700  1.0  -0.148
  C  C501  1  0.133200  0.462900  0.467200  1.0  -0.1048
  C  C502  1  0.153200  0.424300  0.407500  1.0  0.03
  C  C503  1  0.170000  0.385400  0.472000  1.0  -0.0082
  C  C504  1  0.186700  0.348500  0.407600  1.0  -0.1271
  C  C505  1  0.189100  0.352100  0.273400  1.0  0.1531
  C  C506  1  0.157100  0.424100  0.272900  1.0  0.1489
  C  C507  1  0.138600  0.461600  0.201000  1.0  0.1767
  C  C508  1  0.601500  0.841900  0.438300  1.0  0.658
  C  C509  1  0.566600  0.807800  0.410900  1.0  0.1011
  C  C510  1  0.563100  0.763900  0.451200  1.0  -0.181
  C  C511  1  0.521200  0.746700  0.403500  1.0  -0.1555
  C  C512  1  0.502800  0.781200  0.333500  1.0  0.0904
  C  C513  1  0.459500  0.782600  0.259800  1.0  0.669
  C  C514  1  0.776300  0.824100  0.518000  1.0  0.6746
  C  C515  1  0.796800  0.782800  0.574800  1.0  0.0551
  C  C516  1  0.841400  0.770500  0.591800  1.0  -0.0965
  C  C517  1  0.621600  0.991000  0.502700  1.0  0.1344
  C  C518  1  0.601300  0.030300  0.557000  1.0  -0.0881
  C  C519  1  0.599600  0.032700  0.690500  1.0  -0.0361
  C  C520  1  0.618900  0.997900  0.765700  1.0  0.0239
  C  C521  1  0.617400  0.997500  0.902700  1.0  -0.148
  C  C522  1  0.633200  0.962900  0.967200  1.0  -0.1048
  C  C523  1  0.653200  0.924300  0.907500  1.0  0.03
  C  C524  1  0.670000  0.885400  0.972000  1.0  -0.0082
  C  C525  1  0.686700  0.848500  0.907600  1.0  -0.1271
  C  C526  1  0.689100  0.852100  0.773400  1.0  0.1531
  C  C527  1  0.657100  0.924100  0.772900  1.0  0.1489
  C  C528  1  0.638600  0.961600  0.701000  1.0  0.1767
  N  N529  1  0.458500  0.640400  0.319900  1.0  -0.4217
  N  N530  1  0.388800  0.676000  0.459500  1.0  -0.4038
  N  N531  1  0.958500  0.140400  0.819900  1.0  -0.4217
  N  N532  1  0.888800  0.176000  0.959500  1.0  -0.4038
  N  N533  1  0.541500  0.359600  0.319900  1.0  -0.4232
  N  N534  1  0.611200  0.324000  0.459500  1.0  -0.4043
  N  N535  1  0.041500  0.859600  0.819900  1.0  -0.4232
  N  N536  1  0.111200  0.824000  0.959500  1.0  -0.4043
  N  N537  1  0.640400  0.541500  0.680100  1.0  -0.4248
  N  N538  1  0.676000  0.611200  0.540500  1.0  -0.4008
  N  N539  1  0.140400  0.041500  0.180100  1.0  -0.4248
  N  N540  1  0.176000  0.111200  0.040500  1.0  -0.4008
  N  N541  1  0.359600  0.458500  0.680100  1.0  -0.4235
  N  N542  1  0.324000  0.388800  0.540500  1.0  -0.3994
  N  N543  1  0.859600  0.958500  0.180100  1.0  -0.4235
  N  N544  1  0.824000  0.888800  0.040500  1.0  -0.3994
  N  N545  1  0.041500  0.640400  0.430100  1.0  -0.423
  N  N546  1  0.111200  0.676000  0.290500  1.0  -0.4008
  N  N547  1  0.541500  0.140400  0.930100  1.0  -0.423
  N  N548  1  0.611200  0.176000  0.790500  1.0  -0.4008
  N  N549  1  0.958500  0.359600  0.430100  1.0  -0.4234
  N  N550  1  0.888800  0.324000  0.290500  1.0  -0.4013
  N  N551  1  0.458500  0.859600  0.930100  1.0  -0.4234
  N  N552  1  0.388800  0.824000  0.790500  1.0  -0.4013
  N  N553  1  0.859600  0.541500  0.069900  1.0  -0.4237
  N  N554  1  0.824000  0.611200  0.209500  1.0  -0.4029
  N  N555  1  0.359600  0.041500  0.569900  1.0  -0.4237
  N  N556  1  0.324000  0.111200  0.709500  1.0  -0.4029
  N  N557  1  0.140400  0.458500  0.069900  1.0  -0.4232
  N  N558  1  0.176000  0.388800  0.209500  1.0  -0.4036
  N  N559  1  0.640400  0.958500  0.569900  1.0  -0.4232
  N  N560  1  0.676000  0.888800  0.709500  1.0  -0.4036
  O  O561  1  0.317410  0.450110  0.946600  1.0  -0.6551
  O  O562  1  0.246140  0.434840  0.016900  1.0  -0.733
  O  O563  1  0.318760  0.529810  0.086300  1.0  -0.2371
  O  O564  1  0.381520  0.601150  0.137600  1.0  -0.6391
  O  O565  1  0.329200  0.634000  0.263500  1.0  -0.6367
  O  O566  1  0.330340  0.734270  0.273300  1.0  -0.6236
  O  O567  1  0.351790  0.805490  0.220900  1.0  -0.7539
  O  O568  1  0.817410  0.950110  0.446600  1.0  -0.6551
  O  O569  1  0.746140  0.934840  0.516900  1.0  -0.733
  O  O570  1  0.818760  0.029810  0.586300  1.0  -0.2371
  O  O571  1  0.881520  0.101150  0.637600  1.0  -0.6391
  O  O572  1  0.829200  0.134000  0.763500  1.0  -0.6367
  O  O573  1  0.830340  0.234270  0.773300  1.0  -0.6236
  O  O574  1  0.851790  0.305490  0.720900  1.0  -0.7539
  O  O575  1  0.682590  0.549890  0.946600  1.0  -0.6554
  O  O576  1  0.753860  0.565160  0.016900  1.0  -0.7335
  O  O577  1  0.681240  0.470190  0.086300  1.0  -0.2369
  O  O578  1  0.618480  0.398850  0.137600  1.0  -0.6392
  O  O579  1  0.670800  0.366000  0.263500  1.0  -0.6365
  O  O580  1  0.669660  0.265730  0.273300  1.0  -0.6217
  O  O581  1  0.648210  0.194510  0.220900  1.0  -0.7538
  O  O582  1  0.182590  0.049890  0.446600  1.0  -0.6554
  O  O583  1  0.253860  0.065160  0.516900  1.0  -0.7335
  O  O584  1  0.181240  0.970190  0.586300  1.0  -0.2369
  O  O585  1  0.118480  0.898850  0.637600  1.0  -0.6392
  O  O586  1  0.170800  0.866000  0.763500  1.0  -0.6365
  O  O587  1  0.169660  0.765730  0.773300  1.0  -0.6217
  O  O588  1  0.148210  0.694510  0.720900  1.0  -0.7538
  O  O589  1  0.450110  0.682590  0.053400  1.0  -0.6549
  O  O590  1  0.434840  0.753860  0.983100  1.0  -0.7332
  O  O591  1  0.529810  0.681240  0.913700  1.0  -0.2357
  O  O592  1  0.601150  0.618480  0.862400  1.0  -0.6404
  O  O593  1  0.634000  0.670800  0.736500  1.0  -0.6362
  O  O594  1  0.734270  0.669660  0.726700  1.0  -0.6235
  O  O595  1  0.805490  0.648210  0.779100  1.0  -0.7546
  O  O596  1  0.950110  0.182590  0.553400  1.0  -0.6549
  O  O597  1  0.934840  0.253860  0.483100  1.0  -0.7332
  O  O598  1  0.029810  0.181240  0.413700  1.0  -0.2357
  O  O599  1  0.101150  0.118480  0.362400  1.0  -0.6404
  O  O600  1  0.134000  0.170800  0.236500  1.0  -0.6362
  O  O601  1  0.234270  0.169660  0.226700  1.0  -0.6235
  O  O602  1  0.305490  0.148210  0.279100  1.0  -0.7546
  O  O603  1  0.549890  0.317410  0.053400  1.0  -0.6563
  O  O604  1  0.565160  0.246140  0.983100  1.0  -0.7339
  O  O605  1  0.470190  0.318760  0.913700  1.0  -0.2369
  O  O606  1  0.398850  0.381520  0.862400  1.0  -0.6413
  O  O607  1  0.366000  0.329200  0.736500  1.0  -0.6361
  O  O608  1  0.265730  0.330340  0.726700  1.0  -0.6238
  O  O609  1  0.194510  0.351790  0.779100  1.0  -0.7542
  O  O610  1  0.049890  0.817410  0.553400  1.0  -0.6563
  O  O611  1  0.065160  0.746140  0.483100  1.0  -0.7339
  O  O612  1  0.970190  0.818760  0.413700  1.0  -0.2369
  O  O613  1  0.898850  0.881520  0.362400  1.0  -0.6413
  O  O614  1  0.866000  0.829200  0.236500  1.0  -0.6361
  O  O615  1  0.765730  0.830340  0.226700  1.0  -0.6238
  O  O616  1  0.694510  0.851790  0.279100  1.0  -0.7542
  O  O617  1  0.182590  0.450110  0.803400  1.0  -0.6552
  O  O618  1  0.253860  0.434840  0.733100  1.0  -0.7333
  O  O619  1  0.181240  0.529810  0.663700  1.0  -0.2373
  O  O620  1  0.118480  0.601150  0.612400  1.0  -0.6391
  O  O621  1  0.170800  0.634000  0.486500  1.0  -0.6365
  O  O622  1  0.169660  0.734270  0.476700  1.0  -0.6228
  O  O623  1  0.148210  0.805490  0.529100  1.0  -0.7532
  O  O624  1  0.682590  0.950110  0.303400  1.0  -0.6552
  O  O625  1  0.753860  0.934840  0.233100  1.0  -0.7333
  O  O626  1  0.681240  0.029810  0.163700  1.0  -0.2373
  O  O627  1  0.618480  0.101150  0.112400  1.0  -0.6391
  O  O628  1  0.670800  0.134000  0.986500  1.0  -0.6365
  O  O629  1  0.669660  0.234270  0.976700  1.0  -0.6228
  O  O630  1  0.648210  0.305490  0.029100  1.0  -0.7532
  O  O631  1  0.817410  0.549890  0.803400  1.0  -0.6556
  O  O632  1  0.746140  0.565160  0.733100  1.0  -0.7325
  O  O633  1  0.818760  0.470190  0.663700  1.0  -0.2344
  O  O634  1  0.881520  0.398850  0.612400  1.0  -0.6392
  O  O635  1  0.829200  0.366000  0.486500  1.0  -0.6371
  O  O636  1  0.830340  0.265730  0.476700  1.0  -0.6241
  O  O637  1  0.851790  0.194510  0.529100  1.0  -0.7543
  O  O638  1  0.317410  0.049890  0.303400  1.0  -0.6556
  O  O639  1  0.246140  0.065160  0.233100  1.0  -0.7325
  O  O640  1  0.318760  0.970190  0.163700  1.0  -0.2344
  O  O641  1  0.381520  0.898850  0.112400  1.0  -0.6392
  O  O642  1  0.329200  0.866000  0.986500  1.0  -0.6371
  O  O643  1  0.330340  0.765730  0.976700  1.0  -0.6241
  O  O644  1  0.351790  0.694510  0.029100  1.0  -0.7543
  O  O645  1  0.049890  0.682590  0.696600  1.0  -0.6558
  O  O646  1  0.065160  0.753860  0.766900  1.0  -0.7332
  O  O647  1  0.970190  0.681240  0.836300  1.0  -0.2369
  O  O648  1  0.898850  0.618480  0.887600  1.0  -0.6414
  O  O649  1  0.866000  0.670800  0.013500  1.0  -0.6353
  O  O650  1  0.765730  0.669660  0.023300  1.0  -0.6245
  O  O651  1  0.694510  0.648210  0.970900  1.0  -0.7549
  O  O652  1  0.549890  0.182590  0.196600  1.0  -0.6558
  O  O653  1  0.565160  0.253860  0.266900  1.0  -0.7332
  O  O654  1  0.470190  0.181240  0.336300  1.0  -0.2369
  O  O655  1  0.398850  0.118480  0.387600  1.0  -0.6414
  O  O656  1  0.366000  0.170800  0.513500  1.0  -0.6353
  O  O657  1  0.265730  0.169660  0.523300  1.0  -0.6245
  O  O658  1  0.194510  0.148210  0.470900  1.0  -0.7549
  O  O659  1  0.950110  0.317410  0.696600  1.0  -0.6547
  O  O660  1  0.934840  0.246140  0.766900  1.0  -0.734
  O  O661  1  0.029810  0.318760  0.836300  1.0  -0.2364
  O  O662  1  0.101150  0.381520  0.887600  1.0  -0.6414
  O  O663  1  0.134000  0.329200  0.013500  1.0  -0.6363
  O  O664  1  0.234270  0.330340  0.023300  1.0  -0.6242
  O  O665  1  0.305490  0.351790  0.970900  1.0  -0.7545
  O  O666  1  0.450110  0.817410  0.196600  1.0  -0.6547
  O  O667  1  0.434840  0.746140  0.266900  1.0  -0.734
  O  O668  1  0.529810  0.818760  0.336300  1.0  -0.2364
  O  O669  1  0.601150  0.881520  0.387600  1.0  -0.6414
  O  O670  1  0.634000  0.829200  0.513500  1.0  -0.6363
  O  O671  1  0.734270  0.830340  0.523300  1.0  -0.6242
  O  O672  1  0.805490  0.851790  0.470900  1.0  -0.7545
  O  O673  1  0.250000  0.769200  0.375000  1.0  -0.2383
  O  O674  1  0.750000  0.269200  0.875000  1.0  -0.2383
  O  O675  1  0.750000  0.230800  0.375000  1.0  -0.2401
  O  O676  1  0.250000  0.730800  0.875000  1.0  -0.2401
  O  O677  1  0.769200  0.750000  0.625000  1.0  -0.2434
  O  O678  1  0.230800  0.250000  0.625000  1.0  -0.2414
  O  O679  1  0.730800  0.750000  0.125000  1.0  -0.2414
  O  O680  1  0.269200  0.250000  0.125000  1.0  -0.2434
