# generated using pymatgen
data_MnHC3N3Cl
_symmetry_space_group_name_H-M   'P 1'
_cell_length_a   24.49920000
_cell_length_b   24.49920000
_cell_length_c   8.33790000
_cell_angle_alpha   90.00000000
_cell_angle_beta   90.00000000
_cell_angle_gamma   120.00000000
_symmetry_Int_Tables_number   1
_chemical_formula_structural   MnHC3N3Cl
_chemical_formula_sum   'Mn18 H18 C54 N54 Cl18'
_cell_volume   4334.02208479
_cell_formula_units_Z   18
loop_
 _symmetry_equiv_pos_site_id
 _symmetry_equiv_pos_as_xyz
  1  'x, y, z'
loop_
 _atom_site_type_symbol
 _atom_site_label
 _atom_site_symmetry_multiplicity
 _atom_site_fract_x
 _atom_site_fract_y
 _atom_site_fract_z
 _atom_site_occupancy
 _atom_site_charge
  Mn  Mn1  1  0.948880  0.333333  0.333333  1.0  1.0737
  Mn  Mn2  1  0.666667  0.615550  0.333333  1.0  1.0756
  Mn  Mn3  1  0.384450  0.051120  0.333333  1.0  1.077
  Mn  Mn4  1  0.333333  0.948880  0.666667  1.0  1.0755
  Mn  Mn5  1  0.000000  0.282210  0.000000  1.0  1.0753
  Mn  Mn6  1  0.615550  0.666667  0.666667  1.0  1.0737
  Mn  Mn7  1  0.282210  0.000000  0.000000  1.0  1.0738
  Mn  Mn8  1  0.051120  0.384450  0.666667  1.0  1.0772
  Mn  Mn9  1  0.717790  0.717790  0.000000  1.0  1.077
  Mn  Mn10  1  0.051120  0.666667  0.666667  1.0  1.0733
  Mn  Mn11  1  0.717790  0.000000  0.000000  1.0  1.073
  Mn  Mn12  1  0.384450  0.333333  0.333333  1.0  1.0733
  Mn  Mn13  1  0.333333  0.384450  0.666667  1.0  1.0768
  Mn  Mn14  1  0.000000  0.717790  0.000000  1.0  1.0769
  Mn  Mn15  1  0.615550  0.948880  0.666667  1.0  1.0751
  Mn  Mn16  1  0.282210  0.282210  0.000000  1.0  1.0749
  Mn  Mn17  1  0.666667  0.051120  0.333333  1.0  1.0768
  Mn  Mn18  1  0.948880  0.615550  0.333333  1.0  1.075
  H  H19  1  0.810860  0.189140  0.381270  1.0  0.0947
  H  H20  1  0.477530  0.522470  0.714600  1.0  0.0947
  H  H21  1  0.144190  0.855810  0.047940  1.0  0.0967
  H  H22  1  0.810860  0.621720  0.381270  1.0  0.0952
  H  H23  1  0.477530  0.955050  0.714600  1.0  0.0952
  H  H24  1  0.144190  0.288390  0.047940  1.0  0.0952
  H  H25  1  0.378280  0.189140  0.381270  1.0  0.0947
  H  H26  1  0.044950  0.522470  0.714600  1.0  0.0946
  H  H27  1  0.711610  0.855810  0.047940  1.0  0.0947
  H  H28  1  0.189140  0.810860  0.618730  1.0  0.0938
  H  H29  1  0.855810  0.144190  0.952060  1.0  0.0937
  H  H30  1  0.522470  0.477530  0.285400  1.0  0.0938
  H  H31  1  0.621720  0.810860  0.618730  1.0  0.0961
  H  H32  1  0.288390  0.144190  0.952060  1.0  0.0961
  H  H33  1  0.955050  0.477530  0.285400  1.0  0.0961
  H  H34  1  0.189140  0.378280  0.618730  1.0  0.0954
  H  H35  1  0.855810  0.711610  0.952060  1.0  0.0953
  H  H36  1  0.522470  0.044950  0.285400  1.0  0.0953
  C  C37  1  0.876070  0.221620  0.584270  1.0  0.0573
  C  C38  1  0.542740  0.554950  0.917600  1.0  0.0569
  C  C39  1  0.209400  0.888290  0.250940  1.0  0.0575
  C  C40  1  0.778380  0.654450  0.584270  1.0  0.0587
  C  C41  1  0.445050  0.987780  0.917600  1.0  0.0583
  C  C42  1  0.111710  0.321120  0.250940  1.0  0.059
  C  C43  1  0.345550  0.123930  0.584270  1.0  0.0575
  C  C44  1  0.012220  0.457260  0.917600  1.0  0.0583
  C  C45  1  0.678880  0.790600  0.250940  1.0  0.0574
  C  C46  1  0.221620  0.876070  0.415730  1.0  0.0584
  C  C47  1  0.888290  0.209400  0.749060  1.0  0.0575
  C  C48  1  0.554950  0.542740  0.082400  1.0  0.0584
  C  C49  1  0.654450  0.778380  0.415730  1.0  0.0562
  C  C50  1  0.321120  0.111710  0.749060  1.0  0.0563
  C  C51  1  0.987780  0.445050  0.082400  1.0  0.0568
  C  C52  1  0.123930  0.345550  0.415730  1.0  0.0586
  C  C53  1  0.790600  0.678880  0.749060  1.0  0.0584
  C  C54  1  0.457260  0.012220  0.082400  1.0  0.0581
  C  C55  1  0.123930  0.778380  0.415730  1.0  0.0581
  C  C56  1  0.790600  0.111710  0.749060  1.0  0.0573
  C  C57  1  0.457260  0.445050  0.082400  1.0  0.0581
  C  C58  1  0.221620  0.345550  0.415730  1.0  0.0565
  C  C59  1  0.888290  0.678880  0.749060  1.0  0.0566
  C  C60  1  0.554950  0.012220  0.082400  1.0  0.0569
  C  C61  1  0.654450  0.876070  0.415730  1.0  0.0578
  C  C62  1  0.321120  0.209400  0.749060  1.0  0.0576
  C  C63  1  0.987780  0.542740  0.082400  1.0  0.0578
  C  C64  1  0.778380  0.123930  0.584270  1.0  0.0595
  C  C65  1  0.445050  0.457260  0.917600  1.0  0.0596
  C  C66  1  0.111710  0.790600  0.250940  1.0  0.0586
  C  C67  1  0.345550  0.221620  0.584270  1.0  0.0583
  C  C68  1  0.012220  0.554950  0.917600  1.0  0.0586
  C  C69  1  0.678880  0.888290  0.250940  1.0  0.0583
  C  C70  1  0.876070  0.654450  0.584270  1.0  0.0574
  C  C71  1  0.542740  0.987780  0.917600  1.0  0.0575
  C  C72  1  0.209400  0.321120  0.250940  1.0  0.057
  C  C73  1  0.820620  0.179380  0.500450  1.0  -0.0188
  C  C74  1  0.487290  0.512710  0.833780  1.0  -0.0188
  C  C75  1  0.153950  0.846050  0.167120  1.0  -0.0181
  C  C76  1  0.820620  0.641240  0.500450  1.0  -0.0181
  C  C77  1  0.487290  0.974570  0.833780  1.0  -0.0181
  C  C78  1  0.153950  0.307910  0.167120  1.0  -0.0182
  C  C79  1  0.358760  0.179380  0.500450  1.0  -0.0186
  C  C80  1  0.025430  0.512710  0.833780  1.0  -0.0186
  C  C81  1  0.692090  0.846050  0.167120  1.0  -0.0186
  C  C82  1  0.179380  0.820620  0.499550  1.0  -0.018
  C  C83  1  0.846050  0.153950  0.832880  1.0  -0.0177
  C  C84  1  0.512710  0.487290  0.166220  1.0  -0.018
  C  C85  1  0.641240  0.820620  0.499550  1.0  -0.0182
  C  C86  1  0.307910  0.153950  0.832880  1.0  -0.0182
  C  C87  1  0.974570  0.487290  0.166220  1.0  -0.0182
  C  C88  1  0.179380  0.358760  0.499550  1.0  -0.0185
  C  C89  1  0.846050  0.692090  0.832880  1.0  -0.0185
  C  C90  1  0.512710  0.025430  0.166220  1.0  -0.0185
  N  N91  1  0.926290  0.277870  0.540220  1.0  -0.2966
  N  N92  1  0.592960  0.611200  0.873550  1.0  -0.2965
  N  N93  1  0.259620  0.944540  0.206890  1.0  -0.2966
  N  N94  1  0.722130  0.648420  0.540220  1.0  -0.2959
  N  N95  1  0.388800  0.981750  0.873550  1.0  -0.296
  N  N96  1  0.055460  0.315090  0.206890  1.0  -0.2996
  N  N97  1  0.351580  0.073710  0.540220  1.0  -0.2972
  N  N98  1  0.018250  0.407040  0.873550  1.0  -0.2997
  N  N99  1  0.684910  0.740380  0.206890  1.0  -0.2953
  N  N100  1  0.277870  0.926290  0.459780  1.0  -0.297
  N  N101  1  0.944540  0.259620  0.793110  1.0  -0.297
  N  N102  1  0.611200  0.592960  0.126450  1.0  -0.2969
  N  N103  1  0.648420  0.722130  0.459780  1.0  -0.2973
  N  N104  1  0.315090  0.055460  0.793110  1.0  -0.3008
  N  N105  1  0.981750  0.388800  0.126450  1.0  -0.2974
  N  N106  1  0.073710  0.351580  0.459780  1.0  -0.2975
  N  N107  1  0.740380  0.684910  0.793110  1.0  -0.2957
  N  N108  1  0.407040  0.018250  0.126450  1.0  -0.2999
  N  N109  1  0.073710  0.722130  0.459780  1.0  -0.2961
  N  N110  1  0.740380  0.055460  0.793110  1.0  -0.2961
  N  N111  1  0.407040  0.388800  0.126450  1.0  -0.296
  N  N112  1  0.277870  0.351580  0.459780  1.0  -0.2976
  N  N113  1  0.944540  0.684910  0.793110  1.0  -0.301
  N  N114  1  0.611200  0.018250  0.126450  1.0  -0.2976
  N  N115  1  0.648420  0.926290  0.459780  1.0  -0.298
  N  N116  1  0.315090  0.259620  0.793110  1.0  -0.2962
  N  N117  1  0.981750  0.592960  0.126450  1.0  -0.3004
  N  N118  1  0.722130  0.073710  0.540220  1.0  -0.2961
  N  N119  1  0.388800  0.407040  0.873550  1.0  -0.296
  N  N120  1  0.055460  0.740380  0.206890  1.0  -0.2961
  N  N121  1  0.351580  0.277870  0.540220  1.0  -0.2957
  N  N122  1  0.018250  0.611200  0.873550  1.0  -0.2957
  N  N123  1  0.684910  0.944540  0.206890  1.0  -0.2993
  N  N124  1  0.926290  0.648420  0.540220  1.0  -0.2976
  N  N125  1  0.592960  0.981750  0.873550  1.0  -0.3
  N  N126  1  0.259620  0.315090  0.206890  1.0  -0.2957
  N  N127  1  0.964710  0.298050  0.666667  1.0  -0.1788
  N  N128  1  0.631380  0.631380  0.000000  1.0  -0.1788
  N  N129  1  0.701950  0.666667  0.666667  1.0  -0.1779
  N  N130  1  0.368620  0.000000  0.000000  1.0  -0.1779
  N  N131  1  0.333333  0.035290  0.666667  1.0  -0.1788
  N  N132  1  0.000000  0.368620  0.000000  1.0  -0.1787
  N  N133  1  0.298050  0.964710  0.333333  1.0  -0.1788
  N  N134  1  0.666667  0.701950  0.333333  1.0  -0.1788
  N  N135  1  0.035290  0.333333  0.333333  1.0  -0.178
  N  N136  1  0.035290  0.701950  0.333333  1.0  -0.1786
  N  N137  1  0.298050  0.333333  0.333333  1.0  -0.1788
  N  N138  1  0.666667  0.964710  0.333333  1.0  -0.1783
  N  N139  1  0.701950  0.035290  0.666667  1.0  -0.1785
  N  N140  1  0.368620  0.368620  0.000000  1.0  -0.1786
  N  N141  1  0.333333  0.298050  0.666667  1.0  -0.1783
  N  N142  1  0.000000  0.631380  0.000000  1.0  -0.1783
  N  N143  1  0.964710  0.666667  0.666667  1.0  -0.1788
  N  N144  1  0.631380  0.000000  0.000000  1.0  -0.1787
  Cl  Cl145  1  0.000000  0.422960  0.500000  1.0  -0.4949
  Cl  Cl146  1  0.666667  0.756290  0.833330  1.0  -0.4948
  Cl  Cl147  1  0.333333  0.089630  0.166670  1.0  -0.4949
  Cl  Cl148  1  0.577040  0.577040  0.500000  1.0  -0.4929
  Cl  Cl149  1  0.243710  0.910370  0.833330  1.0  -0.4928
  Cl  Cl150  1  0.910370  0.243710  0.166670  1.0  -0.4929
  Cl  Cl151  1  0.422960  0.000000  0.500000  1.0  -0.495
  Cl  Cl152  1  0.089630  0.333333  0.833330  1.0  -0.4951
  Cl  Cl153  1  0.756290  0.666667  0.166670  1.0  -0.4953
  Cl  Cl154  1  0.000000  0.577040  0.500000  1.0  -0.4937
  Cl  Cl155  1  0.666667  0.910370  0.833330  1.0  -0.4937
  Cl  Cl156  1  0.333333  0.243710  0.166670  1.0  -0.4939
  Cl  Cl157  1  0.422960  0.422960  0.500000  1.0  -0.4953
  Cl  Cl158  1  0.089630  0.756290  0.833330  1.0  -0.4952
  Cl  Cl159  1  0.756290  0.089630  0.166670  1.0  -0.4954
  Cl  Cl160  1  0.577040  0.000000  0.500000  1.0  -0.4946
  Cl  Cl161  1  0.243710  0.333333  0.833330  1.0  -0.4944
  Cl  Cl162  1  0.910370  0.666667  0.166670  1.0  -0.4946
