# generated using pymatgen
data_MnHC3N3Cl
_symmetry_space_group_name_H-M   'P 1'
_cell_length_a   25.00400000
_cell_length_b   25.00400000
_cell_length_c   8.62530000
_cell_angle_alpha   90.00000000
_cell_angle_beta   90.00000000
_cell_angle_gamma   120.00000000
_symmetry_Int_Tables_number   1
_chemical_formula_structural   MnHC3N3Cl
_chemical_formula_sum   'Mn18 H18 C54 N54 Cl18'
_cell_volume   4670.07463734
_cell_formula_units_Z   18
loop_
 _symmetry_equiv_pos_site_id
 _symmetry_equiv_pos_as_xyz
  1  'x, y, z'
loop_
 _atom_site_type_symbol
 _atom_site_label
 _atom_site_symmetry_multiplicity
 _atom_site_fract_x
 _atom_site_fract_y
 _atom_site_fract_z
 _atom_site_occupancy
 _atom_site_charge
  Mn  Mn1  1  0.946650  0.333333  0.333333  1.0  1.0151
  Mn  Mn2  1  0.666667  0.613310  0.333333  1.0  1.0177
  Mn  Mn3  1  0.386690  0.053350  0.333333  1.0  1.0178
  Mn  Mn4  1  0.333333  0.946650  0.666667  1.0  1.0175
  Mn  Mn5  1  0.000000  0.279980  0.000000  1.0  1.0173
  Mn  Mn6  1  0.613310  0.666667  0.666667  1.0  1.0153
  Mn  Mn7  1  0.279980  0.000000  0.000000  1.0  1.0153
  Mn  Mn8  1  0.053350  0.386690  0.666667  1.0  1.018
  Mn  Mn9  1  0.720020  0.720020  0.000000  1.0  1.0179
  Mn  Mn10  1  0.053350  0.666667  0.666667  1.0  1.0159
  Mn  Mn11  1  0.720020  0.000000  0.000000  1.0  1.0158
  Mn  Mn12  1  0.386690  0.333333  0.333333  1.0  1.0162
  Mn  Mn13  1  0.333333  0.386690  0.666667  1.0  1.0181
  Mn  Mn14  1  0.000000  0.720020  0.000000  1.0  1.0181
  Mn  Mn15  1  0.613310  0.946650  0.666667  1.0  1.0168
  Mn  Mn16  1  0.279980  0.279980  0.000000  1.0  1.0167
  Mn  Mn17  1  0.666667  0.053350  0.333333  1.0  1.0179
  Mn  Mn18  1  0.946650  0.613310  0.333333  1.0  1.0166
  H  H19  1  0.809500  0.190500  0.413200  1.0  0.1029
  H  H20  1  0.476170  0.523830  0.746530  1.0  0.1031
  H  H21  1  0.142830  0.857170  0.079870  1.0  0.1016
  H  H22  1  0.809500  0.619000  0.413200  1.0  0.1041
  H  H23  1  0.476170  0.952330  0.746530  1.0  0.1044
  H  H24  1  0.142830  0.285670  0.079870  1.0  0.1033
  H  H25  1  0.381000  0.190500  0.413200  1.0  0.1039
  H  H26  1  0.047670  0.523830  0.746530  1.0  0.1041
  H  H27  1  0.714330  0.857170  0.079870  1.0  0.1016
  H  H28  1  0.190500  0.809500  0.586800  1.0  0.1036
  H  H29  1  0.857170  0.142830  0.920130  1.0  0.1025
  H  H30  1  0.523830  0.476170  0.253470  1.0  0.1038
  H  H31  1  0.619000  0.809500  0.586800  1.0  0.1042
  H  H32  1  0.285670  0.142830  0.920130  1.0  0.1018
  H  H33  1  0.952330  0.476170  0.253470  1.0  0.1043
  H  H34  1  0.190500  0.381000  0.586800  1.0  0.104
  H  H35  1  0.857170  0.714330  0.920130  1.0  0.1018
  H  H36  1  0.523830  0.047670  0.253470  1.0  0.1042
  C  C37  1  0.872900  0.220260  0.592700  1.0  0.1003
  C  C38  1  0.539570  0.553590  0.926030  1.0  0.1004
  C  C39  1  0.206230  0.886930  0.259370  1.0  0.1004
  C  C40  1  0.779740  0.652640  0.592700  1.0  0.1006
  C  C41  1  0.446410  0.985970  0.926030  1.0  0.0981
  C  C42  1  0.113070  0.319310  0.259370  1.0  0.101
  C  C43  1  0.347360  0.127100  0.592700  1.0  0.1007
  C  C44  1  0.014030  0.460430  0.926030  1.0  0.0999
  C  C45  1  0.680690  0.793770  0.259370  1.0  0.0991
  C  C46  1  0.220260  0.872900  0.407300  1.0  0.0998
  C  C47  1  0.886930  0.206230  0.740630  1.0  0.1
  C  C48  1  0.553590  0.539570  0.073970  1.0  0.0998
  C  C49  1  0.652640  0.779740  0.407300  1.0  0.0996
  C  C50  1  0.319310  0.113070  0.740630  1.0  0.1001
  C  C51  1  0.985970  0.446410  0.073970  1.0  0.097
  C  C52  1  0.127100  0.347360  0.407300  1.0  0.1012
  C  C53  1  0.793770  0.680690  0.740630  1.0  0.0992
  C  C54  1  0.460430  0.014030  0.073970  1.0  0.1003
  C  C55  1  0.127100  0.779740  0.407300  1.0  0.1001
  C  C56  1  0.793770  0.113070  0.740630  1.0  0.1001
  C  C57  1  0.460430  0.446410  0.073970  1.0  0.1001
  C  C58  1  0.220260  0.347360  0.407300  1.0  0.0992
  C  C59  1  0.886930  0.680690  0.740630  1.0  0.1
  C  C60  1  0.553590  0.014030  0.073970  1.0  0.0963
  C  C61  1  0.652640  0.872900  0.407300  1.0  0.1011
  C  C62  1  0.319310  0.206230  0.740630  1.0  0.0986
  C  C63  1  0.985970  0.539570  0.073970  1.0  0.1002
  C  C64  1  0.779740  0.127100  0.592700  1.0  0.1004
  C  C65  1  0.446410  0.460430  0.926030  1.0  0.1002
  C  C66  1  0.113070  0.793770  0.259370  1.0  0.1002
  C  C67  1  0.347360  0.220260  0.592700  1.0  0.099
  C  C68  1  0.014030  0.553590  0.926030  1.0  0.0965
  C  C69  1  0.680690  0.886930  0.259370  1.0  0.0997
  C  C70  1  0.872900  0.652640  0.592700  1.0  0.1012
  C  C71  1  0.539570  0.985970  0.926030  1.0  0.1005
  C  C72  1  0.206230  0.319310  0.259370  1.0  0.0995
  C  C73  1  0.818820  0.181180  0.512800  1.0  -0.108
  C  C74  1  0.485490  0.514510  0.846130  1.0  -0.1073
  C  C75  1  0.152150  0.847850  0.179470  1.0  -0.1057
  C  C76  1  0.818820  0.637640  0.512800  1.0  -0.1081
  C  C77  1  0.485490  0.970970  0.846130  1.0  -0.1075
  C  C78  1  0.152150  0.304310  0.179470  1.0  -0.1087
  C  C79  1  0.362360  0.181180  0.512800  1.0  -0.1085
  C  C80  1  0.029030  0.514510  0.846130  1.0  -0.1075
  C  C81  1  0.695690  0.847850  0.179470  1.0  -0.1099
  C  C82  1  0.181180  0.818820  0.487200  1.0  -0.105
  C  C83  1  0.847850  0.152150  0.820530  1.0  -0.1053
  C  C84  1  0.514510  0.485490  0.153870  1.0  -0.1051
  C  C85  1  0.637640  0.818820  0.487200  1.0  -0.1081
  C  C86  1  0.304310  0.152150  0.820530  1.0  -0.1099
  C  C87  1  0.970970  0.485490  0.153870  1.0  -0.1069
  C  C88  1  0.181180  0.362360  0.487200  1.0  -0.1061
  C  C89  1  0.847850  0.695690  0.820530  1.0  -0.1082
  C  C90  1  0.514510  0.029030  0.153870  1.0  -0.106
  N  N91  1  0.921560  0.276640  0.550500  1.0  -0.3249
  N  N92  1  0.588230  0.609970  0.883830  1.0  -0.325
  N  N93  1  0.254890  0.943310  0.217170  1.0  -0.3249
  N  N94  1  0.723360  0.644920  0.550500  1.0  -0.3241
  N  N95  1  0.390030  0.978250  0.883830  1.0  -0.3237
  N  N96  1  0.056690  0.311590  0.217170  1.0  -0.3241
  N  N97  1  0.355080  0.078440  0.550500  1.0  -0.3246
  N  N98  1  0.021750  0.411770  0.883830  1.0  -0.3243
  N  N99  1  0.688410  0.745110  0.217170  1.0  -0.3246
  N  N100  1  0.276640  0.921560  0.449500  1.0  -0.3219
  N  N101  1  0.943310  0.254890  0.782830  1.0  -0.3219
  N  N102  1  0.609970  0.588230  0.116170  1.0  -0.3223
  N  N103  1  0.644920  0.723360  0.449500  1.0  -0.3224
  N  N104  1  0.311590  0.056690  0.782830  1.0  -0.3224
  N  N105  1  0.978250  0.390030  0.116170  1.0  -0.3219
  N  N106  1  0.078440  0.355080  0.449500  1.0  -0.3239
  N  N107  1  0.745110  0.688410  0.782830  1.0  -0.324
  N  N108  1  0.411770  0.021750  0.116170  1.0  -0.3237
  N  N109  1  0.078440  0.723360  0.449500  1.0  -0.3215
  N  N110  1  0.745110  0.056690  0.782830  1.0  -0.3215
  N  N111  1  0.411770  0.390030  0.116170  1.0  -0.3216
  N  N112  1  0.276640  0.355080  0.449500  1.0  -0.3236
  N  N113  1  0.943310  0.688410  0.782830  1.0  -0.3235
  N  N114  1  0.609970  0.021750  0.116170  1.0  -0.3231
  N  N115  1  0.644920  0.921560  0.449500  1.0  -0.3227
  N  N116  1  0.311590  0.254890  0.782830  1.0  -0.3228
  N  N117  1  0.978250  0.588230  0.116170  1.0  -0.3226
  N  N118  1  0.723360  0.078440  0.550500  1.0  -0.3238
  N  N119  1  0.390030  0.411770  0.883830  1.0  -0.3239
  N  N120  1  0.056690  0.745110  0.217170  1.0  -0.3238
  N  N121  1  0.355080  0.276640  0.550500  1.0  -0.3247
  N  N122  1  0.021750  0.609970  0.883830  1.0  -0.3242
  N  N123  1  0.688410  0.943310  0.217170  1.0  -0.3246
  N  N124  1  0.921560  0.644920  0.550500  1.0  -0.324
  N  N125  1  0.588230  0.978250  0.883830  1.0  -0.324
  N  N126  1  0.254890  0.311590  0.217170  1.0  -0.3241
  N  N127  1  0.962380  0.295710  0.666667  1.0  -0.0825
  N  N128  1  0.629050  0.629050  0.000000  1.0  -0.0825
  N  N129  1  0.704290  0.666667  0.666667  1.0  -0.0801
  N  N130  1  0.370950  0.000000  0.000000  1.0  -0.0801
  N  N131  1  0.333333  0.037620  0.666667  1.0  -0.082
  N  N132  1  0.000000  0.370950  0.000000  1.0  -0.0819
  N  N133  1  0.295710  0.962380  0.333333  1.0  -0.0825
  N  N134  1  0.666667  0.704290  0.333333  1.0  -0.0819
  N  N135  1  0.037620  0.333333  0.333333  1.0  -0.0801
  N  N136  1  0.037620  0.704290  0.333333  1.0  -0.0823
  N  N137  1  0.295710  0.333333  0.333333  1.0  -0.0814
  N  N138  1  0.666667  0.962380  0.333333  1.0  -0.0827
  N  N139  1  0.704290  0.037620  0.666667  1.0  -0.0824
  N  N140  1  0.370950  0.370950  0.000000  1.0  -0.0823
  N  N141  1  0.333333  0.295710  0.666667  1.0  -0.0827
  N  N142  1  0.000000  0.629050  0.000000  1.0  -0.0827
  N  N143  1  0.962380  0.666667  0.666667  1.0  -0.0815
  N  N144  1  0.629050  0.000000  0.000000  1.0  -0.0813
  Cl  Cl145  1  0.000000  0.428740  0.500000  1.0  -0.4834
  Cl  Cl146  1  0.666667  0.762070  0.833330  1.0  -0.4838
  Cl  Cl147  1  0.333333  0.095410  0.166670  1.0  -0.4815
  Cl  Cl148  1  0.571260  0.571260  0.500000  1.0  -0.4834
  Cl  Cl149  1  0.237930  0.904590  0.833330  1.0  -0.4834
  Cl  Cl150  1  0.904590  0.237930  0.166670  1.0  -0.4836
  Cl  Cl151  1  0.428740  0.000000  0.500000  1.0  -0.4849
  Cl  Cl152  1  0.095410  0.333333  0.833330  1.0  -0.4827
  Cl  Cl153  1  0.762070  0.666667  0.166670  1.0  -0.4851
  Cl  Cl154  1  0.000000  0.571260  0.500000  1.0  -0.4843
  Cl  Cl155  1  0.666667  0.904590  0.833330  1.0  -0.4823
  Cl  Cl156  1  0.333333  0.237930  0.166670  1.0  -0.4844
  Cl  Cl157  1  0.428740  0.428740  0.500000  1.0  -0.4842
  Cl  Cl158  1  0.095410  0.762070  0.833330  1.0  -0.4842
  Cl  Cl159  1  0.762070  0.095410  0.166670  1.0  -0.4843
  Cl  Cl160  1  0.571260  0.000000  0.500000  1.0  -0.4836
  Cl  Cl161  1  0.237930  0.333333  0.833330  1.0  -0.4835
  Cl  Cl162  1  0.904590  0.666667  0.166670  1.0  -0.4813
