# generated using pymatgen
data_MgH4(C4O3)2
_symmetry_space_group_name_H-M   'P 1'
_cell_length_a   13.61320000
_cell_length_b   18.02610000
_cell_length_c   22.94500000
_cell_angle_alpha   69.57400000
_cell_angle_beta   88.89900000
_cell_angle_gamma   89.14700000
_symmetry_Int_Tables_number   1
_chemical_formula_structural   MgH4(C4O3)2
_chemical_formula_sum   'Mg12 H48 C96 O72'
_cell_volume   5275.33747021
_cell_formula_units_Z   12
loop_
 _symmetry_equiv_pos_site_id
 _symmetry_equiv_pos_as_xyz
  1  'x, y, z'
loop_
 _atom_site_type_symbol
 _atom_site_label
 _atom_site_symmetry_multiplicity
 _atom_site_fract_x
 _atom_site_fract_y
 _atom_site_fract_z
 _atom_site_occupancy
 _atom_site_charge
  Mg  Mg1  1  0.911790  0.794260  0.397590  1.0  1.53
  Mg  Mg2  1  0.124180  0.866810  0.250390  1.0  1.5178
  Mg  Mg3  1  0.342460  0.943760  0.105030  1.0  1.5285
  Mg  Mg4  1  0.607020  0.690530  0.611700  1.0  1.4909
  Mg  Mg5  1  0.376010  0.632360  0.750930  1.0  1.4553
  Mg  Mg6  1  0.147800  0.569770  0.890260  1.0  1.4746
  Mg  Mg7  1  0.088210  0.205740  0.602410  1.0  1.5316
  Mg  Mg8  1  0.875820  0.133190  0.749610  1.0  1.518
  Mg  Mg9  1  0.657540  0.056240  0.894970  1.0  1.5291
  Mg  Mg10  1  0.392980  0.309470  0.388300  1.0  1.4907
  Mg  Mg11  1  0.623990  0.367640  0.249070  1.0  1.4558
  Mg  Mg12  1  0.852200  0.430230  0.109740  1.0  1.4754
  H  H13  1  0.297000  0.794000  0.357400  1.0  0.3478
  H  H14  1  0.218000  0.701000  0.640300  1.0  0.3461
  H  H15  1  0.040000  0.030000  0.207500  1.0  0.366
  H  H16  1  0.709000  0.189000  0.304800  1.0  0.3855
  H  H17  1  0.960000  0.260000  0.808400  1.0  0.3096
  H  H18  1  0.285000  0.509000  0.689900  1.0  0.3498
  H  H19  1  0.202000  0.992000  0.313900  1.0  0.371
  H  H20  1  0.529000  0.245000  0.192800  1.0  0.2862
  H  H21  1  0.956000  0.940000  0.139900  1.0  0.3502
  H  H22  1  0.538000  0.558000  0.859700  1.0  0.3535
  H  H23  1  0.443000  0.457000  0.798900  1.0  0.3306
  H  H24  1  0.797000  0.298000  0.713800  1.0  0.3716
  H  H25  1  0.420900  0.721100  0.485400  1.0  0.1217
  H  H26  1  0.096400  0.779800  0.513400  1.0  0.1205
  H  H27  1  0.949900  0.209700  0.177100  1.0  0.1219
  H  H28  1  0.789700  0.012300  0.332800  1.0  0.1217
  H  H29  1  0.092600  0.389400  0.848600  1.0  0.1221
  H  H30  1  0.150200  0.382600  0.651700  1.0  0.1175
  H  H31  1  0.340100  0.124100  0.350400  1.0  0.1195
  H  H32  1  0.397300  0.115000  0.154100  1.0  0.1202
  H  H33  1  0.834800  0.020600  0.014400  1.0  0.12
  H  H34  1  0.337800  0.525100  0.018500  1.0  0.1203
  H  H35  1  0.538200  0.277800  0.831500  1.0  0.12
  H  H36  1  0.716600  0.477700  0.690200  1.0  0.1196
  H  H37  1  0.703000  0.206000  0.642600  1.0  0.3484
  H  H38  1  0.782000  0.299000  0.359700  1.0  0.3449
  H  H39  1  0.960000  0.970000  0.792500  1.0  0.3681
  H  H40  1  0.291000  0.811000  0.695200  1.0  0.3839
  H  H41  1  0.040000  0.740000  0.191600  1.0  0.3085
  H  H42  1  0.715000  0.491000  0.310100  1.0  0.3502
  H  H43  1  0.798000  0.008000  0.686100  1.0  0.3724
  H  H44  1  0.471000  0.755000  0.807200  1.0  0.2868
  H  H45  1  0.044000  0.060000  0.860100  1.0  0.3487
  H  H46  1  0.462000  0.442000  0.140300  1.0  0.3559
  H  H47  1  0.557000  0.543000  0.201100  1.0  0.3288
  H  H48  1  0.203000  0.702000  0.286200  1.0  0.373
  H  H49  1  0.579100  0.278900  0.514600  1.0  0.1228
  H  H50  1  0.903600  0.220200  0.486600  1.0  0.1195
  H  H51  1  0.050100  0.790300  0.822900  1.0  0.1222
  H  H52  1  0.210300  0.987700  0.667200  1.0  0.1216
  H  H53  1  0.907400  0.610600  0.151400  1.0  0.122
  H  H54  1  0.849800  0.617400  0.348300  1.0  0.1182
  H  H55  1  0.659900  0.875900  0.649600  1.0  0.1194
  H  H56  1  0.602700  0.885000  0.845900  1.0  0.1199
  H  H57  1  0.165200  0.979400  0.985600  1.0  0.1192
  H  H58  1  0.662200  0.474900  0.981500  1.0  0.1185
  H  H59  1  0.461800  0.722200  0.168500  1.0  0.1196
  H  H60  1  0.283400  0.522300  0.309800  1.0  0.1195
  C  C61  1  0.131600  0.817980  0.394320  1.0  0.71
  C  C62  1  0.199100  0.783790  0.447650  1.0  -0.2593
  C  C63  1  0.297800  0.767040  0.439140  1.0  0.3418
  C  C64  1  0.355300  0.732700  0.491040  1.0  -0.1232
  C  C65  1  0.318100  0.715080  0.551320  1.0  -0.2666
  C  C66  1  0.219400  0.733020  0.559660  1.0  0.3264
  C  C67  1  0.161700  0.767380  0.507910  1.0  -0.1252
  C  C68  1  0.385000  0.677740  0.604660  1.0  0.701
  C  C69  1  0.928000  0.946300  0.285450  1.0  0.6997
  C  C70  1  0.898100  0.031650  0.268460  1.0  -0.2591
  C  C71  1  0.946800  0.092000  0.221480  1.0  0.322
  C  C72  1  0.917000  0.169800  0.208190  1.0  -0.1241
  C  C73  1  0.839400  0.189950  0.240040  1.0  -0.2034
  C  C74  1  0.790100  0.129700  0.287330  1.0  0.315
  C  C75  1  0.821200  0.052100  0.300920  1.0  -0.1278
  C  C76  1  0.810600  0.275900  0.222520  1.0  0.7058
  C  C77  1  0.022200  0.272360  0.708500  1.0  0.7087
  C  C78  1  0.071900  0.330580  0.730640  1.0  -0.258
  C  C79  1  0.052700  0.333900  0.789950  1.0  0.3061
  C  C80  1  0.104000  0.387900  0.808920  1.0  -0.1207
  C  C81  1  0.171900  0.439380  0.769850  1.0  -0.269
  C  C82  1  0.190600  0.436050  0.710440  1.0  0.3253
  C  C83  1  0.139500  0.383200  0.691630  1.0  -0.1202
  C  C84  1  0.223400  0.496840  0.792530  1.0  0.7251
  C  C85  1  0.268200  0.006900  0.210920  1.0  0.7254
  C  C86  1  0.318600  0.065010  0.233020  1.0  -0.2669
  C  C87  1  0.300600  0.068470  0.292560  1.0  0.3071
  C  C88  1  0.351600  0.122140  0.310840  1.0  -0.1149
  C  C89  1  0.419900  0.173560  0.271550  1.0  -0.2622
  C  C90  1  0.437800  0.170600  0.212210  1.0  0.3256
  C  C91  1  0.386200  0.116600  0.193800  1.0  -0.121
  C  C92  1  0.470000  0.231980  0.293700  1.0  0.7147
  C  C93  1  0.124100  0.921770  0.104820  1.0  0.706
  C  C94  1  0.058300  0.961590  0.051650  1.0  -0.2494
  C  C95  1  0.958200  0.974900  0.060010  1.0  0.3313
  C  C96  1  0.901400  0.012390  0.008750  1.0  -0.1215
  C  C97  1  0.370500  0.582360  0.898470  1.0  0.6995
  C  C98  1  0.439200  0.540910  0.950100  1.0  -0.2766
  C  C99  1  0.538000  0.525720  0.939030  1.0  0.3223
  C  C100  1  0.403100  0.514910  0.011050  1.0  -0.1232
  C  C101  1  0.568400  0.542550  0.728780  1.0  0.7004
  C  C102  1  0.598200  0.457150  0.746820  1.0  -0.2405
  C  C103  1  0.544600  0.395900  0.790270  1.0  0.3207
  C  C104  1  0.573900  0.318110  0.802580  1.0  -0.1223
  C  C105  1  0.654900  0.298330  0.773080  1.0  -0.2655
  C  C106  1  0.709300  0.359600  0.730490  1.0  0.3148
  C  C107  1  0.680100  0.437360  0.718390  1.0  -0.1247
  C  C108  1  0.681600  0.212720  0.787680  1.0  0.6977
  C  C109  1  0.868400  0.182020  0.605680  1.0  0.7093
  C  C110  1  0.800900  0.216210  0.552350  1.0  -0.261
  C  C111  1  0.702200  0.232960  0.560860  1.0  0.3433
  C  C112  1  0.644700  0.267300  0.508960  1.0  -0.1226
  C  C113  1  0.681900  0.284920  0.448680  1.0  -0.2655
  C  C114  1  0.780600  0.266980  0.440340  1.0  0.324
  C  C115  1  0.838300  0.232620  0.492090  1.0  -0.1252
  C  C116  1  0.615000  0.322260  0.395340  1.0  0.7002
  C  C117  1  0.072000  0.053700  0.714550  1.0  0.6985
  C  C118  1  0.101900  0.968350  0.731540  1.0  -0.2591
  C  C119  1  0.053200  0.908000  0.778520  1.0  0.3205
  C  C120  1  0.083000  0.830200  0.791810  1.0  -0.122
  C  C121  1  0.160600  0.810050  0.759960  1.0  -0.2025
  C  C122  1  0.209900  0.870300  0.712670  1.0  0.3153
  C  C123  1  0.178800  0.947900  0.699080  1.0  -0.1305
  C  C124  1  0.189400  0.724100  0.777480  1.0  0.7047
  C  C125  1  0.977800  0.727640  0.291500  1.0  0.7108
  C  C126  1  0.928100  0.669420  0.269360  1.0  -0.2566
  C  C127  1  0.947300  0.666100  0.210050  1.0  0.3075
  C  C128  1  0.896000  0.612100  0.191080  1.0  -0.1246
  C  C129  1  0.828100  0.560620  0.230150  1.0  -0.2707
  C  C130  1  0.809400  0.563950  0.289560  1.0  0.3245
  C  C131  1  0.860500  0.616800  0.308370  1.0  -0.1168
  C  C132  1  0.776600  0.503160  0.207470  1.0  0.7245
  C  C133  1  0.731800  0.993100  0.789080  1.0  0.726
  C  C134  1  0.681400  0.934990  0.766980  1.0  -0.2658
  C  C135  1  0.699400  0.931530  0.707440  1.0  0.3068
  C  C136  1  0.648400  0.877860  0.689160  1.0  -0.119
  C  C137  1  0.580100  0.826440  0.728450  1.0  -0.2629
  C  C138  1  0.562200  0.829400  0.787790  1.0  0.3253
  C  C139  1  0.613800  0.883400  0.806200  1.0  -0.1161
  C  C140  1  0.530000  0.768020  0.706300  1.0  0.7144
  C  C141  1  0.875900  0.078230  0.895180  1.0  0.7051
  C  C142  1  0.941700  0.038410  0.948350  1.0  -0.2483
  C  C143  1  0.041800  0.025100  0.939990  1.0  0.3293
  C  C144  1  0.098600  0.987610  0.991250  1.0  -0.1205
  C  C145  1  0.629500  0.417640  0.101530  1.0  0.7002
  C  C146  1  0.560800  0.459090  0.049900  1.0  -0.2782
  C  C147  1  0.462000  0.474280  0.060970  1.0  0.3186
  C  C148  1  0.596900  0.485090  0.988950  1.0  -0.1221
  C  C149  1  0.431600  0.457450  0.271220  1.0  0.7013
  C  C150  1  0.401800  0.542850  0.253180  1.0  -0.2412
  C  C151  1  0.455400  0.604100  0.209730  1.0  0.321
  C  C152  1  0.426100  0.681890  0.197420  1.0  -0.1231
  C  C153  1  0.345100  0.701670  0.226920  1.0  -0.2655
  C  C154  1  0.290700  0.640400  0.269510  1.0  0.3144
  C  C155  1  0.319900  0.562640  0.281610  1.0  -0.1236
  C  C156  1  0.318400  0.787280  0.212320  1.0  0.6969
  O  O157  1  0.046520  0.837850  0.404430  1.0  -0.6425
  O  O158  1  0.165760  0.824000  0.341090  1.0  -0.6593
  O  O159  1  0.471130  0.659290  0.593520  1.0  -0.6613
  O  O160  1  0.349440  0.667050  0.658190  1.0  -0.6497
  O  O161  1  0.340430  0.781340  0.381770  1.0  -0.522
  O  O162  1  0.176360  0.718240  0.616610  1.0  -0.5561
  O  O163  1  0.876270  0.895130  0.324910  1.0  -0.6638
  O  O164  1  0.003730  0.932610  0.258540  1.0  -0.6547
  O  O165  1  0.735730  0.290410  0.250390  1.0  -0.6435
  O  O166  1  0.861490  0.326130  0.182310  1.0  -0.6937
  O  O167  1  0.024050  0.077980  0.187950  1.0  -0.5263
  O  O168  1  0.712900  0.142900  0.320630  1.0  -0.556
  O  O169  1  0.046620  0.268990  0.656760  1.0  -0.7115
  O  O170  1  0.957310  0.229050  0.744590  1.0  -0.6622
  O  O171  1  0.286940  0.540390  0.756170  1.0  -0.6546
  O  O172  1  0.201190  0.498570  0.845010  1.0  -0.6988
  O  O173  1  0.986120  0.286310  0.830880  1.0  -0.5314
  O  O174  1  0.256080  0.484500  0.669270  1.0  -0.5214
  O  O175  1  0.203400  0.963850  0.246780  1.0  -0.6491
  O  O176  1  0.292710  0.004160  0.159060  1.0  -0.7101
  O  O177  1  0.446620  0.234820  0.345640  1.0  -0.6886
  O  O178  1  0.533390  0.275080  0.257020  1.0  -0.6514
  O  O179  1  0.234600  0.020260  0.333410  1.0  -0.4964
  O  O180  1  0.503930  0.218200  0.171070  1.0  -0.5266
  O  O181  1  0.087690  0.909340  0.158550  1.0  -0.6451
  O  O182  1  0.209190  0.903260  0.093400  1.0  -0.6455
  O  O183  1  0.912880  0.951800  0.117180  1.0  -0.56
  O  O184  1  0.404390  0.599850  0.843750  1.0  -0.6217
  O  O185  1  0.284490  0.596270  0.912620  1.0  -0.664
  O  O186  1  0.580540  0.548620  0.881050  1.0  -0.5988
  O  O187  1  0.622380  0.593610  0.691410  1.0  -0.6705
  O  O188  1  0.489190  0.556340  0.752740  1.0  -0.6516
  O  O189  1  0.757480  0.198710  0.760900  1.0  -0.6521
  O  O190  1  0.626600  0.161160  0.824580  1.0  -0.6645
  O  O191  1  0.463020  0.408830  0.820980  1.0  -0.5698
  O  O192  1  0.790350  0.347280  0.699680  1.0  -0.5403
  O  O193  1  0.953480  0.162150  0.595570  1.0  -0.6452
  O  O194  1  0.834240  0.176000  0.658910  1.0  -0.6591
  O  O195  1  0.528870  0.340710  0.406480  1.0  -0.6572
  O  O196  1  0.650560  0.332950  0.341810  1.0  -0.648
  O  O197  1  0.659570  0.218660  0.618230  1.0  -0.5249
  O  O198  1  0.823640  0.281760  0.383390  1.0  -0.5553
  O  O199  1  0.123730  0.104870  0.675090  1.0  -0.6614
  O  O200  1  0.996270  0.067390  0.741460  1.0  -0.6558
  O  O201  1  0.264270  0.709590  0.749610  1.0  -0.6427
  O  O202  1  0.138510  0.673870  0.817690  1.0  -0.6984
  O  O203  1  0.975950  0.922020  0.812050  1.0  -0.5249
  O  O204  1  0.287100  0.857100  0.679370  1.0  -0.5559
  O  O205  1  0.953380  0.731010  0.343240  1.0  -0.7134
  O  O206  1  0.042690  0.770950  0.255410  1.0  -0.6611
  O  O207  1  0.713060  0.459610  0.243830  1.0  -0.6546
  O  O208  1  0.798810  0.501430  0.154990  1.0  -0.6968
  O  O209  1  0.013880  0.713690  0.169120  1.0  -0.5352
  O  O210  1  0.743920  0.515500  0.330730  1.0  -0.5198
  O  O211  1  0.796600  0.036150  0.753220  1.0  -0.6475
  O  O212  1  0.707290  0.995840  0.840940  1.0  -0.7105
  O  O213  1  0.553380  0.765180  0.654360  1.0  -0.6906
  O  O214  1  0.466610  0.724920  0.742980  1.0  -0.6524
  O  O215  1  0.765400  0.979740  0.666590  1.0  -0.4968
  O  O216  1  0.496070  0.781800  0.828930  1.0  -0.5258
  O  O217  1  0.912310  0.090660  0.841450  1.0  -0.6443
  O  O218  1  0.790810  0.096740  0.906600  1.0  -0.6427
  O  O219  1  0.087120  0.048200  0.882820  1.0  -0.56
  O  O220  1  0.595610  0.400150  0.156250  1.0  -0.6229
  O  O221  1  0.715510  0.403730  0.087380  1.0  -0.6627
  O  O222  1  0.419460  0.451380  0.118950  1.0  -0.5989
  O  O223  1  0.377620  0.406390  0.308590  1.0  -0.675
  O  O224  1  0.510810  0.443660  0.247260  1.0  -0.6498
  O  O225  1  0.242520  0.801290  0.239100  1.0  -0.6526
  O  O226  1  0.373400  0.838840  0.175420  1.0  -0.6608
  O  O227  1  0.536980  0.591170  0.179020  1.0  -0.5688
  O  O228  1  0.209650  0.652720  0.300320  1.0  -0.5423
