# generated using pymatgen
data_Ga3H14(C8O5)3
_symmetry_space_group_name_H-M   'P 1'
_cell_length_a   21.18690000
_cell_length_b   21.18690000
_cell_length_c   6.74230000
_cell_angle_alpha   90.00000000
_cell_angle_beta   90.00000000
_cell_angle_gamma   59.96600000
_symmetry_Int_Tables_number   1
_chemical_formula_structural   Ga3H14(C8O5)3
_chemical_formula_sum   'Ga6 H28 C48 O30'
_cell_volume   2620.14088374
_cell_formula_units_Z   2
loop_
 _symmetry_equiv_pos_site_id
 _symmetry_equiv_pos_as_xyz
  1  'x, y, z'
loop_
 _atom_site_type_symbol
 _atom_site_label
 _atom_site_symmetry_multiplicity
 _atom_site_fract_x
 _atom_site_fract_y
 _atom_site_fract_z
 _atom_site_occupancy
 _atom_site_charge
  Ga  Ga1  1  0.500000  0.000000  0.000000  1.0  1.5065
  Ga  Ga2  1  0.500000  0.000000  0.500000  1.0  1.5065
  Ga  Ga3  1  0.000000  0.500000  0.500000  1.0  1.5065
  Ga  Ga4  1  0.000000  0.500000  0.000000  1.0  1.5065
  Ga  Ga5  1  0.000000  0.000000  0.000000  1.0  1.5307
  Ga  Ga6  1  0.000000  0.000000  0.500000  1.0  1.5307
  H  H7  1  0.321470  0.209070  0.944300  1.0  0.1178
  H  H8  1  0.677520  0.028920  0.944300  1.0  0.1208
  H  H9  1  0.792320  0.023800  0.944300  1.0  0.1209
  H  H10  1  0.500000  0.906800  0.250000  1.0  0.3474
  H  H11  1  0.678530  0.790930  0.444300  1.0  0.1175
  H  H12  1  0.322480  0.971080  0.444300  1.0  0.1202
  H  H13  1  0.207680  0.976200  0.444300  1.0  0.1211
  H  H14  1  0.500000  0.093200  0.750000  1.0  0.3467
  H  H15  1  0.209070  0.321470  0.555700  1.0  0.1181
  H  H16  1  0.028920  0.677520  0.555700  1.0  0.1216
  H  H17  1  0.023800  0.792320  0.555700  1.0  0.1212
  H  H18  1  0.906800  0.500000  0.250000  1.0  0.3456
  H  H19  1  0.790930  0.678530  0.055700  1.0  0.1182
  H  H20  1  0.971080  0.322480  0.055700  1.0  0.1213
  H  H21  1  0.976200  0.207680  0.055700  1.0  0.1217
  H  H22  1  0.093200  0.500000  0.750000  1.0  0.3443
  H  H23  1  0.678530  0.790930  0.055700  1.0  0.1182
  H  H24  1  0.322480  0.971080  0.055700  1.0  0.1214
  H  H25  1  0.207680  0.976200  0.055700  1.0  0.1216
  H  H26  1  0.321470  0.209070  0.555700  1.0  0.1185
  H  H27  1  0.677520  0.028920  0.555700  1.0  0.1215
  H  H28  1  0.792320  0.023800  0.555700  1.0  0.1214
  H  H29  1  0.790930  0.678530  0.444300  1.0  0.1174
  H  H30  1  0.971080  0.322480  0.444300  1.0  0.1202
  H  H31  1  0.976200  0.207680  0.444300  1.0  0.121
  H  H32  1  0.209070  0.321470  0.944300  1.0  0.1174
  H  H33  1  0.028920  0.677520  0.944300  1.0  0.1208
  H  H34  1  0.023800  0.792320  0.944300  1.0  0.1207
  C  C35  1  0.298330  0.232210  0.070180  1.0  -0.054
  C  C36  1  0.701150  0.027870  0.070180  1.0  -0.0568
  C  C37  1  0.768680  0.024860  0.070180  1.0  -0.0423
  C  C38  1  0.701670  0.767790  0.570180  1.0  -0.0539
  C  C39  1  0.298850  0.972130  0.570180  1.0  -0.057
  C  C40  1  0.231320  0.975140  0.570180  1.0  -0.0426
  C  C41  1  0.232210  0.298330  0.429820  1.0  -0.0542
  C  C42  1  0.027870  0.701150  0.429820  1.0  -0.0591
  C  C43  1  0.024860  0.768680  0.429820  1.0  -0.0427
  C  C44  1  0.767790  0.701670  0.929820  1.0  -0.0531
  C  C45  1  0.972130  0.298850  0.929820  1.0  -0.0582
  C  C46  1  0.975140  0.231320  0.929820  1.0  -0.0438
  C  C47  1  0.701670  0.767790  0.929820  1.0  -0.0537
  C  C48  1  0.298850  0.972130  0.929820  1.0  -0.0562
  C  C49  1  0.231320  0.975140  0.929820  1.0  -0.0417
  C  C50  1  0.298330  0.232210  0.429820  1.0  -0.0534
  C  C51  1  0.701150  0.027870  0.429820  1.0  -0.0572
  C  C52  1  0.768680  0.024860  0.429820  1.0  -0.0419
  C  C53  1  0.767790  0.701670  0.570180  1.0  -0.0533
  C  C54  1  0.972130  0.298850  0.570180  1.0  -0.0579
  C  C55  1  0.975140  0.231320  0.570180  1.0  -0.0444
  C  C56  1  0.232210  0.298330  0.070180  1.0  -0.0541
  C  C57  1  0.027870  0.701150  0.070180  1.0  -0.0591
  C  C58  1  0.024860  0.768680  0.070180  1.0  -0.0438
  C  C59  1  0.402220  0.128320  0.250000  1.0  0.7188
  C  C60  1  0.331380  0.199160  0.250000  1.0  -0.1032
  C  C61  1  0.595020  0.032600  0.250000  1.0  0.7188
  C  C62  1  0.667390  0.029370  0.250000  1.0  -0.105
  C  C63  1  0.802450  0.023350  0.250000  1.0  -0.1029
  C  C64  1  0.874810  0.020130  0.250000  1.0  0.7096
  C  C65  1  0.597780  0.871680  0.750000  1.0  0.7179
  C  C66  1  0.668620  0.800840  0.750000  1.0  -0.1025
  C  C67  1  0.404980  0.967400  0.750000  1.0  0.7188
  C  C68  1  0.332610  0.970630  0.750000  1.0  -0.1066
  C  C69  1  0.197550  0.976650  0.750000  1.0  -0.1025
  C  C70  1  0.125190  0.979870  0.750000  1.0  0.7103
  C  C71  1  0.128320  0.402220  0.250000  1.0  0.7182
  C  C72  1  0.199160  0.331380  0.250000  1.0  -0.1027
  C  C73  1  0.032600  0.595020  0.250000  1.0  0.7203
  C  C74  1  0.029370  0.667390  0.250000  1.0  -0.1048
  C  C75  1  0.023350  0.802450  0.250000  1.0  -0.1022
  C  C76  1  0.020130  0.874810  0.250000  1.0  0.7115
  C  C77  1  0.871680  0.597780  0.750000  1.0  0.7196
  C  C78  1  0.800840  0.668620  0.750000  1.0  -0.1043
  C  C79  1  0.967400  0.404980  0.750000  1.0  0.7203
  C  C80  1  0.970630  0.332610  0.750000  1.0  -0.106
  C  C81  1  0.976650  0.197550  0.750000  1.0  -0.1031
  C  C82  1  0.979870  0.125190  0.750000  1.0  0.7118
  O  O83  1  0.431730  0.098810  0.089440  1.0  -0.6272
  O  O84  1  0.564880  0.033940  0.089440  1.0  -0.6329
  O  O85  1  0.904960  0.018780  0.089440  1.0  -0.5902
  O  O86  1  0.568270  0.901190  0.589440  1.0  -0.6262
  O  O87  1  0.435120  0.966060  0.589440  1.0  -0.6315
  O  O88  1  0.095040  0.981220  0.589440  1.0  -0.5886
  O  O89  1  0.098810  0.431730  0.410560  1.0  -0.6268
  O  O90  1  0.033940  0.564880  0.410560  1.0  -0.6336
  O  O91  1  0.018780  0.904960  0.410560  1.0  -0.5893
  O  O92  1  0.901190  0.568270  0.910560  1.0  -0.6272
  O  O93  1  0.966060  0.435120  0.910560  1.0  -0.6329
  O  O94  1  0.981220  0.095040  0.910560  1.0  -0.5893
  O  O95  1  0.568270  0.901190  0.910560  1.0  -0.6261
  O  O96  1  0.435120  0.966060  0.910560  1.0  -0.6334
  O  O97  1  0.095040  0.981220  0.910560  1.0  -0.5896
  O  O98  1  0.431730  0.098810  0.410560  1.0  -0.6268
  O  O99  1  0.564880  0.033940  0.410560  1.0  -0.6345
  O  O100  1  0.904960  0.018780  0.410560  1.0  -0.5897
  O  O101  1  0.901190  0.568270  0.589440  1.0  -0.6264
  O  O102  1  0.966060  0.435120  0.589440  1.0  -0.6324
  O  O103  1  0.981220  0.095040  0.589440  1.0  -0.589
  O  O104  1  0.098810  0.431730  0.089440  1.0  -0.6265
  O  O105  1  0.033940  0.564880  0.089440  1.0  -0.6333
  O  O106  1  0.018780  0.904960  0.089440  1.0  -0.5886
  O  O107  1  0.500000  0.954000  0.250000  1.0  -0.8743
  O  O108  1  0.500000  0.046000  0.750000  1.0  -0.8696
  O  O109  1  0.954000  0.500000  0.250000  1.0  -0.8704
  O  O110  1  0.046000  0.500000  0.750000  1.0  -0.8703
  O  O111  1  0.025630  0.025630  0.250000  1.0  -0.5946
  O  O112  1  0.974370  0.974370  0.750000  1.0  -0.5967
