# generated using pymatgen
data_InH5C8O5
_symmetry_space_group_name_H-M   'P 1'
_cell_length_a   7.23300000
_cell_length_b   21.75820000
_cell_length_c   21.75820000
_cell_angle_alpha   60.04780000
_cell_angle_beta   90.00000000
_cell_angle_gamma   90.00000000
_symmetry_Int_Tables_number   1
_chemical_formula_structural   InH5C8O5
_chemical_formula_sum   'In6 H30 C48 O30'
_cell_volume   2966.90751397
_cell_formula_units_Z   6
loop_
 _symmetry_equiv_pos_site_id
 _symmetry_equiv_pos_as_xyz
  1  'x, y, z'
loop_
 _atom_site_type_symbol
 _atom_site_label
 _atom_site_symmetry_multiplicity
 _atom_site_fract_x
 _atom_site_fract_y
 _atom_site_fract_z
 _atom_site_occupancy
 _atom_site_charge
  In  In1  1  0.000000  0.000000  0.500000  1.0  1.7354
  In  In2  1  0.500000  0.000000  0.500000  1.0  1.7349
  In  In3  1  0.500000  0.500000  0.000000  1.0  1.731
  In  In4  1  0.000000  0.500000  0.000000  1.0  1.732
  In  In5  1  0.000000  0.000000  0.000000  1.0  1.822
  In  In6  1  0.500000  0.000000  0.000000  1.0  1.8221
  H  H7  1  0.449210  0.795120  0.679500  1.0  0.1027
  H  H8  1  0.050240  0.968680  0.322560  1.0  0.1064
  H  H9  1  0.050820  0.969040  0.207980  1.0  0.1087
  H  H10  1  0.949210  0.204880  0.320500  1.0  0.1031
  H  H11  1  0.550240  0.031320  0.677440  1.0  0.1061
  H  H12  1  0.550820  0.030960  0.792020  1.0  0.1059
  H  H13  1  0.050790  0.679500  0.795120  1.0  0.1119
  H  H14  1  0.449760  0.322560  0.968680  1.0  0.1003
  H  H15  1  0.449180  0.207980  0.969040  1.0  0.1058
  H  H16  1  0.550790  0.320500  0.204880  1.0  0.1011
  H  H17  1  0.949760  0.677440  0.031320  1.0  0.1058
  H  H18  1  0.949180  0.792020  0.030960  1.0  0.1086
  H  H19  1  0.550790  0.204880  0.320500  1.0  0.1026
  H  H20  1  0.949760  0.031320  0.677440  1.0  0.1056
  H  H21  1  0.949180  0.030960  0.792020  1.0  0.1052
  H  H22  1  0.050790  0.795120  0.679500  1.0  0.1024
  H  H23  1  0.449760  0.968680  0.322560  1.0  0.1062
  H  H24  1  0.449180  0.969040  0.207980  1.0  0.1085
  H  H25  1  0.949210  0.320500  0.204880  1.0  0.1016
  H  H26  1  0.550240  0.677440  0.031320  1.0  0.1065
  H  H27  1  0.550820  0.792020  0.030960  1.0  0.1086
  H  H28  1  0.449210  0.679500  0.795120  1.0  0.1116
  H  H29  1  0.050240  0.322560  0.968680  1.0  0.1008
  H  H30  1  0.050820  0.207980  0.969040  1.0  0.1051
  H  H31  1  0.750170  0.456500  0.094810  1.0  0.4022
  H  H32  1  0.249970  0.905200  0.543500  1.0  0.4012
  H  H33  1  0.750030  0.094810  0.456510  1.0  0.4007
  H  H34  1  0.249990  0.453040  0.952010  1.0  0.3771
  H  H35  1  0.250000  0.076410  0.002480  1.0  0.4268
  H  H36  1  0.749950  0.997890  0.923560  1.0  0.4257
  C  C37  1  0.585600  0.767930  0.704670  1.0  -0.0789
  C  C38  1  0.913900  0.969590  0.295830  1.0  -0.0829
  C  C39  1  0.914200  0.969100  0.234080  1.0  -0.0742
  C  C40  1  0.085600  0.232070  0.295330  1.0  -0.0798
  C  C41  1  0.413900  0.030410  0.704170  1.0  -0.0828
  C  C42  1  0.414200  0.030900  0.765920  1.0  -0.073
  C  C43  1  0.914400  0.704670  0.767930  1.0  -0.082
  C  C44  1  0.586100  0.295830  0.969590  1.0  -0.0825
  C  C45  1  0.585800  0.234080  0.969100  1.0  -0.0716
  C  C46  1  0.414400  0.295330  0.232070  1.0  -0.081
  C  C47  1  0.086100  0.704170  0.030410  1.0  -0.0843
  C  C48  1  0.085800  0.765920  0.030900  1.0  -0.0741
  C  C49  1  0.414400  0.232070  0.295330  1.0  -0.0818
  C  C50  1  0.086100  0.030410  0.704170  1.0  -0.0825
  C  C51  1  0.085800  0.030900  0.765920  1.0  -0.072
  C  C52  1  0.914400  0.767930  0.704670  1.0  -0.0802
  C  C53  1  0.586100  0.969590  0.295830  1.0  -0.0828
  C  C54  1  0.585800  0.969100  0.234080  1.0  -0.0732
  C  C55  1  0.085600  0.295330  0.232070  1.0  -0.0795
  C  C56  1  0.413900  0.704170  0.030410  1.0  -0.0845
  C  C57  1  0.414200  0.765920  0.030900  1.0  -0.0751
  C  C58  1  0.585600  0.704670  0.767930  1.0  -0.0801
  C  C59  1  0.913900  0.295830  0.969590  1.0  -0.0828
  C  C60  1  0.914200  0.234080  0.969100  1.0  -0.0728
  C  C61  1  0.750000  0.870700  0.605960  1.0  0.7351
  C  C62  1  0.750000  0.797860  0.672300  1.0  -0.0898
  C  C63  1  0.750000  0.977480  0.393860  1.0  0.7491
  C  C64  1  0.750000  0.971190  0.327550  1.0  -0.0934
  C  C65  1  0.750000  0.968670  0.202490  1.0  -0.0904
  C  C66  1  0.750000  0.970750  0.131250  1.0  0.7345
  C  C67  1  0.250000  0.129300  0.394040  1.0  0.7345
  C  C68  1  0.250000  0.202140  0.327700  1.0  -0.0893
  C  C69  1  0.250000  0.022520  0.606140  1.0  0.7481
  C  C70  1  0.250000  0.028810  0.672450  1.0  -0.0937
  C  C71  1  0.250000  0.031330  0.797510  1.0  -0.0896
  C  C72  1  0.250000  0.029250  0.868750  1.0  0.7376
  C  C73  1  0.750000  0.605960  0.870700  1.0  0.7314
  C  C74  1  0.750000  0.672300  0.797860  1.0  -0.0834
  C  C75  1  0.750000  0.393860  0.977480  1.0  0.7498
  C  C76  1  0.750000  0.327550  0.971190  1.0  -0.0952
  C  C77  1  0.750000  0.202490  0.968670  1.0  -0.0908
  C  C78  1  0.750000  0.131250  0.970750  1.0  0.7379
  C  C79  1  0.250000  0.394040  0.129300  1.0  0.7416
  C  C80  1  0.250000  0.327700  0.202140  1.0  -0.0882
  C  C81  1  0.250000  0.606140  0.022520  1.0  0.7428
  C  C82  1  0.250000  0.672450  0.028810  1.0  -0.0931
  C  C83  1  0.250000  0.797510  0.031330  1.0  -0.0912
  C  C84  1  0.250000  0.868750  0.029250  1.0  0.7339
  O  O85  1  0.904350  0.897140  0.580720  1.0  -0.6547
  O  O86  1  0.901940  0.977330  0.420050  1.0  -0.6499
  O  O87  1  0.903530  0.971820  0.104160  1.0  -0.6531
  O  O88  1  0.404350  0.102860  0.419280  1.0  -0.6561
  O  O89  1  0.401940  0.022670  0.579950  1.0  -0.6497
  O  O90  1  0.403530  0.028180  0.895840  1.0  -0.6798
  O  O91  1  0.595650  0.580720  0.897140  1.0  -0.6413
  O  O92  1  0.598060  0.420050  0.977330  1.0  -0.6519
  O  O93  1  0.596470  0.104160  0.971820  1.0  -0.6787
  O  O94  1  0.095650  0.419280  0.102860  1.0  -0.6667
  O  O95  1  0.098060  0.579950  0.022670  1.0  -0.6501
  O  O96  1  0.096470  0.895840  0.028180  1.0  -0.6505
  O  O97  1  0.095650  0.102860  0.419280  1.0  -0.6572
  O  O98  1  0.098060  0.022670  0.579950  1.0  -0.6485
  O  O99  1  0.096470  0.028180  0.895840  1.0  -0.6789
  O  O100  1  0.595650  0.897140  0.580720  1.0  -0.6561
  O  O101  1  0.598060  0.977330  0.420050  1.0  -0.6493
  O  O102  1  0.596470  0.971820  0.104160  1.0  -0.6527
  O  O103  1  0.404350  0.419280  0.102860  1.0  -0.6667
  O  O104  1  0.401940  0.579950  0.022670  1.0  -0.6491
  O  O105  1  0.403530  0.895840  0.028180  1.0  -0.6511
  O  O106  1  0.904350  0.580720  0.897140  1.0  -0.641
  O  O107  1  0.901940  0.420050  0.977330  1.0  -0.6533
  O  O108  1  0.903530  0.104160  0.971820  1.0  -0.6789
  O  O109  1  0.750000  0.048610  0.501170  1.0  -0.9343
  O  O110  1  0.250000  0.951390  0.498830  1.0  -0.9361
  O  O111  1  0.750000  0.501170  0.048610  1.0  -0.9367
  O  O112  1  0.250000  0.498830  0.951390  1.0  -0.9245
  O  O113  1  0.750000  0.975840  0.975840  1.0  -0.9702
  O  O114  1  0.250000  0.024160  0.024160  1.0  -0.9687
