# generated using pymatgen
data_BaCdH8(C2O)8
_symmetry_space_group_name_H-M   'P 1'
_cell_length_a   10.06300000
_cell_length_b   13.02960000
_cell_length_c   16.83730000
_cell_angle_alpha   90.00000000
_cell_angle_beta   90.00000000
_cell_angle_gamma   109.82100000
_symmetry_Int_Tables_number   1
_chemical_formula_structural   BaCdH8(C2O)8
_chemical_formula_sum   'Ba4 Cd4 H32 C64 O32'
_cell_volume   2076.86495309
_cell_formula_units_Z   4
loop_
 _symmetry_equiv_pos_site_id
 _symmetry_equiv_pos_as_xyz
  1  'x, y, z'
loop_
 _atom_site_type_symbol
 _atom_site_label
 _atom_site_symmetry_multiplicity
 _atom_site_fract_x
 _atom_site_fract_y
 _atom_site_fract_z
 _atom_site_occupancy
 _atom_site_charge
  Ba  Ba1  1  0.524820  0.711350  0.708860  1.0  1.6343
  Ba  Ba2  1  0.024820  0.211350  0.791140  1.0  1.6354
  Ba  Ba3  1  0.475180  0.288650  0.291140  1.0  1.6369
  Ba  Ba4  1  0.975180  0.788650  0.208860  1.0  1.6358
  Cd  Cd5  1  0.630150  0.599960  0.298950  1.0  1.0368
  Cd  Cd6  1  0.869850  0.900040  0.798950  1.0  1.0357
  Cd  Cd7  1  0.369850  0.400040  0.701050  1.0  1.0358
  Cd  Cd8  1  0.130150  0.099960  0.201050  1.0  1.0368
  H  H9  1  0.979200  0.680400  0.497000  1.0  0.0925
  H  H10  1  0.382000  0.654900  0.084300  1.0  0.0903
  H  H11  1  0.618000  0.345100  0.915700  1.0  0.0894
  H  H12  1  0.339800  0.871000  0.047300  1.0  0.1136
  H  H13  1  0.740900  0.880500  0.054600  1.0  0.1119
  H  H14  1  0.398200  0.641700  0.947900  1.0  0.111
  H  H15  1  0.739600  0.683100  0.032200  1.0  0.0976
  H  H16  1  0.688800  0.498900  0.837700  1.0  0.1002
  H  H17  1  0.160200  0.629000  0.547300  1.0  0.1134
  H  H18  1  0.112700  0.576600  0.302900  1.0  0.1114
  H  H19  1  0.239600  0.183100  0.467800  1.0  0.0983
  H  H20  1  0.101800  0.858300  0.447900  1.0  0.1103
  H  H21  1  0.898200  0.141700  0.552100  1.0  0.1107
  H  H22  1  0.759100  0.619500  0.554600  1.0  0.111
  H  H23  1  0.260400  0.316900  0.967800  1.0  0.0977
  H  H24  1  0.887300  0.423400  0.697100  1.0  0.1116
  H  H25  1  0.240900  0.380500  0.445400  1.0  0.1119
  H  H26  1  0.118000  0.845100  0.584300  1.0  0.0893
  H  H27  1  0.259100  0.119500  0.945400  1.0  0.111
  H  H28  1  0.520800  0.819600  0.997000  1.0  0.094
  H  H29  1  0.020800  0.319600  0.503000  1.0  0.0936
  H  H30  1  0.660200  0.129000  0.952700  1.0  0.1135
  H  H31  1  0.612700  0.076600  0.197100  1.0  0.1116
  H  H32  1  0.311200  0.501100  0.162300  1.0  0.0997
  H  H33  1  0.882000  0.154900  0.415700  1.0  0.0904
  H  H34  1  0.839800  0.371000  0.452700  1.0  0.1137
  H  H35  1  0.601800  0.358300  0.052100  1.0  0.1103
  H  H36  1  0.188800  0.998900  0.662300  1.0  0.0994
  H  H37  1  0.479200  0.180400  0.003000  1.0  0.0935
  H  H38  1  0.387300  0.923400  0.802900  1.0  0.1111
  H  H39  1  0.760400  0.816900  0.532200  1.0  0.0977
  H  H40  1  0.811200  0.001100  0.337700  1.0  0.1002
  C  C41  1  0.331400  0.477600  0.943500  1.0  -0.2006
  C  C42  1  0.668600  0.522400  0.056500  1.0  -0.2011
  C  C43  1  0.344600  0.528000  0.332000  1.0  0.6924
  C  C44  1  0.461700  0.131500  0.960800  1.0  -0.0977
  C  C45  1  0.155400  0.972000  0.832000  1.0  0.6905
  C  C46  1  0.223600  0.106900  0.572400  1.0  -0.1765
  C  C47  1  0.593300  0.022600  0.158300  1.0  0.0004
  C  C48  1  0.685200  0.505200  0.892600  1.0  -0.0433
  C  C49  1  0.540300  0.019100  0.873800  1.0  -0.1581
  C  C50  1  0.714400  0.614500  0.008800  1.0  -0.0286
  C  C51  1  0.406700  0.977400  0.841700  1.0  0.0012
  C  C52  1  0.959700  0.480900  0.373800  1.0  -0.1579
  C  C53  1  0.961700  0.631500  0.539200  1.0  -0.0982
  C  C54  1  0.569200  0.098500  0.932600  1.0  -0.104
  C  C55  1  0.168600  0.022400  0.443500  1.0  -0.2008
  C  C56  1  0.185200  0.005200  0.607400  1.0  -0.0493
  C  C57  1  0.285600  0.385500  0.991200  1.0  -0.03
  C  C58  1  0.152000  0.475400  0.654000  1.0  0.6958
  C  C59  1  0.430800  0.901500  0.067400  1.0  -0.1015
  C  C60  1  0.132300  0.921100  0.478800  1.0  -0.0513
  C  C61  1  0.776400  0.893100  0.427600  1.0  -0.1762
  C  C62  1  0.314800  0.494800  0.107400  1.0  -0.0439
  C  C63  1  0.867700  0.078900  0.521200  1.0  -0.0521
  C  C64  1  0.699400  0.983900  0.132500  1.0  -0.1469
  C  C65  1  0.227200  0.292300  0.121900  1.0  0.7234
  C  C66  1  0.785600  0.885500  0.508800  1.0  -0.0288
  C  C67  1  0.069200  0.598500  0.567400  1.0  -0.1032
  C  C68  1  0.538300  0.868500  0.039200  1.0  -0.0983
  C  C69  1  0.641600  0.413500  0.939300  1.0  -0.0766
  C  C70  1  0.367700  0.578900  0.978800  1.0  -0.052
  C  C71  1  0.652000  0.975400  0.846000  1.0  0.6965
  C  C72  1  0.727200  0.792300  0.378100  1.0  0.725
  C  C73  1  0.358400  0.586500  0.060700  1.0  -0.0745
  C  C74  1  0.723600  0.606900  0.927600  1.0  -0.1749
  C  C75  1  0.093300  0.522600  0.341700  1.0  0.001
  C  C76  1  0.814800  0.994800  0.392600  1.0  -0.0442
  C  C77  1  0.670700  0.906400  0.072300  1.0  -0.0559
  C  C78  1  0.141600  0.913500  0.560700  1.0  -0.0762
  C  C79  1  0.329300  0.093600  0.927700  1.0  -0.0547
  C  C80  1  0.199400  0.483900  0.367500  1.0  -0.1465
  C  C81  1  0.276400  0.393100  0.072400  1.0  -0.1754
  C  C82  1  0.930800  0.401500  0.432600  1.0  -0.1018
  C  C83  1  0.831400  0.977600  0.556500  1.0  -0.1987
  C  C84  1  0.459700  0.980900  0.126200  1.0  -0.1583
  C  C85  1  0.300600  0.016100  0.867500  1.0  -0.1481
  C  C86  1  0.829300  0.593600  0.572300  1.0  -0.0545
  C  C87  1  0.800600  0.516100  0.632500  1.0  -0.1473
  C  C88  1  0.858400  0.086500  0.439300  1.0  -0.0756
  C  C89  1  0.653600  0.533700  0.143700  1.0  0.7236
  C  C90  1  0.040300  0.519100  0.626200  1.0  -0.1586
  C  C91  1  0.906700  0.477400  0.658300  1.0  0.0015
  C  C92  1  0.153600  0.033700  0.356300  1.0  0.7244
  C  C93  1  0.772800  0.707700  0.878100  1.0  0.7228
  C  C94  1  0.272800  0.207700  0.621900  1.0  0.7249
  C  C95  1  0.170700  0.406400  0.427700  1.0  -0.0558
  C  C96  1  0.632300  0.421100  0.021200  1.0  -0.0529
  C  C97  1  0.848000  0.524600  0.346000  1.0  0.6978
  C  C98  1  0.846400  0.966300  0.643700  1.0  0.7231
  C  C99  1  0.655400  0.472000  0.668000  1.0  0.6914
  C  C100  1  0.844600  0.028000  0.168000  1.0  0.6928
  C  C101  1  0.038300  0.368500  0.460800  1.0  -0.0976
  C  C102  1  0.346400  0.466300  0.856300  1.0  0.7247
  C  C103  1  0.214400  0.114500  0.491200  1.0  -0.0292
  C  C104  1  0.348000  0.024600  0.154000  1.0  0.6952
  O  O105  1  0.252300  0.296800  0.194100  1.0  -0.6256
  O  O106  1  0.097700  0.951400  0.315400  1.0  -0.6428
  O  O107  1  0.425300  0.473200  0.343300  1.0  -0.6414
  O  O108  1  0.301700  0.371000  0.828100  1.0  -0.6365
  O  O109  1  0.882800  0.114700  0.206200  1.0  -0.629
  O  O110  1  0.885600  0.616100  0.312200  1.0  -0.7305
  O  O111  1  0.752300  0.796800  0.305900  1.0  -0.6263
  O  O112  1  0.614400  0.883900  0.812200  1.0  -0.7323
  O  O113  1  0.160900  0.203600  0.087400  1.0  -0.5904
  O  O114  1  0.925300  0.973200  0.156700  1.0  -0.6411
  O  O115  1  0.617200  0.385300  0.706200  1.0  -0.6264
  O  O116  1  0.114400  0.383900  0.687800  1.0  -0.7303
  O  O117  1  0.801700  0.871000  0.671900  1.0  -0.6359
  O  O118  1  0.247700  0.203200  0.694100  1.0  -0.6263
  O  O119  1  0.698300  0.629000  0.171900  1.0  -0.6356
  O  O120  1  0.660900  0.703600  0.412600  1.0  -0.5905
  O  O121  1  0.074700  0.026800  0.843300  1.0  -0.6422
  O  O122  1  0.720500  0.470700  0.357600  1.0  -0.7032
  O  O123  1  0.382800  0.614700  0.293800  1.0  -0.6295
  O  O124  1  0.597700  0.451400  0.184600  1.0  -0.6404
  O  O125  1  0.117200  0.885300  0.793800  1.0  -0.6258
  O  O126  1  0.339100  0.296400  0.587400  1.0  -0.5896
  O  O127  1  0.385600  0.116100  0.187800  1.0  -0.7299
  O  O128  1  0.839100  0.796400  0.912600  1.0  -0.5905
  O  O129  1  0.902300  0.048600  0.684600  1.0  -0.6412
  O  O130  1  0.279500  0.529300  0.642400  1.0  -0.7046
  O  O131  1  0.198300  0.129000  0.328100  1.0  -0.6349
  O  O132  1  0.220500  0.970700  0.142400  1.0  -0.7029
  O  O133  1  0.779500  0.029300  0.857600  1.0  -0.7028
  O  O134  1  0.747700  0.703200  0.805900  1.0  -0.6269
  O  O135  1  0.574700  0.526800  0.656700  1.0  -0.6412
  O  O136  1  0.402300  0.548600  0.815400  1.0  -0.643
