# generated using pymatgen
data_Cd5H46C72(N2O9)2
_symmetry_space_group_name_H-M   'P 1'
_cell_length_a   7.66900000
_cell_length_b   15.58880000
_cell_length_c   16.73190000
_cell_angle_alpha   69.94800000
_cell_angle_beta   80.15500000
_cell_angle_gamma   81.11600000
_symmetry_Int_Tables_number   1
_chemical_formula_structural   Cd5H46C72(N2O9)2
_chemical_formula_sum   'Cd5 H46 C72 N4 O18'
_cell_volume   1841.43509715
_cell_formula_units_Z   1
loop_
 _symmetry_equiv_pos_site_id
 _symmetry_equiv_pos_as_xyz
  1  'x, y, z'
loop_
 _atom_site_type_symbol
 _atom_site_label
 _atom_site_symmetry_multiplicity
 _atom_site_fract_x
 _atom_site_fract_y
 _atom_site_fract_z
 _atom_site_occupancy
 _atom_site_charge
  Cd  Cd1  1  0.367790  0.992610  0.857530  1.0  1.0138
  Cd  Cd2  1  0.615100  0.176550  0.912630  1.0  1.0224
  Cd  Cd3  1  0.632210  0.007390  0.142470  1.0  1.0137
  Cd  Cd4  1  0.000000  0.000000  0.000000  1.0  1.1117
  Cd  Cd5  1  0.384900  0.823450  0.087370  1.0  1.0221
  H  H6  1  0.620500  0.498100  0.937100  1.0  0.1095
  H  H7  1  0.881300  0.966000  0.470700  1.0  0.1138
  H  H8  1  0.677100  0.005400  0.979100  1.0  0.4386
  H  H9  1  0.514400  0.382800  0.911900  1.0  0.0877
  H  H10  1  0.530500  0.254400  0.098500  1.0  0.1016
  H  H11  1  0.113400  0.214300  0.519300  1.0  0.1178
  H  H12  1  0.906300  0.650800  0.043900  1.0  0.1149
  H  H13  1  0.647600  0.345400  0.152400  1.0  0.1144
  H  H14  1  0.063100  0.713000  0.697300  1.0  0.1146
  H  H15  1  0.606400  0.053800  0.326200  1.0  0.0838
  H  H16  1  0.322900  0.994600  0.020900  1.0  0.4397
  H  H17  1  0.022500  0.761500  0.073200  1.0  0.0837
  H  H18  1  0.740500  0.033600  0.760100  1.0  0.0739
  H  H19  1  0.469500  0.745600  0.901500  1.0  0.102
  H  H20  1  0.886600  0.785700  0.480700  1.0  0.1178
  H  H21  1  0.049600  0.974300  0.350100  1.0  0.1273
  H  H22  1  0.393600  0.946200  0.673800  1.0  0.0845
  H  H23  1  0.051200  0.816900  0.350000  1.0  0.1082
  H  H24  1  0.354000  0.748800  0.338500  1.0  0.1082
  H  H25  1  0.192800  0.365900  0.305400  1.0  0.1227
  H  H26  1  0.395600  0.253900  0.426000  1.0  0.1201
  H  H27  1  0.259500  0.966400  0.239900  1.0  0.0735
  H  H28  1  0.865800  0.563600  0.965500  1.0  0.0925
  H  H29  1  0.948800  0.183100  0.650000  1.0  0.1079
  H  H30  1  0.936900  0.287000  0.302700  1.0  0.1152
  H  H31  1  0.093700  0.349200  0.956100  1.0  0.1164
  H  H32  1  0.521600  0.600200  0.741600  1.0  0.121
  H  H33  1  0.352400  0.654600  0.847600  1.0  0.1143
  H  H34  1  0.485600  0.617200  0.088100  1.0  0.0873
  H  H35  1  0.406700  0.065700  0.440400  1.0  0.1209
  H  H36  1  0.134200  0.436400  0.034500  1.0  0.0927
  H  H37  1  0.819600  0.193800  0.251600  1.0  0.1067
  H  H38  1  0.977500  0.238500  0.926800  1.0  0.0841
  H  H39  1  0.950400  0.025700  0.649900  1.0  0.1274
  H  H40  1  0.672600  0.298300  0.409100  1.0  0.105
  H  H41  1  0.180400  0.806200  0.748400  1.0  0.1063
  H  H42  1  0.118700  0.034000  0.529300  1.0  0.1135
  H  H43  1  0.807200  0.634100  0.694600  1.0  0.1231
  H  H44  1  0.379500  0.501900  0.062900  1.0  0.1099
  H  H45  1  0.202900  0.698300  0.473000  1.0  0.1206
  H  H46  1  0.797100  0.301700  0.527000  1.0  0.1183
  H  H47  1  0.478400  0.399800  0.258400  1.0  0.1209
  H  H48  1  0.604400  0.746100  0.574000  1.0  0.1201
  H  H49  1  0.327400  0.701700  0.590900  1.0  0.1055
  H  H50  1  0.646000  0.251200  0.661500  1.0  0.1078
  H  H51  1  0.593300  0.934300  0.559600  1.0  0.1212
  C  C52  1  0.694900  0.444800  0.937800  1.0  -0.2299
  C  C53  1  0.283600  0.254300  0.166000  1.0  0.032
  C  C54  1  0.994800  0.735300  0.739000  1.0  -0.1286
  C  C55  1  0.005200  0.264700  0.261000  1.0  -0.1262
  C  C56  1  0.632400  0.375600  0.921600  1.0  0.1898
  C  C57  1  0.740700  0.656800  0.736300  1.0  -0.0754
  C  C58  1  0.858200  0.815700  0.281600  1.0  -0.1056
  C  C59  1  0.716400  0.745700  0.834000  1.0  0.0336
  C  C60  1  0.710100  0.013600  0.718500  1.0  0.1881
  C  C61  1  0.507500  0.962700  0.668700  1.0  0.1848
  C  C62  1  0.932300  0.807600  0.355300  1.0  -0.082
  C  C63  1  0.584200  0.766900  0.372600  1.0  0.0401
  C  C64  1  0.441800  0.256200  0.473100  1.0  -0.1598
  C  C65  1  0.539600  0.723000  0.860400  1.0  -0.0815
  C  C66  1  0.314000  0.205600  0.710100  1.0  -0.0197
  C  C67  1  0.682400  0.836100  0.934900  1.0  0.6594
  C  C68  1  0.920400  0.986600  0.510000  1.0  -0.0968
  C  C69  1  0.315400  0.717500  0.465100  1.0  -0.1626
  C  C70  1  0.972500  0.848000  0.197500  1.0  0.7204
  C  C71  1  0.067700  0.192400  0.644700  1.0  -0.0832
  C  C72  1  0.403500  0.203800  0.783900  1.0  0.6987
  C  C73  1  0.338600  0.233200  0.555100  1.0  0.0231
  C  C74  1  0.867800  0.436200  0.955200  1.0  0.15
  C  C75  1  0.531500  0.330600  0.172100  1.0  -0.1097
  C  C76  1  0.367600  0.624400  0.078400  1.0  0.1889
  C  C77  1  0.591900  0.255300  0.614400  1.0  -0.0944
  C  C78  1  0.203500  0.014600  0.413100  1.0  0.1197
  C  C79  1  0.164300  0.213300  0.566200  1.0  -0.1421
  C  C80  1  0.259300  0.343200  0.263700  1.0  -0.0915
  C  C81  1  0.968100  0.823200  0.835200  1.0  -0.1673
  C  C82  1  0.182000  0.288800  0.231100  1.0  0.0199
  C  C83  1  0.289900  0.986400  0.281500  1.0  0.1891
  C  C84  1  0.460400  0.277000  0.139600  1.0  -0.0814
  C  C85  1  0.570600  0.636300  0.764400  1.0  -0.128
  C  C86  1  0.934300  0.209900  0.229800  1.0  -0.0429
  C  C87  1  0.317600  0.163900  0.065100  1.0  0.6606
  C  C88  1  0.835700  0.786700  0.433800  1.0  -0.1495
  C  C89  1  0.203300  0.198800  0.133500  1.0  -0.0573
  C  C90  1  0.836800  0.010600  0.651600  1.0  -0.2212
  C  C91  1  0.305100  0.555200  0.062200  1.0  -0.2177
  C  C92  1  0.079600  0.013400  0.490000  1.0  -0.0956
  C  C93  1  0.558200  0.743800  0.526900  1.0  -0.1629
  C  C94  1  0.057200  0.879900  0.868500  1.0  0.7104
  C  C95  1  0.796500  0.985400  0.586900  1.0  0.1202
  C  C96  1  0.096200  0.709400  0.069200  1.0  0.1828
  C  C97  1  0.415800  0.233100  0.627400  1.0  0.0431
  C  C98  1  0.607600  0.281400  0.463400  1.0  -0.1063
  C  C99  1  0.661400  0.766800  0.444900  1.0  0.021
  C  C100  1  0.065700  0.790100  0.770200  1.0  -0.0438
  C  C101  1  0.686000  0.794400  0.289900  1.0  -0.0201
  C  C102  1  0.929800  0.505800  0.979600  1.0  -0.1146
  C  C103  1  0.796700  0.801200  0.866500  1.0  -0.0567
  C  C104  1  0.625900  0.957000  0.599000  1.0  -0.1745
  C  C105  1  0.492500  0.037300  0.331300  1.0  0.1859
  C  C106  1  0.818000  0.711200  0.768900  1.0  0.0206
  C  C107  1  0.429400  0.363700  0.235600  1.0  -0.1253
  C  C108  1  0.684600  0.282500  0.534900  1.0  -0.1551
  C  C109  1  0.942800  0.120100  0.131500  1.0  0.7097
  C  C110  1  0.374100  0.043000  0.401000  1.0  -0.1735
  C  C111  1  0.132200  0.563800  0.044800  1.0  0.1503
  C  C112  1  0.392400  0.718600  0.536600  1.0  -0.1069
  C  C113  1  0.468500  0.669400  0.827900  1.0  -0.1109
  C  C114  1  0.408100  0.744700  0.385600  1.0  -0.0941
  C  C115  1  0.903800  0.290600  0.930800  1.0  0.1833
  C  C116  1  0.141800  0.184300  0.718400  1.0  -0.1056
  C  C117  1  0.596500  0.796200  0.216100  1.0  0.6969
  C  C118  1  0.163200  0.989400  0.348400  1.0  -0.2215
  C  C119  1  0.031900  0.176800  0.164800  1.0  -0.1676
  C  C120  1  0.070200  0.494200  0.020400  1.0  -0.1107
  C  C121  1  0.027500  0.152000  0.802500  1.0  0.7198
  C  C122  1  0.974300  0.357000  0.948500  1.0  -0.1915
  C  C123  1  0.025700  0.643000  0.051500  1.0  -0.1933
  N  N124  1  0.453100  0.009800  0.271100  1.0  -0.3379
  N  N125  1  0.267600  0.701800  0.080900  1.0  -0.3433
  N  N126  1  0.732400  0.298200  0.919100  1.0  -0.3446
  N  N127  1  0.546900  0.990200  0.728900  1.0  -0.3368
  O  O128  1  0.007400  0.109000  0.061500  1.0  -0.6169
  O  O129  1  0.711200  0.040600  0.998500  1.0  -0.9207
  O  O130  1  0.522700  0.872100  0.170800  1.0  -0.6716
  O  O131  1  0.896200  0.899900  0.133800  1.0  -0.6886
  O  O132  1  0.634800  0.781200  0.004500  1.0  -0.5489
  O  O133  1  0.288800  0.959400  0.001500  1.0  -0.9215
  O  O134  1  0.371100  0.077300  0.089300  1.0  -0.6245
  O  O135  1  0.803800  0.086700  0.176900  1.0  -0.6027
  O  O136  1  0.584400  0.723400  0.204400  1.0  -0.5937
  O  O137  1  0.628900  0.922700  0.910700  1.0  -0.625
  O  O138  1  0.865500  0.175800  0.805800  1.0  -0.6821
  O  O139  1  0.103800  0.100100  0.866200  1.0  -0.6879
  O  O140  1  0.196200  0.913300  0.823100  1.0  -0.6003
  O  O141  1  0.477300  0.127900  0.829200  1.0  -0.6722
  O  O142  1  0.134500  0.824200  0.194200  1.0  -0.6829
  O  O143  1  0.365200  0.218800  0.995500  1.0  -0.5478
  O  O144  1  0.415600  0.276600  0.795600  1.0  -0.5924
  O  O145  1  0.992600  0.891000  0.938500  1.0  -0.6162
