# generated using pymatgen
data_Eu3H45C73(N3O8)2
_symmetry_space_group_name_H-M   'P 1'
_cell_length_a   14.65340000
_cell_length_b   17.76870000
_cell_length_c   31.94620000
_cell_angle_alpha   90.00000000
_cell_angle_beta   90.29200000
_cell_angle_gamma   90.00000000
_symmetry_Int_Tables_number   1
_chemical_formula_structural   Eu3H45C73(N3O8)2
_chemical_formula_sum   'Eu12 H180 C292 N24 O64'
_cell_volume   8317.78376838
_cell_formula_units_Z   4
loop_
 _symmetry_equiv_pos_site_id
 _symmetry_equiv_pos_as_xyz
  1  'x, y, z'
loop_
 _atom_site_type_symbol
 _atom_site_label
 _atom_site_symmetry_multiplicity
 _atom_site_fract_x
 _atom_site_fract_y
 _atom_site_fract_z
 _atom_site_occupancy
 _atom_site_charge
  Eu  Eu1  1  0.853160  0.938130  0.069390  1.0  2.0777
  Eu  Eu2  1  0.094230  0.924570  0.012380  1.0  2.1582
  Eu  Eu3  1  0.641870  0.997420  0.001420  1.0  2.1335
  Eu  Eu4  1  0.646840  0.438130  0.430610  1.0  2.0747
  Eu  Eu5  1  0.405770  0.424570  0.487620  1.0  2.1579
  Eu  Eu6  1  0.858130  0.497420  0.498580  1.0  2.1332
  Eu  Eu7  1  0.146840  0.061870  0.930610  1.0  2.0743
  Eu  Eu8  1  0.905770  0.075430  0.987620  1.0  2.1573
  Eu  Eu9  1  0.358130  0.002580  0.998580  1.0  2.1324
  Eu  Eu10  1  0.353160  0.561870  0.569390  1.0  2.0767
  Eu  Eu11  1  0.594230  0.575430  0.512380  1.0  2.1577
  Eu  Eu12  1  0.141870  0.502580  0.501420  1.0  2.1327
  H  H13  1  0.435400  0.644000  0.939800  1.0  0.1107
  H  H14  1  0.407300  0.421600  0.916800  1.0  0.1082
  H  H15  1  0.459500  0.313600  0.939900  1.0  0.1004
  H  H16  1  0.530900  0.197200  0.949200  1.0  0.101
  H  H17  1  0.773000  0.302000  0.963800  1.0  0.1119
  H  H18  1  0.701900  0.418000  0.954100  1.0  0.1052
  H  H19  1  0.257600  0.444000  0.921100  1.0  0.1137
  H  H20  1  0.114300  0.468000  0.895100  1.0  0.0761
  H  H21  1  0.179900  0.676200  0.868400  1.0  0.0753
  H  H22  1  0.325000  0.658900  0.894300  1.0  0.1189
  H  H23  1  0.179200  0.876300  0.104000  1.0  0.1013
  H  H24  1  0.298200  0.813700  0.137800  1.0  0.1068
  H  H25  1  0.115800  0.700600  0.208400  1.0  0.1066
  H  H26  1  0.997000  0.763300  0.174600  1.0  0.11
  H  H27  1  0.391300  0.724400  0.151500  1.0  0.1137
  H  H28  1  0.478500  0.607400  0.252500  1.0  0.112
  H  H29  1  0.436200  0.546200  0.305000  1.0  0.1153
  H  H30  1  0.399200  0.502900  0.371700  1.0  0.0824
  H  H31  1  0.159800  0.615000  0.366000  1.0  0.1087
  H  H32  1  0.196900  0.659600  0.300300  1.0  0.1035
  H  H33  1  0.592100  0.572500  0.211900  1.0  0.1214
  H  H34  1  0.739000  0.577500  0.185900  1.0  0.072
  H  H35  1  0.683200  0.756600  0.120700  1.0  0.0705
  H  H36  1  0.535700  0.759300  0.146300  1.0  0.1084
  H  H37  1  0.450600  0.950600  0.108000  1.0  0.1047
  H  H38  1  0.359500  0.933800  0.166900  1.0  0.1116
  H  H39  1  0.583800  0.881500  0.235200  1.0  0.1106
  H  H40  1  0.673700  0.902900  0.177000  1.0  0.1048
  H  H41  1  0.287000  0.936900  0.228000  1.0  0.1164
  H  H42  1  0.277700  0.815400  0.334800  1.0  0.1178
  H  H43  1  0.370300  0.770900  0.384700  1.0  0.118
  H  H44  1  0.441100  0.676200  0.423300  1.0  0.097
  H  H45  1  0.621000  0.643300  0.329300  1.0  0.1109
  H  H46  1  0.554300  0.740300  0.292000  1.0  0.1102
  H  H47  1  0.136000  0.898200  0.225200  1.0  0.1073
  H  H48  1  0.983700  0.923400  0.233100  1.0  0.078
  H  H49  1  0.010100  0.937100  0.353100  1.0  0.0516
  H  H50  1  0.165000  0.908100  0.350700  1.0  0.1285
  H  H51  1  0.493700  0.132600  0.067500  1.0  0.0434
  H  H52  1  0.779000  0.061000  0.056400  1.0  0.3928
  H  H53  1  0.915000  0.918000  0.986000  1.0  0.4556
  H  H54  1  0.639800  0.823400  0.961700  1.0  0.0981
  H  H55  1  0.551700  0.726900  0.933300  1.0  0.1164
  H  H56  1  0.692200  0.575900  0.002100  1.0  0.0993
  H  H57  1  0.775500  0.673300  0.033200  1.0  0.1095
  H  H58  1  0.064600  0.144000  0.560200  1.0  0.11
  H  H59  1  0.092700  0.921600  0.583200  1.0  0.1087
  H  H60  1  0.040500  0.813600  0.560100  1.0  0.1008
  H  H61  1  0.969100  0.697200  0.550800  1.0  0.1012
  H  H62  1  0.727000  0.802000  0.536200  1.0  0.1123
  H  H63  1  0.798100  0.918000  0.545900  1.0  0.1055
  H  H64  1  0.242400  0.944000  0.578900  1.0  0.1145
  H  H65  1  0.385700  0.968000  0.604900  1.0  0.0775
  H  H66  1  0.320100  0.176200  0.631600  1.0  0.0751
  H  H67  1  0.175000  0.158900  0.605700  1.0  0.1185
  H  H68  1  0.320800  0.376300  0.396000  1.0  0.1017
  H  H69  1  0.201800  0.313700  0.362200  1.0  0.1068
  H  H70  1  0.384200  0.200600  0.291600  1.0  0.1065
  H  H71  1  0.503000  0.263300  0.325400  1.0  0.1094
  H  H72  1  0.108700  0.224400  0.348500  1.0  0.1142
  H  H73  1  0.021500  0.107400  0.247500  1.0  0.112
  H  H74  1  0.063800  0.046200  0.195000  1.0  0.1154
  H  H75  1  0.100800  0.002900  0.128300  1.0  0.0818
  H  H76  1  0.340200  0.115000  0.134000  1.0  0.109
  H  H77  1  0.303100  0.159600  0.199700  1.0  0.1028
  H  H78  1  0.907900  0.072500  0.288100  1.0  0.121
  H  H79  1  0.761000  0.077500  0.314100  1.0  0.0719
  H  H80  1  0.816800  0.256600  0.379300  1.0  0.0704
  H  H81  1  0.964300  0.259300  0.353700  1.0  0.1087
  H  H82  1  0.049400  0.450600  0.392000  1.0  0.1043
  H  H83  1  0.140500  0.433800  0.333100  1.0  0.1116
  H  H84  1  0.916200  0.381500  0.264800  1.0  0.1097
  H  H85  1  0.826300  0.402900  0.323000  1.0  0.1043
  H  H86  1  0.213000  0.436900  0.272000  1.0  0.1169
  H  H87  1  0.222300  0.315400  0.165200  1.0  0.1183
  H  H88  1  0.129700  0.270900  0.115300  1.0  0.1176
  H  H89  1  0.058900  0.176200  0.076700  1.0  0.0964
  H  H90  1  0.879000  0.143300  0.170700  1.0  0.11
  H  H91  1  0.945700  0.240300  0.208000  1.0  0.1092
  H  H92  1  0.364000  0.398200  0.274800  1.0  0.1073
  H  H93  1  0.516300  0.423400  0.266900  1.0  0.0782
  H  H94  1  0.489900  0.437100  0.146900  1.0  0.0514
  H  H95  1  0.335000  0.408100  0.149300  1.0  0.1293
  H  H96  1  0.006300  0.632600  0.432500  1.0  0.044
  H  H97  1  0.721000  0.561000  0.443600  1.0  0.3927
  H  H98  1  0.585000  0.418000  0.514000  1.0  0.4553
  H  H99  1  0.860200  0.323400  0.538300  1.0  0.0981
  H  H100  1  0.948300  0.226900  0.566700  1.0  0.1173
  H  H101  1  0.807800  0.075900  0.497900  1.0  0.0989
  H  H102  1  0.724500  0.173300  0.466800  1.0  0.1091
  H  H103  1  0.564600  0.356000  0.060200  1.0  0.1103
  H  H104  1  0.592700  0.578400  0.083200  1.0  0.1085
  H  H105  1  0.540500  0.686400  0.060100  1.0  0.1008
  H  H106  1  0.469100  0.802800  0.050800  1.0  0.1013
  H  H107  1  0.227000  0.698000  0.036200  1.0  0.1121
  H  H108  1  0.298100  0.582000  0.045900  1.0  0.1052
  H  H109  1  0.742400  0.556000  0.078900  1.0  0.1152
  H  H110  1  0.885700  0.532000  0.104900  1.0  0.0775
  H  H111  1  0.820100  0.323800  0.131600  1.0  0.075
  H  H112  1  0.675000  0.341100  0.105700  1.0  0.1182
  H  H113  1  0.820800  0.123700  0.896000  1.0  0.1016
  H  H114  1  0.701800  0.186300  0.862200  1.0  0.1065
  H  H115  1  0.884200  0.299400  0.791600  1.0  0.1063
  H  H116  1  0.003000  0.236700  0.825400  1.0  0.1098
  H  H117  1  0.608700  0.275600  0.848500  1.0  0.1141
  H  H118  1  0.521500  0.392600  0.747500  1.0  0.1123
  H  H119  1  0.563800  0.453800  0.695000  1.0  0.1153
  H  H120  1  0.600800  0.497100  0.628300  1.0  0.0823
  H  H121  1  0.840200  0.385000  0.634000  1.0  0.1089
  H  H122  1  0.803100  0.340400  0.699700  1.0  0.1031
  H  H123  1  0.407900  0.427500  0.788100  1.0  0.1213
  H  H124  1  0.261000  0.422500  0.814100  1.0  0.0728
  H  H125  1  0.316800  0.243400  0.879300  1.0  0.0713
  H  H126  1  0.464300  0.240700  0.853700  1.0  0.1088
  H  H127  1  0.549400  0.049400  0.892000  1.0  0.1043
  H  H128  1  0.640500  0.066200  0.833100  1.0  0.1118
  H  H129  1  0.416200  0.118500  0.764800  1.0  0.1101
  H  H130  1  0.326300  0.097100  0.823000  1.0  0.1042
  H  H131  1  0.713000  0.063100  0.772000  1.0  0.117
  H  H132  1  0.722300  0.184600  0.665200  1.0  0.1185
  H  H133  1  0.629700  0.229100  0.615300  1.0  0.1177
  H  H134  1  0.558900  0.323800  0.576700  1.0  0.0965
  H  H135  1  0.379000  0.356700  0.670700  1.0  0.1098
  H  H136  1  0.445700  0.259700  0.708000  1.0  0.1093
  H  H137  1  0.864000  0.101800  0.774800  1.0  0.1073
  H  H138  1  0.016300  0.076600  0.766900  1.0  0.0781
  H  H139  1  0.989900  0.062900  0.646900  1.0  0.0497
  H  H140  1  0.835000  0.091900  0.649300  1.0  0.1293
  H  H141  1  0.506300  0.867400  0.932500  1.0  0.0439
  H  H142  1  0.221000  0.939000  0.943600  1.0  0.3911
  H  H143  1  0.085000  0.082000  0.014000  1.0  0.456
  H  H144  1  0.360200  0.176600  0.038300  1.0  0.0982
  H  H145  1  0.448300  0.273100  0.066700  1.0  0.1174
  H  H146  1  0.307800  0.424100  0.997900  1.0  0.0989
  H  H147  1  0.224500  0.326700  0.966800  1.0  0.1092
  H  H148  1  0.935400  0.856000  0.439800  1.0  0.1102
  H  H149  1  0.907300  0.078400  0.416800  1.0  0.1085
  H  H150  1  0.959500  0.186400  0.439900  1.0  0.1006
  H  H151  1  0.030900  0.302800  0.449200  1.0  0.1013
  H  H152  1  0.273000  0.198000  0.463800  1.0  0.1122
  H  H153  1  0.201900  0.082000  0.454100  1.0  0.1052
  H  H154  1  0.757600  0.056000  0.421100  1.0  0.1142
  H  H155  1  0.614300  0.032000  0.395100  1.0  0.0757
  H  H156  1  0.679900  0.823800  0.368400  1.0  0.075
  H  H157  1  0.825000  0.841100  0.394300  1.0  0.1186
  H  H158  1  0.679200  0.623700  0.604000  1.0  0.1011
  H  H159  1  0.798200  0.686300  0.637800  1.0  0.1069
  H  H160  1  0.615800  0.799400  0.708400  1.0  0.1064
  H  H161  1  0.497000  0.736700  0.674600  1.0  0.1098
  H  H162  1  0.891300  0.775600  0.651500  1.0  0.114
  H  H163  1  0.978500  0.892600  0.752500  1.0  0.1117
  H  H164  1  0.936200  0.953800  0.805000  1.0  0.1153
  H  H165  1  0.899200  0.997100  0.871700  1.0  0.0822
  H  H166  1  0.659800  0.885000  0.866000  1.0  0.1085
  H  H167  1  0.696900  0.840400  0.800300  1.0  0.103
  H  H168  1  0.092100  0.927500  0.711900  1.0  0.121
  H  H169  1  0.239000  0.922500  0.685900  1.0  0.0726
  H  H170  1  0.183200  0.743400  0.620700  1.0  0.0707
  H  H171  1  0.035700  0.740700  0.646300  1.0  0.1084
  H  H172  1  0.950600  0.549400  0.608000  1.0  0.1042
  H  H173  1  0.859500  0.566200  0.666900  1.0  0.1108
  H  H174  1  0.083800  0.618500  0.735200  1.0  0.1105
  H  H175  1  0.173700  0.597100  0.677000  1.0  0.1049
  H  H176  1  0.787000  0.563100  0.728000  1.0  0.1162
  H  H177  1  0.777700  0.684600  0.834800  1.0  0.1179
  H  H178  1  0.870300  0.729100  0.884700  1.0  0.1183
  H  H179  1  0.941100  0.823800  0.923300  1.0  0.0968
  H  H180  1  0.121000  0.856700  0.829300  1.0  0.1107
  H  H181  1  0.054300  0.759700  0.792000  1.0  0.1101
  H  H182  1  0.636000  0.601800  0.725200  1.0  0.1075
  H  H183  1  0.483700  0.576600  0.733100  1.0  0.0788
  H  H184  1  0.510100  0.562900  0.853100  1.0  0.0495
  H  H185  1  0.665000  0.591900  0.850700  1.0  0.1287
  H  H186  1  0.993700  0.367400  0.567500  1.0  0.044
  H  H187  1  0.279000  0.439000  0.556400  1.0  0.3921
  H  H188  1  0.415000  0.582000  0.486000  1.0  0.4568
  H  H189  1  0.139800  0.676600  0.461700  1.0  0.098
  H  H190  1  0.051700  0.773100  0.433300  1.0  0.1159
  H  H191  1  0.192200  0.924100  0.502100  1.0  0.0995
  H  H192  1  0.275500  0.826700  0.533200  1.0  0.1094
  C  C193  1  0.548000  0.580800  0.952510  1.0  0.2271
  C  C194  1  0.458900  0.594200  0.939350  1.0  -0.1272
  C  C195  1  0.404400  0.535700  0.925680  1.0  0.0584
  C  C196  1  0.441700  0.463400  0.926540  1.0  -0.1094
  C  C197  1  0.530600  0.453300  0.942000  1.0  0.2209
  C  C198  1  0.573300  0.378200  0.945840  1.0  -0.035
  C  C199  1  0.523500  0.311700  0.944620  1.0  -0.1048
  C  C200  1  0.566000  0.242200  0.950160  1.0  -0.0272
  C  C201  1  0.658900  0.238600  0.957080  1.0  -0.1358
  C  C202  1  0.709100  0.304100  0.958700  1.0  -0.0437
  C  C203  1  0.666400  0.373200  0.953000  1.0  -0.0348
  C  C204  1  0.704600  0.164300  0.964260  1.0  0.713
  C  C205  1  0.309800  0.548800  0.910100  1.0  0.0971
  C  C206  1  0.243600  0.492500  0.910300  1.0  -0.2326
  C  C207  1  0.157900  0.507500  0.894600  1.0  0.1519
  C  C208  1  0.195900  0.628200  0.879200  1.0  0.133
  C  C209  1  0.283000  0.618200  0.894500  1.0  -0.2092
  C  C210  1  0.000900  0.865700  0.113670  1.0  0.6704
  C  C211  1  0.076800  0.825200  0.136110  1.0  -0.1351
  C  C212  1  0.166300  0.840300  0.125150  1.0  -0.0762
  C  C213  1  0.237000  0.802600  0.145160  1.0  -0.1012
  C  C214  1  0.219900  0.749100  0.175700  1.0  -0.0781
  C  C215  1  0.129100  0.735800  0.186900  1.0  -0.048
  C  C216  1  0.058400  0.773300  0.166940  1.0  -0.049
  C  C217  1  0.296200  0.707900  0.196630  1.0  0.2416
  C  C218  1  0.381200  0.703000  0.178330  1.0  -0.1404
  C  C219  1  0.452000  0.666800  0.199390  1.0  0.0365
  C  C220  1  0.432400  0.633700  0.237480  1.0  -0.1388
  C  C221  1  0.344500  0.639100  0.253650  1.0  0.228
  C  C222  1  0.320100  0.607400  0.295500  1.0  -0.0305
  C  C223  1  0.380100  0.560700  0.317340  1.0  -0.1293
  C  C224  1  0.358000  0.535200  0.357310  1.0  -0.0446
  C  C225  1  0.277700  0.556000  0.376200  1.0  -0.1379
  C  C226  1  0.216600  0.601700  0.353910  1.0  -0.0556
  C  C227  1  0.238400  0.627500  0.314690  1.0  -0.045
  C  C228  1  0.255100  0.531600  0.419360  1.0  0.6782
  C  C229  1  0.545700  0.666500  0.182070  1.0  0.0736
  C  C230  1  0.608900  0.611900  0.193400  1.0  -0.2089
  C  C231  1  0.696600  0.615100  0.177500  1.0  0.1519
  C  C232  1  0.665000  0.718800  0.140000  1.0  0.1525
  C  C233  1  0.575900  0.720300  0.154990  1.0  -0.1784
  C  C234  1  0.631000  0.933800  0.098840  1.0  0.6872
  C  C235  1  0.571200  0.926300  0.136790  1.0  -0.1478
  C  C236  1  0.477600  0.936500  0.133900  1.0  -0.0329
  C  C237  1  0.423500  0.926000  0.168880  1.0  -0.0964
  C  C238  1  0.462100  0.904100  0.206980  1.0  -0.0493
  C  C239  1  0.556100  0.895600  0.209480  1.0  -0.0601
  C  C240  1  0.609200  0.907600  0.174730  1.0  -0.0204
  C  C241  1  0.405000  0.883800  0.243800  1.0  0.233
  C  C242  1  0.315300  0.905200  0.248250  1.0  -0.1077
  C  C243  1  0.266400  0.879900  0.282710  1.0  0.0452
  C  C244  1  0.309800  0.833900  0.311200  1.0  -0.113
  C  C245  1  0.401100  0.814600  0.305150  1.0  0.1857
  C  C246  1  0.451400  0.762500  0.333510  1.0  -0.0052
  C  C247  1  0.420600  0.744400  0.373160  1.0  -0.1285
  C  C248  1  0.462600  0.688000  0.396070  1.0  -0.0538
  C  C249  1  0.535700  0.648600  0.379690  1.0  -0.145
  C  C250  1  0.569700  0.668900  0.340490  1.0  -0.0545
  C  C251  1  0.529500  0.725600  0.318120  1.0  -0.074
  C  C252  1  0.573000  0.581000  0.400670  1.0  0.6567
  C  C253  1  0.168700  0.898500  0.287000  1.0  0.1245
  C  C254  1  0.112000  0.905000  0.252500  1.0  -0.2267
  C  C255  1  0.021000  0.921200  0.257500  1.0  0.1486
  C  C256  1  0.036300  0.928500  0.326400  1.0  0.1732
  C  C257  1  0.129900  0.911100  0.325700  1.0  -0.2268
  C  C258  1  0.531200  0.104200  0.049120  1.0  0.6414
  C  C259  1  0.762300  0.821000  0.022390  1.0  0.6683
  C  C260  1  0.713200  0.758400  0.001420  1.0  -0.1286
  C  C261  1  0.648600  0.773200  0.971100  1.0  -0.0547
  C  C262  1  0.596100  0.715700  0.954100  1.0  -0.1419
  C  C263  1  0.607800  0.642200  0.967250  1.0  -0.0536
  C  C264  1  0.678600  0.626700  0.995100  1.0  -0.0726
  C  C265  1  0.729600  0.684500  0.013000  1.0  -0.0564
  C  C266  1  0.952000  0.080800  0.547490  1.0  0.2278
  C  C267  1  0.041100  0.094200  0.560650  1.0  -0.1249
  C  C268  1  0.095600  0.035700  0.574320  1.0  0.0586
  C  C269  1  0.058300  0.963400  0.573460  1.0  -0.1093
  C  C270  1  0.969400  0.953300  0.558000  1.0  0.2208
  C  C271  1  0.926700  0.878200  0.554160  1.0  -0.0352
  C  C272  1  0.976500  0.811700  0.555380  1.0  -0.1076
  C  C273  1  0.934000  0.742200  0.549840  1.0  -0.0276
  C  C274  1  0.841100  0.738600  0.542920  1.0  -0.1365
  C  C275  1  0.790900  0.804100  0.541300  1.0  -0.0435
  C  C276  1  0.833600  0.873200  0.547000  1.0  -0.0373
  C  C277  1  0.795400  0.664300  0.535740  1.0  0.712
  C  C278  1  0.190200  0.048800  0.589900  1.0  0.0973
  C  C279  1  0.256400  0.992500  0.589700  1.0  -0.2301
  C  C280  1  0.342100  0.007500  0.605400  1.0  0.151
  C  C281  1  0.304100  0.128200  0.620800  1.0  0.134
  C  C282  1  0.217000  0.118200  0.605500  1.0  -0.2081
  C  C283  1  0.499100  0.365700  0.386330  1.0  0.6695
  C  C284  1  0.423200  0.325200  0.363890  1.0  -0.1358
  C  C285  1  0.333700  0.340300  0.374850  1.0  -0.0768
  C  C286  1  0.263000  0.302600  0.354840  1.0  -0.0986
  C  C287  1  0.280100  0.249100  0.324300  1.0  -0.0767
  C  C288  1  0.370900  0.235800  0.313100  1.0  -0.0509
  C  C289  1  0.441600  0.273300  0.333060  1.0  -0.0516
  C  C290  1  0.203800  0.207900  0.303370  1.0  0.2423
  C  C291  1  0.118800  0.203000  0.321670  1.0  -0.1398
  C  C292  1  0.048000  0.166800  0.300610  1.0  0.0364
  C  C293  1  0.067600  0.133700  0.262520  1.0  -0.1382
  C  C294  1  0.155500  0.139100  0.246350  1.0  0.2283
  C  C295  1  0.179900  0.107400  0.204500  1.0  -0.0298
  C  C296  1  0.119900  0.060700  0.182660  1.0  -0.1294
  C  C297  1  0.142000  0.035200  0.142690  1.0  -0.0437
  C  C298  1  0.222300  0.056000  0.123800  1.0  -0.1371
  C  C299  1  0.283400  0.101700  0.146090  1.0  -0.0548
  C  C300  1  0.261600  0.127500  0.185310  1.0  -0.0437
  C  C301  1  0.244900  0.031600  0.080640  1.0  0.6775
  C  C302  1  0.954300  0.166500  0.317930  1.0  0.0732
  C  C303  1  0.891100  0.111900  0.306600  1.0  -0.2101
  C  C304  1  0.803400  0.115100  0.322500  1.0  0.1505
  C  C305  1  0.835000  0.218800  0.360000  1.0  0.1515
  C  C306  1  0.924100  0.220300  0.345010  1.0  -0.1813
  C  C307  1  0.869000  0.433800  0.401160  1.0  0.6875
  C  C308  1  0.928800  0.426300  0.363210  1.0  -0.1498
  C  C309  1  0.022400  0.436500  0.366100  1.0  -0.0361
  C  C310  1  0.076500  0.426000  0.331120  1.0  -0.0985
  C  C311  1  0.037900  0.404100  0.293020  1.0  -0.0475
  C  C312  1  0.943900  0.395600  0.290520  1.0  -0.0597
  C  C313  1  0.890800  0.407600  0.325270  1.0  -0.0197
  C  C314  1  0.095000  0.383800  0.256200  1.0  0.2326
  C  C315  1  0.184700  0.405200  0.251750  1.0  -0.1071
  C  C316  1  0.233600  0.379900  0.217290  1.0  0.0447
  C  C317  1  0.190200  0.333900  0.188800  1.0  -0.1119
  C  C318  1  0.098900  0.314600  0.194850  1.0  0.1853
  C  C319  1  0.048600  0.262500  0.166490  1.0  -0.0053
  C  C320  1  0.079400  0.244400  0.126840  1.0  -0.128
  C  C321  1  0.037400  0.188000  0.103930  1.0  -0.0532
  C  C322  1  0.964300  0.148600  0.120310  1.0  -0.1434
  C  C323  1  0.930300  0.168900  0.159510  1.0  -0.0537
  C  C324  1  0.970500  0.225600  0.181880  1.0  -0.0743
  C  C325  1  0.927000  0.081000  0.099330  1.0  0.6536
  C  C326  1  0.331300  0.398500  0.213000  1.0  0.1252
  C  C327  1  0.388000  0.405000  0.247500  1.0  -0.2263
  C  C328  1  0.479000  0.421200  0.242500  1.0  0.149
  C  C329  1  0.463700  0.428500  0.173600  1.0  0.173
  C  C330  1  0.370100  0.411100  0.174300  1.0  -0.2267
  C  C331  1  0.968800  0.604200  0.450880  1.0  0.6416
  C  C332  1  0.737700  0.321000  0.477610  1.0  0.6699
  C  C333  1  0.786800  0.258400  0.498580  1.0  -0.1286
  C  C334  1  0.851400  0.273200  0.528900  1.0  -0.0532
  C  C335  1  0.903900  0.215700  0.545900  1.0  -0.1418
  C  C336  1  0.892200  0.142200  0.532750  1.0  -0.0542
  C  C337  1  0.821400  0.126700  0.504900  1.0  -0.0718
  C  C338  1  0.770400  0.184500  0.487000  1.0  -0.056
  C  C339  1  0.452000  0.419200  0.047490  1.0  0.2276
  C  C340  1  0.541100  0.405800  0.060650  1.0  -0.124
  C  C341  1  0.595600  0.464300  0.074320  1.0  0.059
  C  C342  1  0.558300  0.536600  0.073460  1.0  -0.1089
  C  C343  1  0.469400  0.546700  0.058000  1.0  0.2208
  C  C344  1  0.426700  0.621800  0.054160  1.0  -0.0352
  C  C345  1  0.476500  0.688300  0.055380  1.0  -0.1077
  C  C346  1  0.434000  0.757800  0.049840  1.0  -0.0268
  C  C347  1  0.341100  0.761400  0.042920  1.0  -0.1357
  C  C348  1  0.290900  0.695900  0.041300  1.0  -0.0433
  C  C349  1  0.333600  0.626800  0.047000  1.0  -0.0364
  C  C350  1  0.295400  0.835700  0.035740  1.0  0.7121
  C  C351  1  0.690200  0.451200  0.089900  1.0  0.0968
  C  C352  1  0.756400  0.507500  0.089700  1.0  -0.2299
  C  C353  1  0.842100  0.492500  0.105400  1.0  0.1508
  C  C354  1  0.804100  0.371800  0.120800  1.0  0.1344
  C  C355  1  0.717000  0.381800  0.105500  1.0  -0.2088
  C  C356  1  0.999100  0.134300  0.886330  1.0  0.6699
  C  C357  1  0.923200  0.174800  0.863890  1.0  -0.1357
  C  C358  1  0.833700  0.159700  0.874850  1.0  -0.0766
  C  C359  1  0.763000  0.197400  0.854840  1.0  -0.0988
  C  C360  1  0.780100  0.250900  0.824300  1.0  -0.0768
  C  C361  1  0.870900  0.264200  0.813100  1.0  -0.0514
  C  C362  1  0.941600  0.226700  0.833060  1.0  -0.0518
  C  C363  1  0.703800  0.292100  0.803370  1.0  0.2413
  C  C364  1  0.618800  0.297000  0.821670  1.0  -0.1395
  C  C365  1  0.548000  0.333200  0.800610  1.0  0.0361
  C  C366  1  0.567600  0.366300  0.762520  1.0  -0.1381
  C  C367  1  0.655500  0.360900  0.746350  1.0  0.2279
  C  C368  1  0.679900  0.392600  0.704500  1.0  -0.0298
  C  C369  1  0.619900  0.439300  0.682660  1.0  -0.1299
  C  C370  1  0.642000  0.464800  0.642690  1.0  -0.043
  C  C371  1  0.722300  0.444000  0.623800  1.0  -0.1369
  C  C372  1  0.783400  0.398300  0.646090  1.0  -0.0545
  C  C373  1  0.761600  0.372500  0.685310  1.0  -0.0439
  C  C374  1  0.744900  0.468400  0.580640  1.0  0.6774
  C  C375  1  0.454300  0.333500  0.817930  1.0  0.0732
  C  C376  1  0.391100  0.388100  0.806600  1.0  -0.2103
  C  C377  1  0.303400  0.384900  0.822500  1.0  0.1502
  C  C378  1  0.335000  0.281200  0.860000  1.0  0.1517
  C  C379  1  0.424100  0.279700  0.845010  1.0  -0.1814
  C  C380  1  0.369000  0.066200  0.901160  1.0  0.6876
  C  C381  1  0.428800  0.073700  0.863210  1.0  -0.1508
  C  C382  1  0.522400  0.063500  0.866100  1.0  -0.0356
  C  C383  1  0.576500  0.074000  0.831120  1.0  -0.0985
  C  C384  1  0.537900  0.095900  0.793020  1.0  -0.0483
  C  C385  1  0.443900  0.104400  0.790520  1.0  -0.0594
  C  C386  1  0.390800  0.092400  0.825270  1.0  -0.0189
  C  C387  1  0.595000  0.116200  0.756200  1.0  0.2329
  C  C388  1  0.684700  0.094800  0.751750  1.0  -0.1079
  C  C389  1  0.733600  0.120100  0.717290  1.0  0.0446
  C  C390  1  0.690200  0.166100  0.688800  1.0  -0.1123
  C  C391  1  0.598900  0.185400  0.694850  1.0  0.184
  C  C392  1  0.548600  0.237500  0.666490  1.0  -0.0095
  C  C393  1  0.579400  0.255600  0.626840  1.0  -0.1309
  C  C394  1  0.537400  0.312000  0.603930  1.0  -0.0542
  C  C395  1  0.464300  0.351400  0.620310  1.0  -0.1434
  C  C396  1  0.430300  0.331100  0.659510  1.0  -0.0544
  C  C397  1  0.470500  0.274400  0.681880  1.0  -0.0732
  C  C398  1  0.427000  0.419000  0.599330  1.0  0.6571
  C  C399  1  0.831300  0.101500  0.713000  1.0  0.1254
  C  C400  1  0.888000  0.095000  0.747500  1.0  -0.2259
  C  C401  1  0.979000  0.078800  0.742500  1.0  0.1498
  C  C402  1  0.963700  0.071500  0.673600  1.0  0.1733
  C  C403  1  0.870100  0.088900  0.674300  1.0  -0.2269
  C  C404  1  0.468800  0.895800  0.950880  1.0  0.641
  C  C405  1  0.237700  0.179000  0.977610  1.0  0.6697
  C  C406  1  0.286800  0.241600  0.998580  1.0  -0.1289
  C  C407  1  0.351400  0.226800  0.028900  1.0  -0.0549
  C  C408  1  0.403900  0.284300  0.045900  1.0  -0.1421
  C  C409  1  0.392200  0.357800  0.032750  1.0  -0.0546
  C  C410  1  0.321400  0.373300  0.004900  1.0  -0.0735
  C  C411  1  0.270400  0.315500  0.987000  1.0  -0.0564
  C  C412  1  0.048000  0.919200  0.452510  1.0  0.227
  C  C413  1  0.958900  0.905800  0.439350  1.0  -0.1264
  C  C414  1  0.904400  0.964300  0.425680  1.0  0.0584
  C  C415  1  0.941700  0.036600  0.426540  1.0  -0.1096
  C  C416  1  0.030600  0.046700  0.442000  1.0  0.221
  C  C417  1  0.073300  0.121800  0.445840  1.0  -0.035
  C  C418  1  0.023500  0.188300  0.444620  1.0  -0.1053
  C  C419  1  0.066000  0.257800  0.450160  1.0  -0.0257
  C  C420  1  0.158900  0.261400  0.457080  1.0  -0.1359
  C  C421  1  0.209100  0.195900  0.458700  1.0  -0.0439
  C  C422  1  0.166400  0.126800  0.453000  1.0  -0.0361
  C  C423  1  0.204600  0.335700  0.464260  1.0  0.7133
  C  C424  1  0.809800  0.951200  0.410100  1.0  0.097
  C  C425  1  0.743600  0.007500  0.410300  1.0  -0.2323
  C  C426  1  0.657900  0.992500  0.394600  1.0  0.1529
  C  C427  1  0.695900  0.871800  0.379200  1.0  0.1328
  C  C428  1  0.783000  0.881800  0.394500  1.0  -0.2102
  C  C429  1  0.500900  0.634300  0.613670  1.0  0.6711
  C  C430  1  0.576800  0.674800  0.636110  1.0  -0.1348
  C  C431  1  0.666300  0.659700  0.625150  1.0  -0.0756
  C  C432  1  0.737000  0.697400  0.645160  1.0  -0.1011
  C  C433  1  0.719900  0.750900  0.675700  1.0  -0.0784
  C  C434  1  0.629100  0.764200  0.686900  1.0  -0.0497
  C  C435  1  0.558400  0.726700  0.666940  1.0  -0.0507
  C  C436  1  0.796200  0.792100  0.696630  1.0  0.2409
  C  C437  1  0.881200  0.797000  0.678330  1.0  -0.1398
  C  C438  1  0.952000  0.833200  0.699390  1.0  0.0363
  C  C439  1  0.932400  0.866300  0.737480  1.0  -0.139
  C  C440  1  0.844500  0.860900  0.753650  1.0  0.2281
  C  C441  1  0.820100  0.892600  0.795500  1.0  -0.0305
  C  C442  1  0.880100  0.939300  0.817340  1.0  -0.1294
  C  C443  1  0.858000  0.964800  0.857310  1.0  -0.044
  C  C444  1  0.777700  0.944000  0.876200  1.0  -0.1374
  C  C445  1  0.716600  0.898300  0.853910  1.0  -0.0549
  C  C446  1  0.738400  0.872500  0.814690  1.0  -0.0443
  C  C447  1  0.755100  0.968400  0.919360  1.0  0.6789
  C  C448  1  0.045700  0.833500  0.682070  1.0  0.0738
  C  C449  1  0.108900  0.888100  0.693400  1.0  -0.21
  C  C450  1  0.196600  0.884900  0.677500  1.0  0.1515
  C  C451  1  0.165000  0.781200  0.640000  1.0  0.1525
  C  C452  1  0.075900  0.779700  0.654990  1.0  -0.1791
  C  C453  1  0.131000  0.566200  0.598840  1.0  0.6869
  C  C454  1  0.071200  0.573700  0.636790  1.0  -0.1492
  C  C455  1  0.977600  0.563500  0.633900  1.0  -0.0331
  C  C456  1  0.923500  0.574000  0.668880  1.0  -0.0964
  C  C457  1  0.962100  0.595900  0.706980  1.0  -0.0496
  C  C458  1  0.056100  0.604400  0.709480  1.0  -0.0616
  C  C459  1  0.109200  0.592400  0.674730  1.0  -0.0211
  C  C460  1  0.905000  0.616200  0.743800  1.0  0.2339
  C  C461  1  0.815300  0.594800  0.748250  1.0  -0.1084
  C  C462  1  0.766400  0.620100  0.782710  1.0  0.0458
  C  C463  1  0.809800  0.666100  0.811200  1.0  -0.1128
  C  C464  1  0.901100  0.685400  0.805150  1.0  0.1846
  C  C465  1  0.951400  0.737500  0.833510  1.0  -0.0095
  C  C466  1  0.920600  0.755600  0.873160  1.0  -0.1298
  C  C467  1  0.962600  0.812000  0.896070  1.0  -0.055
  C  C468  1  0.035700  0.851400  0.879690  1.0  -0.1446
  C  C469  1  0.069700  0.831100  0.840490  1.0  -0.0543
  C  C470  1  0.029500  0.774400  0.818120  1.0  -0.073
  C  C471  1  0.073000  0.919000  0.900670  1.0  0.6531
  C  C472  1  0.668700  0.601500  0.787000  1.0  0.1246
  C  C473  1  0.612000  0.595000  0.752500  1.0  -0.2266
  C  C474  1  0.521000  0.578800  0.757500  1.0  0.1487
  C  C475  1  0.536300  0.571500  0.826400  1.0  0.173
  C  C476  1  0.629900  0.588900  0.825700  1.0  -0.227
  C  C477  1  0.031200  0.395800  0.549120  1.0  0.6415
  C  C478  1  0.262300  0.679000  0.522390  1.0  0.6679
  C  C479  1  0.213200  0.741600  0.501420  1.0  -0.1294
  C  C480  1  0.148600  0.726800  0.471100  1.0  -0.0551
  C  C481  1  0.096100  0.784300  0.454100  1.0  -0.142
  C  C482  1  0.107800  0.857800  0.467250  1.0  -0.0532
  C  C483  1  0.178600  0.873300  0.495100  1.0  -0.0727
  C  C484  1  0.229600  0.815500  0.513000  1.0  -0.0561
  N  N485  1  0.131700  0.573300  0.878900  1.0  -0.4215
  N  N486  1  0.582600  0.511600  0.954250  1.0  -0.4382
  N  N487  1  0.724400  0.668300  0.151100  1.0  -0.4359
  N  N488  1  0.276800  0.675800  0.233740  1.0  -0.423
  N  N489  1  0.981900  0.933900  0.294200  1.0  -0.4204
  N  N490  1  0.447600  0.839500  0.271860  1.0  -0.4695
  N  N491  1  0.368300  0.073300  0.621100  1.0  -0.4273
  N  N492  1  0.917400  0.011600  0.545750  1.0  -0.4385
  N  N493  1  0.775600  0.168300  0.348900  1.0  -0.4317
  N  N494  1  0.223200  0.175800  0.266260  1.0  -0.4201
  N  N495  1  0.518100  0.433900  0.205800  1.0  -0.4234
  N  N496  1  0.052400  0.339500  0.228140  1.0  -0.4721
  N  N497  1  0.868300  0.426700  0.121100  1.0  -0.4269
  N  N498  1  0.417400  0.488400  0.045750  1.0  -0.4382
  N  N499  1  0.275600  0.331700  0.848900  1.0  -0.4316
  N  N500  1  0.723200  0.324200  0.766260  1.0  -0.4204
  N  N501  1  0.018100  0.066100  0.705800  1.0  -0.4231
  N  N502  1  0.552400  0.160500  0.728140  1.0  -0.4718
  N  N503  1  0.631700  0.926700  0.378900  1.0  -0.4224
  N  N504  1  0.082600  0.988400  0.454250  1.0  -0.4378
  N  N505  1  0.224400  0.831700  0.651100  1.0  -0.4355
  N  N506  1  0.776800  0.824200  0.733740  1.0  -0.4223
  N  N507  1  0.481900  0.566100  0.794200  1.0  -0.419
  N  N508  1  0.947600  0.660500  0.771860  1.0  -0.4701
  O  O509  1  0.655800  0.106690  0.962380  1.0  -0.6903
  O  O510  1  0.788800  0.164320  0.971870  1.0  -0.7312
  O  O511  1  0.018000  0.899070  0.079150  1.0  -0.8282
  O  O512  1  0.921800  0.866500  0.128370  1.0  -0.6417
  O  O513  1  0.176900  0.546720  0.433440  1.0  -0.6254
  O  O514  1  0.315800  0.497430  0.440550  1.0  -0.7198
  O  O515  1  0.591800  0.944400  0.064230  1.0  -0.7047
  O  O516  1  0.715400  0.927200  0.104230  1.0  -0.727
  O  O517  1  0.625000  0.537700  0.381000  1.0  -0.6161
  O  O518  1  0.548400  0.565620  0.438100  1.0  -0.7139
  O  O519  1  0.493700  0.066460  0.020470  1.0  -0.6829
  O  O520  1  0.614300  0.105800  0.054310  1.0  -0.6507
  O  O521  1  0.779700  0.037350  0.032200  1.0  -0.9716
  O  O522  1  0.931800  0.946590  0.006000  1.0  -0.9835
  O  O523  1  0.742700  0.888570  0.013430  1.0  -0.7443
  O  O524  1  0.823800  0.807300  0.049570  1.0  -0.6452
  O  O525  1  0.844200  0.606690  0.537620  1.0  -0.6914
  O  O526  1  0.711200  0.664320  0.528130  1.0  -0.7311
  O  O527  1  0.482000  0.399070  0.420850  1.0  -0.8296
  O  O528  1  0.578200  0.366500  0.371630  1.0  -0.6429
  O  O529  1  0.323100  0.046720  0.066560  1.0  -0.6246
  O  O530  1  0.184200  0.997430  0.059450  1.0  -0.7201
  O  O531  1  0.908200  0.444400  0.435770  1.0  -0.7039
  O  O532  1  0.784600  0.427200  0.395770  1.0  -0.729
  O  O533  1  0.875000  0.037700  0.119000  1.0  -0.6129
  O  O534  1  0.951600  0.065620  0.061900  1.0  -0.7142
  O  O535  1  0.006300  0.566460  0.479530  1.0  -0.6815
  O  O536  1  0.885700  0.605800  0.445690  1.0  -0.6514
  O  O537  1  0.720300  0.537350  0.467800  1.0  -0.9702
  O  O538  1  0.568200  0.446590  0.494000  1.0  -0.9834
  O  O539  1  0.757300  0.388570  0.486570  1.0  -0.7452
  O  O540  1  0.676200  0.307300  0.450430  1.0  -0.6464
  O  O541  1  0.344200  0.893310  0.037620  1.0  -0.6912
  O  O542  1  0.211200  0.835680  0.028130  1.0  -0.7302
  O  O543  1  0.982000  0.100930  0.920850  1.0  -0.8305
  O  O544  1  0.078200  0.133500  0.871630  1.0  -0.6427
  O  O545  1  0.823100  0.453280  0.566560  1.0  -0.6246
  O  O546  1  0.684200  0.502570  0.559450  1.0  -0.7194
  O  O547  1  0.408200  0.055600  0.935770  1.0  -0.7037
  O  O548  1  0.284600  0.072800  0.895770  1.0  -0.7295
  O  O549  1  0.375000  0.462300  0.619000  1.0  -0.6134
  O  O550  1  0.451600  0.434380  0.561900  1.0  -0.7148
  O  O551  1  0.506300  0.933540  0.979530  1.0  -0.6812
  O  O552  1  0.385700  0.894200  0.945690  1.0  -0.6507
  O  O553  1  0.220300  0.962650  0.967800  1.0  -0.9691
  O  O554  1  0.068200  0.053410  0.994000  1.0  -0.9821
  O  O555  1  0.257300  0.111430  0.986570  1.0  -0.7446
  O  O556  1  0.176200  0.192700  0.950430  1.0  -0.6468
  O  O557  1  0.155800  0.393310  0.462380  1.0  -0.6898
  O  O558  1  0.288800  0.335680  0.471870  1.0  -0.7298
  O  O559  1  0.518000  0.600930  0.579150  1.0  -0.8289
  O  O560  1  0.421800  0.633500  0.628370  1.0  -0.6419
  O  O561  1  0.676900  0.953280  0.933440  1.0  -0.6255
  O  O562  1  0.815800  0.002570  0.940550  1.0  -0.7197
  O  O563  1  0.091800  0.555600  0.564230  1.0  -0.7051
  O  O564  1  0.215400  0.572800  0.604230  1.0  -0.7267
  O  O565  1  0.125000  0.962300  0.881000  1.0  -0.6163
  O  O566  1  0.048400  0.934380  0.938100  1.0  -0.7137
  O  O567  1  0.993700  0.433540  0.520470  1.0  -0.6826
  O  O568  1  0.114300  0.394200  0.554310  1.0  -0.6501
  O  O569  1  0.279700  0.462650  0.532200  1.0  -0.9714
  O  O570  1  0.431800  0.553410  0.506000  1.0  -0.9834
  O  O571  1  0.242700  0.611430  0.513430  1.0  -0.7441
  O  O572  1  0.323800  0.692700  0.549570  1.0  -0.6454
