# generated using pymatgen
data_Eu3H43C73(N3O8)2
_symmetry_space_group_name_H-M   'P 1'
_cell_length_a   14.55510000
_cell_length_b   17.82370000
_cell_length_c   31.75480000
_cell_angle_alpha   90.00000000
_cell_angle_beta   90.93900000
_cell_angle_gamma   90.00000000
_symmetry_Int_Tables_number   1
_chemical_formula_structural   Eu3H43C73(N3O8)2
_chemical_formula_sum   'Eu12 H172 C292 N24 O64'
_cell_volume   8236.90606828
_cell_formula_units_Z   4
loop_
 _symmetry_equiv_pos_site_id
 _symmetry_equiv_pos_as_xyz
  1  'x, y, z'
loop_
 _atom_site_type_symbol
 _atom_site_label
 _atom_site_symmetry_multiplicity
 _atom_site_fract_x
 _atom_site_fract_y
 _atom_site_fract_z
 _atom_site_occupancy
 _atom_site_charge
  Eu  Eu1  1  0.905210  0.576700  0.988690  1.0  2.173
  Eu  Eu2  1  0.858310  0.996760  0.499580  1.0  2.1572
  Eu  Eu3  1  0.094790  0.423300  0.011310  1.0  2.1732
  Eu  Eu4  1  0.641690  0.496760  0.000420  1.0  2.1554
  Eu  Eu5  1  0.855290  0.433520  0.068900  1.0  2.105
  Eu  Eu6  1  0.405210  0.923300  0.488690  1.0  2.1731
  Eu  Eu7  1  0.594790  0.076700  0.511310  1.0  2.1731
  Eu  Eu8  1  0.644710  0.933520  0.431100  1.0  2.1052
  Eu  Eu9  1  0.141690  0.003240  0.500420  1.0  2.1547
  Eu  Eu10  1  0.358310  0.503240  0.999580  1.0  2.154
  Eu  Eu11  1  0.144710  0.566480  0.931100  1.0  2.1042
  Eu  Eu12  1  0.355290  0.066480  0.568910  1.0  2.1042
  H  H13  1  0.533700  0.226700  0.940900  1.0  0.0936
  H  H14  1  0.679100  0.863500  0.123100  1.0  0.1141
  H  H15  1  0.801400  0.194900  0.636200  1.0  0.1199
  H  H16  1  0.741500  0.067200  0.182200  1.0  0.0777
  H  H17  1  0.698600  0.694900  0.863800  1.0  0.1192
  H  H18  1  0.638300  0.573400  0.835900  1.0  0.1195
  H  H19  1  0.675900  0.404200  0.178400  1.0  0.1087
  H  H20  1  0.310100  0.746800  0.873900  1.0  0.0681
  H  H21  1  0.223400  0.815200  0.167500  1.0  0.1177
  H  H22  1  0.497700  0.754200  0.328800  1.0  0.1067
  H  H23  1  0.338600  0.914600  0.154900  1.0  0.1289
  H  H24  1  0.033700  0.273300  0.440900  1.0  0.0933
  H  H25  1  0.967200  0.200400  0.554800  1.0  0.0863
  H  H26  1  0.097200  0.419300  0.580200  1.0  0.119
  H  H27  1  0.620300  0.312900  0.702300  1.0  0.1081
  H  H28  1  0.600600  0.004400  0.629600  1.0  0.0976
  H  H29  1  0.442900  0.756500  0.706200  1.0  0.1014
  H  H30  1  0.002300  0.254200  0.171200  1.0  0.1075
  H  H31  1  0.320900  0.136500  0.876900  1.0  0.1143
  H  H32  1  0.953900  0.754400  0.349300  1.0  0.1008
  H  H33  1  0.374700  0.852400  0.668900  1.0  0.124
  H  H34  1  0.124100  0.177900  0.468200  1.0  0.0879
  H  H35  1  0.557100  0.243500  0.293800  1.0  0.1025
  H  H36  1  0.299200  0.647500  0.203600  1.0  0.1015
  H  H37  1  0.017500  0.599000  0.248400  1.0  0.1015
  H  H38  1  0.681400  0.133500  0.603500  1.0  0.0854
  H  H39  1  0.199800  0.582800  0.455400  1.0  0.1125
  H  H40  1  0.523400  0.902200  0.270500  1.0  0.0798
  H  H41  1  0.241500  0.432800  0.682200  1.0  0.0776
  H  H42  1  0.340800  0.605000  0.138600  1.0  0.1313
  H  H43  1  0.103300  0.714300  0.349400  1.0  0.1068
  H  H44  1  0.768900  0.803300  0.966700  1.0  0.1058
  H  H45  1  0.062300  0.537600  0.195100  1.0  0.1115
  H  H46  1  0.493700  0.940200  0.152900  1.0  0.0696
  H  H47  1  0.599000  0.525300  0.417800  1.0  0.0868
  H  H48  1  0.175900  0.095800  0.678400  1.0  0.1093
  H  H49  1  0.699800  0.917200  0.955400  1.0  0.1121
  H  H50  1  0.285400  0.430700  0.225300  1.0  0.1086
  H  H51  1  0.268900  0.696700  0.466700  1.0  0.1061
  H  H52  1  0.466300  0.773300  0.059100  1.0  0.0947
  H  H53  1  0.467200  0.299600  0.054800  1.0  0.0865
  H  H54  1  0.585000  0.383300  0.235400  1.0  0.1097
  H  H55  1  0.032800  0.799600  0.445200  1.0  0.087
  H  H56  1  0.159200  0.105000  0.361400  1.0  0.1301
  H  H57  1  0.546100  0.254400  0.150700  1.0  0.1004
  H  H58  1  0.715200  0.673700  0.477500  1.0  0.1161
  H  H59  1  0.433300  0.166500  0.420000  1.0  0.1053
  H  H60  1  0.546700  0.558700  0.893100  1.0  0.097
  H  H61  1  0.125300  0.352400  0.831100  1.0  0.124
  H  H62  1  0.661400  0.085400  0.845100  1.0  0.1287
  H  H63  1  0.793300  0.579100  0.514900  1.0  0.1023
  H  H64  1  0.099000  0.974700  0.917800  1.0  0.0866
  H  H65  1  0.937700  0.462400  0.804900  1.0  0.1124
  H  H66  1  0.046700  0.941300  0.393100  1.0  0.0969
  H  H67  1  0.867900  0.619200  0.777700  1.0  0.1075
  H  H68  1  0.138300  0.926600  0.335900  1.0  0.1192
  H  H69  1  0.161400  0.414600  0.345100  1.0  0.1284
  H  H70  1  0.367900  0.880800  0.277700  1.0  0.1074
  H  H71  1  0.746600  0.548000  0.438100  1.0  0.1089
  H  H72  1  0.976600  0.402200  0.229500  1.0  0.079
  H  H73  1  0.068400  0.640300  0.566400  1.0  0.1149
  H  H74  1  0.825000  0.867500  0.159800  1.0  0.1082
  H  H75  1  0.966300  0.726700  0.559100  1.0  0.0946
  H  H76  1  0.942900  0.743500  0.206200  1.0  0.1012
  H  H77  1  0.902800  0.580700  0.419800  1.0  0.1194
  H  H78  1  0.023400  0.597800  0.770500  1.0  0.079
  H  H79  1  0.379700  0.687100  0.297700  1.0  0.1084
  H  H80  1  0.501800  0.625100  0.073600  1.0  0.0734
  H  H81  1  0.258500  0.932800  0.817800  1.0  0.0781
  H  H82  1  0.864400  0.237000  0.882000  1.0  0.1144
  H  H83  1  0.181400  0.366500  0.103500  1.0  0.0855
  H  H84  1  0.931600  0.359700  0.433600  1.0  0.1167
  H  H85  1  0.874700  0.647600  0.168900  1.0  0.1241
  H  H86  1  0.800200  0.417200  0.544600  1.0  0.1129
  H  H87  1  0.818600  0.633500  0.896500  1.0  0.0856
  H  H88  1  0.179100  0.636500  0.623100  1.0  0.1145
  H  H89  1  0.993700  0.559800  0.652900  1.0  0.0697
  H  H90  1  0.057100  0.256500  0.793800  1.0  0.1024
  H  H91  1  0.231100  0.196700  0.033300  1.0  0.107
  H  H92  1  0.659200  0.395000  0.861400  1.0  0.1298
  H  H93  1  0.364400  0.263000  0.382000  1.0  0.1146
  H  H94  1  0.879700  0.812900  0.797700  1.0  0.1085
  H  H95  1  0.066700  0.666500  0.080000  1.0  0.1058
  H  H96  1  0.403900  0.939500  0.792400  1.0  0.1288
  H  H97  1  0.085000  0.116700  0.735400  1.0  0.1099
  H  H98  1  0.453300  0.441300  0.106900  1.0  0.0972
  H  H99  1  0.810100  0.753200  0.373900  1.0  0.0679
  H  H100  1  0.461500  0.813700  0.937200  1.0  0.1046
  H  H101  1  0.903900  0.560500  0.292400  1.0  0.1282
  H  H102  1  0.506300  0.059800  0.847100  1.0  0.0702
  H  H103  1  0.189900  0.246800  0.626100  1.0  0.0682
  H  H104  1  0.714600  0.569300  0.774700  1.0  0.1076
  H  H105  1  0.820900  0.363500  0.376900  1.0  0.1147
  H  H106  1  0.517500  0.901000  0.748400  1.0  0.1018
  H  H107  1  0.453900  0.745600  0.849300  1.0  0.1013
  H  H108  1  0.396700  0.214300  0.150600  1.0  0.1067
  H  H109  1  0.625300  0.147600  0.331100  1.0  0.1238
  H  H110  1  0.624100  0.322100  0.968200  1.0  0.0887
  H  H111  1  0.997700  0.745800  0.828800  1.0  0.1072
  H  H112  1  0.096100  0.439500  0.707600  1.0  0.1294
  H  H113  1  0.402800  0.919300  0.919800  1.0  0.1182
  H  H114  1  0.840800  0.895000  0.638600  1.0  0.131
  H  H115  1  0.476600  0.097800  0.729500  1.0  0.0793
  H  H116  1  0.001800  0.874900  0.573600  1.0  0.0737
  H  H117  1  0.785400  0.069300  0.725300  1.0  0.1083
  H  H118  1  0.200800  0.147500  0.296400  1.0  0.1017
  H  H119  1  0.562300  0.962400  0.695100  1.0  0.1111
  H  H120  1  0.415000  0.616700  0.764600  1.0  0.1097
  H  H121  1  0.276600  0.315200  0.332500  1.0  0.1186
  H  H122  1  0.401000  0.474700  0.582200  1.0  0.0863
  H  H123  1  0.361700  0.426600  0.164100  1.0  0.1207
  H  H124  1  0.006300  0.440200  0.347100  1.0  0.0701
  H  H125  1  0.982500  0.401000  0.751600  1.0  0.1014
  H  H126  1  0.324100  0.595800  0.821600  1.0  0.1097
  H  H127  1  0.246600  0.952000  0.938100  1.0  0.1083
  H  H128  1  0.597200  0.080700  0.080200  1.0  0.1186
  H  H129  1  0.753400  0.048000  0.061900  1.0  0.1077
  H  H130  1  0.689900  0.253200  0.126100  1.0  0.0684
  H  H131  1  0.399400  0.995600  0.370400  1.0  0.0977
  H  H132  1  0.046100  0.245600  0.650700  1.0  0.1002
  H  H133  1  0.723400  0.684800  0.667500  1.0  0.1184
  H  H134  1  0.799200  0.852500  0.703600  1.0  0.1016
  H  H135  1  0.498200  0.374900  0.926400  1.0  0.0737
  H  H136  1  0.198600  0.805100  0.363800  1.0  0.1191
  H  H137  1  0.215200  0.826300  0.977500  1.0  0.1164
  H  H138  1  0.961500  0.686300  0.437200  1.0  0.1043
  H  H139  1  0.901000  0.025300  0.082200  1.0  0.0881
  H  H140  1  0.603300  0.785700  0.849400  1.0  0.107
  H  H141  1  0.700800  0.352500  0.796400  1.0  0.1011
  H  H142  1  0.706700  0.079100  0.985100  1.0  0.1028
  H  H143  1  0.933300  0.333500  0.920000  1.0  0.1056
  H  H144  1  0.899400  0.504400  0.870400  1.0  0.0977
  H  H145  1  0.824100  0.904200  0.321600  1.0  0.1096
  H  H146  1  0.953300  0.058700  0.606900  1.0  0.0968
  H  H147  1  0.375900  0.677900  0.031800  1.0  0.0883
  H  H148  1  0.838600  0.585400  0.654900  1.0  0.1288
  H  H149  1  0.135600  0.763000  0.118000  1.0  0.1145
  H  H150  1  0.293300  0.920900  0.014900  1.0  0.1022
  H  H151  1  0.915000  0.883300  0.264600  1.0  0.1096
  H  H152  1  0.431600  0.140300  0.933600  1.0  0.1165
  H  H153  1  0.253400  0.452000  0.561900  1.0  0.1078
  H  H154  1  0.566700  0.833500  0.580000  1.0  0.1061
  H  H155  1  0.875900  0.822100  0.531800  1.0  0.0881
  H  H156  1  0.284800  0.326300  0.522500  1.0  0.116
  H  H157  1  0.214600  0.930700  0.274700  1.0  0.1076
  H  H158  1  0.776600  0.184800  0.832500  1.0  0.1186
  H  H159  1  0.568400  0.859700  0.066400  1.0  0.1146
  H  H160  1  0.100600  0.495600  0.129600  1.0  0.0968
  H  H161  1  0.318600  0.866500  0.396500  1.0  0.0856
  H  H162  1  0.998200  0.125100  0.426400  1.0  0.0736
  H  H163  1  0.132100  0.380800  0.222300  1.0  0.1081
  H  H164  1  0.120300  0.187100  0.202300  1.0  0.1083
  H  H165  1  0.175000  0.132500  0.840200  1.0  0.1087
  H  H166  1  0.502300  0.245800  0.671200  1.0  0.1072
  H  H167  1  0.300200  0.082800  0.044600  1.0  0.1125
  H  H168  1  0.784800  0.173700  0.022500  1.0  0.1165
  H  H169  1  0.325000  0.632500  0.659800  1.0  0.1084
  H  H170  1  0.482500  0.099000  0.251600  1.0  0.1016
  H  H171  1  0.861700  0.073400  0.664100  1.0  0.1198
  H  H172  1  0.675000  0.367500  0.340200  1.0  0.108
  H  H173  1  0.538500  0.186300  0.062800  1.0  0.1036
  H  H174  1  0.301400  0.305100  0.136200  1.0  0.1198
  H  H175  1  0.731100  0.303300  0.533300  1.0  0.1075
  H  H176  1  0.596100  0.060500  0.207600  1.0  0.128
  H  H177  1  0.635600  0.737000  0.618000  1.0  0.1143
  H  H178  1  0.038500  0.313700  0.562800  1.0  0.1035
  H  H179  1  0.206700  0.420900  0.485100  1.0  0.102
  H  H180  1  0.532800  0.700400  0.945200  1.0  0.0867
  H  H181  1  0.758500  0.567200  0.317800  1.0  0.0777
  H  H182  1  0.437700  0.037600  0.304900  1.0  0.1124
  H  H183  1  0.896700  0.285700  0.650600  1.0  0.1071
  H  H184  1  0.632100  0.119200  0.722300  1.0  0.1079
  C  C185  1  0.599400  0.967700  0.075900  1.0  0.0585
  C  C186  1  0.937400  0.375200  0.736500  1.0  -0.109
  C  C187  1  0.927900  0.669900  0.159000  1.0  -0.0912
  C  C188  1  0.886500  0.601200  0.308800  1.0  -0.2134
  C  C189  1  0.241200  0.116800  0.311400  1.0  -0.0076
  C  C190  1  0.085900  0.286000  0.456600  1.0  -0.1561
  C  C191  1  0.584500  0.214400  0.157700  1.0  -0.2225
  C  C192  1  0.665300  0.105600  0.783000  1.0  0.0938
  C  C193  1  0.454900  0.918800  0.051800  1.0  0.1739
  C  C194  1  0.527600  0.953200  0.940700  1.0  0.25
  C  C195  1  0.455300  0.091900  0.935000  1.0  -0.089
  C  C196  1  0.866300  0.929500  0.401620  1.0  0.7185
  C  C197  1  0.894800  0.642200  0.538000  1.0  0.0351
  C  C198  1  0.331100  0.830100  0.376500  1.0  -0.0794
  C  C199  1  0.450400  0.260400  0.332500  1.0  -0.0546
  C  C200  1  0.348800  0.129200  0.251990  1.0  0.2116
  C  C201  1  0.966200  0.645500  0.121100  1.0  -0.1329
  C  C202  1  0.562600  0.875200  0.763500  1.0  -0.1102
  C  C203  1  0.800600  0.457500  0.411700  1.0  0.0911
  C  C204  1  0.787900  0.758700  0.504000  1.0  -0.0337
  C  C205  1  0.686500  0.598600  0.753900  1.0  -0.1122
  C  C206  1  0.191400  0.833100  0.190600  1.0  -0.1016
  C  C207  1  0.437500  0.763200  0.336800  1.0  -0.0674
  C  C208  1  0.342500  0.261100  0.041400  1.0  -0.1111
  C  C209  1  0.530900  0.227000  0.318600  1.0  -0.0146
  C  C210  1  0.633700  0.429500  0.098380  1.0  0.7188
  C  C211  1  0.044700  0.591900  0.565000  1.0  -0.0884
  C  C212  1  0.386500  0.193300  0.176900  1.0  -0.1107
  C  C213  1  0.570100  0.076300  0.399800  1.0  0.6741
  C  C214  1  0.074700  0.077200  0.636500  1.0  -0.1884
  C  C215  1  0.468400  0.926000  0.178400  1.0  0.2004
  C  C216  1  0.572600  0.878100  0.945400  1.0  -0.102
  C  C217  1  0.045100  0.418800  0.448200  1.0  0.1748
  C  C218  1  0.165300  0.394400  0.283000  1.0  0.0938
  C  C219  1  0.828000  0.713300  0.357000  1.0  0.1911
  C  C220  1  0.549600  0.739600  0.667500  1.0  -0.0481
  C  C221  1  0.457200  0.181100  0.394300  1.0  -0.0407
  C  C222  1  0.313500  0.401400  0.246100  1.0  -0.1117
  C  C223  1  0.386500  0.898800  0.808800  1.0  -0.2141
  C  C224  1  0.685100  0.128100  0.983700  1.0  -0.1354
  C  C225  1  0.387700  0.593000  0.824700  1.0  -0.0423
  C  C226  1  0.975700  0.312300  0.557100  1.0  -0.1198
  C  C227  1  0.323200  0.097600  0.293300  1.0  -0.0082
  C  C228  1  0.741200  0.383200  0.811400  1.0  -0.0071
  C  C229  1  0.459100  0.158700  0.198400  1.0  0.0901
  C  C230  1  0.202900  0.834900  0.466300  1.0  0.7069
  C  C231  1  0.140500  0.227400  0.473500  1.0  -0.1152
  C  C232  1  0.258800  0.793000  0.357200  1.0  -0.167
  C  C233  1  0.070100  0.423700  0.899800  1.0  0.6783
  C  C234  1  0.900700  0.184900  0.804800  1.0  0.2122
  C  C235  1  0.033800  0.354500  0.878900  1.0  -0.1339
  C  C236  1  0.263600  0.814700  0.995800  1.0  -0.1409
  C  C237  1  0.359500  0.027400  0.355840  1.0  -0.0909
  C  C238  1  0.640500  0.272600  0.973500  1.0  -0.1159
  C  C239  1  0.094600  0.882100  0.257300  1.0  0.1357
  C  C240  1  0.531600  0.074000  0.821600  1.0  0.2001
  C  C241  1  0.313000  0.602500  0.636500  1.0  0.1175
  C  C242  1  0.524300  0.812300  0.942900  1.0  -0.1183
  C  C243  1  0.024300  0.687700  0.442900  1.0  -0.1184
  C  C244  1  0.613500  0.806700  0.823100  1.0  -0.1118
  C  C245  1  0.925000  0.079600  0.667000  1.0  -0.1111
  C  C246  1  0.575000  0.579600  0.833000  1.0  -0.1122
  C  C247  1  0.963700  0.100500  0.446500  1.0  0.6023
  C  C248  1  0.504500  0.142900  0.611310  1.0  0.6897
  C  C249  1  0.223000  0.236700  0.172500  1.0  -0.0554
  C  C250  1  0.105200  0.357800  0.462000  1.0  0.0356
  C  C251  1  0.030900  0.273000  0.818600  1.0  -0.0138
  C  C252  1  0.199400  0.542500  0.588300  1.0  0.0914
  C  C253  1  0.072100  0.330100  0.841000  1.0  -0.0932
  C  C254  1  0.036400  0.901700  0.294300  1.0  -0.0415
  C  C255  1  0.479900  0.429900  0.133000  1.0  -0.0268
  C  C256  1  0.283700  0.592700  0.149300  1.0  -0.0998
  C  C257  1  0.415600  0.238800  0.371400  1.0  -0.1195
  C  C258  1  0.859500  0.472600  0.855840  1.0  -0.0829
  C  C259  1  0.842500  0.238900  0.541400  1.0  -0.1127
  C  C260  1  0.437800  0.961100  0.927000  1.0  -0.1284
  C  C261  1  0.959100  0.341300  0.698400  1.0  0.0899
  C  C262  1  0.472400  0.046800  0.059300  1.0  0.2488
  C  C263  1  0.584400  0.761200  0.628600  1.0  -0.1185
  C  C264  1  0.400700  0.315100  0.304800  1.0  0.2205
  C  C265  1  0.932900  0.244100  0.551500  1.0  -0.0597
  C  C266  1  0.777800  0.400100  0.383200  1.0  -0.1133
  C  C267  1  0.915600  0.261200  0.871400  1.0  -0.1201
  C  C268  1  0.572100  0.169900  0.341000  1.0  -0.0935
  C  C269  1  0.914100  0.714000  0.543400  1.0  -0.1551
  C  C270  1  0.721500  0.950500  0.625820  1.0  -0.1289
  C  C271  1  0.813500  0.098600  0.746100  1.0  -0.1119
  C  C272  1  0.848800  0.370800  0.751990  1.0  0.2118
  C  C273  1  0.887700  0.907000  0.324700  1.0  -0.0431
  C  C274  1  0.594600  0.617900  0.757300  1.0  0.1318
  C  C275  1  0.463600  0.401700  0.205700  1.0  -0.0408
  C  C276  1  0.733100  0.506200  0.421700  1.0  -0.2132
  C  C277  1  0.222200  0.599900  0.616800  1.0  -0.1113
  C  C278  1  0.612300  0.407000  0.175300  1.0  -0.0414
  C  C279  1  0.040900  0.658700  0.301600  1.0  0.0903
  C  C280  1  0.300600  0.042500  0.911700  1.0  0.0907
  C  C281  1  0.947700  0.658700  0.317700  1.0  0.11
  C  C282  1  0.049600  0.760400  0.167500  1.0  -0.0558
  C  C283  1  0.235600  0.877600  0.220300  1.0  0.0584
  C  C284  1  0.062600  0.624800  0.263500  1.0  -0.11
  C  C285  1  0.676800  0.902400  0.706700  1.0  -0.0069
  C  C286  1  0.605200  0.142200  0.962000  1.0  0.0349
  C  C287  1  0.927400  0.378100  0.554600  1.0  -0.1029
  C  C288  1  0.741200  0.207000  0.642800  1.0  -0.1699
  C  C289  1  0.052300  0.341300  0.682300  1.0  0.11
  C  C290  1  0.366300  0.570500  0.901620  1.0  0.719
  C  C291  1  0.881900  0.448000  0.816320  1.0  -0.1131
  C  C292  1  0.186500  0.901400  0.253900  1.0  -0.1114
  C  C293  1  0.542800  0.818900  0.605700  1.0  -0.0385
  C  C294  1  0.415500  0.785600  0.842300  1.0  -0.2252
  C  C295  1  0.036300  0.899500  0.553500  1.0  0.6018
  C  C296  1  0.314900  0.871900  0.016300  1.0  -0.1342
  C  C297  1  0.447700  0.841300  0.817700  1.0  0.1102
  C  C298  1  0.297100  0.334900  0.033700  1.0  0.7076
  C  C299  1  0.233100  0.993800  0.921700  1.0  -0.2133
  C  C300  1  0.429900  0.923700  0.600200  1.0  0.6759
  C  C301  1  0.058200  0.104600  0.709500  1.0  -0.0521
  C  C302  1  0.941800  0.895400  0.290500  1.0  -0.0504
  C  C303  1  0.328000  0.786700  0.857000  1.0  0.1916
  C  C304  1  0.112300  0.093000  0.675300  1.0  -0.0422
  C  C305  1  0.432900  0.255900  0.051500  1.0  -0.0593
  C  C306  1  0.485300  0.904700  0.246800  1.0  0.1549
  C  C307  1  0.216300  0.092700  0.350700  1.0  -0.1
  C  C308  1  0.957200  0.318900  0.894300  1.0  -0.0421
  C  C309  1  0.855400  0.994000  0.092400  1.0  0.177
  C  C310  1  0.425000  0.420400  0.167000  1.0  -0.1104
  C  C311  1  0.400600  0.032300  0.924100  1.0  0.0586
  C  C312  1  0.125800  0.412000  0.320600  1.0  -0.2149
  C  C313  1  0.834700  0.605600  0.717000  1.0  0.0946
  C  C314  1  0.777000  0.763300  0.827500  1.0  -0.0542
  C  C315  1  0.985300  0.595300  0.746800  1.0  0.1543
  C  C316  1  0.300700  0.196900  0.193500  1.0  0.2437
  C  C317  1  0.800700  0.303100  0.693500  1.0  0.2451
  C  C318  1  0.187000  0.102500  0.863500  1.0  0.1182
  C  C319  1  0.963600  0.098300  0.705700  1.0  -0.0416
  C  C320  1  0.366200  0.723500  0.317700  1.0  -0.0622
  C  C321  1  0.799300  0.605700  0.324700  1.0  0.1625
  C  C322  1  0.084400  0.738800  0.128600  1.0  -0.1166
  C  C323  1  0.108500  0.391500  0.248700  1.0  -0.1844
  C  C324  1  0.574700  0.422800  0.136500  1.0  -0.188
  C  C325  1  0.062200  0.461100  0.573000  1.0  -0.1297
  C  C326  1  0.545100  0.081200  0.948200  1.0  0.1746
  C  C327  1  0.955300  0.408100  0.435000  1.0  -0.0881
  C  C328  1  0.031600  0.426000  0.321600  1.0  0.2005
  C  C329  1  0.722200  0.900100  0.116800  1.0  -0.1122
  C  C330  1  0.691400  0.666900  0.690600  1.0  -0.1023
  C  C331  1  0.199300  0.696900  0.306500  1.0  0.2449
  C  C332  1  0.144600  0.006000  0.907600  1.0  0.1794
  C  C333  1  0.334700  0.894400  0.217000  1.0  0.0944
  C  C334  1  0.808600  0.166900  0.809400  1.0  -0.1018
  C  C335  1  0.072600  0.621900  0.445400  1.0  -0.1012
  C  C336  1  0.995500  0.642900  0.888690  1.0  0.6905
  C  C337  1  0.672000  0.213300  0.143000  1.0  0.192
  C  C338  1  0.520100  0.570100  0.867000  1.0  -0.0273
  C  C339  1  0.206200  0.695100  0.460600  1.0  -0.0346
  C  C340  1  0.514700  0.095300  0.753200  1.0  0.1533
  C  C341  1  0.113500  0.693300  0.323100  1.0  -0.1116
  C  C342  1  0.469100  0.773000  0.681400  1.0  -0.0151
  C  C343  1  0.744400  0.973500  0.581470  1.0  0.6929
  C  C344  1  0.925300  0.922800  0.363500  1.0  -0.1876
  C  C345  1  0.937500  0.736800  0.836800  1.0  -0.0662
  C  C346  1  0.567100  0.744100  0.948500  1.0  -0.0587
  C  C347  1  0.425300  0.577200  0.863500  1.0  -0.1875
  C  C348  1  0.761800  0.319600  0.018200  1.0  0.676
  C  C349  1  0.277000  0.736700  0.327500  1.0  -0.0555
  C  C350  1  0.427900  0.830100  0.659000  1.0  -0.0922
  C  C351  1  0.293800  0.195100  0.039400  1.0  -0.0351
  C  C352  1  0.699300  0.803100  0.806500  1.0  0.245
  C  C353  1  0.264400  0.377600  0.279700  1.0  0.0607
  C  C354  1  0.608500  0.108500  0.748700  1.0  -0.1866
  C  C355  1  0.261800  0.180400  0.518200  1.0  0.6751
  C  C356  1  0.968400  0.574000  0.678400  1.0  0.2005
  C  C357  1  0.599300  0.684900  0.695200  1.0  0.2191
  C  C358  1  0.164700  0.626400  0.454000  1.0  -0.0762
  C  C359  1  0.735600  0.622400  0.720300  1.0  0.058
  C  C360  1  0.778500  0.450500  0.874180  1.0  -0.1296
  C  C361  1  0.133700  0.070500  0.598380  1.0  0.7186
  C  C362  1  0.562500  0.236800  0.663200  1.0  -0.0674
  C  C363  1  0.067100  0.755900  0.448500  1.0  -0.0572
  C  C364  1  0.585900  0.214000  0.956600  1.0  -0.1562
  C  C365  1  0.533800  0.145500  0.378900  1.0  -0.1334
  C  C366  1  0.640500  0.972600  0.644160  1.0  -0.0819
  C  C367  1  0.185100  0.371900  0.483700  1.0  -0.1351
  C  C368  1  0.299300  0.894300  0.824700  1.0  0.1618
  C  C369  1  0.355400  0.506000  0.592400  1.0  0.1769
  C  C370  1  0.736400  0.185300  0.004200  1.0  -0.1384
  C  C371  1  0.633800  0.276500  0.682300  1.0  -0.062
  C  C372  1  0.212100  0.241300  0.496000  1.0  -0.0278
  C  C373  1  0.238200  0.680400  0.981800  1.0  0.6763
  C  C374  1  0.157500  0.761100  0.458600  1.0  -0.1111
  C  C375  1  0.687000  0.397500  0.363500  1.0  0.1179
  C  C376  1  0.929900  0.576300  0.100200  1.0  0.677
  C  C377  1  0.814900  0.628100  0.516300  1.0  -0.132
  C  C378  1  0.813000  0.897500  0.136500  1.0  0.118
  C  C379  1  0.391500  0.891500  0.251300  1.0  -0.1838
  C  C380  1  0.463700  0.399500  0.946500  1.0  0.6028
  C  C381  1  0.706200  0.804900  0.960600  1.0  -0.0396
  C  C382  1  0.536300  0.600500  0.053500  1.0  0.6013
  C  C383  1  0.979900  0.070100  0.633000  1.0  -0.0272
  C  C384  1  0.723000  0.263300  0.672500  1.0  -0.0545
  C  C385  1  0.562200  0.038900  0.073000  1.0  -0.1291
  C  C386  1  0.113500  0.398800  0.691200  1.0  -0.2126
  C  C387  1  0.495500  0.857100  0.388690  1.0  0.6902
  C  C388  1  0.062500  0.263200  0.163200  1.0  -0.0659
  C  C389  1  0.151200  0.629200  0.248010  1.0  0.2122
  C  C390  1  0.835300  0.373600  0.546000  1.0  -0.0764
  C  C391  1  0.308600  0.333100  0.309400  1.0  -0.1026
  C  C392  1  0.042800  0.681100  0.105700  1.0  -0.04
  C  C393  1  0.420300  0.815200  0.367080  1.0  -0.1554
  C  C394  1  0.668900  0.169900  0.623500  1.0  -0.0703
  C  C395  1  0.831100  0.669900  0.876500  1.0  -0.0709
  C  C396  1  0.969100  0.727000  0.181400  1.0  -0.0159
  C  C397  1  0.359500  0.727400  0.026500  1.0  -0.1158
  C  C398  1  0.099400  0.532300  0.575900  1.0  0.0584
  C  C399  1  0.716300  0.407300  0.850700  1.0  -0.0992
  C  C400  1  0.738200  0.819600  0.481800  1.0  0.677
  C  C401  1  0.625800  0.088000  0.820600  1.0  -0.2144
  C  C402  1  0.823200  0.402400  0.793300  1.0  -0.0084
  C  C403  1  0.859500  0.772600  0.526500  1.0  -0.1158
  C  C404  1  0.758800  0.707000  0.857200  1.0  -0.1671
  C  C405  1  0.644600  0.494000  0.407600  1.0  0.1796
  C  C406  1  0.764400  0.122400  0.779700  1.0  0.0605
  C  C407  1  0.475700  0.187700  0.057100  1.0  -0.1198
  C  C408  1  0.758800  0.883200  0.688600  1.0  -0.0053
  C  C409  1  0.544700  0.908100  0.065000  1.0  -0.0868
  C  C410  1  0.441800  0.604600  0.790500  1.0  -0.0499
  C  C411  1  0.200700  0.394300  0.675300  1.0  0.1622
  C  C412  1  0.651200  0.870800  0.748010  1.0  0.2117
  C  C413  1  0.027600  0.546800  0.440700  1.0  0.2499
  C  C414  1  0.702900  0.665100  0.966300  1.0  0.7067
  C  C415  1  0.014700  0.404700  0.253200  1.0  0.1537
  C  C416  1  0.168900  0.330100  0.123500  1.0  -0.0792
  C  C417  1  0.972400  0.453200  0.559300  1.0  0.2482
  C  C418  1  0.172000  0.286700  0.643000  1.0  0.1927
  C  C419  1  0.552300  0.158700  0.182300  1.0  0.1099
  C  C420  1  0.079700  0.315200  0.132920  1.0  -0.1551
  C  C421  1  0.236400  0.314700  0.504200  1.0  -0.1384
  C  C422  1  0.244400  0.526500  0.081470  1.0  0.6935
  C  C423  1  0.712100  0.258700  0.996000  1.0  -0.0284
  C  C424  1  0.755600  0.473500  0.918530  1.0  0.6964
  C  C425  1  0.699400  0.957500  0.088300  1.0  0.0911
  C  C426  1  0.075000  0.920400  0.333000  1.0  -0.1119
  C  C427  1  0.394800  0.857800  0.038000  1.0  0.0354
  C  C428  1  0.405400  0.382100  0.242700  1.0  0.1353
  C  C429  1  0.905400  0.117900  0.742700  1.0  0.1343
  C  C430  1  0.099300  0.815100  0.195200  1.0  0.2191
  C  C431  1  0.287900  0.741300  0.004000  1.0  -0.0336
  C  C432  1  0.793800  0.304900  0.539400  1.0  -0.0354
  C  C433  1  0.915500  0.714400  0.342300  1.0  -0.2247
  C  C434  1  0.540900  0.841300  0.801600  1.0  0.0902
  C  C435  1  0.133800  0.223500  0.182300  1.0  -0.0611
  C  C436  1  0.579700  0.184800  0.632920  1.0  -0.1551
  C  C437  1  0.900600  0.467700  0.424100  1.0  0.0583
  C  C438  1  0.437400  0.124800  0.236500  1.0  -0.1083
  C  C439  1  0.657500  0.738900  0.958600  1.0  -0.1115
  C  C440  1  0.118100  0.552000  0.183680  1.0  -0.1118
  C  C441  1  0.937800  0.538900  0.427000  1.0  -0.1293
  C  C442  1  0.797100  0.165100  0.533700  1.0  0.7075
  C  C443  1  0.221500  0.549500  0.125820  1.0  -0.1299
  C  C444  1  0.866200  0.776500  0.817700  1.0  -0.0619
  C  C445  1  0.258800  0.616800  0.188600  1.0  -0.0057
  C  C446  1  0.004500  0.357100  0.111310  1.0  0.6897
  C  C447  1  0.783700  0.907300  0.649300  1.0  -0.099
  C  C448  1  0.613500  0.101200  0.191200  1.0  -0.2131
  C  C449  1  0.558200  0.395400  0.209500  1.0  -0.0505
  C  C450  1  0.766900  0.006200  0.078300  1.0  -0.2128
  C  C451  1  0.536400  0.598300  0.794300  1.0  -0.0419
  C  C452  1  0.278500  0.049500  0.374180  1.0  -0.1303
  C  C453  1  0.886500  0.306700  0.676900  1.0  -0.1102
  C  C454  1  0.763600  0.685300  0.495800  1.0  -0.1408
  C  C455  1  0.084500  0.285600  0.657700  1.0  -0.2228
  C  C456  1  0.466200  0.854500  0.621100  1.0  -0.1327
  C  C457  1  0.920300  0.684800  0.867080  1.0  -0.1556
  C  C458  1  0.020100  0.929900  0.367000  1.0  -0.0272
  C  C459  1  0.950400  0.239600  0.832500  1.0  -0.0597
  C  C460  1  0.664700  0.873600  0.954000  1.0  -0.0762
  C  C461  1  0.277800  0.099900  0.883200  1.0  -0.1118
  C  C462  1  0.266900  0.493800  0.578300  1.0  -0.2117
  C  C463  1  0.414100  0.786000  0.043400  1.0  -0.1547
  C  C464  1  0.335300  0.126400  0.046000  1.0  -0.0745
  C  C465  1  0.700700  0.105700  0.175300  1.0  0.1619
  C  C466  1  0.255600  0.026500  0.418530  1.0  0.6954
  C  C467  1  0.891500  0.608500  0.751300  1.0  -0.1852
  C  C468  1  0.241200  0.293000  0.142800  1.0  -0.1709
  C  C469  1  0.427400  0.121900  0.054600  1.0  -0.1021
  C  C470  1  0.374200  0.912000  0.179400  1.0  -0.2151
  C  C471  1  0.874200  0.588000  0.679400  1.0  -0.2142
  C  C472  1  0.381900  0.052000  0.316320  1.0  -0.1127
  C  C473  1  0.954900  0.581200  0.551800  1.0  0.1743
  C  C474  1  0.140500  0.527400  0.144160  1.0  -0.0838
  C  C475  1  0.176800  0.597600  0.206700  1.0  -0.0071
  C  C476  1  0.618100  0.948000  0.683680  1.0  -0.1129
  N  N477  1  0.052300  0.838500  0.227880  1.0  -0.4143
  N  N478  1  0.619600  0.441200  0.380700  1.0  -0.4127
  N  N479  1  0.719200  0.835400  0.769380  1.0  -0.4179
  N  N480  1  0.280800  0.164600  0.230620  1.0  -0.4185
  N  N481  1  0.119600  0.058800  0.880700  1.0  -0.4117
  N  N482  1  0.219200  0.664600  0.269380  1.0  -0.4177
  N  N483  1  0.880400  0.941200  0.119300  1.0  -0.4175
  N  N484  1  0.947700  0.161500  0.772120  1.0  -0.4135
  N  N485  1  0.021600  0.579500  0.710500  1.0  -0.3777
  N  N486  1  0.580300  0.012300  0.950620  1.0  -0.4654
  N  N487  1  0.080300  0.487700  0.450620  1.0  -0.4669
  N  N488  1  0.552300  0.661500  0.727880  1.0  -0.4152
  N  N489  1  0.268000  0.838700  0.849500  1.0  -0.3779
  N  N490  1  0.380400  0.558800  0.619300  1.0  -0.4175
  N  N491  1  0.732000  0.161300  0.150500  1.0  -0.3836
  N  N492  1  0.521600  0.920500  0.210500  1.0  -0.3779
  N  N493  1  0.447700  0.338500  0.272120  1.0  -0.4124
  N  N494  1  0.978400  0.420500  0.289500  1.0  -0.3748
  N  N495  1  0.419700  0.987700  0.049380  1.0  -0.4677
  N  N496  1  0.478400  0.079500  0.789500  1.0  -0.3739
  N  N497  1  0.919700  0.512300  0.549380  1.0  -0.4693
  N  N498  1  0.768000  0.661300  0.349500  1.0  -0.3784
  N  N499  1  0.232000  0.338700  0.650500  1.0  -0.3828
  N  N500  1  0.780800  0.335400  0.730620  1.0  -0.4194
  O  O501  1  0.454400  0.938700  0.563210  1.0  -0.7542
  O  O502  1  0.759900  0.887100  0.488840  1.0  -0.7627
  O  O503  1  0.322300  0.542400  0.068430  1.0  -0.6283
  O  O504  1  0.095800  0.058300  0.564120  1.0  -0.6556
  O  O505  1  0.153700  0.891200  0.463740  1.0  -0.6512
  O  O506  1  0.045600  0.438700  0.936790  1.0  -0.755
  O  O507  1  0.404200  0.558300  0.935880  1.0  -0.6565
  O  O508  1  0.346300  0.391200  0.036260  1.0  -0.6509
  O  O509  1  0.431500  0.052900  0.505070  1.0  -0.762
  O  O510  1  0.994900  0.935900  0.523630  1.0  -0.7146
  O  O511  1  0.931500  0.447100  0.005070  1.0  -0.7619
  O  O512  1  0.177700  0.042400  0.431570  1.0  -0.629
  O  O513  1  0.781300  0.921100  0.395760  1.0  -0.6931
  O  O514  1  0.568500  0.947100  0.494930  1.0  -0.7622
  O  O515  1  0.480000  0.892900  0.422290  1.0  -0.7978
  O  O516  1  0.574400  0.858100  0.373540  1.0  -0.6219
  O  O517  1  0.718700  0.421100  0.104240  1.0  -0.6919
  O  O518  1  0.505100  0.435900  0.976370  1.0  -0.7145
  O  O519  1  0.170800  0.694400  0.955840  1.0  -0.6559
  O  O520  1  0.846300  0.108800  0.536260  1.0  -0.6513
  O  O521  1  0.425600  0.141900  0.626460  1.0  -0.6218
  O  O522  1  0.259900  0.612900  0.988840  1.0  -0.7636
  O  O523  1  0.219600  0.465300  0.966880  1.0  -0.7521
  O  O524  1  0.780400  0.534700  0.033120  1.0  -0.753
  O  O525  1  0.904200  0.941700  0.435880  1.0  -0.6568
  O  O526  1  0.878100  0.533100  0.119850  1.0  -0.6289
  O  O527  1  0.068500  0.552900  0.994930  1.0  -0.7618
  O  O528  1  0.787000  0.664600  0.975350  1.0  -0.7196
  O  O529  1  0.619700  0.603200  0.055600  1.0  -0.5866
  O  O530  1  0.121900  0.466900  0.880150  1.0  -0.6324
  O  O531  1  0.677700  0.457600  0.931570  1.0  -0.629
  O  O532  1  0.218700  0.078900  0.604240  1.0  -0.6917
  O  O533  1  0.719600  0.034700  0.466880  1.0  -0.752
  O  O534  1  0.020000  0.392900  0.077710  1.0  -0.7975
  O  O535  1  0.119700  0.896800  0.555600  1.0  -0.5866
  O  O536  1  0.713000  0.164600  0.524650  1.0  -0.7162
  O  O537  1  0.378100  0.966900  0.619850  1.0  -0.6286
  O  O538  1  0.281300  0.578900  0.895760  1.0  -0.6937
  O  O539  1  0.621900  0.033100  0.380150  1.0  -0.6369
  O  O540  1  0.954400  0.561300  0.063210  1.0  -0.7539
  O  O541  1  0.494900  0.564100  0.023630  1.0  -0.7148
  O  O542  1  0.380300  0.396800  0.944400  1.0  -0.589
  O  O543  1  0.520000  0.107100  0.577710  1.0  -0.7995
  O  O544  1  0.740100  0.387100  0.011160  1.0  -0.765
  O  O545  1  0.213000  0.335400  0.024650  1.0  -0.7171
  O  O546  1  0.183700  0.493300  0.059970  1.0  -0.756
  O  O547  1  0.316300  0.993300  0.440030  1.0  -0.7581
  O  O548  1  0.240100  0.112900  0.511160  1.0  -0.7649
  O  O549  1  0.829200  0.305600  0.044160  1.0  -0.6568
  O  O550  1  0.816300  0.506700  0.940030  1.0  -0.7582
  O  O551  1  0.329200  0.194400  0.544160  1.0  -0.6554
  O  O552  1  0.670800  0.805600  0.455840  1.0  -0.655
  O  O553  1  0.287000  0.835400  0.475350  1.0  -0.7206
  O  O554  1  0.074400  0.641900  0.873540  1.0  -0.6216
  O  O555  1  0.005100  0.064100  0.476370  1.0  -0.7149
  O  O556  1  0.683700  0.006700  0.559970  1.0  -0.7555
  O  O557  1  0.980000  0.607100  0.922290  1.0  -0.7992
  O  O558  1  0.925600  0.358100  0.126460  1.0  -0.6221
  O  O559  1  0.880300  0.103200  0.444400  1.0  -0.5884
  O  O560  1  0.653700  0.608800  0.963740  1.0  -0.6519
  O  O561  1  0.280400  0.965300  0.533120  1.0  -0.753
  O  O562  1  0.822300  0.957600  0.568430  1.0  -0.6287
  O  O563  1  0.595800  0.441700  0.064120  1.0  -0.6551
  O  O564  1  0.545600  0.061300  0.436790  1.0  -0.7549
