# generated using pymatgen
data_Mg2H9(C3O)8
_symmetry_space_group_name_H-M   'P 1'
_cell_length_a   11.06400000
_cell_length_b   15.95700000
_cell_length_c   23.36200000
_cell_angle_alpha   90.00000000
_cell_angle_beta   92.26500000
_cell_angle_gamma   90.00000000
_symmetry_Int_Tables_number   1
_chemical_formula_structural   Mg2H9(C3O)8
_chemical_formula_sum   'Mg8 H36 C96 O32'
_cell_volume   4121.29778034
_cell_formula_units_Z   4
loop_
 _symmetry_equiv_pos_site_id
 _symmetry_equiv_pos_as_xyz
  1  'x, y, z'
loop_
 _atom_site_type_symbol
 _atom_site_label
 _atom_site_symmetry_multiplicity
 _atom_site_fract_x
 _atom_site_fract_y
 _atom_site_fract_z
 _atom_site_occupancy
 _atom_site_charge
  Mg  Mg1  1  0.358700  0.846760  0.259290  1.0  1.4361
  Mg  Mg2  1  0.641300  0.153240  0.740710  1.0  1.4375
  Mg  Mg3  1  0.552750  0.510900  0.839460  1.0  1.5712
  Mg  Mg4  1  0.552750  0.989100  0.339460  1.0  1.5711
  Mg  Mg5  1  0.447250  0.489100  0.160540  1.0  1.5693
  Mg  Mg6  1  0.447250  0.010900  0.660540  1.0  1.5689
  Mg  Mg7  1  0.641300  0.346760  0.240710  1.0  1.4349
  Mg  Mg8  1  0.358700  0.653240  0.759290  1.0  1.436
  H  H9  1  0.381400  0.575800  0.996600  1.0  0.0938
  H  H10  1  0.218600  0.231300  0.610600  1.0  0.0911
  H  H11  1  0.255600  0.616600  0.535200  1.0  0.0856
  H  H12  1  0.795900  0.965500  0.829200  1.0  0.0884
  H  H13  1  0.192800  0.768900  0.392500  1.0  0.0971
  H  H14  1  0.255600  0.883400  0.035200  1.0  0.0856
  H  H15  1  0.015900  0.260900  0.595600  1.0  0.0905
  H  H16  1  0.744400  0.383400  0.464800  1.0  0.0854
  H  H17  1  0.381400  0.924200  0.496600  1.0  0.0934
  H  H18  1  0.164700  0.750700  0.562200  1.0  0.0925
  H  H19  1  0.423600  0.204000  0.248900  1.0  0.0981
  H  H20  1  0.807200  0.231100  0.607500  1.0  0.0962
  H  H21  1  0.835300  0.249300  0.437800  1.0  0.092
  H  H22  1  0.164700  0.749300  0.062200  1.0  0.0924
  H  H23  1  0.423600  0.296000  0.748900  1.0  0.0983
  H  H24  1  0.744400  0.116600  0.964800  1.0  0.0855
  H  H25  1  0.781400  0.731300  0.889400  1.0  0.091
  H  H26  1  0.807200  0.268900  0.107500  1.0  0.0964
  H  H27  1  0.795900  0.534500  0.329200  1.0  0.0886
  H  H28  1  0.618600  0.424200  0.003400  1.0  0.0935
  H  H29  1  0.735100  0.994800  0.916800  1.0  0.0755
  H  H30  1  0.984100  0.739100  0.404400  1.0  0.0904
  H  H31  1  0.264900  0.005200  0.083200  1.0  0.0767
  H  H32  1  0.835300  0.250700  0.937800  1.0  0.0919
  H  H33  1  0.576400  0.796000  0.751100  1.0  0.0974
  H  H34  1  0.984100  0.760900  0.904400  1.0  0.0903
  H  H35  1  0.735100  0.505200  0.416800  1.0  0.0753
  H  H36  1  0.781400  0.768700  0.389400  1.0  0.0903
  H  H37  1  0.015900  0.239100  0.095600  1.0  0.0902
  H  H38  1  0.618600  0.075800  0.503400  1.0  0.0933
  H  H39  1  0.264900  0.494800  0.583200  1.0  0.0769
  H  H40  1  0.192800  0.731100  0.892500  1.0  0.0972
  H  H41  1  0.204100  0.465500  0.670800  1.0  0.0885
  H  H42  1  0.204100  0.034500  0.170800  1.0  0.0881
  H  H43  1  0.218600  0.268700  0.110600  1.0  0.0906
  H  H44  1  0.576400  0.704000  0.251100  1.0  0.0977
  C  C45  1  0.313500  0.627400  0.097800  1.0  0.7053
  C  C46  1  0.808500  0.420900  0.468900  1.0  -0.1351
  C  C47  1  0.626600  0.959500  0.745900  1.0  0.7271
  C  C48  1  0.785600  0.213200  0.570600  1.0  -0.1385
  C  C49  1  0.196900  0.506400  0.559800  1.0  -0.1677
  C  C50  1  0.235600  0.411500  0.672800  1.0  -0.0885
  C  C51  1  0.686500  0.127400  0.402200  1.0  0.7041
  C  C52  1  0.079400  0.822600  0.965200  1.0  -0.0529
  C  C53  1  0.671700  0.749600  0.320600  1.0  -0.1808
  C  C54  1  0.911300  0.100600  0.005800  1.0  -0.0367
  C  C55  1  0.322500  0.391300  0.715600  1.0  -0.1643
  C  C56  1  0.101400  0.445900  0.555500  1.0  0.0008
  C  C57  1  0.327000  0.880300  0.491400  1.0  0.0222
  C  C58  1  0.349200  0.891600  0.385300  1.0  0.7324
  C  C59  1  0.722100  0.342000  0.961700  1.0  -0.1809
  C  C60  1  0.764400  0.911500  0.827200  1.0  -0.0854
  C  C61  1  0.197600  0.776000  0.530400  1.0  -0.0913
  C  C62  1  0.898600  0.945900  0.944500  1.0  0.0009
  C  C63  1  0.705300  0.147200  0.563400  1.0  -0.1785
  C  C64  1  0.195600  0.351600  0.633100  1.0  0.0401
  C  C65  1  0.898600  0.554100  0.444500  1.0  0.001
  C  C66  1  0.897500  0.629000  0.412500  1.0  -0.0171
  C  C67  1  0.165500  0.746800  0.475600  1.0  0.0118
  C  C68  1  0.804400  0.851600  0.866900  1.0  0.0403
  C  C69  1  0.235600  0.088500  0.172800  1.0  -0.0884
  C  C70  1  0.294700  0.647200  0.936600  1.0  -0.1786
  C  C71  1  0.626600  0.540500  0.245900  1.0  0.7264
  C  C72  1  0.756100  0.728400  0.362900  1.0  -0.0909
  C  C73  1  0.088700  0.899400  0.994200  1.0  -0.0367
  C  C74  1  0.705300  0.352800  0.063400  1.0  -0.1784
  C  C75  1  0.756100  0.771600  0.862900  1.0  -0.0865
  C  C76  1  0.803100  0.006400  0.940200  1.0  -0.1698
  C  C77  1  0.294700  0.852800  0.436600  1.0  -0.1781
  C  C78  1  0.003000  0.038800  0.015200  1.0  0.0069
  C  C79  1  0.088700  0.600600  0.494200  1.0  -0.0367
  C  C80  1  0.013000  0.311000  0.575300  1.0  -0.1825
  C  C81  1  0.243900  0.271600  0.637100  1.0  -0.0884
  C  C82  1  0.328300  0.250400  0.679400  1.0  -0.1813
  C  C83  1  0.632200  0.810300  0.780300  1.0  0.004
  C  C84  1  0.722100  0.158000  0.461700  1.0  -0.182
  C  C85  1  0.673000  0.119700  0.508600  1.0  0.0227
  C  C86  1  0.764400  0.588500  0.327200  1.0  -0.0875
  C  C87  1  0.686500  0.372600  0.902200  1.0  0.7049
  C  C88  1  0.621600  0.837100  0.320700  1.0  0.6721
  C  C89  1  0.987000  0.689000  0.424700  1.0  -0.1828
  C  C90  1  0.677500  0.891300  0.784400  1.0  -0.1633
  C  C91  1  0.650800  0.391600  0.114700  1.0  0.7331
  C  C92  1  0.373400  0.459500  0.754100  1.0  0.7268
  C  C93  1  0.013000  0.189000  0.075300  1.0  -0.1869
  C  C94  1  0.804400  0.648400  0.366900  1.0  0.0403
  C  C95  1  0.243900  0.228400  0.137100  1.0  -0.0876
  C  C96  1  0.327000  0.619700  0.991400  1.0  0.0227
  C  C97  1  0.997000  0.538800  0.484800  1.0  0.0068
  C  C98  1  0.003000  0.461200  0.515200  1.0  0.0069
  C  C99  1  0.621600  0.662900  0.820700  1.0  0.6741
  C  C100  1  0.349200  0.608400  0.885300  1.0  0.7322
  C  C101  1  0.195600  0.148400  0.133100  1.0  0.04
  C  C102  1  0.196900  0.993600  0.059800  1.0  -0.1677
  C  C103  1  0.197600  0.724000  0.030400  1.0  -0.0904
  C  C104  1  0.650800  0.108400  0.614700  1.0  0.7333
  C  C105  1  0.079400  0.677400  0.465200  1.0  -0.0527
  C  C106  1  0.808500  0.079100  0.968900  1.0  -0.1351
  C  C107  1  0.920600  0.322600  0.534800  1.0  -0.0523
  C  C108  1  0.785600  0.286800  0.070600  1.0  -0.1403
  C  C109  1  0.378400  0.337100  0.179300  1.0  0.6728
  C  C110  1  0.834500  0.246800  0.024400  1.0  0.0117
  C  C111  1  0.165500  0.753200  0.975600  1.0  0.0123
  C  C112  1  0.277900  0.842000  0.538300  1.0  -0.1818
  C  C113  1  0.373400  0.040500  0.254100  1.0  0.7271
  C  C114  1  0.367800  0.189700  0.219700  1.0  0.004
  C  C115  1  0.803100  0.493600  0.440200  1.0  -0.1659
  C  C116  1  0.677500  0.608700  0.284400  1.0  -0.1638
  C  C117  1  0.101400  0.054100  0.055500  1.0  0.0008
  C  C118  1  0.214400  0.786800  0.429400  1.0  -0.137
  C  C119  1  0.191500  0.579100  0.531100  1.0  -0.1336
  C  C120  1  0.802400  0.276000  0.969600  1.0  -0.0916
  C  C121  1  0.920600  0.177400  0.034800  1.0  -0.0522
  C  C122  1  0.987000  0.811000  0.924700  1.0  -0.1867
  C  C123  1  0.802400  0.224000  0.469600  1.0  -0.093
  C  C124  1  0.897500  0.871000  0.912500  1.0  -0.017
  C  C125  1  0.673000  0.380300  0.008600  1.0  0.0226
  C  C126  1  0.671700  0.750400  0.820600  1.0  -0.1816
  C  C127  1  0.378400  0.162900  0.679300  1.0  0.6736
  C  C128  1  0.834500  0.253200  0.524400  1.0  0.0122
  C  C129  1  0.191500  0.920900  0.031100  1.0  -0.1336
  C  C130  1  0.328300  0.249600  0.179400  1.0  -0.1811
  C  C131  1  0.277900  0.658000  0.038300  1.0  -0.1815
  C  C132  1  0.367800  0.310300  0.719700  1.0  0.0044
  C  C133  1  0.911300  0.399400  0.505800  1.0  -0.0367
  C  C134  1  0.214400  0.713200  0.929400  1.0  -0.1381
  C  C135  1  0.632200  0.689700  0.280300  1.0  0.0037
  C  C136  1  0.102500  0.371000  0.587500  1.0  -0.0168
  C  C137  1  0.102500  0.129000  0.087500  1.0  -0.0168
  C  C138  1  0.313500  0.872600  0.597800  1.0  0.7054
  C  C139  1  0.322500  0.108700  0.215600  1.0  -0.1636
  C  C140  1  0.997000  0.961200  0.984800  1.0  0.0068
  O  O141  1  0.461000  0.357100  0.214900  1.0  -0.7122
  O  O142  1  0.273500  0.833200  0.639300  1.0  -0.4997
  O  O143  1  0.726500  0.166800  0.360700  1.0  -0.4965
  O  O144  1  0.539000  0.642900  0.785100  1.0  -0.7146
  O  O145  1  0.430700  0.944800  0.392960  1.0  -0.6099
  O  O146  1  0.665500  0.611800  0.856800  1.0  -0.617
  O  O147  1  0.569300  0.055200  0.607040  1.0  -0.608
  O  O148  1  0.691000  0.134100  0.662200  1.0  -0.6829
  O  O149  1  0.569300  0.444800  0.107040  1.0  -0.6079
  O  O150  1  0.726500  0.333200  0.860700  1.0  -0.4956
  O  O151  1  0.561400  0.939100  0.704900  1.0  -0.5888
  O  O152  1  0.652200  0.033900  0.761100  1.0  -0.6964
  O  O153  1  0.691000  0.365900  0.162200  1.0  -0.6829
  O  O154  1  0.438600  0.439100  0.795100  1.0  -0.587
  O  O155  1  0.379000  0.934500  0.601380  1.0  -0.6341
  O  O156  1  0.461000  0.142900  0.714900  1.0  -0.712
  O  O157  1  0.309000  0.634100  0.837800  1.0  -0.6837
  O  O158  1  0.621000  0.434500  0.898620  1.0  -0.6346
  O  O159  1  0.621000  0.065500  0.398620  1.0  -0.6341
  O  O160  1  0.652200  0.466100  0.261100  1.0  -0.6942
  O  O161  1  0.539000  0.857100  0.285100  1.0  -0.7138
  O  O162  1  0.438600  0.060900  0.295100  1.0  -0.5892
  O  O163  1  0.347800  0.533900  0.738900  1.0  -0.6955
  O  O164  1  0.561400  0.560900  0.204900  1.0  -0.5892
  O  O165  1  0.347800  0.966100  0.238900  1.0  -0.6944
  O  O166  1  0.379000  0.565500  0.101380  1.0  -0.6337
  O  O167  1  0.309000  0.865900  0.337800  1.0  -0.6835
  O  O168  1  0.334500  0.388200  0.143200  1.0  -0.6166
  O  O169  1  0.273500  0.666800  0.139300  1.0  -0.5005
  O  O170  1  0.665500  0.888200  0.356800  1.0  -0.6172
  O  O171  1  0.334500  0.111800  0.643200  1.0  -0.6172
  O  O172  1  0.430700  0.555200  0.892960  1.0  -0.6086
