# generated using pymatgen
data_InC16(NO)8
_symmetry_space_group_name_H-M   'P 1'
_cell_length_a   15.68300000
_cell_length_b   15.68300000
_cell_length_c   11.55260000
_cell_angle_alpha   90.00000000
_cell_angle_beta   90.00000000
_cell_angle_gamma   120.00000000
_symmetry_Int_Tables_number   1
_chemical_formula_structural   InC16(NO)8
_chemical_formula_sum   'In3 C48 N24 O24'
_cell_volume   2460.75656881
_cell_formula_units_Z   3
loop_
 _symmetry_equiv_pos_site_id
 _symmetry_equiv_pos_as_xyz
  1  'x, y, z'
loop_
 _atom_site_type_symbol
 _atom_site_label
 _atom_site_symmetry_multiplicity
 _atom_site_fract_x
 _atom_site_fract_y
 _atom_site_fract_z
 _atom_site_occupancy
 _atom_site_charge
  In  In1  1  0.000000  0.500000  0.666667  1.0  1.5296
  In  In2  1  0.500000  0.500000  0.333333  1.0  1.5295
  In  In3  1  0.500000  0.000000  0.000000  1.0  1.5295
  C  C4  1  0.874200  0.493100  0.823000  1.0  0.7297
  C  C5  1  0.808200  0.496200  0.910400  1.0  -0.1064
  C  C6  1  0.732600  0.406700  0.956400  1.0  0.2713
  C  C7  1  0.823800  0.585300  0.953500  1.0  0.1449
  C  C8  1  0.506900  0.381100  0.489670  1.0  0.7336
  C  C9  1  0.503800  0.312000  0.577070  1.0  -0.1063
  C  C10  1  0.593300  0.325900  0.623070  1.0  0.2724
  C  C11  1  0.414700  0.238500  0.620170  1.0  0.1502
  C  C12  1  0.618900  0.125800  0.156330  1.0  0.7345
  C  C13  1  0.688000  0.191800  0.243730  1.0  -0.1067
  C  C14  1  0.674100  0.267400  0.289730  1.0  0.2735
  C  C15  1  0.761500  0.176200  0.286830  1.0  0.1492
  C  C16  1  0.125800  0.506900  0.823000  1.0  0.7319
  C  C17  1  0.191800  0.503800  0.910400  1.0  -0.1069
  C  C18  1  0.267400  0.593300  0.956400  1.0  0.2721
  C  C19  1  0.176200  0.414700  0.953500  1.0  0.1459
  C  C20  1  0.493100  0.618900  0.489670  1.0  0.7328
  C  C21  1  0.496200  0.688000  0.577070  1.0  -0.1056
  C  C22  1  0.406700  0.674100  0.623070  1.0  0.2723
  C  C23  1  0.585300  0.761500  0.620170  1.0  0.1489
  C  C24  1  0.381100  0.874200  0.156330  1.0  0.7337
  C  C25  1  0.312000  0.808200  0.243730  1.0  -0.1062
  C  C26  1  0.325900  0.732600  0.289730  1.0  0.2736
  C  C27  1  0.238500  0.823800  0.286830  1.0  0.1513
  C  C28  1  0.493100  0.874200  0.843670  1.0  0.7344
  C  C29  1  0.496200  0.808200  0.756270  1.0  -0.1059
  C  C30  1  0.406700  0.732600  0.710270  1.0  0.2732
  C  C31  1  0.585300  0.823800  0.713170  1.0  0.1487
  C  C32  1  0.381100  0.506900  0.177000  1.0  0.7301
  C  C33  1  0.312000  0.503800  0.089600  1.0  -0.1065
  C  C34  1  0.325900  0.593300  0.043600  1.0  0.2713
  C  C35  1  0.238500  0.414700  0.046500  1.0  0.1458
  C  C36  1  0.125800  0.618900  0.510330  1.0  0.7334
  C  C37  1  0.191800  0.688000  0.422930  1.0  -0.1059
  C  C38  1  0.267400  0.674100  0.376930  1.0  0.273
  C  C39  1  0.176200  0.761500  0.379830  1.0  0.1503
  C  C40  1  0.506900  0.125800  0.843670  1.0  0.7336
  C  C41  1  0.503800  0.191800  0.756270  1.0  -0.1068
  C  C42  1  0.593300  0.267400  0.710270  1.0  0.274
  C  C43  1  0.414700  0.176200  0.713170  1.0  0.1504
  C  C44  1  0.618900  0.493100  0.177000  1.0  0.7316
  C  C45  1  0.688000  0.496200  0.089600  1.0  -0.1067
  C  C46  1  0.674100  0.406700  0.043600  1.0  0.2719
  C  C47  1  0.761500  0.585300  0.046500  1.0  0.145
  C  C48  1  0.874200  0.381100  0.510330  1.0  0.7334
  C  C49  1  0.808200  0.312000  0.422930  1.0  -0.106
  C  C50  1  0.732600  0.325900  0.376930  1.0  0.2718
  C  C51  1  0.823800  0.238500  0.379830  1.0  0.1492
  N  N52  1  0.897600  0.679000  0.913000  1.0  -0.199
  N  N53  1  0.713000  0.313100  0.916000  1.0  -0.1988
  N  N54  1  0.321000  0.218600  0.579670  1.0  -0.196
  N  N55  1  0.686900  0.399900  0.582670  1.0  -0.1971
  N  N56  1  0.781400  0.102400  0.246330  1.0  -0.1948
  N  N57  1  0.600100  0.287000  0.249330  1.0  -0.1964
  N  N58  1  0.102400  0.321000  0.913000  1.0  -0.1952
  N  N59  1  0.287000  0.686900  0.916000  1.0  -0.1974
  N  N60  1  0.679000  0.781400  0.579670  1.0  -0.1956
  N  N61  1  0.313100  0.600100  0.582670  1.0  -0.1977
  N  N62  1  0.218600  0.897600  0.246330  1.0  -0.1972
  N  N63  1  0.399900  0.713000  0.249330  1.0  -0.1966
  N  N64  1  0.679000  0.897600  0.753670  1.0  -0.1959
  N  N65  1  0.313100  0.713000  0.750670  1.0  -0.1965
  N  N66  1  0.218600  0.321000  0.087000  1.0  -0.1966
  N  N67  1  0.399900  0.686900  0.084000  1.0  -0.1969
  N  N68  1  0.102400  0.781400  0.420330  1.0  -0.1976
  N  N69  1  0.287000  0.600100  0.417330  1.0  -0.1964
  N  N70  1  0.321000  0.102400  0.753670  1.0  -0.1982
  N  N71  1  0.686900  0.287000  0.750670  1.0  -0.1952
  N  N72  1  0.781400  0.679000  0.087000  1.0  -0.1985
  N  N73  1  0.600100  0.313100  0.084000  1.0  -0.1977
  N  N74  1  0.897600  0.218600  0.420330  1.0  -0.1967
  N  N75  1  0.713000  0.399900  0.417330  1.0  -0.1961
  O  O76  1  0.934500  0.572000  0.775700  1.0  -0.5195
  O  O77  1  0.871800  0.415000  0.791100  1.0  -0.5177
  O  O78  1  0.428000  0.362500  0.442370  1.0  -0.5198
  O  O79  1  0.585000  0.456800  0.457770  1.0  -0.5158
  O  O80  1  0.637500  0.065500  0.109030  1.0  -0.5176
  O  O81  1  0.543200  0.128200  0.124430  1.0  -0.5164
  O  O82  1  0.065500  0.428000  0.775700  1.0  -0.5184
  O  O83  1  0.128200  0.585000  0.791100  1.0  -0.5174
  O  O84  1  0.572000  0.637500  0.442370  1.0  -0.5182
  O  O85  1  0.415000  0.543200  0.457770  1.0  -0.517
  O  O86  1  0.362500  0.934500  0.109030  1.0  -0.5211
  O  O87  1  0.456800  0.871800  0.124430  1.0  -0.5175
  O  O88  1  0.572000  0.934500  0.890970  1.0  -0.5183
  O  O89  1  0.415000  0.871800  0.875570  1.0  -0.5166
  O  O90  1  0.362500  0.428000  0.224300  1.0  -0.5179
  O  O91  1  0.456800  0.585000  0.208900  1.0  -0.5162
  O  O92  1  0.065500  0.637500  0.557630  1.0  -0.5207
  O  O93  1  0.128200  0.543200  0.542230  1.0  -0.5167
  O  O94  1  0.428000  0.065500  0.890970  1.0  -0.5187
  O  O95  1  0.585000  0.128200  0.875570  1.0  -0.5175
  O  O96  1  0.637500  0.572000  0.224300  1.0  -0.5188
  O  O97  1  0.543200  0.415000  0.208900  1.0  -0.5181
  O  O98  1  0.934500  0.362500  0.557630  1.0  -0.5193
  O  O99  1  0.871800  0.456800  0.542230  1.0  -0.5163
