# generated using pymatgen
data_CoH56C54S2(N4O)2
_symmetry_space_group_name_H-M   'P 1'
_cell_length_a   17.89160000
_cell_length_b   19.08800000
_cell_length_c   19.67450000
_cell_angle_alpha   90.00000000
_cell_angle_beta   90.00000000
_cell_angle_gamma   90.00000000
_symmetry_Int_Tables_number   1
_chemical_formula_structural   CoH56C54S2(N4O)2
_chemical_formula_sum   'Co4 H224 C216 S8 N32 O8'
_cell_volume   6719.13412881
_cell_formula_units_Z   4
loop_
 _symmetry_equiv_pos_site_id
 _symmetry_equiv_pos_as_xyz
  1  'x, y, z'
loop_
 _atom_site_type_symbol
 _atom_site_label
 _atom_site_symmetry_multiplicity
 _atom_site_fract_x
 _atom_site_fract_y
 _atom_site_fract_z
 _atom_site_occupancy
 _atom_site_charge
  Co  Co1  1  0.318410  0.765350  0.000040  1.0  0.6206
  Co  Co2  1  0.181590  0.265350  0.500040  1.0  0.6208
  Co  Co3  1  0.681590  0.265350  0.999960  1.0  0.6212
  Co  Co4  1  0.818410  0.765350  0.499960  1.0  0.6209
  H  H5  1  0.960900  0.668800  0.698600  1.0  0.0814
  H  H6  1  0.406400  0.145800  0.873200  1.0  0.1058
  H  H7  1  0.519500  0.461800  0.103000  1.0  0.1163
  H  H8  1  0.862700  0.988900  0.727400  1.0  0.095
  H  H9  1  0.614000  0.541200  0.713300  1.0  0.092
  H  H10  1  0.202700  0.159800  0.822300  1.0  0.0908
  H  H11  1  0.702300  0.794100  0.390100  1.0  0.1113
  H  H12  1  0.170000  0.237600  0.742400  1.0  0.0751
  H  H13  1  0.222500  0.667100  0.642200  1.0  0.0896
  H  H14  1  0.599100  0.235500  0.132300  1.0  0.0779
  H  H15  1  0.039100  0.168800  0.301400  1.0  0.0828
  H  H16  1  0.733600  0.557000  0.354000  1.0  0.1057
  H  H17  1  0.181100  0.434300  0.836700  1.0  0.0782
  H  H18  1  0.724000  0.905400  0.501700  1.0  0.083
  H  H19  1  0.237500  0.297700  0.272700  1.0  0.0751
  H  H20  1  0.386000  0.041200  0.286700  1.0  0.0929
  H  H21  1  0.906400  0.145800  0.626800  1.0  0.1047
  H  H22  1  0.909400  0.164300  0.133500  1.0  0.1108
  H  H23  1  0.722900  0.356800  0.774700  1.0  0.0833
  H  H24  1  0.416500  0.781900  0.119800  1.0  0.1021
  H  H25  1  0.801100  0.699000  0.845200  1.0  0.0751
  H  H26  1  0.264100  0.485300  0.271400  1.0  0.0755
  H  H27  1  0.288000  0.283000  0.138000  1.0  0.0882
  H  H28  1  0.288500  0.136400  0.255800  1.0  0.0803
  H  H29  1  0.785600  0.674700  0.727000  1.0  0.0755
  H  H30  1  0.985300  0.849900  0.321500  1.0  0.0962
  H  H31  1  0.514100  0.568700  0.240400  1.0  0.0962
  H  H32  1  0.790400  0.809700  0.141500  1.0  0.0816
  H  H33  1  0.133400  0.411800  0.247800  1.0  0.084
  H  H34  1  0.556600  0.144400  0.027100  1.0  0.0865
  H  H35  1  0.443400  0.644400  0.972900  1.0  0.0868
  H  H36  1  0.263600  0.927000  0.820200  1.0  0.0811
  H  H37  1  0.406300  0.593800  0.345000  1.0  0.0721
  H  H38  1  0.737500  0.297700  0.227300  1.0  0.0751
  H  H39  1  0.381500  0.454300  0.447300  1.0  0.1021
  H  H40  1  0.945100  0.392300  0.137900  1.0  0.1002
  H  H41  1  0.309100  0.965900  0.264700  1.0  0.0887
  H  H42  1  0.967100  0.390500  0.307800  1.0  0.096
  H  H43  1  0.459800  0.533600  0.189200  1.0  0.0772
  H  H44  1  0.690300  0.319000  0.290100  1.0  0.0756
  H  H45  1  0.177100  0.883400  0.739900  1.0  0.0817
  H  H46  1  0.959800  0.533600  0.310800  1.0  0.0787
  H  H47  1  0.231600  0.907300  0.683100  1.0  0.0897
  H  H48  1  0.540200  0.033600  0.810800  1.0  0.0794
  H  H49  1  0.222900  0.356800  0.725300  1.0  0.0833
  H  H50  1  0.350700  0.117500  0.712600  1.0  0.0963
  H  H51  1  0.768400  0.407300  0.316900  1.0  0.0908
  H  H52  1  0.168700  0.757900  0.701800  1.0  0.0732
  H  H53  1  0.764100  0.485300  0.228600  1.0  0.0757
  H  H54  1  0.331300  0.257900  0.201800  1.0  0.076
  H  H55  1  0.216800  0.064000  0.181000  1.0  0.0804
  H  H56  1  0.797300  0.659800  0.177700  1.0  0.0849
  H  H57  1  0.220700  0.883200  0.279400  1.0  0.0753
  H  H58  1  0.262500  0.797700  0.772700  1.0  0.0747
  H  H59  1  0.202300  0.794100  0.109900  1.0  0.1121
  H  H60  1  0.709600  0.309700  0.641500  1.0  0.0825
  H  H61  1  0.611200  0.841200  0.348900  1.0  0.1291
  H  H62  1  0.980500  0.961800  0.603000  1.0  0.116
  H  H63  1  0.783200  0.564000  0.819000  1.0  0.0816
  H  H64  1  0.279300  0.383200  0.779400  1.0  0.0791
  H  H65  1  0.032900  0.890500  0.692200  1.0  0.0964
  H  H66  1  0.850700  0.117500  0.787400  1.0  0.0957
  H  H67  1  0.714400  0.174700  0.227000  1.0  0.0748
  H  H68  1  0.224000  0.905400  0.998300  1.0  0.0824
  H  H69  1  0.888800  0.341200  0.848900  1.0  0.1294
  H  H70  1  0.618500  0.954300  0.552700  1.0  0.1022
  H  H71  1  0.788000  0.283000  0.362000  1.0  0.0886
  H  H72  1  0.698900  0.199000  0.345200  1.0  0.0763
  H  H73  1  0.831300  0.257900  0.298200  1.0  0.0758
  H  H74  1  0.045100  0.155300  0.818500  1.0  0.0785
  H  H75  1  0.118500  0.954300  0.947300  1.0  0.1023
  H  H76  1  0.460900  0.668800  0.801400  1.0  0.0825
  H  H77  1  0.881500  0.454300  0.052700  1.0  0.1023
  H  H78  1  0.809700  0.819000  0.790100  1.0  0.0777
  H  H79  1  0.699700  0.051900  0.242600  1.0  0.0755
  H  H80  1  0.885700  0.772700  0.207700  1.0  0.0796
  H  H81  1  0.268400  0.407300  0.183100  1.0  0.0895
  H  H82  1  0.212000  0.783000  0.638000  1.0  0.0887
  H  H83  1  0.583500  0.281900  0.880200  1.0  0.1019
  H  H84  1  0.702700  0.159800  0.677700  1.0  0.0907
  H  H85  1  0.283200  0.564000  0.681000  1.0  0.0805
  H  H86  1  0.233500  0.771700  0.311800  1.0  0.074
  H  H87  1  0.201500  0.117600  0.558700  1.0  0.0735
  H  H88  1  0.852600  0.586800  0.261500  1.0  0.0733
  H  H89  1  0.276000  0.405400  0.498300  1.0  0.0823
  H  H90  1  0.830000  0.737600  0.257600  1.0  0.0743
  H  H91  1  0.400900  0.735500  0.867700  1.0  0.0777
  H  H92  1  0.297300  0.659800  0.322300  1.0  0.088
  H  H93  1  0.593600  0.645800  0.126800  1.0  0.1048
  H  H94  1  0.865700  0.464700  0.789300  1.0  0.077
  H  H95  1  0.338800  0.970200  0.699000  1.0  0.1007
  H  H96  1  0.297700  0.294100  0.609900  1.0  0.1132
  H  H97  1  0.731600  0.907300  0.816900  1.0  0.0904
  H  H98  1  0.615200  0.410300  0.032100  1.0  0.0826
  H  H99  1  0.670000  0.237600  0.757600  1.0  0.0743
  H  H100  1  0.788500  0.136400  0.244200  1.0  0.0797
  H  H101  1  0.137300  0.488900  0.272600  1.0  0.0958
  H  H102  1  0.042300  0.012600  0.765300  1.0  0.0927
  H  H103  1  0.388800  0.341200  0.651100  1.0  0.1297
  H  H104  1  0.056600  0.144400  0.472900  1.0  0.0867
  H  H105  1  0.053300  0.600600  0.478000  1.0  0.0998
  H  H106  1  0.985900  0.068700  0.740400  1.0  0.0947
  H  H107  1  0.134300  0.964700  0.210700  1.0  0.077
  H  H108  1  0.300300  0.551900  0.757400  1.0  0.0749
  H  H109  1  0.099100  0.235500  0.367700  1.0  0.0779
  H  H110  1  0.946700  0.100600  0.522000  1.0  0.0987
  H  H111  1  0.147400  0.086800  0.738500  1.0  0.0786
  H  H112  1  0.681100  0.434300  0.663300  1.0  0.0794
  H  H113  1  0.409000  0.642900  0.213600  1.0  0.0549
  H  H114  1  0.266500  0.271700  0.811800  1.0  0.0748
  H  H115  1  0.190900  0.465900  0.764700  1.0  0.0885
  H  H116  1  0.532900  0.890500  0.807800  1.0  0.0963
  H  H117  1  0.701500  0.117600  0.941300  1.0  0.0744
  H  H118  1  0.236400  0.427000  0.320200  1.0  0.0812
  H  H119  1  0.114300  0.272700  0.792300  1.0  0.0779
  H  H120  1  0.633400  0.411800  0.252200  1.0  0.0851
  H  H121  1  0.115200  0.410300  0.467900  1.0  0.0831
  H  H122  1  0.614300  0.272700  0.707700  1.0  0.0773
  H  H123  1  0.886000  0.041200  0.213300  1.0  0.0923
  H  H124  1  0.649300  0.617500  0.287400  1.0  0.0952
  H  H125  1  0.593700  0.093800  0.655000  1.0  0.0712
  H  H126  1  0.712000  0.783000  0.862000  1.0  0.0882
  H  H127  1  0.822900  0.383400  0.260100  1.0  0.0857
  H  H128  1  0.409400  0.164300  0.366500  1.0  0.1107
  H  H129  1  0.542300  0.012600  0.734700  1.0  0.0925
  H  H130  1  0.777100  0.856800  0.274700  1.0  0.0829
  H  H131  1  0.766500  0.271700  0.688200  1.0  0.0759
  H  H132  1  0.362700  0.988900  0.772600  1.0  0.0942
  H  H133  1  0.722500  0.667100  0.857800  1.0  0.09
  H  H134  1  0.149300  0.617500  0.212600  1.0  0.0961
  H  H135  1  0.198900  0.199000  0.154800  1.0  0.0746
  H  H136  1  0.093600  0.645800  0.373200  1.0  0.1055
  H  H137  1  0.209600  0.309700  0.858500  1.0  0.0831
  H  H138  1  0.285600  0.674700  0.773000  1.0  0.0763
  H  H139  1  0.277500  0.167100  0.142200  1.0  0.0892
  H  H140  1  0.637300  0.488900  0.227400  1.0  0.096
  H  H141  1  0.190300  0.319000  0.209900  1.0  0.0726
  H  H142  1  0.199700  0.051900  0.257400  1.0  0.0756
  H  H143  1  0.114000  0.541200  0.786700  1.0  0.0927
  H  H144  1  0.906300  0.593800  0.155000  1.0  0.0705
  H  H145  1  0.301100  0.699000  0.654800  1.0  0.0763
  H  H146  1  0.776000  0.405400  0.001700  1.0  0.083
  H  H147  1  0.736400  0.427000  0.179800  1.0  0.0828
  H  H148  1  0.779300  0.383200  0.720600  1.0  0.0791
  H  H149  1  0.797700  0.294100  0.890100  1.0  0.1119
  H  H150  1  0.480500  0.961800  0.897000  1.0  0.1163
  H  H151  1  0.019500  0.461800  0.397000  1.0  0.1168
  H  H152  1  0.647400  0.086800  0.761500  1.0  0.0788
  H  H153  1  0.943400  0.644400  0.527100  1.0  0.0864
  H  H154  1  0.954900  0.655300  0.181500  1.0  0.0798
  H  H155  1  0.384800  0.910300  0.967900  1.0  0.0834
  H  H156  1  0.182500  0.726600  0.904900  1.0  0.0795
  H  H157  1  0.014100  0.568700  0.259600  1.0  0.0962
  H  H158  1  0.445100  0.392300  0.362100  1.0  0.1003
  H  H159  1  0.809100  0.965900  0.235300  1.0  0.0881
  H  H160  1  0.817500  0.226600  0.095100  1.0  0.0787
  H  H161  1  0.545100  0.155300  0.681500  1.0  0.0758
  H  H162  1  0.091000  0.142900  0.713600  1.0  0.0554
  H  H163  1  0.233600  0.557000  0.146000  1.0  0.106
  H  H164  1  0.866600  0.911800  0.752200  1.0  0.0876
  H  H165  1  0.446700  0.100600  0.978000  1.0  0.1002
  H  H166  1  0.733500  0.771700  0.188200  1.0  0.0726
  H  H167  1  0.214400  0.174700  0.273000  1.0  0.0754
  H  H168  1  0.800300  0.551900  0.742600  1.0  0.0747
  H  H169  1  0.090600  0.664300  0.866500  1.0  0.1111
  H  H170  1  0.690900  0.465900  0.735300  1.0  0.0882
  H  H171  1  0.634300  0.964700  0.289300  1.0  0.0774
  H  H172  1  0.211500  0.636400  0.755800  1.0  0.0772
  H  H173  1  0.235900  0.985300  0.771400  1.0  0.0758
  H  H174  1  0.385700  0.772700  0.292300  1.0  0.0785
  H  H175  1  0.884800  0.910300  0.532100  1.0  0.0829
  H  H176  1  0.366600  0.911800  0.747800  1.0  0.0874
  H  H177  1  0.347500  0.696900  0.375500  1.0  0.0807
  H  H178  1  0.467100  0.390500  0.192200  1.0  0.0962
  H  H179  1  0.818900  0.934300  0.163300  1.0  0.0792
  H  H180  1  0.716800  0.064000  0.319000  1.0  0.0816
  H  H181  1  0.277100  0.856800  0.225300  1.0  0.083
  H  H182  1  0.539100  0.168800  0.198600  1.0  0.0826
  H  H183  1  0.661200  0.470200  0.301000  1.0  0.1009
  H  H184  1  0.454900  0.655300  0.318500  1.0  0.0779
  H  H185  1  0.668700  0.757900  0.798200  1.0  0.0746
  H  H186  1  0.591000  0.142900  0.786400  1.0  0.0554
  H  H187  1  0.909000  0.642900  0.286400  1.0  0.0555
  H  H188  1  0.916500  0.781900  0.380200  1.0  0.1026
  H  H189  1  0.553300  0.600600  0.022000  1.0  0.0991
  H  H190  1  0.838800  0.970200  0.801000  1.0  0.1006
  H  H191  1  0.322900  0.383400  0.239900  1.0  0.0853
  H  H192  1  0.309700  0.819000  0.709900  1.0  0.0757
  H  H193  1  0.847500  0.696900  0.124500  1.0  0.0825
  H  H194  1  0.083500  0.281900  0.619800  1.0  0.1017
  H  H195  1  0.652500  0.196900  0.624500  1.0  0.0828
  H  H196  1  0.266400  0.057000  0.646000  1.0  0.1061
  H  H197  1  0.763600  0.927000  0.679800  1.0  0.0827
  H  H198  1  0.677100  0.883400  0.760100  1.0  0.0812
  H  H199  1  0.317500  0.226600  0.404900  1.0  0.0788
  H  H200  1  0.161200  0.470200  0.199000  1.0  0.1002
  H  H201  1  0.485900  0.068700  0.759600  1.0  0.0946
  H  H202  1  0.330000  0.737600  0.242400  1.0  0.0755
  H  H203  1  0.735900  0.985300  0.728600  1.0  0.077
  H  H204  1  0.111200  0.841200  0.151100  1.0  0.1292
  H  H205  1  0.766400  0.057000  0.854000  1.0  0.1054
  H  H206  1  0.554900  0.892300  0.637900  1.0  0.0989
  H  H207  1  0.720700  0.883200  0.220600  1.0  0.0754
  H  H208  1  0.457700  0.512600  0.265300  1.0  0.0928
  H  H209  1  0.290400  0.809700  0.358500  1.0  0.0829
  H  H210  1  0.014700  0.349900  0.678500  1.0  0.0959
  H  H211  1  0.318900  0.934300  0.336700  1.0  0.0776
  H  H212  1  0.298500  0.617600  0.058700  1.0  0.0734
  H  H213  1  0.711500  0.636400  0.744200  1.0  0.0771
  H  H214  1  0.590600  0.664300  0.633500  1.0  0.1107
  H  H215  1  0.900900  0.735500  0.632300  1.0  0.0779
  H  H216  1  0.152500  0.196900  0.875500  1.0  0.0806
  H  H217  1  0.352600  0.586800  0.238500  1.0  0.0737
  H  H218  1  0.957700  0.512600  0.234700  1.0  0.0923
  H  H219  1  0.054900  0.892300  0.862100  1.0  0.0998
  H  H220  1  0.485300  0.849900  0.178500  1.0  0.097
  H  H221  1  0.777500  0.167100  0.357800  1.0  0.0897
  H  H222  1  0.040200  0.033600  0.689200  1.0  0.0766
  H  H223  1  0.762500  0.797700  0.727300  1.0  0.0746
  H  H224  1  0.682500  0.726600  0.595100  1.0  0.0791
  H  H225  1  0.798500  0.617600  0.441300  1.0  0.0742
  H  H226  1  0.365700  0.464700  0.710700  1.0  0.0766
  H  H227  1  0.514700  0.349900  0.821500  1.0  0.096
  H  H228  1  0.093700  0.093800  0.845000  1.0  0.0725
  C  C229  1  0.082800  0.282500  0.373200  1.0  0.1045
  C  C230  1  0.677600  0.425000  0.710600  1.0  0.0883
  C  C231  1  0.408500  0.631600  0.313700  1.0  -0.1248
  C  C232  1  0.028500  0.307200  0.328200  1.0  0.0189
  C  C233  1  0.110000  0.754400  0.210700  1.0  0.2653
  C  C234  1  0.292600  0.245100  0.616600  1.0  0.108
  C  C235  1  0.526700  0.637400  0.043600  1.0  -0.1097
  C  C236  1  0.039500  0.163600  0.514600  1.0  0.1425
  C  C237  1  0.517700  0.652800  0.717100  1.0  0.0159
  C  C238  1  0.110200  0.803400  0.876200  1.0  0.0113
  C  C239  1  0.264600  0.642800  0.086600  1.0  0.1284
  C  C240  1  0.908700  0.320500  0.808900  1.0  -0.1524
  C  C241  1  0.664100  0.712700  0.334800  1.0  -0.0936
  C  C242  1  0.220600  0.296800  0.813000  1.0  -0.1352
  C  C243  1  0.071100  0.052200  0.210100  1.0  0.2075
  C  C244  1  0.505200  0.372400  0.163500  1.0  -0.1066
  C  C245  1  0.928900  0.552200  0.789900  1.0  0.2093
  C  C246  1  0.982200  0.325600  0.708700  1.0  -0.1517
  C  C247  1  0.760500  0.815400  0.772400  1.0  -0.1289
  C  C248  1  0.676800  0.641000  0.321800  1.0  0.0246
  C  C249  1  0.971500  0.807200  0.671800  1.0  0.0172
  C  C250  1  0.988300  0.222100  0.632100  1.0  -0.0546
  C  C251  1  0.989900  0.691800  0.732400  1.0  -0.0819
  C  C252  1  0.270300  0.867400  0.272100  1.0  -0.103
  C  C253  1  0.457800  0.359400  0.733700  1.0  0.0333
  C  C254  1  0.736000  0.443200  0.225500  1.0  -0.1094
  C  C255  1  0.720600  0.296800  0.687000  1.0  -0.1296
  C  C256  1  0.034700  0.414600  0.391000  1.0  -0.147
  C  C257  1  0.999300  0.761100  0.727800  1.0  0.1687
  C  C258  1  0.283200  0.263700  0.182300  1.0  -0.132
  C  C259  1  0.434600  0.188900  0.331300  1.0  -0.1227
  C  C260  1  0.901100  0.605800  0.255000  1.0  -0.1306
  C  C261  1  0.366100  0.408100  0.436000  1.0  -0.13
  C  C262  1  0.974300  0.432800  0.777800  1.0  0.0103
  C  C263  1  0.839000  0.749500  0.211400  1.0  -0.1331
  C  C264  1  0.235400  0.142800  0.586600  1.0  0.1289
  C  C265  1  0.406700  0.370600  0.387900  1.0  -0.036
  C  C266  1  0.936500  0.026000  0.215400  1.0  -0.1353
  C  C267  1  0.915700  0.481200  0.786100  1.0  -0.2069
  C  C268  1  0.196500  0.084400  0.220900  1.0  0.0837
  C  C269  1  0.747500  0.192900  0.326700  1.0  -0.1335
  C  C270  1  0.005700  0.574500  0.785500  1.0  -0.045
  C  C271  1  0.176800  0.641000  0.178200  1.0  0.0256
  C  C272  1  0.228200  0.888700  0.727800  1.0  -0.1426
  C  C273  1  0.961400  0.256900  0.694600  1.0  0.0945
  C  C274  1  0.436500  0.026000  0.284600  1.0  -0.1369
  C  C275  1  0.164500  0.405300  0.584000  1.0  0.2179
  C  C276  1  0.889800  0.303400  0.123800  1.0  0.0056
  C  C277  1  0.322400  0.925000  0.289400  1.0  0.0876
  C  C278  1  0.582800  0.282500  0.126800  1.0  0.105
  C  C279  1  0.610000  0.754400  0.289300  1.0  0.2662
  C  C280  1  0.835500  0.905300  0.416000  1.0  0.2188
  C  C281  1  0.229700  0.367400  0.772100  1.0  -0.1047
  C  C282  1  0.408700  0.320500  0.691100  1.0  -0.1516
  C  C283  1  0.339000  0.749500  0.288600  1.0  -0.1327
  C  C284  1  0.739500  0.315400  0.272400  1.0  -0.1296
  C  C285  1  0.716800  0.763700  0.817700  1.0  -0.1355
  C  C286  1  0.025700  0.932800  0.222200  1.0  0.0103
  C  C287  1  0.835900  0.212700  0.834800  1.0  -0.0929
  C  C288  1  0.949200  0.164400  0.604700  1.0  -0.1191
  C  C289  1  0.171300  0.774600  0.912000  1.0  0.1571
  C  C290  1  0.335900  0.212700  0.665200  1.0  -0.0931
  C  C291  1  0.696500  0.084400  0.279100  1.0  0.0852
  C  C292  1  0.694800  0.878100  0.532200  1.0  0.127
  C  C293  1  0.063500  0.526000  0.784600  1.0  -0.1374
  C  C294  1  0.591500  0.131600  0.686300  1.0  -0.1227
  C  C295  1  0.465200  0.550200  0.234400  1.0  -0.3275
  C  C296  1  0.444000  0.744800  0.099700  1.0  0.1354
  C  C297  1  0.525700  0.932800  0.277800  1.0  0.0121
  C  C298  1  0.720400  0.127300  0.074900  1.0  0.1872
  C  C299  1  0.065400  0.688900  0.831300  1.0  -0.1239
  C  C300  1  0.494800  0.872400  0.836500  1.0  -0.1067
  C  C301  1  0.994300  0.074500  0.214500  1.0  -0.0494
  C  C302  1  0.752500  0.692900  0.826700  1.0  -0.1308
  C  C303  1  0.461400  0.256900  0.805400  1.0  0.0946
  C  C304  1  0.728200  0.888700  0.772200  1.0  -0.144
  C  C305  1  0.471500  0.807200  0.828200  1.0  0.0175
  C  C306  1  0.070400  0.758900  0.825900  1.0  0.2551
  C  C307  1  0.822400  0.925000  0.210600  1.0  0.0884
  C  C308  1  0.303500  0.584400  0.720900  1.0  0.0836
  C  C309  1  0.161000  0.249500  0.788600  1.0  -0.1328
  C  C310  1  0.740400  0.148800  0.260800  1.0  -0.1248
  C  C311  1  0.048900  0.457300  0.780800  1.0  0.1936
  C  C312  1  0.417200  0.782500  0.873200  1.0  0.1066
  C  C313  1  0.401100  0.605800  0.245000  1.0  -0.1303
  C  C314  1  0.034800  0.050200  0.734400  1.0  -0.3253
  C  C315  1  0.511700  0.722100  0.132100  1.0  -0.0558
  C  C316  1  0.017700  0.652800  0.782900  1.0  0.0158
  C  C317  1  0.239500  0.315400  0.227600  1.0  -0.1259
  C  C318  1  0.779400  0.796800  0.187000  1.0  -0.1288
  C  C319  1  0.660600  0.454500  0.255100  1.0  -0.36
  C  C320  1  0.010100  0.191800  0.267600  1.0  -0.0813
  C  C321  1  0.216800  0.763700  0.682300  1.0  -0.133
  C  C322  1  0.247500  0.192900  0.173300  1.0  -0.1307
  C  C323  1  0.664500  0.405300  0.916000  1.0  0.2174
  C  C324  1  0.548900  0.457300  0.719200  1.0  0.1928
  C  C325  1  0.275300  0.105400  0.638500  1.0  -0.1404
  C  C326  1  0.017800  0.825600  0.291300  1.0  -0.1527
  C  C327  1  0.539500  0.163600  0.985400  1.0  0.1433
  C  C328  1  0.042200  0.859400  0.233700  1.0  0.0331
  C  C329  1  0.610200  0.803400  0.623800  1.0  0.007
  C  C330  1  0.779600  0.627300  0.574900  1.0  0.1873
  C  C331  1  0.542200  0.859400  0.266300  1.0  0.033
  C  C332  1  0.343100  0.683900  0.329100  1.0  -0.1319
  C  C333  1  0.489900  0.691800  0.767600  1.0  -0.0815
  C  C334  1  0.056000  0.244800  0.599700  1.0  0.1349
  C  C335  1  0.335500  0.905300  0.084000  1.0  0.2188
  C  C336  1  0.783200  0.263700  0.317700  1.0  -0.1324
  C  C337  1  0.556000  0.244800  0.900300  1.0  0.1358
  C  C338  1  0.328700  0.274600  0.412000  1.0  0.1568
  C  C339  1  0.091500  0.131600  0.813700  1.0  -0.127
  C  C340  1  0.091300  0.820500  0.191100  1.0  -0.1493
  C  C341  1  0.534700  0.414600  0.109000  1.0  -0.1441
  C  C342  1  0.528500  0.307200  0.171800  1.0  0.0184
  C  C343  1  0.093700  0.383600  0.432100  1.0  0.1497
  C  C344  1  0.805200  0.378100  0.032200  1.0  0.1268
  C  C345  1  0.093300  0.870600  0.887900  1.0  -0.0331
  C  C346  1  0.194800  0.878100  0.967800  1.0  0.1273
  C  C347  1  0.488300  0.222100  0.867900  1.0  -0.0561
  C  C348  1  0.656900  0.183900  0.670900  1.0  -0.1278
  C  C349  1  0.429600  0.258900  0.325900  1.0  0.2544
  C  C350  1  0.965200  0.550200  0.265600  1.0  -0.3274
  C  C351  1  0.982300  0.152800  0.217100  1.0  0.0164
  C  C352  1  0.593300  0.870600  0.612100  1.0  -0.0374
  C  C353  1  0.792600  0.245100  0.883400  1.0  0.1087
  C  C354  1  0.460500  0.663600  0.014600  1.0  0.1431
  C  C355  1  0.449200  0.164400  0.895300  1.0  -0.1185
  C  C356  1  0.843100  0.683900  0.170900  1.0  -0.1284
  C  C357  1  0.571100  0.052200  0.289900  1.0  0.2081
  C  C358  1  0.220400  0.127300  0.425100  1.0  0.1875
  C  C359  1  0.866100  0.408100  0.064000  1.0  -0.1311
  C  C360  1  0.038600  0.756900  0.305400  1.0  0.0945
  C  C361  1  0.279600  0.627300  0.925100  1.0  0.1877
  C  C362  1  0.428900  0.552200  0.710100  1.0  0.2085
  C  C363  1  0.236000  0.443200  0.274500  1.0  -0.1106
  C  C364  1  0.339400  0.954500  0.744900  1.0  -0.3626
  C  C365  1  0.259600  0.648800  0.739200  1.0  -0.1267
  C  C366  1  0.323200  0.141000  0.678200  1.0  0.0269
  C  C367  1  0.661000  0.249500  0.711400  1.0  -0.133
  C  C368  1  0.973300  0.137400  0.543600  1.0  -0.1158
  C  C369  1  0.839400  0.954500  0.755100  1.0  -0.3613
  C  C370  1  0.565400  0.688900  0.668700  1.0  -0.1231
  C  C371  1  0.957800  0.359400  0.766300  1.0  0.0329
  C  C372  1  0.050800  0.664400  0.395300  1.0  -0.1185
  C  C373  1  0.240400  0.148800  0.239200  1.0  -0.1263
  C  C374  1  0.759600  0.648800  0.760800  1.0  -0.1245
  C  C375  1  0.510100  0.191800  0.232400  1.0  -0.0818
  C  C376  1  0.415700  0.481200  0.713900  1.0  -0.2068
  C  C377  1  0.084300  0.981200  0.213900  1.0  -0.2069
  C  C378  1  0.260500  0.815400  0.727600  1.0  -0.1283
  C  C379  1  0.473300  0.137400  0.956400  1.0  -0.1147
  C  C380  1  0.764000  0.943200  0.725500  1.0  -0.1098
  C  C381  1  0.944000  0.744800  0.400300  1.0  0.1351
  C  C382  1  0.770300  0.867400  0.227900  1.0  -0.1021
  C  C383  1  0.917200  0.782500  0.626800  1.0  0.1072
  C  C384  1  0.828700  0.274600  0.088000  1.0  0.1557
  C  C385  1  0.026700  0.637400  0.456400  1.0  -0.1119
  C  C386  1  0.494300  0.074500  0.285500  1.0  -0.0464
  C  C387  1  0.960500  0.663600  0.485400  1.0  0.1436
  C  C388  1  0.499300  0.761100  0.772200  1.0  0.1688
  C  C389  1  0.160600  0.454500  0.244900  1.0  -0.3614
  C  C390  1  0.906700  0.370600  0.112100  1.0  -0.0369
  C  C391  1  0.633900  0.908100  0.564000  1.0  -0.1265
  C  C392  1  0.098900  0.105800  0.745000  1.0  -0.1308
  C  C393  1  0.505700  0.574500  0.714500  1.0  -0.0479
  C  C394  1  0.177600  0.425000  0.789400  1.0  0.0875
  C  C395  1  0.538600  0.756900  0.194600  1.0  0.0958
  C  C396  1  0.517800  0.825600  0.208700  1.0  -0.152
  C  C397  1  0.593700  0.383600  0.067900  1.0  0.1494
  C  C398  1  0.264000  0.943200  0.774500  1.0  -0.1118
  C  C399  1  0.929600  0.258900  0.174100  1.0  0.2546
  C  C400  1  0.406300  0.883600  0.932100  1.0  0.15
  C  C401  1  0.951100  0.957300  0.219200  1.0  0.1924
  C  C402  1  0.994800  0.872400  0.663500  1.0  -0.1061
  C  C403  1  0.906300  0.883600  0.567900  1.0  0.1492
  C  C404  1  0.823200  0.141000  0.821800  1.0  0.0256
  C  C405  1  0.570400  0.758900  0.674100  1.0  0.2543
  C  C406  1  0.764600  0.642800  0.413400  1.0  0.1295
  C  C407  1  0.724700  0.605400  0.361500  1.0  -0.1369
  C  C408  1  0.389800  0.303400  0.376200  1.0  0.009
  C  C409  1  0.011700  0.722100  0.367900  1.0  -0.0572
  C  C410  1  0.271800  0.388700  0.227800  1.0  -0.1415
  C  C411  1  0.164100  0.712700  0.165200  1.0  -0.0934
  C  C412  1  0.000700  0.261100  0.272200  1.0  0.1689
  C  C413  1  0.965300  0.914600  0.609000  1.0  -0.1485
  C  C414  1  0.707400  0.745100  0.383400  1.0  0.109
  C  C415  1  0.729700  0.367400  0.727900  1.0  -0.1043
  C  C416  1  0.771800  0.388700  0.272200  1.0  -0.1424
  C  C417  1  0.474300  0.432800  0.722200  1.0  0.011
  C  C418  1  0.550800  0.664400  0.104700  1.0  -0.1176
  C  C419  1  0.005200  0.372400  0.336500  1.0  -0.1093
  C  C420  1  0.156900  0.183900  0.829100  1.0  -0.1277
  C  C421  1  0.451100  0.957300  0.280800  1.0  0.1933
  C  C422  1  0.598900  0.105800  0.755000  1.0  -0.1303
  C  C423  1  0.482200  0.325600  0.791300  1.0  -0.1529
  C  C424  1  0.735400  0.142800  0.913400  1.0  0.1308
  C  C425  1  0.671300  0.774600  0.588000  1.0  0.1556
  C  C426  1  0.803500  0.584400  0.779100  1.0  0.0842
  C  C427  1  0.775300  0.105400  0.861500  1.0  -0.1376
  C  C428  1  0.890000  0.254400  0.789300  1.0  0.2665
  C  C429  1  0.591300  0.820500  0.308900  1.0  -0.1509
  C  C430  1  0.207400  0.745100  0.116600  1.0  0.1095
  C  C431  1  0.252500  0.692900  0.673300  1.0  -0.1308
  C  C432  1  0.563500  0.526000  0.715400  1.0  -0.1366
  C  C433  1  0.500700  0.261100  0.227800  1.0  0.1685
  C  C434  1  0.465300  0.914600  0.891000  1.0  -0.1429
  C  C435  1  0.934600  0.188900  0.168700  1.0  -0.123
  C  C436  1  0.133900  0.908100  0.936000  1.0  -0.1274
  C  C437  1  0.305200  0.378100  0.467800  1.0  0.1274
  C  C438  1  0.908500  0.631600  0.186300  1.0  -0.1221
  C  C439  1  0.482300  0.152800  0.282900  1.0  0.0162
  C  C440  1  0.390000  0.254400  0.710700  1.0  0.2653
  C  C441  1  0.224700  0.605400  0.138500  1.0  -0.1395
  C  C442  1  0.534800  0.050200  0.765600  1.0  -0.3258
  C  C443  1  0.584300  0.981200  0.286100  1.0  -0.2065
  C  C444  1  0.279400  0.796800  0.313000  1.0  -0.1362
  S  S445  1  0.271420  0.054950  0.406110  1.0  -0.3557
  S  S446  1  0.728580  0.554950  0.593890  1.0  -0.3533
  S  S447  1  0.228580  0.554950  0.906110  1.0  -0.358
  S  S448  1  0.647590  0.486110  0.885760  1.0  -0.3657
  S  S449  1  0.352410  0.986110  0.114240  1.0  -0.3653
  S  S450  1  0.147590  0.486110  0.614240  1.0  -0.3652
  S  S451  1  0.852410  0.986110  0.385760  1.0  -0.3656
  S  S452  1  0.771420  0.054950  0.093890  1.0  -0.3513
  N  N453  1  0.387800  0.818400  0.924500  1.0  -0.3049
  N  N454  1  0.808400  0.676700  0.560700  1.0  -0.4276
  N  N455  1  0.612200  0.318400  0.075500  1.0  -0.3043
  N  N456  1  0.244200  0.208600  0.577600  1.0  -0.3104
  N  N457  1  0.913900  0.221000  0.736800  1.0  -0.4458
  N  N458  1  0.887800  0.818400  0.575500  1.0  -0.3053
  N  N459  1  0.539300  0.797900  0.723400  1.0  -0.4947
  N  N460  1  0.586100  0.721000  0.236800  1.0  -0.4411
  N  N461  1  0.327200  0.851400  0.065700  1.0  -0.4125
  N  N462  1  0.920100  0.717900  0.456600  1.0  -0.3488
  N  N463  1  0.191600  0.176700  0.439300  1.0  -0.4275
  N  N464  1  0.744200  0.208600  0.922400  1.0  -0.3113
  N  N465  1  0.172800  0.351400  0.565700  1.0  -0.4132
  N  N466  1  0.079900  0.217900  0.543400  1.0  -0.3479
  N  N467  1  0.413900  0.221000  0.763200  1.0  -0.4451
  N  N468  1  0.960700  0.297900  0.223400  1.0  -0.4896
  N  N469  1  0.284000  0.310800  0.455000  1.0  -0.3447
  N  N470  1  0.755800  0.708600  0.422400  1.0  -0.3083
  N  N471  1  0.039300  0.797900  0.776600  1.0  -0.4937
  N  N472  1  0.691600  0.176700  0.060700  1.0  -0.4278
  N  N473  1  0.216000  0.810800  0.955000  1.0  -0.3448
  N  N474  1  0.579900  0.217900  0.956600  1.0  -0.3502
  N  N475  1  0.255800  0.708600  0.077600  1.0  -0.3088
  N  N476  1  0.460700  0.297900  0.276600  1.0  -0.4941
  N  N477  1  0.420100  0.717900  0.043400  1.0  -0.3487
  N  N478  1  0.672800  0.351400  0.934300  1.0  -0.4139
  N  N479  1  0.086100  0.721000  0.263200  1.0  -0.445
  N  N480  1  0.112200  0.318400  0.424500  1.0  -0.3043
  N  N481  1  0.716000  0.810800  0.545000  1.0  -0.3461
  N  N482  1  0.308400  0.676700  0.939300  1.0  -0.4274
  N  N483  1  0.784000  0.310800  0.045000  1.0  -0.3451
  N  N484  1  0.827200  0.851400  0.434300  1.0  -0.4134
  O  O485  1  0.622200  0.102000  0.293100  1.0  -0.3024
  O  O486  1  0.397500  0.906500  0.273200  1.0  -0.2592
  O  O487  1  0.897500  0.906500  0.226800  1.0  -0.2596
  O  O488  1  0.877800  0.602000  0.793100  1.0  -0.3009
  O  O489  1  0.602500  0.406500  0.726800  1.0  -0.2593
  O  O490  1  0.102500  0.406500  0.773200  1.0  -0.2592
  O  O491  1  0.377800  0.602000  0.706900  1.0  -0.3019
  O  O492  1  0.122200  0.102000  0.206900  1.0  -0.3022
