# generated using pymatgen
data_U2CuH18C24N4O15
_symmetry_space_group_name_H-M   'P 1'
_cell_length_a   16.60170000
_cell_length_b   17.40950000
_cell_length_c   25.51330000
_cell_angle_alpha   90.00000000
_cell_angle_beta   90.00000000
_cell_angle_gamma   90.00000000
_symmetry_Int_Tables_number   1
_chemical_formula_structural   U2CuH18C24N4O15
_chemical_formula_sum   'U16 Cu8 H144 C192 N32 O120'
_cell_volume   7374.04011486
_cell_formula_units_Z   8
loop_
 _symmetry_equiv_pos_site_id
 _symmetry_equiv_pos_as_xyz
  1  'x, y, z'
loop_
 _atom_site_type_symbol
 _atom_site_label
 _atom_site_symmetry_multiplicity
 _atom_site_fract_x
 _atom_site_fract_y
 _atom_site_fract_z
 _atom_site_occupancy
 _atom_site_charge
  U  U1  1  0.994350  0.752180  0.247760  1.0  2.7787
  U  U2  1  0.222320  0.286350  0.175690  1.0  2.8174
  U  U3  1  0.005650  0.252180  0.252240  1.0  2.7788
  U  U4  1  0.928430  0.228040  0.745410  1.0  2.6918
  U  U5  1  0.215360  0.214140  0.309400  1.0  2.7345
  U  U6  1  0.715360  0.285860  0.690600  1.0  2.7358
  U  U7  1  0.784640  0.714140  0.190600  1.0  2.7348
  U  U8  1  0.428430  0.271960  0.254590  1.0  2.6924
  U  U9  1  0.505650  0.247820  0.747760  1.0  2.7813
  U  U10  1  0.277680  0.713650  0.675690  1.0  2.8175
  U  U11  1  0.494350  0.747820  0.752240  1.0  2.7772
  U  U12  1  0.571570  0.771960  0.245410  1.0  2.692
  U  U13  1  0.284640  0.785860  0.809400  1.0  2.7361
  U  U14  1  0.777680  0.786350  0.324310  1.0  2.8169
  U  U15  1  0.071570  0.728040  0.754590  1.0  2.6922
  U  U16  1  0.722320  0.213650  0.824310  1.0  2.817
  Cu  Cu17  1  0.751780  0.640760  0.427250  1.0  0.7599
  Cu  Cu18  1  0.251780  0.859240  0.572750  1.0  0.7599
  Cu  Cu19  1  0.284990  0.639750  0.914820  1.0  0.7828
  Cu  Cu20  1  0.784990  0.860250  0.085180  1.0  0.7852
  Cu  Cu21  1  0.715010  0.139750  0.585180  1.0  0.7841
  Cu  Cu22  1  0.748220  0.359240  0.927250  1.0  0.7596
  Cu  Cu23  1  0.248220  0.140760  0.072750  1.0  0.76
  Cu  Cu24  1  0.215010  0.360250  0.414820  1.0  0.7814
  H  H25  1  0.892500  0.377400  0.854500  1.0  0.0879
  H  H26  1  0.267900  0.493300  0.953100  1.0  0.1121
  H  H27  1  0.107500  0.877400  0.645500  1.0  0.089
  H  H28  1  0.531800  0.141400  0.141300  1.0  0.1243
  H  H29  1  0.408200  0.911100  0.621200  1.0  0.0908
  H  H30  1  0.943600  0.661000  0.591700  1.0  0.1152
  H  H31  1  0.462300  0.697300  0.072600  1.0  0.1278
  H  H32  1  0.237500  0.078600  0.704100  1.0  0.0996
  H  H33  1  0.894700  0.170900  0.419700  1.0  0.1063
  H  H34  1  0.047400  0.401100  0.368500  1.0  0.074
  H  H35  1  0.186600  0.676100  0.005600  1.0  0.1171
  H  H36  1  0.732100  0.993300  0.546900  1.0  0.1112
  H  H37  1  0.696600  0.834900  0.652100  1.0  0.0615
  H  H38  1  0.273600  0.790600  0.046400  1.0  0.0905
  H  H39  1  0.734900  0.792100  0.562500  1.0  0.0897
  H  H40  1  0.234900  0.707900  0.437500  1.0  0.0903
  H  H41  1  0.100800  0.615200  0.578200  1.0  0.1203
  H  H42  1  0.762500  0.578600  0.795900  1.0  0.1
  H  H43  1  0.555800  0.350000  0.571800  1.0  0.0828
  H  H44  1  0.317500  0.421700  0.783300  1.0  0.1139
  H  H45  1  0.682500  0.921700  0.716700  1.0  0.1138
  H  H46  1  0.468200  0.641400  0.358700  1.0  0.1242
  H  H47  1  0.537700  0.197300  0.427400  1.0  0.127
  H  H48  1  0.874900  0.082200  0.627900  1.0  0.1009
  H  H49  1  0.240100  0.589400  0.504700  1.0  0.1776
  H  H50  1  0.952600  0.901100  0.131500  1.0  0.0726
  H  H51  1  0.544000  0.401700  0.482300  1.0  0.1118
  H  H52  1  0.037700  0.302700  0.572600  1.0  0.128
  H  H53  1  0.767900  0.006700  0.046900  1.0  0.1119
  H  H54  1  0.767600  0.672500  0.859800  1.0  0.1317
  H  H55  1  0.259900  0.410600  0.004700  1.0  0.1785
  H  H56  1  0.232400  0.172500  0.640200  1.0  0.1319
  H  H57  1  0.547400  0.098900  0.631500  1.0  0.0732
  H  H58  1  0.231100  0.009400  0.530700  1.0  0.1434
  H  H59  1  0.090400  0.332000  0.937800  1.0  0.1105
  H  H60  1  0.112600  0.334400  0.505200  1.0  0.1032
  H  H61  1  0.039100  0.562000  0.403700  1.0  0.1224
  H  H62  1  0.394700  0.329100  0.580300  1.0  0.1051
  H  H63  1  0.443600  0.839000  0.408300  1.0  0.1148
  H  H64  1  0.817800  0.949400  0.187200  1.0  0.0734
  H  H65  1  0.928000  0.797800  0.467000  1.0  0.1063
  H  H66  1  0.444200  0.850000  0.928200  1.0  0.0824
  H  H67  1  0.740100  0.910600  0.495300  1.0  0.1784
  H  H68  1  0.765100  0.207900  0.062500  1.0  0.09
  H  H69  1  0.072000  0.297800  0.033000  1.0  0.1086
  H  H70  1  0.241000  0.946600  0.679700  1.0  0.1144
  H  H71  1  0.141600  0.156400  0.980800  1.0  0.0718
  H  H72  1  0.374900  0.417800  0.372100  1.0  0.1012
  H  H73  1  0.358400  0.843600  0.480800  1.0  0.0718
  H  H74  1  0.456000  0.901700  0.017700  1.0  0.1118
  H  H75  1  0.731100  0.490600  0.469300  1.0  0.1414
  H  H76  1  0.962300  0.802700  0.927400  1.0  0.1281
  H  H77  1  0.317800  0.550600  0.812800  1.0  0.0742
  H  H78  1  0.182200  0.449400  0.312800  1.0  0.0745
  H  H79  1  0.267600  0.827500  0.140200  1.0  0.132
  H  H80  1  0.914600  0.402900  0.394100  1.0  0.118
  H  H81  1  0.497800  0.924800  0.103800  1.0  0.0952
  H  H82  1  0.968200  0.858600  0.641300  1.0  0.1242
  H  H83  1  0.460900  0.438000  0.903700  1.0  0.1221
  H  H84  1  0.944200  0.650000  0.071800  1.0  0.0833
  H  H85  1  0.813400  0.176100  0.494400  1.0  0.116
  H  H86  1  0.585400  0.597100  0.894100  1.0  0.1178
  H  H87  1  0.196600  0.665100  0.347900  1.0  0.0606
  H  H88  1  0.268900  0.990600  0.030700  1.0  0.1426
  H  H89  1  0.056400  0.161000  0.908300  1.0  0.1143
  H  H90  1  0.432900  0.179000  0.919200  1.0  0.0993
  H  H91  1  0.741000  0.553400  0.320300  1.0  0.1139
  H  H92  1  0.873300  0.335600  0.005700  1.0  0.0907
  H  H93  1  0.858400  0.656400  0.519200  1.0  0.0721
  H  H94  1  0.682200  0.050600  0.687200  1.0  0.0737
  H  H95  1  0.105300  0.670900  0.080300  1.0  0.107
  H  H96  1  0.909600  0.832000  0.562200  1.0  0.1106
  H  H97  1  0.887400  0.834400  0.994800  1.0  0.1023
  H  H98  1  0.570600  0.921900  0.505100  1.0  0.0847
  H  H99  1  0.389300  0.127300  0.518500  1.0  0.0854
  H  H100  1  0.932900  0.321000  0.080800  1.0  0.099
  H  H101  1  0.125100  0.582200  0.872100  1.0  0.1009
  H  H102  1  0.031800  0.358600  0.858700  1.0  0.1248
  H  H103  1  0.899200  0.115200  0.921800  1.0  0.1194
  H  H104  1  0.282700  0.909700  0.976600  1.0  0.1577
  H  H105  1  0.889300  0.372700  0.481500  1.0  0.0857
  H  H106  1  0.773600  0.709400  0.953600  1.0  0.0916
  H  H107  1  0.399200  0.384800  0.078200  1.0  0.1204
  H  H108  1  0.737500  0.421400  0.295900  1.0  0.0986
  H  H109  1  0.409600  0.668000  0.437800  1.0  0.1103
  H  H110  1  0.055800  0.150000  0.428200  1.0  0.0833
  H  H111  1  0.392500  0.122600  0.145500  1.0  0.0885
  H  H112  1  0.217300  0.090300  0.476600  1.0  0.1573
  H  H113  1  0.997800  0.575200  0.896200  1.0  0.0952
  H  H114  1  0.686600  0.823900  0.994400  1.0  0.1164
  H  H115  1  0.732400  0.327500  0.359800  1.0  0.1318
  H  H116  1  0.817500  0.078300  0.216700  1.0  0.1124
  H  H117  1  0.110700  0.872700  0.018500  1.0  0.0859
  H  H118  1  0.085400  0.902900  0.105900  1.0  0.1177
  H  H119  1  0.726400  0.290600  0.453600  1.0  0.0896
  H  H120  1  0.182500  0.578300  0.283300  1.0  0.1131
  H  H121  1  0.313400  0.323900  0.505600  1.0  0.1168
  H  H122  1  0.717300  0.409700  0.523400  1.0  0.1581
  H  H123  1  0.556400  0.339000  0.091700  1.0  0.1141
  H  H124  1  0.428000  0.702200  0.533000  1.0  0.1064
  H  H125  1  0.607500  0.622600  0.354500  1.0  0.0887
  H  H126  1  0.373300  0.164400  0.994300  1.0  0.0908
  H  H127  1  0.956000  0.598300  0.982300  1.0  0.1118
  H  H128  1  0.600800  0.884800  0.421800  1.0  0.1197
  H  H129  1  0.502200  0.424800  0.396200  1.0  0.0958
  H  H130  1  0.626700  0.664400  0.505700  1.0  0.0905
  H  H131  1  0.126700  0.835600  0.494300  1.0  0.0912
  H  H132  1  0.232100  0.506700  0.453100  1.0  0.1121
  H  H133  1  0.782700  0.590300  0.023400  1.0  0.1588
  H  H134  1  0.803400  0.165100  0.152100  1.0  0.0619
  H  H135  1  0.612600  0.165600  0.494800  1.0  0.1025
  H  H136  1  0.091800  0.088900  0.121200  1.0  0.0905
  H  H137  1  0.572000  0.202200  0.967000  1.0  0.1071
  H  H138  1  0.226400  0.209400  0.546400  1.0  0.0914
  H  H139  1  0.452600  0.598900  0.868500  1.0  0.074
  H  H140  1  0.067100  0.821000  0.419200  1.0  0.0973
  H  H141  1  0.259000  0.053400  0.179700  1.0  0.1139
  H  H142  1  0.960900  0.062000  0.096300  1.0  0.1226
  H  H143  1  0.414600  0.097100  0.605900  1.0  0.1179
  H  H144  1  0.591800  0.411100  0.878800  1.0  0.0907
  H  H145  1  0.429400  0.421900  0.994900  1.0  0.0849
  H  H146  1  0.262500  0.921400  0.204100  1.0  0.0987
  H  H147  1  0.929400  0.078100  0.005100  1.0  0.0849
  H  H148  1  0.605300  0.829100  0.919700  1.0  0.1062
  H  H149  1  0.625700  0.660800  0.072900  1.0  0.1079
  H  H150  1  0.374300  0.160800  0.427100  1.0  0.1073
  H  H151  1  0.303400  0.334900  0.847900  1.0  0.0603
  H  H152  1  0.641600  0.343600  0.019200  1.0  0.0705
  H  H153  1  0.625100  0.917800  0.127900  1.0  0.1007
  H  H154  1  0.044000  0.098300  0.517700  1.0  0.1123
  H  H155  1  0.125700  0.839200  0.927100  1.0  0.107
  H  H156  1  0.002200  0.075200  0.603800  1.0  0.0951
  H  H157  1  0.265100  0.292100  0.937500  1.0  0.0893
  H  H158  1  0.070600  0.578100  0.494900  1.0  0.0849
  H  H159  1  0.908200  0.588900  0.378800  1.0  0.091
  H  H160  1  0.567100  0.679000  0.580800  1.0  0.0978
  H  H161  1  0.759000  0.446600  0.820300  1.0  0.1147
  H  H162  1  0.590400  0.168000  0.062200  1.0  0.1104
  H  H163  1  0.768900  0.509400  0.969300  1.0  0.1415
  H  H164  1  0.610700  0.627300  0.981500  1.0  0.0852
  H  H165  1  0.387400  0.665600  0.005200  1.0  0.1028
  H  H166  1  0.539100  0.938000  0.596300  1.0  0.1225
  H  H167  1  0.759900  0.089400  0.995300  1.0  0.1778
  H  H168  1  0.874300  0.339200  0.572900  1.0  0.1077
  C  C169  1  0.194700  0.487700  0.336800  1.0  0.1478
  C  C170  1  0.852400  0.151700  0.514600  1.0  0.1089
  C  C171  1  0.240400  0.641500  0.496700  1.0  -0.0861
  C  C172  1  0.233200  0.120800  0.631000  1.0  -0.07
  C  C173  1  0.000400  0.354000  0.888700  1.0  -0.1334
  C  C174  1  0.534800  0.162800  0.064700  1.0  -0.118
  C  C175  1  0.578000  0.680100  0.086700  1.0  -0.1648
  C  C176  1  0.110900  0.598000  0.905700  1.0  0.1668
  C  C177  1  0.012200  0.810600  0.420700  1.0  -0.0516
  C  C178  1  0.491600  0.177900  0.443200  1.0  -0.0754
  C  C179  1  0.766800  0.620800  0.869000  1.0  -0.0664
  C  C180  1  0.275100  0.842000  0.036600  1.0  -0.1548
  C  C181  1  0.014100  0.141700  0.928200  1.0  -0.0703
  C  C182  1  0.104500  0.134200  0.003500  1.0  0.0748
  C  C183  1  0.035500  0.592000  0.920700  1.0  -0.0776
  C  C184  1  0.723300  0.978800  0.581600  1.0  0.1297
  C  C185  1  0.068900  0.641000  0.005200  1.0  -0.0125
  C  C186  1  0.508500  0.892100  0.028600  1.0  -0.1407
  C  C187  1  0.749200  0.806800  0.457900  1.0  0.6089
  C  C188  1  0.077900  0.789700  0.863300  1.0  0.7548
  C  C189  1  0.406000  0.161600  0.023800  1.0  0.1477
  C  C190  1  0.610900  0.902000  0.094300  1.0  0.167
  C  C191  1  0.211100  0.195300  0.444500  1.0  0.7321
  C  C192  1  0.594000  0.661600  0.476200  1.0  0.1536
  C  C193  1  0.058400  0.661000  0.061600  1.0  -0.0693
  C  C194  1  0.691400  0.935300  0.681900  1.0  -0.1517
  C  C195  1  0.955700  0.389700  0.417200  1.0  -0.1503
  C  C196  1  0.422000  0.180100  0.413300  1.0  -0.1658
  C  C197  1  0.982300  0.810900  0.466300  1.0  -0.0946
  C  C198  1  0.443000  0.363600  0.095600  1.0  -0.1979
  C  C199  1  0.455700  0.110300  0.582800  1.0  -0.1494
  C  C200  1  0.604500  0.365800  0.996500  1.0  0.0747
  C  C201  1  0.766800  0.156800  0.051800  1.0  -0.1416
  C  C202  1  0.989000  0.694700  0.136600  1.0  0.4872
  C  C203  1  0.019500  0.591300  0.482900  1.0  -0.1157
  C  C204  1  0.035300  0.386700  0.402700  1.0  0.1765
  C  C205  1  0.423500  0.904200  0.586400  1.0  0.2247
  C  C206  1  0.076500  0.095800  0.086400  1.0  0.225
  C  C207  1  0.788900  0.695300  0.055500  1.0  0.7336
  C  C208  1  0.202400  0.613300  0.356000  1.0  -0.0899
  C  C209  1  0.515300  0.672500  0.481800  1.0  0.0105
  C  C210  1  0.906000  0.338400  0.976200  1.0  0.1483
  C  C211  1  0.008200  0.166300  0.412500  1.0  -0.1285
  C  C212  1  0.499000  0.420600  0.927600  1.0  -0.1675
  C  C213  1  0.733200  0.843200  0.551800  1.0  -0.1406
  C  C214  1  0.191400  0.564700  0.318100  1.0  -0.155
  C  C215  1  0.501600  0.148500  0.497200  1.0  0.0972
  C  C216  1  0.577900  0.710300  0.136700  1.0  0.751
  C  C217  1  0.762800  0.564900  0.831100  1.0  -0.0961
  C  C218  1  0.249200  0.693200  0.542100  1.0  0.6084
  C  C219  1  0.558000  0.628600  0.969100  1.0  -0.0715
  C  C220  1  0.733200  0.379200  0.369000  1.0  -0.0674
  C  C221  1  0.464500  0.408000  0.420700  1.0  -0.075
  C  C222  1  0.415900  0.136300  0.113800  1.0  0.1545
  C  C223  1  0.147600  0.651700  0.985400  1.0  0.109
  C  C224  1  0.266800  0.343200  0.948200  1.0  -0.1404
  C  C225  1  0.724900  0.342000  0.463400  1.0  -0.1557
  C  C226  1  0.740900  0.515300  0.345800  1.0  0.1206
  C  C227  1  0.980500  0.091300  0.017100  1.0  -0.1155
  C  C228  1  0.467100  0.880000  0.482900  1.0  0.1401
  C  C229  1  0.895500  0.634200  0.496500  1.0  0.0761
  C  C230  1  0.011000  0.194700  0.363400  1.0  0.4881
  C  C231  1  0.389100  0.402000  0.405700  1.0  0.1661
  C  C232  1  0.647600  0.848300  0.014600  1.0  0.1083
  C  C233  1  0.025500  0.296700  0.129200  1.0  0.5129
  C  C234  1  0.065000  0.662500  0.646200  1.0  0.7188
  C  C235  1  0.224900  0.158000  0.536600  1.0  -0.1552
  C  C236  1  0.259100  0.015300  0.154200  1.0  0.12
  C  C237  1  0.514100  0.358300  0.071800  1.0  -0.0685
  C  C238  1  0.001000  0.579400  0.427600  1.0  -0.1714
  C  C239  1  0.442000  0.128600  0.530900  1.0  -0.0682
  C  C240  1  0.721900  0.904600  0.592400  1.0  -0.0075
  C  C241  1  0.282200  0.858000  0.985800  1.0  -0.06
  C  C242  1  0.512200  0.689400  0.579300  1.0  -0.0563
  C  C243  1  0.998400  0.851500  0.997200  1.0  0.098
  C  C244  1  0.428000  0.650700  0.982300  1.0  0.0717
  C  C245  1  0.259600  0.358500  0.996700  1.0  -0.0878
  C  C246  1  0.544300  0.610300  0.917200  1.0  -0.1508
  C  C247  1  0.057000  0.636400  0.595600  1.0  -0.1859
  C  C248  1  0.221900  0.595400  0.407600  1.0  -0.0082
  C  C249  1  0.941600  0.161000  0.438400  1.0  -0.0741
  C  C250  1  0.991800  0.666300  0.087500  1.0  -0.1323
  C  C251  1  0.535500  0.908000  0.079300  1.0  -0.0781
  C  C252  1  0.233200  0.656800  0.448200  1.0  -0.1411
  C  C253  1  0.288900  0.804700  0.944500  1.0  0.7343
  C  C254  1  0.250800  0.306800  0.042100  1.0  0.6074
  C  C255  1  0.943000  0.136400  0.904400  1.0  -0.1973
  C  C256  1  0.034800  0.337200  0.935300  1.0  -0.1172
  C  C257  1  0.240900  0.984700  0.654200  1.0  0.1238
  C  C258  1  0.965200  0.837200  0.564700  1.0  -0.1157
  C  C259  1  0.084100  0.863700  0.613800  1.0  0.1535
  C  C260  1  0.464700  0.613300  0.902700  1.0  0.1765
  C  C261  1  0.987800  0.310600  0.079300  1.0  -0.0565
  C  C262  1  0.435000  0.337500  0.146200  1.0  0.7186
  C  C263  1  0.441600  0.339000  0.561600  1.0  -0.0725
  C  C264  1  0.431100  0.359000  0.505200  1.0  -0.0132
  C  C265  1  0.797600  0.113300  0.144000  1.0  -0.0899
  C  C266  1  0.964700  0.886700  0.097300  1.0  0.1786
  C  C267  1  0.808600  0.064700  0.181900  1.0  -0.1526
  C  C268  1  0.967100  0.620000  0.517100  1.0  0.1411
  C  C269  1  0.489000  0.805300  0.863400  1.0  0.4873
  C  C270  1  0.501000  0.920600  0.572400  1.0  -0.1682
  C  C271  1  0.730500  0.401200  0.421000  1.0  0.0392
  C  C272  1  0.474500  0.703300  0.629200  1.0  0.5115
  C  C273  1  0.422100  0.210300  0.363300  1.0  0.7522
  C  C274  1  0.915900  0.363700  0.886200  1.0  0.1527
  C  C275  1  0.217800  0.142000  0.485800  1.0  -0.0598
  C  C276  1  0.072000  0.349300  0.482300  1.0  0.0712
  C  C277  1  0.237200  0.064900  0.668900  1.0  -0.107
  C  C278  1  0.931100  0.141000  0.494800  1.0  -0.0112
  C  C279  1  0.776700  0.021200  0.081600  1.0  0.1302
  C  C280  1  0.015300  0.827500  0.518200  1.0  0.0115
  C  C281  1  0.737200  0.435100  0.331100  1.0  -0.1045
  C  C282  1  0.265400  0.976800  0.065800  1.0  0.0999
  C  C283  1  0.769500  0.598800  0.921000  1.0  0.0395
  C  C284  1  0.223300  0.521200  0.418400  1.0  0.1281
  C  C285  1  0.519500  0.908700  0.517100  1.0  -0.1169
  C  C286  1  0.480500  0.408700  0.982900  1.0  -0.1216
  C  C287  1  0.517700  0.189100  0.966300  1.0  -0.092
  C  C288  1  0.276700  0.478800  0.918400  1.0  0.1292
  C  C289  1  0.465200  0.662800  0.435300  1.0  -0.1186
  C  C290  1  0.805300  0.987700  0.163200  1.0  0.1455
  C  C291  1  0.717800  0.358000  0.514200  1.0  -0.0616
  C  C292  1  0.984700  0.327500  0.981800  1.0  0.0115
  C  C293  1  0.508400  0.677900  0.056800  1.0  -0.0722
  C  C294  1  0.734600  0.476800  0.434200  1.0  0.0975
  C  C295  1  0.525500  0.203300  0.870800  1.0  0.5147
  C  C296  1  0.576500  0.404200  0.913600  1.0  0.2242
  C  C297  1  0.775100  0.658000  0.963400  1.0  -0.1576
  C  C298  1  0.508200  0.333700  0.587500  1.0  -0.1296
  C  C299  1  0.008400  0.822100  0.943200  1.0  -0.0734
  C  C300  1  0.935000  0.162500  0.853800  1.0  0.7178
  C  C301  1  0.964500  0.092000  0.579300  1.0  -0.075
  C  C302  1  0.923500  0.595800  0.413600  1.0  0.2239
  C  C303  1  0.740400  0.858500  0.503300  1.0  -0.0891
  C  C304  1  0.928000  0.849300  0.017700  1.0  0.071
  C  C305  1  0.759100  0.484700  0.845800  1.0  0.1228
  C  C306  1  0.058000  0.871400  0.030900  1.0  -0.0677
  C  C307  1  0.487800  0.189400  0.920700  1.0  -0.0574
  C  C308  1  0.985900  0.641700  0.571800  1.0  -0.0716
  C  C309  1  0.498400  0.648500  0.002800  1.0  0.1016
  C  C310  1  0.308600  0.435300  0.818100  1.0  -0.1531
  C  C311  1  0.278100  0.404600  0.907600  1.0  -0.0079
  C  C312  1  0.765400  0.523200  0.934200  1.0  0.0977
  C  C313  1  0.889100  0.098000  0.594300  1.0  0.1675
  C  C314  1  0.032900  0.120000  0.982900  1.0  0.1391
  C  C315  1  0.491800  0.833700  0.912500  1.0  -0.128
  C  C316  1  0.999600  0.854000  0.611300  1.0  -0.135
  C  C317  1  0.565000  0.837500  0.353800  1.0  0.718
  C  C318  1  0.395500  0.865800  0.503500  1.0  0.0735
  C  C319  1  0.942000  0.371400  0.469100  1.0  -0.069
  C  C320  1  0.759600  0.141500  0.003300  1.0  -0.0872
  C  C321  1  0.008500  0.607900  0.971400  1.0  -0.1388
  C  C322  1  0.535300  0.113300  0.597300  1.0  0.179
  C  C323  1  0.297600  0.386700  0.856000  1.0  -0.0899
  C  C324  1  0.352400  0.348300  0.485400  1.0  0.1091
  C  C325  1  0.266800  0.879200  0.131000  1.0  -0.0662
  C  C326  1  0.922000  0.319900  0.586700  1.0  -0.1657
  C  C327  1  0.568900  0.859000  0.994800  1.0  -0.0134
  C  C328  1  0.269500  0.901200  0.079000  1.0  0.0388
  C  C329  1  0.044300  0.889700  0.082800  1.0  -0.1499
  C  C330  1  0.511000  0.305300  0.636600  1.0  0.4863
  C  C331  1  0.234600  0.023200  0.565800  1.0  0.1006
  C  C332  1  0.694700  0.012300  0.663200  1.0  0.1445
  C  C333  1  0.991600  0.322100  0.556800  1.0  -0.0731
  C  C334  1  0.484700  0.172500  0.018200  1.0  0.0117
  C  C335  1  0.558400  0.839000  0.938400  1.0  -0.0715
  C  C336  1  0.711100  0.304700  0.555500  1.0  0.7334
  C  C337  1  0.017700  0.310900  0.033700  1.0  -0.0924
  C  C338  1  0.974500  0.796700  0.370800  1.0  0.5136
  C  C339  1  0.991500  0.107900  0.528600  1.0  -0.137
  C  C340  1  0.262800  0.935100  0.168900  1.0  -0.1057
  C  C341  1  0.094000  0.838400  0.523800  1.0  0.1493
  C  C342  1  0.999000  0.079400  0.072400  1.0  -0.1687
  C  C343  1  0.532900  0.380000  0.017100  1.0  0.1393
  C  C344  1  0.782200  0.642000  0.014200  1.0  -0.0597
  C  C345  1  0.485900  0.858300  0.428200  1.0  -0.0699
  C  C346  1  0.491500  0.392100  0.471400  1.0  -0.1359
  C  C347  1  0.482300  0.689100  0.533700  1.0  -0.095
  C  C348  1  0.305300  0.512300  0.836800  1.0  0.1478
  C  C349  1  0.572000  0.150700  0.517700  1.0  0.0705
  C  C350  1  0.230500  0.098800  0.579000  1.0  0.0398
  C  C351  1  0.557000  0.863600  0.404400  1.0  -0.1861
  C  C352  1  0.078000  0.819900  0.913300  1.0  -0.1592
  C  C353  1  0.500400  0.146000  0.111300  1.0  -0.1319
  C  C354  1  0.922100  0.289700  0.636700  1.0  0.7527
  C  C355  1  0.778100  0.095400  0.092400  1.0  -0.0073
  C  C356  1  0.001600  0.351500  0.502800  1.0  0.1007
  C  C357  1  0.499600  0.646000  0.388700  1.0  -0.1361
  C  C358  1  0.584100  0.636300  0.386200  1.0  0.1536
  C  C359  1  0.750800  0.193200  0.957900  1.0  0.6078
  C  C360  1  0.702400  0.886700  0.644000  1.0  -0.0869
  N  N361  1  0.369700  0.145800  0.072600  1.0  -0.3289
  N  N362  1  0.287000  0.534400  0.883000  1.0  -0.2694
  N  N363  1  0.130300  0.854200  0.572600  1.0  -0.3292
  N  N364  1  0.244100  0.966100  0.603400  1.0  -0.3107
  N  N365  1  0.213000  0.465600  0.383000  1.0  -0.27
  N  N366  1  0.869700  0.354200  0.927400  1.0  -0.3292
  N  N367  1  0.755900  0.466100  0.896600  1.0  -0.3119
  N  N368  1  0.834200  0.125600  0.564000  1.0  -0.3141
  N  N369  1  0.402500  0.635200  0.933200  1.0  -0.3123
  N  N370  1  0.902500  0.864800  0.066800  1.0  -0.3125
  N  N371  1  0.713000  0.034400  0.617000  1.0  -0.2696
  N  N372  1  0.630300  0.645800  0.427400  1.0  -0.3289
  N  N373  1  0.631300  0.378700  0.948000  1.0  -0.3363
  N  N374  1  0.097500  0.364800  0.433200  1.0  -0.3139
  N  N375  1  0.787000  0.965600  0.117000  1.0  -0.2705
  N  N376  1  0.255900  0.033900  0.103400  1.0  -0.312
  N  N377  1  0.165800  0.625600  0.936000  1.0  -0.3133
  N  N378  1  0.597500  0.135200  0.566800  1.0  -0.3137
  N  N379  1  0.368700  0.878700  0.552000  1.0  -0.3368
  N  N380  1  0.131300  0.121300  0.052000  1.0  -0.3355
  N  N381  1  0.665800  0.874400  0.064000  1.0  -0.3136
  N  N382  1  0.744100  0.533900  0.396600  1.0  -0.3113
  N  N383  1  0.334200  0.374400  0.436000  1.0  -0.3143
  N  N384  1  0.868700  0.621300  0.448000  1.0  -0.3366
  N  N385  1  0.730600  0.317400  0.155800  1.0  0.8307
  N  N386  1  0.189100  0.420200  0.576700  1.0  0.6301
  N  N387  1  0.230600  0.182600  0.844200  1.0  0.8351
  N  N388  1  0.769400  0.682600  0.655800  1.0  0.8315
  N  N389  1  0.810900  0.920200  0.923300  1.0  0.6281
  N  N390  1  0.269400  0.817400  0.344200  1.0  0.8334
  N  N391  1  0.689100  0.079800  0.423300  1.0  0.6296
  N  N392  1  0.310900  0.579800  0.076700  1.0  0.6285
  O  O393  1  0.237200  0.194100  0.152700  1.0  -0.7111
  O  O394  1  0.084200  0.635600  0.778900  1.0  -0.6044
  O  O395  1  0.996700  0.167000  0.822900  1.0  -0.6734
  O  O396  1  0.145100  0.790100  0.836900  1.0  -0.8125
  O  O397  1  0.003300  0.667000  0.677100  1.0  -0.6754
  O  O398  1  0.013500  0.773000  0.840800  1.0  -0.6828
  O  O399  1  0.280900  0.736600  0.955300  1.0  -0.5949
  O  O400  1  0.141800  0.771000  0.256800  1.0  -0.298
  O  O401  1  0.795300  0.810100  0.162400  1.0  -0.6941
  O  O402  1  0.896300  0.783300  0.372000  1.0  -0.6844
  O  O403  1  0.645100  0.709900  0.163100  1.0  -0.8109
  O  O404  1  0.787300  0.670000  0.102500  1.0  -0.71
  O  O405  1  0.219100  0.263400  0.455300  1.0  -0.5952
  O  O406  1  0.940300  0.320300  0.769400  1.0  -0.5662
  O  O407  1  0.712700  0.330000  0.602500  1.0  -0.7096
  O  O408  1  0.706300  0.116800  0.806800  1.0  -0.6065
  O  O409  1  0.276700  0.884900  0.787600  1.0  -0.6112
  O  O410  1  0.297600  0.260000  0.248400  1.0  -0.9412
  O  O411  1  0.915800  0.135600  0.721100  1.0  -0.6051
  O  O412  1  0.204700  0.310100  0.337600  1.0  -0.6952
  O  O413  1  0.780900  0.763400  0.044700  1.0  -0.5953
  O  O414  1  0.737200  0.305900  0.847300  1.0  -0.7115
  O  O415  1  0.922800  0.697400  0.168500  1.0  -0.8224
  O  O416  1  0.641800  0.729000  0.743200  1.0  -0.2976
  O  O417  1  0.584200  0.864400  0.221100  1.0  -0.604
  O  O418  1  0.861000  0.743600  0.262300  1.0  -0.9275
  O  O419  1  0.496700  0.333000  0.177100  1.0  -0.6726
  O  O420  1  0.250200  0.326200  0.087100  1.0  -0.6406
  O  O421  1  0.249800  0.673800  0.587100  1.0  -0.6392
  O  O422  1  0.719100  0.236600  0.544700  1.0  -0.5948
  O  O423  1  0.443700  0.283700  0.663100  1.0  -0.6918
  O  O424  1  0.854900  0.290100  0.663100  1.0  -0.813
  O  O425  1  0.486500  0.227000  0.340800  1.0  -0.6836
  O  O426  1  0.762800  0.694100  0.347300  1.0  -0.7115
  O  O427  1  0.744900  0.268800  0.972600  1.0  -0.6019
  O  O428  1  0.475700  0.208700  0.828300  1.0  -0.6267
  O  O429  1  0.415800  0.364400  0.278900  1.0  -0.6048
  O  O430  1  0.858200  0.271000  0.243200  1.0  -0.2987
  O  O431  1  0.631500  0.813900  0.333600  1.0  -0.8554
  O  O432  1  0.580500  0.277400  0.260300  1.0  -0.2938
  O  O433  1  0.868500  0.186100  0.833600  1.0  -0.8541
  O  O434  1  0.396300  0.716700  0.628000  1.0  -0.6839
  O  O435  1  0.077200  0.197400  0.331500  1.0  -0.8207
  O  O436  1  0.440300  0.179700  0.230600  1.0  -0.5666
  O  O437  1  0.206300  0.383200  0.193200  1.0  -0.6072
  O  O438  1  0.212700  0.170000  0.397500  1.0  -0.7094
  O  O439  1  0.793700  0.883200  0.306800  1.0  -0.6053
  O  O440  1  0.508500  0.156400  0.722400  1.0  -0.607
  O  O441  1  0.559700  0.679700  0.269400  1.0  -0.5655
  O  O442  1  0.513500  0.727000  0.159200  1.0  -0.6814
  O  O443  1  0.008500  0.343600  0.277600  1.0  -0.598
  O  O444  1  0.723300  0.384900  0.712400  1.0  -0.6109
  O  O445  1  0.419500  0.777400  0.239700  1.0  -0.2947
  O  O446  1  0.131500  0.686100  0.666400  1.0  -0.8557
  O  O447  1  0.361000  0.756400  0.737700  1.0  -0.9275
  O  O448  1  0.262800  0.805900  0.652700  1.0  -0.7111
  O  O449  1  0.223300  0.115100  0.287600  1.0  -0.6105
  O  O450  1  0.487100  0.345400  0.771600  1.0  -0.5812
  O  O451  1  0.422800  0.802600  0.831500  1.0  -0.8219
  O  O452  1  0.139000  0.243600  0.237700  1.0  -0.9274
  O  O453  1  0.556300  0.783700  0.836900  1.0  -0.6927
  O  O454  1  0.750200  0.173800  0.912900  1.0  -0.6387
  O  O455  1  0.358200  0.229000  0.756800  1.0  -0.299
  O  O456  1  0.103700  0.283300  0.128000  1.0  -0.685
  O  O457  1  0.056300  0.716300  0.163100  1.0  -0.6893
  O  O458  1  0.244900  0.231200  0.027400  1.0  -0.6023
  O  O459  1  0.354900  0.209900  0.336900  1.0  -0.8131
  O  O460  1  0.368500  0.313900  0.166400  1.0  -0.856
  O  O461  1  0.797600  0.240000  0.751600  1.0  -0.9414
  O  O462  1  0.577200  0.302600  0.668500  1.0  -0.8219
  O  O463  1  0.986500  0.273000  0.659200  1.0  -0.6821
  O  O464  1  0.255100  0.768800  0.527400  1.0  -0.6021
  O  O465  1  0.776700  0.615100  0.212400  1.0  -0.6107
  O  O466  1  0.024300  0.791300  0.328300  1.0  -0.6273
  O  O467  1  0.524300  0.708700  0.671700  1.0  -0.6256
  O  O468  1  0.287300  0.830000  0.897500  1.0  -0.7099
  O  O469  1  0.293700  0.616800  0.693200  1.0  -0.605
  O  O470  1  0.755100  0.731200  0.472600  1.0  -0.6018
  O  O471  1  0.503300  0.833000  0.322900  1.0  -0.6749
  O  O472  1  0.512900  0.845400  0.728400  1.0  -0.5809
  O  O473  1  0.975700  0.291300  0.171700  1.0  -0.6251
  O  O474  1  0.919500  0.722600  0.760300  1.0  -0.2944
  O  O475  1  0.987100  0.154600  0.228400  1.0  -0.5825
  O  O476  1  0.295300  0.689900  0.837600  1.0  -0.6956
  O  O477  1  0.991500  0.843600  0.222400  1.0  -0.5972
  O  O478  1  0.012900  0.654600  0.271600  1.0  -0.5817
  O  O479  1  0.639000  0.256400  0.762300  1.0  -0.9275
  O  O480  1  0.080500  0.222600  0.739700  1.0  -0.2933
  O  O481  1  0.059700  0.820300  0.730600  1.0  -0.565
  O  O482  1  0.491500  0.656400  0.777600  1.0  -0.5982
  O  O483  1  0.202400  0.740000  0.748400  1.0  -0.9415
  O  O484  1  0.702400  0.760000  0.251600  1.0  -0.9416
  O  O485  1  0.749800  0.826200  0.412900  1.0  -0.6388
  O  O486  1  0.943700  0.216300  0.336900  1.0  -0.6915
  O  O487  1  0.704700  0.189900  0.662400  1.0  -0.6943
  O  O488  1  0.603700  0.216700  0.872000  1.0  -0.6845
  O  O489  1  0.678100  0.302600  0.122200  1.0  -0.5702
  O  O490  1  0.804700  0.319200  0.150600  1.0  -0.4794
  O  O491  1  0.703600  0.328900  0.200200  1.0  -0.4558
  O  O492  1  0.130200  0.453700  0.596600  1.0  -0.5476
  O  O493  1  0.200000  0.448700  0.532900  1.0  -0.5996
  O  O494  1  0.219400  0.355700  0.584800  1.0  -0.5159
  O  O495  1  0.178100  0.197400  0.877800  1.0  -0.571
  O  O496  1  0.203600  0.171100  0.799800  1.0  -0.4548
  O  O497  1  0.304700  0.180800  0.849400  1.0  -0.4831
  O  O498  1  0.695300  0.680800  0.650600  1.0  -0.4832
  O  O499  1  0.796400  0.671100  0.700200  1.0  -0.4539
  O  O500  1  0.821900  0.697400  0.622200  1.0  -0.5707
  O  O501  1  0.869800  0.953700  0.903400  1.0  -0.5484
  O  O502  1  0.780600  0.855700  0.915200  1.0  -0.5146
  O  O503  1  0.800000  0.948700  0.967100  1.0  -0.5972
  O  O504  1  0.321900  0.802600  0.377800  1.0  -0.572
  O  O505  1  0.195300  0.819200  0.349400  1.0  -0.4818
  O  O506  1  0.296400  0.828900  0.299800  1.0  -0.4534
  O  O507  1  0.719400  0.144300  0.415200  1.0  -0.5142
  O  O508  1  0.630200  0.046300  0.403400  1.0  -0.549
  O  O509  1  0.700000  0.051300  0.467100  1.0  -0.5976
  O  O510  1  0.300000  0.551300  0.032900  1.0  -0.5973
  O  O511  1  0.280600  0.644300  0.084800  1.0  -0.5138
  O  O512  1  0.369800  0.546300  0.096600  1.0  -0.5489
