# generated using pymatgen
data_Cd2H52C77(NO)6
_symmetry_space_group_name_H-M   'P 1'
_cell_length_a   28.95000000
_cell_length_b   39.50800000
_cell_length_c   10.27850000
_cell_angle_alpha   90.00000000
_cell_angle_beta   95.73700000
_cell_angle_gamma   90.00000000
_symmetry_Int_Tables_number   1
_chemical_formula_structural   Cd2H52C77(NO)6
_chemical_formula_sum   'Cd8 H208 C308 N24 O24'
_cell_volume   11697.21853742
_cell_formula_units_Z   4
loop_
 _symmetry_equiv_pos_site_id
 _symmetry_equiv_pos_as_xyz
  1  'x, y, z'
loop_
 _atom_site_type_symbol
 _atom_site_label
 _atom_site_symmetry_multiplicity
 _atom_site_fract_x
 _atom_site_fract_y
 _atom_site_fract_z
 _atom_site_occupancy
 _atom_site_charge
  Cd  Cd1  1  0.239660  0.676040  0.944630  1.0  0.8731
  Cd  Cd2  1  0.232160  0.686340  0.457160  1.0  1.0079
  Cd  Cd3  1  0.739660  0.176040  0.944630  1.0  0.8731
  Cd  Cd4  1  0.732160  0.186340  0.457160  1.0  1.0079
  Cd  Cd5  1  0.760340  0.676040  0.055370  1.0  0.8724
  Cd  Cd6  1  0.767840  0.686340  0.542840  1.0  1.0075
  Cd  Cd7  1  0.260340  0.176040  0.055370  1.0  0.8724
  Cd  Cd8  1  0.267840  0.186340  0.542840  1.0  1.0075
  H  H9  1  0.238400  0.629600  0.200000  1.0  0.0722
  H  H10  1  0.224200  0.577300  0.272200  1.0  0.1057
  H  H11  1  0.194300  0.548600  0.901300  1.0  0.0996
  H  H12  1  0.207700  0.603200  0.839000  1.0  0.0744
  H  H13  1  0.178900  0.534900  0.318200  1.0  0.0907
  H  H14  1  0.152600  0.483500  0.383700  1.0  0.1041
  H  H15  1  0.179600  0.444100  0.038500  1.0  0.1081
  H  H16  1  0.206900  0.495600  0.977800  1.0  0.1131
  H  H17  1  0.222300  0.405900  0.262100  1.0  0.1131
  H  H18  1  0.250700  0.353000  0.216200  1.0  0.1158
  H  H19  1  0.122100  0.323000  0.093300  1.0  0.1128
  H  H20  1  0.094200  0.376200  0.131800  1.0  0.1207
  H  H21  1  0.274200  0.306900  0.122900  1.0  0.1213
  H  H22  1  0.296700  0.253400  0.088900  1.0  0.0652
  H  H23  1  0.173900  0.219200  0.111000  1.0  0.0656
  H  H24  1  0.146300  0.271000  0.142400  1.0  0.12
  H  H25  1  0.071500  0.473500  0.251400  1.0  0.1026
  H  H26  1  0.010100  0.475300  0.377700  1.0  0.1029
  H  H27  1  0.042800  0.383100  0.511100  1.0  0.1151
  H  H28  1  0.108200  0.383500  0.405400  1.0  0.109
  H  H29  1  0.277600  0.613400  0.559900  1.0  0.0738
  H  H30  1  0.258700  0.560100  0.618000  1.0  0.1173
  H  H31  1  0.126300  0.581300  0.506300  1.0  0.1211
  H  H32  1  0.148900  0.633100  0.445600  1.0  0.0719
  H  H33  1  0.241400  0.511200  0.665900  1.0  0.1145
  H  H34  1  0.219500  0.459400  0.735700  1.0  0.1102
  H  H35  1  0.086200  0.480800  0.629500  1.0  0.1211
  H  H36  1  0.106800  0.533500  0.566300  1.0  0.1214
  H  H37  1  0.160500  0.382700  0.906400  1.0  0.115
  H  H38  1  0.195500  0.332800  0.864300  1.0  0.1094
  H  H39  1  0.214800  0.364500  0.503200  1.0  0.1113
  H  H40  1  0.181500  0.414800  0.545300  1.0  0.1069
  H  H41  1  0.215900  0.285600  0.819500  1.0  0.1095
  H  H42  1  0.239300  0.232700  0.768900  1.0  0.0852
  H  H43  1  0.261100  0.262100  0.420800  1.0  0.0751
  H  H44  1  0.235500  0.314900  0.457100  1.0  0.115
  H  H45  1  0.104500  0.478400  0.893600  1.0  0.0996
  H  H46  1  0.039600  0.477700  0.003500  1.0  0.1145
  H  H47  1  0.014500  0.383200  0.889200  1.0  0.1022
  H  H48  1  0.077200  0.384400  0.766100  1.0  0.1282
  H  H49  1  0.382500  0.657700  0.293300  1.0  0.1007
  H  H50  1  0.460800  0.654000  0.302400  1.0  0.1127
  H  H51  1  0.468800  0.676700  0.686300  1.0  0.115
  H  H52  1  0.388900  0.681100  0.671600  1.0  0.1083
  H  H53  1  0.091400  0.683900  0.293800  1.0  0.1073
  H  H54  1  0.014300  0.692500  0.214100  1.0  0.1002
  H  H55  1  0.053400  0.710000  0.858800  1.0  0.1104
  H  H56  1  0.129000  0.705900  0.941900  1.0  0.1027
  H  H57  1  0.101900  0.641300  0.688600  1.0  0.1023
  H  H58  1  0.026800  0.640000  0.595500  1.0  0.1278
  H  H59  1  0.040100  0.735400  0.480700  1.0  0.0966
  H  H60  1  0.118000  0.734100  0.558700  1.0  0.0948
  H  H61  1  0.738400  0.129600  0.200000  1.0  0.0722
  H  H62  1  0.724200  0.077300  0.272200  1.0  0.1057
  H  H63  1  0.694300  0.048600  0.901300  1.0  0.0996
  H  H64  1  0.707700  0.103200  0.839000  1.0  0.0744
  H  H65  1  0.678900  0.034900  0.318200  1.0  0.0907
  H  H66  1  0.652600  0.983500  0.383700  1.0  0.1041
  H  H67  1  0.679600  0.944100  0.038500  1.0  0.1081
  H  H68  1  0.706900  0.995600  0.977800  1.0  0.1131
  H  H69  1  0.722300  0.905900  0.262100  1.0  0.113
  H  H70  1  0.750700  0.853000  0.216200  1.0  0.1157
  H  H71  1  0.622100  0.823000  0.093300  1.0  0.1128
  H  H72  1  0.594200  0.876200  0.131800  1.0  0.1207
  H  H73  1  0.774200  0.806900  0.122900  1.0  0.1227
  H  H74  1  0.796700  0.753400  0.088900  1.0  0.0652
  H  H75  1  0.673900  0.719200  0.111000  1.0  0.0656
  H  H76  1  0.646300  0.771000  0.142400  1.0  0.12
  H  H77  1  0.571500  0.973500  0.251400  1.0  0.1026
  H  H78  1  0.510100  0.975300  0.377700  1.0  0.1029
  H  H79  1  0.542800  0.883100  0.511100  1.0  0.1151
  H  H80  1  0.608200  0.883500  0.405400  1.0  0.109
  H  H81  1  0.777600  0.113400  0.559900  1.0  0.0738
  H  H82  1  0.758700  0.060100  0.618000  1.0  0.1173
  H  H83  1  0.626300  0.081300  0.506300  1.0  0.1211
  H  H84  1  0.648900  0.133100  0.445600  1.0  0.0719
  H  H85  1  0.741400  0.011200  0.665900  1.0  0.1114
  H  H86  1  0.719500  0.959400  0.735700  1.0  0.1082
  H  H87  1  0.586200  0.980800  0.629500  1.0  0.1211
  H  H88  1  0.606800  0.033500  0.566300  1.0  0.1209
  H  H89  1  0.660500  0.882700  0.906400  1.0  0.115
  H  H90  1  0.695500  0.832800  0.864300  1.0  0.1094
  H  H91  1  0.714800  0.864500  0.503200  1.0  0.1113
  H  H92  1  0.681500  0.914800  0.545300  1.0  0.1069
  H  H93  1  0.715900  0.785600  0.819500  1.0  0.1095
  H  H94  1  0.739300  0.732700  0.768900  1.0  0.0852
  H  H95  1  0.761100  0.762100  0.420800  1.0  0.0751
  H  H96  1  0.735500  0.814900  0.457100  1.0  0.115
  H  H97  1  0.604500  0.978400  0.893600  1.0  0.0996
  H  H98  1  0.539600  0.977700  0.003500  1.0  0.1145
  H  H99  1  0.514500  0.883200  0.889200  1.0  0.1022
  H  H100  1  0.577200  0.884400  0.766100  1.0  0.1282
  H  H101  1  0.882500  0.157700  0.293300  1.0  0.1007
  H  H102  1  0.960800  0.154000  0.302400  1.0  0.1146
  H  H103  1  0.968800  0.176700  0.686300  1.0  0.115
  H  H104  1  0.888900  0.181100  0.671600  1.0  0.1083
  H  H105  1  0.591400  0.183900  0.293800  1.0  0.1073
  H  H106  1  0.514300  0.192500  0.214100  1.0  0.1002
  H  H107  1  0.553400  0.210000  0.858800  1.0  0.1104
  H  H108  1  0.629000  0.205900  0.941900  1.0  0.1027
  H  H109  1  0.601900  0.141300  0.688600  1.0  0.1023
  H  H110  1  0.526800  0.140000  0.595500  1.0  0.1278
  H  H111  1  0.540100  0.235400  0.480700  1.0  0.0965
  H  H112  1  0.618000  0.234100  0.558700  1.0  0.0948
  H  H113  1  0.761600  0.629600  0.800000  1.0  0.0729
  H  H114  1  0.775800  0.577300  0.727800  1.0  0.1071
  H  H115  1  0.805700  0.548600  0.098700  1.0  0.0993
  H  H116  1  0.792300  0.603200  0.161000  1.0  0.074
  H  H117  1  0.821100  0.534900  0.681800  1.0  0.0905
  H  H118  1  0.847400  0.483500  0.616300  1.0  0.105
  H  H119  1  0.820400  0.444100  0.961500  1.0  0.1081
  H  H120  1  0.793100  0.495600  0.022200  1.0  0.112
  H  H121  1  0.777700  0.405900  0.737900  1.0  0.1138
  H  H122  1  0.749300  0.353000  0.783800  1.0  0.1129
  H  H123  1  0.877900  0.323000  0.906700  1.0  0.113
  H  H124  1  0.905800  0.376200  0.868200  1.0  0.1214
  H  H125  1  0.725800  0.306900  0.877100  1.0  0.1203
  H  H126  1  0.703300  0.253400  0.911100  1.0  0.0634
  H  H127  1  0.826100  0.219200  0.889000  1.0  0.0672
  H  H128  1  0.853700  0.271000  0.857600  1.0  0.1186
  H  H129  1  0.928500  0.473500  0.748600  1.0  0.1022
  H  H130  1  0.989900  0.475300  0.622300  1.0  0.1023
  H  H131  1  0.957200  0.383100  0.488900  1.0  0.1141
  H  H132  1  0.891800  0.383500  0.594600  1.0  0.109
  H  H133  1  0.722400  0.613400  0.440100  1.0  0.0723
  H  H134  1  0.741300  0.560100  0.382000  1.0  0.118
  H  H135  1  0.873700  0.581300  0.493700  1.0  0.1212
  H  H136  1  0.851100  0.633100  0.554400  1.0  0.0727
  H  H137  1  0.758600  0.511200  0.334100  1.0  0.1153
  H  H138  1  0.780500  0.459400  0.264300  1.0  0.1097
  H  H139  1  0.913800  0.480800  0.370500  1.0  0.1209
  H  H140  1  0.893200  0.533500  0.433700  1.0  0.1221
  H  H141  1  0.839500  0.382700  0.093600  1.0  0.1152
  H  H142  1  0.804500  0.332800  0.135700  1.0  0.1068
  H  H143  1  0.785200  0.364500  0.496800  1.0  0.1099
  H  H144  1  0.818500  0.414800  0.454700  1.0  0.106
  H  H145  1  0.784100  0.285600  0.180500  1.0  0.1095
  H  H146  1  0.760700  0.232700  0.231100  1.0  0.0849
  H  H147  1  0.738900  0.262100  0.579200  1.0  0.0736
  H  H148  1  0.764500  0.314900  0.542900  1.0  0.1148
  H  H149  1  0.895500  0.478400  0.106400  1.0  0.0999
  H  H150  1  0.960400  0.477700  0.996500  1.0  0.1131
  H  H151  1  0.985500  0.383200  0.110800  1.0  0.1022
  H  H152  1  0.922800  0.384400  0.233900  1.0  0.1278
  H  H153  1  0.617500  0.657700  0.706700  1.0  0.1011
  H  H154  1  0.539200  0.654000  0.697600  1.0  0.1125
  H  H155  1  0.531200  0.676700  0.313700  1.0  0.1142
  H  H156  1  0.611100  0.681100  0.328400  1.0  0.1078
  H  H157  1  0.908600  0.683900  0.706200  1.0  0.1071
  H  H158  1  0.985700  0.692500  0.785900  1.0  0.1002
  H  H159  1  0.946600  0.710000  0.141200  1.0  0.1092
  H  H160  1  0.871000  0.705900  0.058100  1.0  0.1026
  H  H161  1  0.898100  0.641300  0.311400  1.0  0.102
  H  H162  1  0.973200  0.640000  0.404500  1.0  0.1278
  H  H163  1  0.959900  0.735400  0.519300  1.0  0.0962
  H  H164  1  0.882000  0.734100  0.441300  1.0  0.0954
  H  H165  1  0.261600  0.129600  0.800000  1.0  0.0729
  H  H166  1  0.275800  0.077300  0.727800  1.0  0.1071
  H  H167  1  0.305700  0.048600  0.098700  1.0  0.0993
  H  H168  1  0.292300  0.103200  0.161000  1.0  0.074
  H  H169  1  0.321100  0.034900  0.681800  1.0  0.0906
  H  H170  1  0.347400  0.983500  0.616300  1.0  0.105
  H  H171  1  0.320400  0.944100  0.961500  1.0  0.1081
  H  H172  1  0.293100  0.995600  0.022200  1.0  0.112
  H  H173  1  0.277700  0.905900  0.737900  1.0  0.1137
  H  H174  1  0.249300  0.853000  0.783800  1.0  0.1135
  H  H175  1  0.377900  0.823000  0.906700  1.0  0.113
  H  H176  1  0.405800  0.876200  0.868200  1.0  0.1214
  H  H177  1  0.225800  0.806900  0.877100  1.0  0.1218
  H  H178  1  0.203300  0.753400  0.911100  1.0  0.0634
  H  H179  1  0.326100  0.719200  0.889000  1.0  0.0672
  H  H180  1  0.353700  0.771000  0.857600  1.0  0.1186
  H  H181  1  0.428500  0.973500  0.748600  1.0  0.1022
  H  H182  1  0.489900  0.975300  0.622300  1.0  0.1023
  H  H183  1  0.457200  0.883100  0.488900  1.0  0.1141
  H  H184  1  0.391800  0.883500  0.594600  1.0  0.109
  H  H185  1  0.222400  0.113400  0.440100  1.0  0.0723
  H  H186  1  0.241300  0.060100  0.382000  1.0  0.118
  H  H187  1  0.373700  0.081300  0.493700  1.0  0.1212
  H  H188  1  0.351100  0.133100  0.554400  1.0  0.0727
  H  H189  1  0.258600  0.011200  0.334100  1.0  0.1114
  H  H190  1  0.280500  0.959400  0.264300  1.0  0.1079
  H  H191  1  0.413800  0.980800  0.370500  1.0  0.1209
  H  H192  1  0.393200  0.033500  0.433700  1.0  0.1221
  H  H193  1  0.339500  0.882700  0.093600  1.0  0.1152
  H  H194  1  0.304500  0.832800  0.135700  1.0  0.1068
  H  H195  1  0.285200  0.864500  0.496800  1.0  0.1099
  H  H196  1  0.318500  0.914800  0.454700  1.0  0.106
  H  H197  1  0.284100  0.785600  0.180500  1.0  0.1095
  H  H198  1  0.260700  0.732700  0.231100  1.0  0.0849
  H  H199  1  0.238900  0.762100  0.579200  1.0  0.0736
  H  H200  1  0.264500  0.814900  0.542900  1.0  0.1148
  H  H201  1  0.395500  0.978400  0.106400  1.0  0.0999
  H  H202  1  0.460400  0.977700  0.996500  1.0  0.1131
  H  H203  1  0.485500  0.883200  0.110800  1.0  0.1022
  H  H204  1  0.422800  0.884400  0.233900  1.0  0.1278
  H  H205  1  0.117500  0.157700  0.706700  1.0  0.1011
  H  H206  1  0.039200  0.154000  0.697600  1.0  0.1148
  H  H207  1  0.031200  0.176700  0.313700  1.0  0.1142
  H  H208  1  0.111100  0.181100  0.328400  1.0  0.1078
  H  H209  1  0.408600  0.183900  0.706200  1.0  0.1071
  H  H210  1  0.485700  0.192500  0.785900  1.0  0.1002
  H  H211  1  0.446600  0.210000  0.141200  1.0  0.1092
  H  H212  1  0.371000  0.205900  0.058100  1.0  0.1026
  H  H213  1  0.398100  0.141300  0.311400  1.0  0.102
  H  H214  1  0.473200  0.140000  0.404500  1.0  0.1278
  H  H215  1  0.459900  0.235400  0.519300  1.0  0.0962
  H  H216  1  0.382000  0.234100  0.441300  1.0  0.0954
  C  C217  1  0.229470  0.612890  0.138700  1.0  0.1895
  C  C218  1  0.220840  0.581610  0.182800  1.0  -0.2161
  C  C219  1  0.207070  0.555830  0.096200  1.0  0.0787
  C  C220  1  0.203000  0.564770  0.964600  1.0  -0.1523
  C  C221  1  0.211800  0.597580  0.927300  1.0  0.1418
  C  C222  1  0.192880  0.521380  0.138700  1.0  0.0334
  C  C223  1  0.178030  0.516730  0.260600  1.0  -0.1002
  C  C224  1  0.161920  0.485920  0.300200  1.0  -0.2431
  C  C225  1  0.159570  0.458110  0.214200  1.0  0.1756
  C  C226  1  0.178280  0.462470  0.094300  1.0  -0.1541
  C  C227  1  0.194630  0.493410  0.057600  1.0  -0.1187
  C  C228  1  0.155610  0.396370  0.208200  1.0  0.1599
  C  C229  1  0.201780  0.389100  0.229000  1.0  -0.1445
  C  C230  1  0.219040  0.357350  0.202200  1.0  -0.1394
  C  C231  1  0.188620  0.332120  0.154500  1.0  0.0295
  C  C232  1  0.142420  0.339680  0.128200  1.0  -0.1075
  C  C233  1  0.125510  0.371350  0.152400  1.0  -0.2065
  C  C234  1  0.206060  0.296730  0.133300  1.0  0.0732
  C  C235  1  0.252420  0.289570  0.119000  1.0  -0.1988
  C  C236  1  0.265620  0.257180  0.099300  1.0  0.1848
  C  C237  1  0.194540  0.237290  0.111500  1.0  0.182
  C  C238  1  0.177590  0.268420  0.130700  1.0  -0.2184
  C  C239  1  0.097870  0.428980  0.316300  1.0  0.1164
  C  C240  1  0.067060  0.455630  0.307700  1.0  -0.1398
  C  C241  1  0.029240  0.456350  0.381800  1.0  -0.1211
  C  C242  1  0.019630  0.429850  0.460600  1.0  0.0604
  C  C243  1  0.049450  0.402120  0.462900  1.0  -0.1402
  C  C244  1  0.088110  0.401930  0.396800  1.0  -0.175
  C  C245  1  0.246520  0.606990  0.549100  1.0  0.1793
  C  C246  1  0.235350  0.574740  0.584300  1.0  -0.1916
  C  C247  1  0.189850  0.563610  0.570300  1.0  0.052
  C  C248  1  0.157580  0.587020  0.518000  1.0  -0.1884
  C  C249  1  0.171470  0.618440  0.483500  1.0  0.1712
  C  C250  1  0.177580  0.529120  0.611600  1.0  0.0251
  C  C251  1  0.210030  0.505720  0.660600  1.0  -0.1465
  C  C252  1  0.196820  0.474540  0.701600  1.0  -0.1961
  C  C253  1  0.150790  0.464870  0.693700  1.0  0.1704
  C  C254  1  0.117210  0.487260  0.639400  1.0  -0.1775
  C  C255  1  0.129660  0.518550  0.600600  1.0  -0.1165
  C  C256  1  0.164130  0.403700  0.724500  1.0  0.1513
  C  C257  1  0.170520  0.378770  0.824600  1.0  -0.1975
  C  C258  1  0.191570  0.349050  0.798500  1.0  -0.116
  C  C259  1  0.207510  0.341780  0.678600  1.0  0.0067
  C  C260  1  0.203340  0.367940  0.583500  1.0  -0.1028
  C  C261  1  0.182880  0.397840  0.608200  1.0  -0.1219
  C  C262  1  0.225670  0.308480  0.648600  1.0  0.028
  C  C263  1  0.225600  0.281640  0.737300  1.0  -0.1772
  C  C264  1  0.239440  0.249640  0.706300  1.0  0.1691
  C  C265  1  0.251700  0.266940  0.502700  1.0  0.1859
  C  C266  1  0.237400  0.299090  0.524600  1.0  -0.2012
  C  C267  1  0.097120  0.431850  0.814300  1.0  0.1602
  C  C268  1  0.085770  0.459180  0.889500  1.0  -0.1952
  C  C269  1  0.047400  0.458480  0.958100  1.0  -0.1462
  C  C270  1  0.020220  0.429850  0.961000  1.0  0.03
  C  C271  1  0.032320  0.402770  0.888900  1.0  -0.1008
  C  C272  1  0.070280  0.403240  0.814700  1.0  -0.1993
  C  C273  1  0.324940  0.672800  0.472500  1.0  0.6865
  C  C274  1  0.377270  0.668970  0.480200  1.0  -0.1598
  C  C275  1  0.400020  0.661380  0.372900  1.0  -0.0482
  C  C276  1  0.446960  0.659070  0.378000  1.0  -0.1864
  C  C277  1  0.474920  0.664200  0.496300  1.0  0.0717
  C  C278  1  0.451550  0.672700  0.606500  1.0  -0.1274
  C  C279  1  0.403480  0.675210  0.598200  1.0  -0.0648
  C  C280  1  0.167760  0.690270  0.183500  1.0  0.7233
  C  C281  1  0.117940  0.693870  0.126700  1.0  -0.1309
  C  C282  1  0.083880  0.689700  0.206500  1.0  -0.0919
  C  C283  1  0.037390  0.694000  0.157600  1.0  -0.1335
  C  C284  1  0.025330  0.700610  0.027400  1.0  -0.0132
  C  C285  1  0.060660  0.705030  0.947000  1.0  -0.149
  C  C286  1  0.105770  0.702180  0.996500  1.0  -0.0263
  C  C287  1  0.168690  0.686690  0.691300  1.0  0.6842
  C  C288  1  0.117870  0.688400  0.633600  1.0  -0.0121
  C  C289  1  0.089640  0.660280  0.644000  1.0  -0.0814
  C  C290  1  0.044440  0.659570  0.590900  1.0  -0.1625
  C  C291  1  0.024570  0.689120  0.528500  1.0  0.1202
  C  C292  1  0.052250  0.715720  0.520500  1.0  -0.1541
  C  C293  1  0.099470  0.715270  0.570400  1.0  -0.1005
  C  C294  1  0.729470  0.112890  0.138700  1.0  0.1895
  C  C295  1  0.720840  0.081610  0.182800  1.0  -0.2161
  C  C296  1  0.707070  0.055830  0.096200  1.0  0.0787
  C  C297  1  0.703000  0.064770  0.964600  1.0  -0.1523
  C  C298  1  0.711800  0.097580  0.927300  1.0  0.1418
  C  C299  1  0.692880  0.021380  0.138700  1.0  0.0334
  C  C300  1  0.678030  0.016730  0.260600  1.0  -0.1002
  C  C301  1  0.661920  0.985920  0.300200  1.0  -0.2431
  C  C302  1  0.659570  0.958110  0.214200  1.0  0.1756
  C  C303  1  0.678280  0.962470  0.094300  1.0  -0.1539
  C  C304  1  0.694630  0.993410  0.057600  1.0  -0.1187
  C  C305  1  0.655610  0.896370  0.208200  1.0  0.1599
  C  C306  1  0.701780  0.889100  0.229000  1.0  -0.1445
  C  C307  1  0.719040  0.857350  0.202200  1.0  -0.1394
  C  C308  1  0.688620  0.832120  0.154500  1.0  0.0295
  C  C309  1  0.642420  0.839680  0.128200  1.0  -0.1075
  C  C310  1  0.625510  0.871350  0.152400  1.0  -0.2065
  C  C311  1  0.706060  0.796730  0.133300  1.0  0.0732
  C  C312  1  0.752420  0.789570  0.119000  1.0  -0.1988
  C  C313  1  0.765620  0.757180  0.099300  1.0  0.1848
  C  C314  1  0.694540  0.737290  0.111500  1.0  0.182
  C  C315  1  0.677590  0.768420  0.130700  1.0  -0.2184
  C  C316  1  0.597870  0.928980  0.316300  1.0  0.1164
  C  C317  1  0.567060  0.955630  0.307700  1.0  -0.1398
  C  C318  1  0.529240  0.956350  0.381800  1.0  -0.1208
  C  C319  1  0.519630  0.929850  0.460600  1.0  0.0604
  C  C320  1  0.549450  0.902120  0.462900  1.0  -0.1397
  C  C321  1  0.588110  0.901930  0.396800  1.0  -0.175
  C  C322  1  0.746520  0.106990  0.549100  1.0  0.1793
  C  C323  1  0.735350  0.074740  0.584300  1.0  -0.1916
  C  C324  1  0.689850  0.063610  0.570300  1.0  0.052
  C  C325  1  0.657580  0.087020  0.518000  1.0  -0.1884
  C  C326  1  0.671470  0.118440  0.483500  1.0  0.1712
  C  C327  1  0.677580  0.029120  0.611600  1.0  0.0251
  C  C328  1  0.710030  0.005720  0.660600  1.0  -0.1465
  C  C329  1  0.696820  0.974540  0.701600  1.0  -0.1961
  C  C330  1  0.650790  0.964870  0.693700  1.0  0.1704
  C  C331  1  0.617210  0.987260  0.639400  1.0  -0.1775
  C  C332  1  0.629660  0.018550  0.600600  1.0  -0.1166
  C  C333  1  0.664130  0.903700  0.724500  1.0  0.1513
  C  C334  1  0.670520  0.878770  0.824600  1.0  -0.1975
  C  C335  1  0.691570  0.849050  0.798500  1.0  -0.116
  C  C336  1  0.707510  0.841780  0.678600  1.0  0.0067
  C  C337  1  0.703340  0.867940  0.583500  1.0  -0.1028
  C  C338  1  0.682880  0.897840  0.608200  1.0  -0.1219
  C  C339  1  0.725670  0.808480  0.648600  1.0  0.028
  C  C340  1  0.725600  0.781640  0.737300  1.0  -0.1772
  C  C341  1  0.739440  0.749640  0.706300  1.0  0.1691
  C  C342  1  0.751700  0.766940  0.502700  1.0  0.1859
  C  C343  1  0.737400  0.799090  0.524600  1.0  -0.2012
  C  C344  1  0.597120  0.931850  0.814300  1.0  0.1602
  C  C345  1  0.585770  0.959180  0.889500  1.0  -0.1952
  C  C346  1  0.547400  0.958480  0.958100  1.0  -0.1462
  C  C347  1  0.520220  0.929850  0.961000  1.0  0.03
  C  C348  1  0.532320  0.902770  0.888900  1.0  -0.1008
  C  C349  1  0.570280  0.903240  0.814700  1.0  -0.1993
  C  C350  1  0.824940  0.172800  0.472500  1.0  0.6865
  C  C351  1  0.877270  0.168970  0.480200  1.0  -0.1598
  C  C352  1  0.900020  0.161380  0.372900  1.0  -0.0482
  C  C353  1  0.946960  0.159070  0.378000  1.0  -0.1864
  C  C354  1  0.974920  0.164200  0.496300  1.0  0.0717
  C  C355  1  0.951550  0.172700  0.606500  1.0  -0.1274
  C  C356  1  0.903480  0.175210  0.598200  1.0  -0.0648
  C  C357  1  0.667760  0.190270  0.183500  1.0  0.7233
  C  C358  1  0.617940  0.193870  0.126700  1.0  -0.1309
  C  C359  1  0.583880  0.189700  0.206500  1.0  -0.0919
  C  C360  1  0.537390  0.194000  0.157600  1.0  -0.1335
  C  C361  1  0.525330  0.200610  0.027400  1.0  -0.0132
  C  C362  1  0.560660  0.205030  0.947000  1.0  -0.149
  C  C363  1  0.605770  0.202180  0.996500  1.0  -0.0263
  C  C364  1  0.668690  0.186690  0.691300  1.0  0.6842
  C  C365  1  0.617870  0.188400  0.633600  1.0  -0.0121
  C  C366  1  0.589640  0.160280  0.644000  1.0  -0.0814
  C  C367  1  0.544440  0.159570  0.590900  1.0  -0.1625
  C  C368  1  0.524570  0.189120  0.528500  1.0  0.1202
  C  C369  1  0.552250  0.215720  0.520500  1.0  -0.1541
  C  C370  1  0.599470  0.215270  0.570400  1.0  -0.1005
  C  C371  1  0.770530  0.612890  0.861300  1.0  0.1905
  C  C372  1  0.779160  0.581610  0.817200  1.0  -0.2175
  C  C373  1  0.792930  0.555830  0.903800  1.0  0.0778
  C  C374  1  0.797000  0.564770  0.035400  1.0  -0.1565
  C  C375  1  0.788200  0.597580  0.072700  1.0  0.1421
  C  C376  1  0.807120  0.521380  0.861300  1.0  0.0334
  C  C377  1  0.821970  0.516730  0.739400  1.0  -0.101
  C  C378  1  0.838080  0.485920  0.699800  1.0  -0.2451
  C  C379  1  0.840430  0.458110  0.785800  1.0  0.1731
  C  C380  1  0.821720  0.462470  0.905700  1.0  -0.157
  C  C381  1  0.805370  0.493410  0.942400  1.0  -0.1223
  C  C382  1  0.844390  0.396370  0.791800  1.0  0.1597
  C  C383  1  0.798220  0.389100  0.771000  1.0  -0.1459
  C  C384  1  0.780960  0.357350  0.797800  1.0  -0.1401
  C  C385  1  0.811380  0.332120  0.845500  1.0  0.0293
  C  C386  1  0.857580  0.339680  0.871800  1.0  -0.1082
  C  C387  1  0.874490  0.371350  0.847600  1.0  -0.2062
  C  C388  1  0.793940  0.296730  0.866700  1.0  0.0736
  C  C389  1  0.747580  0.289570  0.881000  1.0  -0.1985
  C  C390  1  0.734380  0.257180  0.900700  1.0  0.1847
  C  C391  1  0.805460  0.237290  0.888500  1.0  0.1823
  C  C392  1  0.822410  0.268420  0.869300  1.0  -0.2183
  C  C393  1  0.902130  0.428980  0.683700  1.0  0.1155
  C  C394  1  0.932940  0.455630  0.692300  1.0  -0.1406
  C  C395  1  0.970760  0.456350  0.618200  1.0  -0.1214
  C  C396  1  0.980370  0.429850  0.539400  1.0  0.0607
  C  C397  1  0.950550  0.402120  0.537100  1.0  -0.1458
  C  C398  1  0.911890  0.401930  0.603200  1.0  -0.1735
  C  C399  1  0.753480  0.606990  0.450900  1.0  0.1767
  C  C400  1  0.764650  0.574740  0.415700  1.0  -0.1945
  C  C401  1  0.810150  0.563610  0.429700  1.0  0.0526
  C  C402  1  0.842420  0.587020  0.482000  1.0  -0.1887
  C  C403  1  0.828530  0.618440  0.516500  1.0  0.171
  C  C404  1  0.822420  0.529120  0.388400  1.0  0.0256
  C  C405  1  0.789970  0.505720  0.339400  1.0  -0.1442
  C  C406  1  0.803180  0.474540  0.298400  1.0  -0.1976
  C  C407  1  0.849210  0.464870  0.306300  1.0  0.1696
  C  C408  1  0.882790  0.487260  0.360600  1.0  -0.1793
  C  C409  1  0.870340  0.518550  0.399400  1.0  -0.116
  C  C410  1  0.835870  0.403700  0.275500  1.0  0.1501
  C  C411  1  0.829480  0.378770  0.175400  1.0  -0.1968
  C  C412  1  0.808430  0.349050  0.201500  1.0  -0.1127
  C  C413  1  0.792490  0.341780  0.321400  1.0  0.0062
  C  C414  1  0.796660  0.367940  0.416500  1.0  -0.1005
  C  C415  1  0.817120  0.397840  0.391800  1.0  -0.123
  C  C416  1  0.774330  0.308480  0.351400  1.0  0.0285
  C  C417  1  0.774400  0.281640  0.262700  1.0  -0.1728
  C  C418  1  0.760560  0.249640  0.293700  1.0  0.1682
  C  C419  1  0.748300  0.266940  0.497300  1.0  0.1864
  C  C420  1  0.762600  0.299090  0.475400  1.0  -0.2006
  C  C421  1  0.902880  0.431850  0.185700  1.0  0.16
  C  C422  1  0.914230  0.459180  0.110500  1.0  -0.1975
  C  C423  1  0.952600  0.458480  0.041900  1.0  -0.1458
  C  C424  1  0.979780  0.429850  0.039000  1.0  0.0305
  C  C425  1  0.967680  0.402770  0.111100  1.0  -0.0987
  C  C426  1  0.929720  0.403240  0.185300  1.0  -0.2007
  C  C427  1  0.675060  0.672800  0.527500  1.0  0.6874
  C  C428  1  0.622730  0.668970  0.519800  1.0  -0.1594
  C  C429  1  0.599980  0.661380  0.627100  1.0  -0.0475
  C  C430  1  0.553040  0.659070  0.622000  1.0  -0.1868
  C  C431  1  0.525080  0.664200  0.503700  1.0  0.0715
  C  C432  1  0.548450  0.672700  0.393500  1.0  -0.1279
  C  C433  1  0.596520  0.675210  0.401800  1.0  -0.065
  C  C434  1  0.832240  0.690270  0.816500  1.0  0.7237
  C  C435  1  0.882060  0.693870  0.873300  1.0  -0.1333
  C  C436  1  0.916120  0.689700  0.793500  1.0  -0.0877
  C  C437  1  0.962610  0.694000  0.842400  1.0  -0.1309
  C  C438  1  0.974670  0.700610  0.972600  1.0  -0.0133
  C  C439  1  0.939340  0.705030  0.053000  1.0  -0.1482
  C  C440  1  0.894230  0.702180  0.003500  1.0  -0.0247
  C  C441  1  0.831310  0.686690  0.308700  1.0  0.6926
  C  C442  1  0.882130  0.688400  0.366400  1.0  -0.0135
  C  C443  1  0.910360  0.660280  0.356000  1.0  -0.0757
  C  C444  1  0.955560  0.659570  0.409100  1.0  -0.1622
  C  C445  1  0.975430  0.689120  0.471500  1.0  0.1199
  C  C446  1  0.947750  0.715720  0.479500  1.0  -0.1499
  C  C447  1  0.900530  0.715270  0.429600  1.0  -0.1006
  C  C448  1  0.270530  0.112890  0.861300  1.0  0.1905
  C  C449  1  0.279160  0.081610  0.817200  1.0  -0.2175
  C  C450  1  0.292930  0.055830  0.903800  1.0  0.0778
  C  C451  1  0.297000  0.064770  0.035400  1.0  -0.1565
  C  C452  1  0.288200  0.097580  0.072700  1.0  0.1421
  C  C453  1  0.307120  0.021380  0.861300  1.0  0.0334
  C  C454  1  0.321970  0.016730  0.739400  1.0  -0.101
  C  C455  1  0.338080  0.985920  0.699800  1.0  -0.2451
  C  C456  1  0.340430  0.958110  0.785800  1.0  0.1731
  C  C457  1  0.321720  0.962470  0.905700  1.0  -0.1561
  C  C458  1  0.305370  0.993410  0.942400  1.0  -0.1223
  C  C459  1  0.344390  0.896370  0.791800  1.0  0.1597
  C  C460  1  0.298220  0.889100  0.771000  1.0  -0.1459
  C  C461  1  0.280960  0.857350  0.797800  1.0  -0.1401
  C  C462  1  0.311380  0.832120  0.845500  1.0  0.0293
  C  C463  1  0.357580  0.839680  0.871800  1.0  -0.1082
  C  C464  1  0.374490  0.871350  0.847600  1.0  -0.2062
  C  C465  1  0.293940  0.796730  0.866700  1.0  0.0736
  C  C466  1  0.247580  0.789570  0.881000  1.0  -0.1985
  C  C467  1  0.234380  0.757180  0.900700  1.0  0.1847
  C  C468  1  0.305460  0.737290  0.888500  1.0  0.1823
  C  C469  1  0.322410  0.768420  0.869300  1.0  -0.2183
  C  C470  1  0.402130  0.928980  0.683700  1.0  0.1155
  C  C471  1  0.432940  0.955630  0.692300  1.0  -0.1406
  C  C472  1  0.470760  0.956350  0.618200  1.0  -0.1217
  C  C473  1  0.480370  0.929850  0.539400  1.0  0.0607
  C  C474  1  0.450550  0.902120  0.537100  1.0  -0.1464
  C  C475  1  0.411890  0.901930  0.603200  1.0  -0.1735
  C  C476  1  0.253480  0.106990  0.450900  1.0  0.1767
  C  C477  1  0.264650  0.074740  0.415700  1.0  -0.1945
  C  C478  1  0.310150  0.063610  0.429700  1.0  0.0526
  C  C479  1  0.342420  0.087020  0.482000  1.0  -0.1887
  C  C480  1  0.328530  0.118440  0.516500  1.0  0.171
  C  C481  1  0.322420  0.029120  0.388400  1.0  0.0256
  C  C482  1  0.289970  0.005720  0.339400  1.0  -0.1442
  C  C483  1  0.303180  0.974540  0.298400  1.0  -0.1972
  C  C484  1  0.349210  0.964870  0.306300  1.0  0.1696
  C  C485  1  0.382790  0.987260  0.360600  1.0  -0.1793
  C  C486  1  0.370340  0.018550  0.399400  1.0  -0.1156
  C  C487  1  0.335870  0.903700  0.275500  1.0  0.1501
  C  C488  1  0.329480  0.878770  0.175400  1.0  -0.1968
  C  C489  1  0.308430  0.849050  0.201500  1.0  -0.1127
  C  C490  1  0.292490  0.841780  0.321400  1.0  0.0062
  C  C491  1  0.296660  0.867940  0.416500  1.0  -0.1005
  C  C492  1  0.317120  0.897840  0.391800  1.0  -0.123
  C  C493  1  0.274330  0.808480  0.351400  1.0  0.0285
  C  C494  1  0.274400  0.781640  0.262700  1.0  -0.1728
  C  C495  1  0.260560  0.749640  0.293700  1.0  0.1682
  C  C496  1  0.248300  0.766940  0.497300  1.0  0.1864
  C  C497  1  0.262600  0.799090  0.475400  1.0  -0.2006
  C  C498  1  0.402880  0.931850  0.185700  1.0  0.16
  C  C499  1  0.414230  0.959180  0.110500  1.0  -0.1975
  C  C500  1  0.452600  0.958480  0.041900  1.0  -0.1458
  C  C501  1  0.479780  0.929850  0.039000  1.0  0.0305
  C  C502  1  0.467680  0.902770  0.111100  1.0  -0.099
  C  C503  1  0.429720  0.903240  0.185300  1.0  -0.2007
  C  C504  1  0.175060  0.172800  0.527500  1.0  0.6874
  C  C505  1  0.122730  0.168970  0.519800  1.0  -0.1594
  C  C506  1  0.099980  0.161380  0.627100  1.0  -0.0475
  C  C507  1  0.053040  0.159070  0.622000  1.0  -0.1868
  C  C508  1  0.025080  0.164200  0.503700  1.0  0.0715
  C  C509  1  0.048450  0.172700  0.393500  1.0  -0.1279
  C  C510  1  0.096520  0.175210  0.401800  1.0  -0.065
  C  C511  1  0.332240  0.190270  0.816500  1.0  0.7237
  C  C512  1  0.382060  0.193870  0.873300  1.0  -0.1333
  C  C513  1  0.416120  0.189700  0.793500  1.0  -0.0877
  C  C514  1  0.462610  0.194000  0.842400  1.0  -0.1309
  C  C515  1  0.474670  0.200610  0.972600  1.0  -0.0133
  C  C516  1  0.439340  0.205030  0.053000  1.0  -0.1482
  C  C517  1  0.394230  0.202180  0.003500  1.0  -0.0247
  C  C518  1  0.331310  0.186690  0.308700  1.0  0.6926
  C  C519  1  0.382130  0.188400  0.366400  1.0  -0.0135
  C  C520  1  0.410360  0.160280  0.356000  1.0  -0.0757
  C  C521  1  0.455560  0.159570  0.409100  1.0  -0.1622
  C  C522  1  0.475430  0.189120  0.471500  1.0  0.1199
  C  C523  1  0.447750  0.215720  0.479500  1.0  -0.1499
  C  C524  1  0.400530  0.215270  0.429600  1.0  -0.1006
  N  N525  1  0.225940  0.621290  0.013400  1.0  -0.3699
  N  N526  1  0.138240  0.427790  0.244800  1.0  -0.178
  N  N527  1  0.237530  0.230440  0.093600  1.0  -0.3423
  N  N528  1  0.215250  0.629650  0.500200  1.0  -0.3523
  N  N529  1  0.136900  0.433600  0.744100  1.0  -0.2017
  N  N530  1  0.253200  0.242010  0.588900  1.0  -0.3347
  N  N531  1  0.725940  0.121290  0.013400  1.0  -0.3699
  N  N532  1  0.638240  0.927790  0.244800  1.0  -0.178
  N  N533  1  0.737530  0.730440  0.093600  1.0  -0.3423
  N  N534  1  0.715250  0.129650  0.500200  1.0  -0.3523
  N  N535  1  0.636900  0.933600  0.744100  1.0  -0.2017
  N  N536  1  0.753200  0.742010  0.588900  1.0  -0.3347
  N  N537  1  0.774060  0.621290  0.986600  1.0  -0.3677
  N  N538  1  0.861760  0.427790  0.755200  1.0  -0.1782
  N  N539  1  0.762470  0.230440  0.906400  1.0  -0.3441
  N  N540  1  0.784750  0.629650  0.499800  1.0  -0.3535
  N  N541  1  0.863100  0.433600  0.255900  1.0  -0.2015
  N  N542  1  0.746800  0.242010  0.411100  1.0  -0.3355
  N  N543  1  0.274060  0.121290  0.986600  1.0  -0.3677
  N  N544  1  0.361760  0.927790  0.755200  1.0  -0.1782
  N  N545  1  0.262470  0.730440  0.906400  1.0  -0.3441
  N  N546  1  0.284750  0.129650  0.499800  1.0  -0.3535
  N  N547  1  0.363100  0.933600  0.255900  1.0  -0.2015
  N  N548  1  0.246800  0.742010  0.411100  1.0  -0.3355
  O  O549  1  0.306260  0.679520  0.572300  1.0  -0.581
  O  O550  1  0.301850  0.669660  0.362900  1.0  -0.5955
  O  O551  1  0.173940  0.682580  0.302800  1.0  -0.6114
  O  O552  1  0.198870  0.695670  0.110800  1.0  -0.7057
  O  O553  1  0.177330  0.670640  0.794600  1.0  -0.5949
  O  O554  1  0.197660  0.703810  0.634000  1.0  -0.6866
  O  O555  1  0.806260  0.179520  0.572300  1.0  -0.581
  O  O556  1  0.801850  0.169660  0.362900  1.0  -0.5955
  O  O557  1  0.673940  0.182580  0.302800  1.0  -0.6114
  O  O558  1  0.698870  0.195670  0.110800  1.0  -0.7057
  O  O559  1  0.677330  0.170640  0.794600  1.0  -0.5949
  O  O560  1  0.697660  0.203810  0.634000  1.0  -0.6866
  O  O561  1  0.693740  0.679520  0.427700  1.0  -0.5794
  O  O562  1  0.698150  0.669660  0.637100  1.0  -0.596
  O  O563  1  0.826060  0.682580  0.697200  1.0  -0.6117
  O  O564  1  0.801130  0.695670  0.889200  1.0  -0.706
  O  O565  1  0.822670  0.670640  0.205400  1.0  -0.5954
  O  O566  1  0.802340  0.703810  0.366000  1.0  -0.6869
  O  O567  1  0.193740  0.179520  0.427700  1.0  -0.5794
  O  O568  1  0.198150  0.169660  0.637100  1.0  -0.596
  O  O569  1  0.326060  0.182580  0.697200  1.0  -0.6117
  O  O570  1  0.301130  0.195670  0.889200  1.0  -0.706
  O  O571  1  0.322670  0.170640  0.205400  1.0  -0.5954
  O  O572  1  0.302340  0.203810  0.366000  1.0  -0.6869
