# generated using pymatgen
data_CuH11C11(NO2)2
_symmetry_space_group_name_H-M   'P 1'
_cell_length_a   8.58000000
_cell_length_b   13.17600000
_cell_length_c   15.33210000
_cell_angle_alpha   115.44800000
_cell_angle_beta   95.22030000
_cell_angle_gamma   90.00000000
_symmetry_Int_Tables_number   1
_chemical_formula_structural   CuH11C11(NO2)2
_chemical_formula_sum   'Cu4 H44 C44 N8 O16'
_cell_volume   1557.15770090
_cell_formula_units_Z   4
loop_
 _symmetry_equiv_pos_site_id
 _symmetry_equiv_pos_as_xyz
  1  'x, y, z'
loop_
 _atom_site_type_symbol
 _atom_site_label
 _atom_site_symmetry_multiplicity
 _atom_site_fract_x
 _atom_site_fract_y
 _atom_site_fract_z
 _atom_site_occupancy
 _atom_site_charge
  Cu  Cu1  1  0.037530  0.006050  0.421320  1.0  0.8097
  Cu  Cu2  1  0.962470  0.993950  0.578680  1.0  0.8102
  Cu  Cu3  1  0.462470  0.584730  0.578680  1.0  0.8105
  Cu  Cu4  1  0.537530  0.415270  0.421320  1.0  0.809
  H  H5  1  0.792200  0.335100  0.593000  1.0  0.1363
  H  H6  1  0.707800  0.742100  0.407000  1.0  0.137
  H  H7  1  0.588000  0.861900  0.900800  1.0  0.1003
  H  H8  1  0.612500  0.213700  0.628200  1.0  0.0717
  H  H9  1  0.887500  0.585500  0.371800  1.0  0.0721
  H  H10  1  0.094600  0.641200  0.311200  1.0  0.1302
  H  H11  1  0.292200  0.257900  0.593000  1.0  0.1368
  H  H12  1  0.013900  0.376600  0.524600  1.0  0.0826
  H  H13  1  0.405400  0.330000  0.688800  1.0  0.13
  H  H14  1  0.905400  0.358800  0.688800  1.0  0.1307
  H  H15  1  0.986100  0.623400  0.475400  1.0  0.0831
  H  H16  1  0.315800  0.876400  0.111800  1.0  0.1313
  H  H17  1  0.684200  0.123600  0.888200  1.0  0.1325
  H  H18  1  0.207800  0.664900  0.407000  1.0  0.1367
  H  H19  1  0.986800  0.425400  0.385600  1.0  0.1277
  H  H20  1  0.412000  0.138100  0.099200  1.0  0.0989
  H  H21  1  0.278000  0.214200  0.247600  1.0  0.1231
  H  H22  1  0.222000  0.966600  0.752400  1.0  0.1235
  H  H23  1  0.172200  0.860100  0.226400  1.0  0.096
  H  H24  1  0.722000  0.785800  0.752400  1.0  0.1236
  H  H25  1  0.387500  0.786300  0.371800  1.0  0.0705
  H  H26  1  0.637200  0.171000  0.360000  1.0  0.0946
  H  H27  1  0.778000  0.033400  0.247600  1.0  0.1229
  H  H28  1  0.594600  0.670000  0.311200  1.0  0.1301
  H  H29  1  0.438200  0.140500  0.700400  1.0  0.1213
  H  H30  1  0.184200  0.764600  0.888200  1.0  0.1309
  H  H31  1  0.088000  0.038900  0.900800  1.0  0.0983
  H  H32  1  0.815800  0.235400  0.111800  1.0  0.1311
  H  H33  1  0.362800  0.829000  0.640000  1.0  0.0958
  H  H34  1  0.137200  0.189000  0.360000  1.0  0.093
  H  H35  1  0.561800  0.859500  0.299600  1.0  0.1205
  H  H36  1  0.672200  0.366300  0.226400  1.0  0.0979
  H  H37  1  0.513200  0.039800  0.614400  1.0  0.1256
  H  H38  1  0.327800  0.633700  0.773600  1.0  0.0983
  H  H39  1  0.112500  0.414500  0.628200  1.0  0.0735
  H  H40  1  0.862800  0.811000  0.640000  1.0  0.0928
  H  H41  1  0.486800  0.960200  0.385600  1.0  0.1268
  H  H42  1  0.513900  0.148000  0.524600  1.0  0.0832
  H  H43  1  0.827800  0.139900  0.773600  1.0  0.0956
  H  H44  1  0.013200  0.574600  0.614400  1.0  0.1278
  H  H45  1  0.938200  0.559900  0.700400  1.0  0.1205
  H  H46  1  0.912000  0.961100  0.099200  1.0  0.0996
  H  H47  1  0.061800  0.440100  0.299600  1.0  0.1203
  H  H48  1  0.486100  0.852000  0.475400  1.0  0.083
  C  C49  1  0.306100  0.702310  0.769420  1.0  0.1713
  C  C50  1  0.598400  0.713180  0.382480  1.0  -0.3636
  C  C51  1  0.441500  0.102720  0.629140  1.0  -0.3381
  C  C52  1  0.742200  0.859360  0.757920  1.0  -0.1702
  C  C53  1  0.098400  0.669300  0.382480  1.0  -0.3645
  C  C54  1  0.058500  0.473580  0.370860  1.0  -0.3408
  C  C55  1  0.673100  0.183710  0.308620  1.0  0.1805
  C  C56  1  0.599500  0.935050  0.903900  1.0  0.1268
  C  C57  1  0.806100  0.067110  0.769420  1.0  0.1729
  C  C58  1  0.941500  0.526420  0.629140  1.0  -0.3393
  C  C59  1  0.221700  0.475170  0.419340  1.0  0.7078
  C  C60  1  0.220300  0.779820  0.838040  1.0  -0.156
  C  C61  1  0.279700  0.941780  0.161960  1.0  -0.1591
  C  C62  1  0.901600  0.330700  0.617520  1.0  -0.3646
  C  C63  1  0.443700  0.366760  0.574800  1.0  0.713
  C  C64  1  0.187600  0.880510  0.832420  1.0  -0.0294
  C  C65  1  0.505900  0.186520  0.595420  1.0  -0.014
  C  C66  1  0.558500  0.897280  0.370860  1.0  -0.3405
  C  C67  1  0.099500  0.968850  0.903900  1.0  0.1248
  C  C68  1  0.994100  0.591100  0.404580  1.0  -0.0137
  C  C69  1  0.193900  0.932890  0.230580  1.0  0.1723
  C  C70  1  0.400500  0.064950  0.096100  1.0  0.128
  C  C71  1  0.687600  0.951910  0.832420  1.0  -0.029
  C  C72  1  0.401600  0.286820  0.617520  1.0  -0.3633
  C  C73  1  0.326900  0.816290  0.691380  1.0  0.1807
  C  C74  1  0.056300  0.791960  0.425200  1.0  0.7119
  C  C75  1  0.312400  0.048090  0.167580  1.0  -0.0291
  C  C76  1  0.900500  0.031150  0.096100  1.0  0.1269
  C  C77  1  0.242200  0.898560  0.757920  1.0  -0.179
  C  C78  1  0.257800  0.140640  0.242080  1.0  -0.1785
  C  C79  1  0.720300  0.058220  0.838040  1.0  -0.1574
  C  C80  1  0.721700  0.944170  0.419340  1.0  0.708
  C  C81  1  0.556300  0.633240  0.425200  1.0  0.7115
  C  C82  1  0.779700  0.220180  0.161960  1.0  -0.1573
  C  C83  1  0.778300  0.524830  0.580660  1.0  0.7053
  C  C84  1  0.812400  0.119490  0.167580  1.0  -0.0299
  C  C85  1  0.757800  0.101440  0.242080  1.0  -0.1794
  C  C86  1  0.943700  0.208040  0.574800  1.0  0.7116
  C  C87  1  0.278300  0.055830  0.580660  1.0  0.7058
  C  C88  1  0.494100  0.813480  0.404580  1.0  -0.0137
  C  C89  1  0.693900  0.297690  0.230580  1.0  0.1708
  C  C90  1  0.005900  0.408900  0.595420  1.0  -0.0162
  C  C91  1  0.173100  0.124910  0.308620  1.0  0.1811
  C  C92  1  0.826900  0.875090  0.691380  1.0  0.1801
  N  N93  1  0.360200  0.719250  0.696920  1.0  -0.3289
  N  N94  1  0.038900  0.952260  0.969720  1.0  -0.2299
  N  N95  1  0.639800  0.280750  0.303080  1.0  -0.3303
  N  N96  1  0.461100  0.982540  0.030280  1.0  -0.2299
  N  N97  1  0.860200  0.977670  0.696920  1.0  -0.3299
  N  N98  1  0.961100  0.047740  0.030280  1.0  -0.2303
  N  N99  1  0.139800  0.022330  0.303080  1.0  -0.3296
  N  N100  1  0.538900  0.017460  0.969720  1.0  -0.2308
  O  O101  1  0.573700  0.530360  0.374420  1.0  -0.569
  O  O102  1  0.012000  0.834010  0.509080  1.0  -0.5681
  O  O103  1  0.747000  0.453130  0.494600  1.0  -0.5629
  O  O104  1  0.073700  0.844060  0.374420  1.0  -0.5694
  O  O105  1  0.753000  0.958530  0.505400  1.0  -0.5617
  O  O106  1  0.816000  0.964060  0.369180  1.0  -0.5816
  O  O107  1  0.512000  0.675070  0.509080  1.0  -0.568
  O  O108  1  0.988000  0.165990  0.490920  1.0  -0.5687
  O  O109  1  0.184000  0.035940  0.630820  1.0  -0.5813
  O  O110  1  0.926300  0.155940  0.625580  1.0  -0.57
  O  O111  1  0.247000  0.041470  0.494600  1.0  -0.5633
  O  O112  1  0.488000  0.324930  0.490920  1.0  -0.5687
  O  O113  1  0.253000  0.546870  0.505400  1.0  -0.5624
  O  O114  1  0.316000  0.405120  0.369180  1.0  -0.5789
  O  O115  1  0.684000  0.594880  0.630820  1.0  -0.5798
  O  O116  1  0.426300  0.469640  0.625580  1.0  -0.5686
