# generated using pymatgen
data_CuH11C11NO4
_symmetry_space_group_name_H-M   'P 1'
_cell_length_a   8.57710000
_cell_length_b   13.24830000
_cell_length_c   13.81250000
_cell_angle_alpha   118.65800000
_cell_angle_beta   90.07020000
_cell_angle_gamma   90.00000000
_symmetry_Int_Tables_number   1
_chemical_formula_structural   CuH11C11NO4
_chemical_formula_sum   'Cu4 H44 C44 N4 O16'
_cell_volume   1377.26847168
_cell_formula_units_Z   4
loop_
 _symmetry_equiv_pos_site_id
 _symmetry_equiv_pos_as_xyz
  1  'x, y, z'
loop_
 _atom_site_type_symbol
 _atom_site_label
 _atom_site_symmetry_multiplicity
 _atom_site_fract_x
 _atom_site_fract_y
 _atom_site_fract_z
 _atom_site_occupancy
 _atom_site_charge
  Cu  Cu1  1  0.949920  0.001480  0.590900  1.0  0.8207
  Cu  Cu2  1  0.050080  0.998520  0.409100  1.0  0.8205
  Cu  Cu3  1  0.550080  0.410580  0.409100  1.0  0.8203
  Cu  Cu4  1  0.449920  0.589420  0.590900  1.0  0.8208
  H  H5  1  0.910100  0.581700  0.357000  1.0  0.0747
  H  H6  1  0.274900  0.261800  0.599000  1.0  0.1338
  H  H7  1  0.514500  0.881700  0.942600  1.0  0.101
  H  H8  1  0.410100  0.775300  0.357000  1.0  0.0729
  H  H9  1  0.592100  0.843600  0.273000  1.0  0.1131
  H  H10  1  0.632800  0.659400  0.289400  1.0  0.1277
  H  H11  1  0.312100  0.197700  0.215000  1.0  0.1238
  H  H12  1  0.995000  0.579100  0.628800  1.0  0.1206
  H  H13  1  0.985500  0.939100  0.057400  1.0  0.1
  H  H14  1  0.008200  0.375600  0.525400  1.0  0.0796
  H  H15  1  0.601700  0.145000  0.931000  1.0  0.1249
  H  H16  1  0.991800  0.624400  0.474600  1.0  0.0799
  H  H17  1  0.101700  0.786000  0.931000  1.0  0.1264
  H  H18  1  0.265100  0.647900  0.802800  1.0  0.0852
  H  H19  1  0.687900  0.802300  0.785000  1.0  0.124
  H  H20  1  0.765100  0.154900  0.802800  1.0  0.0837
  H  H21  1  0.898300  0.214000  0.069000  1.0  0.1266
  H  H22  1  0.491800  0.850200  0.474600  1.0  0.0792
  H  H23  1  0.089900  0.418300  0.643000  1.0  0.0754
  H  H24  1  0.398300  0.855000  0.069000  1.0  0.1249
  H  H25  1  0.225100  0.662800  0.401000  1.0  0.1317
  H  H26  1  0.014500  0.060900  0.942600  1.0  0.1009
  H  H27  1  0.005000  0.420900  0.371200  1.0  0.1198
  H  H28  1  0.848600  0.822600  0.661000  1.0  0.0871
  H  H29  1  0.734900  0.352100  0.197200  1.0  0.0848
  H  H30  1  0.589900  0.224700  0.643000  1.0  0.075
  H  H31  1  0.812100  0.017300  0.215000  1.0  0.1239
  H  H32  1  0.151400  0.177400  0.339000  1.0  0.0871
  H  H33  1  0.132800  0.630000  0.289400  1.0  0.1245
  H  H34  1  0.907900  0.570600  0.727000  1.0  0.1123
  H  H35  1  0.505000  0.950300  0.371200  1.0  0.1186
  H  H36  1  0.508200  0.149800  0.525400  1.0  0.0802
  H  H37  1  0.651400  0.161600  0.339000  1.0  0.0883
  H  H38  1  0.867200  0.370000  0.710600  1.0  0.124
  H  H39  1  0.407900  0.156400  0.727000  1.0  0.1113
  H  H40  1  0.495000  0.049700  0.628800  1.0  0.1185
  H  H41  1  0.234900  0.845100  0.197200  1.0  0.0842
  H  H42  1  0.485500  0.118300  0.057400  1.0  0.1013
  H  H43  1  0.092100  0.429400  0.273000  1.0  0.1146
  H  H44  1  0.187900  0.982700  0.785000  1.0  0.1246
  H  H45  1  0.367200  0.340600  0.710600  1.0  0.128
  H  H46  1  0.348600  0.838400  0.661000  1.0  0.0907
  H  H47  1  0.774900  0.337200  0.599000  1.0  0.1334
  H  H48  1  0.725100  0.738200  0.401000  1.0  0.1322
  C  C49  1  0.621200  0.706330  0.370420  1.0  -0.358
  C  C50  1  0.750200  0.082600  0.800200  1.0  0.175
  C  C51  1  0.967700  0.002380  0.044440  1.0  -0.1142
  C  C52  1  0.847600  0.200350  0.122740  1.0  -0.211
  C  C53  1  0.652400  0.077610  0.877260  1.0  -0.2127
  C  C54  1  0.296900  0.123760  0.208620  1.0  -0.2041
  C  C55  1  0.571000  0.627920  0.416240  1.0  0.709
  C  C56  1  0.929000  0.211680  0.583760  1.0  0.7096
  C  C57  1  0.703100  0.876240  0.791380  1.0  -0.203
  C  C58  1  0.378800  0.293670  0.629580  1.0  -0.3598
  C  C59  1  0.235500  0.470470  0.407120  1.0  0.7102
  C  C60  1  0.264500  0.063350  0.592880  1.0  0.7079
  C  C61  1  0.071000  0.788320  0.416240  1.0  0.7092
  C  C62  1  0.467700  0.042060  0.044440  1.0  -0.1116
  C  C63  1  0.878800  0.335910  0.629580  1.0  -0.362
  C  C64  1  0.796900  0.084860  0.208620  1.0  -0.2025
  C  C65  1  0.764500  0.529530  0.592880  1.0  0.7089
  C  C66  1  0.429000  0.372080  0.583760  1.0  0.711
  C  C67  1  0.249800  0.917400  0.199800  1.0  0.1762
  C  C68  1  0.079200  0.467380  0.354040  1.0  -0.3346
  C  C69  1  0.299100  0.828460  0.717380  1.0  0.1822
  C  C70  1  0.200900  0.111080  0.282620  1.0  0.1827
  C  C71  1  0.128900  0.903400  0.875000  1.0  0.1207
  C  C72  1  0.532300  0.957940  0.955560  1.0  -0.1146
  C  C73  1  0.735500  0.936650  0.407120  1.0  0.7101
  C  C74  1  0.032300  0.997620  0.955560  1.0  -0.1136
  C  C75  1  0.871100  0.096600  0.125000  1.0  0.1205
  C  C76  1  0.152400  0.799650  0.877260  1.0  -0.2089
  C  C77  1  0.920800  0.532620  0.645960  1.0  -0.3319
  C  C78  1  0.799100  0.888920  0.717380  1.0  0.1825
  C  C79  1  0.488800  0.193900  0.605800  1.0  -0.013
  C  C80  1  0.420800  0.113340  0.645960  1.0  -0.3317
  C  C81  1  0.628900  0.971600  0.875000  1.0  0.1202
  C  C82  1  0.121200  0.664090  0.370420  1.0  -0.3603
  C  C83  1  0.250200  0.717600  0.800200  1.0  0.1748
  C  C84  1  0.988800  0.411900  0.605800  1.0  -0.0158
  C  C85  1  0.511200  0.806100  0.394200  1.0  -0.0128
  C  C86  1  0.700900  0.171540  0.282620  1.0  0.1828
  C  C87  1  0.579200  0.886660  0.354040  1.0  -0.3343
  C  C88  1  0.011200  0.588100  0.394200  1.0  -0.0142
  C  C89  1  0.371100  0.028400  0.125000  1.0  0.1209
  C  C90  1  0.749800  0.282400  0.199800  1.0  0.176
  C  C91  1  0.347600  0.922390  0.122740  1.0  -0.2122
  C  C92  1  0.203100  0.915140  0.791380  1.0  -0.1972
  N  N93  1  0.824940  0.990950  0.722080  1.0  -0.3443
  N  N94  1  0.675060  0.268870  0.277920  1.0  -0.3454
  N  N95  1  0.175060  0.009050  0.277920  1.0  -0.3443
  N  N96  1  0.324940  0.731130  0.722080  1.0  -0.3439
  O  O97  1  0.094400  0.834350  0.356520  1.0  -0.5818
  O  O98  1  0.162270  0.049790  0.651280  1.0  -0.5846
  O  O99  1  0.747150  0.454520  0.493820  1.0  -0.5695
  O  O100  1  0.405600  0.477830  0.643480  1.0  -0.5805
  O  O101  1  0.905600  0.165650  0.643480  1.0  -0.5822
  O  O102  1  0.594400  0.522170  0.356520  1.0  -0.5809
  O  O103  1  0.986660  0.162180  0.488140  1.0  -0.5738
  O  O104  1  0.513340  0.674040  0.511860  1.0  -0.5734
  O  O105  1  0.013340  0.837820  0.511860  1.0  -0.5738
  O  O106  1  0.752850  0.960700  0.506180  1.0  -0.5688
  O  O107  1  0.337730  0.398510  0.348720  1.0  -0.5843
  O  O108  1  0.252850  0.545480  0.506180  1.0  -0.569
  O  O109  1  0.247150  0.039300  0.493820  1.0  -0.5695
  O  O110  1  0.837730  0.950210  0.348720  1.0  -0.5853
  O  O111  1  0.486660  0.325960  0.488140  1.0  -0.5734
  O  O112  1  0.662270  0.601490  0.651280  1.0  -0.584
