# generated using pymatgen
data_KCo(CN)6
_symmetry_space_group_name_H-M   'P 1'
_cell_length_a   8.71510000
_cell_length_b   8.71510000
_cell_length_c   19.01100000
_cell_angle_alpha   90.00000000
_cell_angle_beta   90.00000000
_cell_angle_gamma   120.00000000
_symmetry_Int_Tables_number   1
_chemical_formula_structural   KCo(CN)6
_chemical_formula_sum   'K3 Co3 C18 N18'
_cell_volume   1250.49034520
_cell_formula_units_Z   3
loop_
 _symmetry_equiv_pos_site_id
 _symmetry_equiv_pos_as_xyz
  1  'x, y, z'
loop_
 _atom_site_type_symbol
 _atom_site_label
 _atom_site_symmetry_multiplicity
 _atom_site_fract_x
 _atom_site_fract_y
 _atom_site_fract_z
 _atom_site_occupancy
 _atom_site_charge
  K  K1  1  0.000000  0.000000  0.500000  1.0  1.0589
  K  K2  1  0.666667  0.333333  0.833330  1.0  1.0574
  K  K3  1  0.333333  0.666667  0.166670  1.0  1.0578
  Co  Co4  1  0.666667  0.333333  0.333333  1.0  -0.1897
  Co  Co5  1  0.333333  0.666667  0.666667  1.0  -0.189
  Co  Co6  1  0.000000  0.000000  0.000000  1.0  -0.1834
  C  C7  1  0.770400  0.540800  0.390030  1.0  0.2981
  C  C8  1  0.437070  0.874130  0.723360  1.0  0.298
  C  C9  1  0.103730  0.207470  0.056700  1.0  0.3051
  C  C10  1  0.459200  0.229600  0.390030  1.0  0.2999
  C  C11  1  0.125870  0.562930  0.723360  1.0  0.3034
  C  C12  1  0.792530  0.896270  0.056700  1.0  0.307
  C  C13  1  0.770400  0.229600  0.390030  1.0  0.3077
  C  C14  1  0.437070  0.562930  0.723360  1.0  0.3077
  C  C15  1  0.103730  0.896270  0.056700  1.0  0.3001
  C  C16  1  0.540800  0.770400  0.609970  1.0  0.3073
  C  C17  1  0.207470  0.103730  0.943300  1.0  0.3099
  C  C18  1  0.874130  0.437070  0.276640  1.0  0.3102
  C  C19  1  0.229600  0.459200  0.609970  1.0  0.3117
  C  C20  1  0.896270  0.792530  0.943300  1.0  0.3122
  C  C21  1  0.562930  0.125870  0.276640  1.0  0.3117
  C  C22  1  0.229600  0.770400  0.609970  1.0  0.3119
  C  C23  1  0.896270  0.103730  0.943300  1.0  0.308
  C  C24  1  0.562930  0.437070  0.276640  1.0  0.3119
  N  N25  1  0.834250  0.668500  0.422660  1.0  -0.4589
  N  N26  1  0.500920  0.001830  0.755990  1.0  -0.4589
  N  N27  1  0.167580  0.335170  0.089330  1.0  -0.4577
  N  N28  1  0.331500  0.165750  0.422660  1.0  -0.4535
  N  N29  1  0.998170  0.499080  0.755990  1.0  -0.4535
  N  N30  1  0.664830  0.832420  0.089330  1.0  -0.4524
  N  N31  1  0.834250  0.165750  0.422660  1.0  -0.446
  N  N32  1  0.500920  0.499080  0.755990  1.0  -0.4429
  N  N33  1  0.167580  0.832420  0.089330  1.0  -0.4434
  N  N34  1  0.668500  0.834250  0.577340  1.0  -0.4568
  N  N35  1  0.335170  0.167580  0.910670  1.0  -0.4553
  N  N36  1  0.001830  0.500920  0.244010  1.0  -0.4568
  N  N37  1  0.165750  0.331500  0.577340  1.0  -0.456
  N  N38  1  0.832420  0.664830  0.910670  1.0  -0.4546
  N  N39  1  0.499080  0.998170  0.244010  1.0  -0.456
  N  N40  1  0.165750  0.834250  0.577340  1.0  -0.4456
  N  N41  1  0.832420  0.167580  0.910670  1.0  -0.4433
  N  N42  1  0.499080  0.500920  0.244010  1.0  -0.4425
