# generated using pymatgen
data_KCo(CN)6
_symmetry_space_group_name_H-M   'P 1'
_cell_length_a   8.73800000
_cell_length_b   8.73800000
_cell_length_c   18.70900000
_cell_angle_alpha   90.00000000
_cell_angle_beta   90.00000000
_cell_angle_gamma   120.00000000
_symmetry_Int_Tables_number   1
_chemical_formula_structural   KCo(CN)6
_chemical_formula_sum   'K3 Co3 C18 N18'
_cell_volume   1237.10136881
_cell_formula_units_Z   3
loop_
 _symmetry_equiv_pos_site_id
 _symmetry_equiv_pos_as_xyz
  1  'x, y, z'
loop_
 _atom_site_type_symbol
 _atom_site_label
 _atom_site_symmetry_multiplicity
 _atom_site_fract_x
 _atom_site_fract_y
 _atom_site_fract_z
 _atom_site_occupancy
 _atom_site_charge
  K  K1  1  0.666667  0.333333  0.333333  1.0  1.0551
  K  K2  1  0.333333  0.666667  0.666667  1.0  1.0547
  K  K3  1  0.000000  0.000000  0.000000  1.0  1.0561
  Co  Co4  1  0.000000  0.000000  0.500000  1.0  -0.1841
  Co  Co5  1  0.666667  0.333333  0.833330  1.0  -0.1896
  Co  Co6  1  0.333333  0.666667  0.166670  1.0  -0.1903
  C  C7  1  0.896150  0.792300  0.442700  1.0  0.3009
  C  C8  1  0.562820  0.125630  0.776030  1.0  0.3053
  C  C9  1  0.229480  0.458970  0.109370  1.0  0.3053
  C  C10  1  0.207700  0.103850  0.442700  1.0  0.3081
  C  C11  1  0.874370  0.437180  0.776030  1.0  0.3081
  C  C12  1  0.541030  0.770520  0.109370  1.0  0.3081
  C  C13  1  0.896150  0.103850  0.442700  1.0  0.3006
  C  C14  1  0.562820  0.437180  0.776030  1.0  0.3006
  C  C15  1  0.229480  0.770520  0.109370  1.0  0.3006
  C  C16  1  0.792300  0.896150  0.557300  1.0  0.3116
  C  C17  1  0.458970  0.229480  0.890630  1.0  0.3116
  C  C18  1  0.125630  0.562820  0.223970  1.0  0.3107
  C  C19  1  0.103850  0.207700  0.557300  1.0  0.3087
  C  C20  1  0.770520  0.541030  0.890630  1.0  0.308
  C  C21  1  0.437180  0.874370  0.223970  1.0  0.3087
  C  C22  1  0.103850  0.896150  0.557300  1.0  0.3079
  C  C23  1  0.770520  0.229480  0.890630  1.0  0.3079
  C  C24  1  0.437180  0.562820  0.223970  1.0  0.3079
  N  N25  1  0.832550  0.665100  0.410000  1.0  -0.4558
  N  N26  1  0.499220  0.998430  0.743330  1.0  -0.4558
  N  N27  1  0.165880  0.331770  0.076670  1.0  -0.4532
  N  N28  1  0.334900  0.167450  0.410000  1.0  -0.4561
  N  N29  1  0.001570  0.500780  0.743330  1.0  -0.4561
  N  N30  1  0.668230  0.834120  0.076670  1.0  -0.4534
  N  N31  1  0.832550  0.167450  0.410000  1.0  -0.4467
  N  N32  1  0.499220  0.500780  0.743330  1.0  -0.4414
  N  N33  1  0.165880  0.834120  0.076670  1.0  -0.4435
  N  N34  1  0.665100  0.832550  0.590000  1.0  -0.4534
  N  N35  1  0.331770  0.165880  0.923330  1.0  -0.4503
  N  N36  1  0.998430  0.499220  0.256670  1.0  -0.4534
  N  N37  1  0.167450  0.334900  0.590000  1.0  -0.4582
  N  N38  1  0.834120  0.668230  0.923330  1.0  -0.4554
  N  N39  1  0.500780  0.001570  0.256670  1.0  -0.4582
  N  N40  1  0.167450  0.832550  0.590000  1.0  -0.4467
  N  N41  1  0.834120  0.165880  0.923330  1.0  -0.4436
  N  N42  1  0.500780  0.499220  0.256670  1.0  -0.4414
