# generated using pymatgen
data_KCo(CN)6
_symmetry_space_group_name_H-M   'P 1'
_cell_length_a   13.42700000
_cell_length_b   8.73180000
_cell_length_c   15.08300000
_cell_angle_alpha   90.00000000
_cell_angle_beta   111.70000000
_cell_angle_gamma   90.00000000
_symmetry_Int_Tables_number   1
_chemical_formula_structural   KCo(CN)6
_chemical_formula_sum   'K4 Co4 C24 N24'
_cell_volume   1643.04018192
_cell_formula_units_Z   4
loop_
 _symmetry_equiv_pos_site_id
 _symmetry_equiv_pos_as_xyz
  1  'x, y, z'
loop_
 _atom_site_type_symbol
 _atom_site_label
 _atom_site_symmetry_multiplicity
 _atom_site_fract_x
 _atom_site_fract_y
 _atom_site_fract_z
 _atom_site_occupancy
 _atom_site_charge
  K  K1  1  0.500000  0.251320  0.750000  1.0  1.0722
  K  K2  1  0.000000  0.751320  0.750000  1.0  1.0722
  K  K3  1  0.500000  0.748680  0.250000  1.0  1.0711
  K  K4  1  0.000000  0.248680  0.250000  1.0  1.0711
  Co  Co5  1  0.750000  0.250000  0.500000  1.0  -0.1749
  Co  Co6  1  0.250000  0.250000  0.000000  1.0  -0.1749
  Co  Co7  1  0.250000  0.750000  0.500000  1.0  -0.1749
  Co  Co8  1  0.750000  0.750000  0.000000  1.0  -0.1749
  C  C9  1  0.663900  0.235400  0.575300  1.0  0.3079
  C  C10  1  0.834900  0.400400  0.587100  1.0  0.3076
  C  C11  1  0.835400  0.087600  0.574300  1.0  0.305
  C  C12  1  0.163900  0.735400  0.575300  1.0  0.3079
  C  C13  1  0.334900  0.900400  0.587100  1.0  0.3076
  C  C14  1  0.335400  0.587600  0.574300  1.0  0.305
  C  C15  1  0.336100  0.235400  0.924700  1.0  0.3078
  C  C16  1  0.165100  0.400400  0.912900  1.0  0.3075
  C  C17  1  0.164600  0.087600  0.925700  1.0  0.3035
  C  C18  1  0.836100  0.735400  0.924700  1.0  0.3078
  C  C19  1  0.665100  0.900400  0.912900  1.0  0.3075
  C  C20  1  0.664600  0.587600  0.925700  1.0  0.3035
  C  C21  1  0.336100  0.764600  0.424700  1.0  0.3047
  C  C22  1  0.165100  0.599600  0.412900  1.0  0.3087
  C  C23  1  0.164600  0.912400  0.425700  1.0  0.3076
  C  C24  1  0.836100  0.264600  0.424700  1.0  0.3047
  C  C25  1  0.665100  0.099600  0.412900  1.0  0.3087
  C  C26  1  0.664600  0.412400  0.425700  1.0  0.3076
  C  C27  1  0.663900  0.764600  0.075300  1.0  0.3048
  C  C28  1  0.834900  0.599600  0.087100  1.0  0.3087
  C  C29  1  0.835400  0.912400  0.074300  1.0  0.3069
  C  C30  1  0.163900  0.264600  0.075300  1.0  0.3048
  C  C31  1  0.334900  0.099600  0.087100  1.0  0.3087
  C  C32  1  0.335400  0.412400  0.074300  1.0  0.3069
  N  N33  1  0.614800  0.222600  0.623200  1.0  -0.4543
  N  N34  1  0.882500  0.492100  0.641000  1.0  -0.4888
  N  N35  1  0.882100  0.983600  0.616000  1.0  -0.4249
  N  N36  1  0.114800  0.722600  0.623200  1.0  -0.4543
  N  N37  1  0.382500  0.992100  0.641000  1.0  -0.4888
  N  N38  1  0.382100  0.483600  0.616000  1.0  -0.4249
  N  N39  1  0.385200  0.222600  0.876800  1.0  -0.4541
  N  N40  1  0.117500  0.492100  0.859000  1.0  -0.4879
  N  N41  1  0.117900  0.983600  0.884000  1.0  -0.426
  N  N42  1  0.885200  0.722600  0.876800  1.0  -0.4541
  N  N43  1  0.617500  0.992100  0.859000  1.0  -0.4879
  N  N44  1  0.617900  0.483600  0.884000  1.0  -0.426
  N  N45  1  0.385200  0.777400  0.376800  1.0  -0.4537
  N  N46  1  0.117500  0.507900  0.359000  1.0  -0.4855
  N  N47  1  0.117900  0.016400  0.384000  1.0  -0.4299
  N  N48  1  0.885200  0.277400  0.376800  1.0  -0.4537
  N  N49  1  0.617500  0.007900  0.359000  1.0  -0.4855
  N  N50  1  0.617900  0.516400  0.384000  1.0  -0.4299
  N  N51  1  0.614800  0.777400  0.123200  1.0  -0.4543
  N  N52  1  0.882500  0.507900  0.141000  1.0  -0.4855
  N  N53  1  0.882100  0.016400  0.116000  1.0  -0.4293
  N  N54  1  0.114800  0.277400  0.123200  1.0  -0.4543
  N  N55  1  0.382500  0.007900  0.141000  1.0  -0.4855
  N  N56  1  0.382100  0.516400  0.116000  1.0  -0.4293
