# generated using pymatgen
data_NdP2H22C30NO13
_symmetry_space_group_name_H-M   'P 1'
_cell_length_a   9.94620000
_cell_length_b   23.35700000
_cell_length_c   23.60350000
_cell_angle_alpha   94.99800000
_cell_angle_beta   96.62600000
_cell_angle_gamma   90.66800000
_symmetry_Int_Tables_number   1
_chemical_formula_structural   NdP2H22C30NO13
_chemical_formula_sum   'Nd4 P8 H88 C120 N4 O52'
_cell_volume   5424.76650675
_cell_formula_units_Z   4
loop_
 _symmetry_equiv_pos_site_id
 _symmetry_equiv_pos_as_xyz
  1  'x, y, z'
loop_
 _atom_site_type_symbol
 _atom_site_label
 _atom_site_symmetry_multiplicity
 _atom_site_fract_x
 _atom_site_fract_y
 _atom_site_fract_z
 _atom_site_occupancy
 _atom_site_charge
  Nd  Nd1  1  0.782600  0.980560  0.998080  1.0  2.2607
  Nd  Nd2  1  0.262860  0.497600  0.520470  1.0  2.101
  Nd  Nd3  1  0.217400  0.019440  0.001920  1.0  2.2617
  Nd  Nd4  1  0.737140  0.502400  0.479530  1.0  2.0996
  P  P5  1  0.058200  0.898010  0.071050  1.0  1.4134
  P  P6  1  0.006800  0.607780  0.518140  1.0  1.4208
  P  P7  1  0.511500  0.967760  0.089960  1.0  1.4509
  P  P8  1  0.429100  0.417100  0.412820  1.0  1.4847
  P  P9  1  0.941800  0.101990  0.928950  1.0  1.4151
  P  P10  1  0.993200  0.392220  0.481860  1.0  1.4199
  P  P11  1  0.488500  0.032240  0.910040  1.0  1.4535
  P  P12  1  0.570900  0.582900  0.587180  1.0  1.4894
  H  H13  1  0.781600  0.797300  0.466400  1.0  0.094
  H  H14  1  0.890400  0.846800  0.468600  1.0  0.1079
  H  H15  1  0.704000  0.737000  0.363000  1.0  0.0946
  H  H16  1  0.727000  0.826000  0.225000  1.0  0.1149
  H  H17  1  0.791000  0.942000  0.252000  1.0  0.0894
  H  H18  1  0.908000  0.950000  0.301000  1.0  0.1207
  H  H19  1  0.898000  0.910000  0.162000  1.0  0.2119
  H  H20  1  0.273000  0.869000  0.156000  1.0  0.1552
  H  H21  1  0.423600  0.855200  0.233700  1.0  0.1146
  H  H22  1  0.392300  0.889400  0.290600  1.0  0.1094
  H  H23  1  0.340800  0.749300  0.218800  1.0  0.1088
  H  H24  1  0.314000  0.661000  0.260000  1.0  0.1039
  H  H25  1  0.337000  0.666000  0.360000  1.0  0.0928
  H  H26  1  0.403200  0.721400  0.454300  1.0  0.1147
  H  H27  1  0.376500  0.787500  0.459000  1.0  0.1204
  H  H28  1  0.221000  0.672000  0.484000  1.0  0.2271
  H  H29  1  0.817000  0.704000  0.481000  1.0  0.0099
  H  H30  1  0.820000  0.984000  0.457000  1.0  0.3005
  H  H31  1  0.796000  0.934000  0.439000  1.0  0.209
  H  H32  1  0.503000  0.918000  0.428000  1.0  0.1058
  H  H33  1  0.576000  0.849000  0.422000  1.0  0.1175
  H  H34  1  0.830000  0.244000  0.421000  1.0  0.1622
  H  H35  1  0.851000  0.296000  0.394000  1.0  0.1207
  H  H36  1  0.786100  0.289800  0.281800  1.0  0.1052
  H  H37  1  0.796000  0.239000  0.184000  1.0  0.1145
  H  H38  1  0.812600  0.138000  0.189200  1.0  0.1076
  H  H39  1  0.849400  0.054400  0.308400  1.0  0.0939
  H  H40  1  0.894100  0.054000  0.246700  1.0  0.0988
  H  H41  1  0.737000  0.017200  0.164600  1.0  0.104
  H  H42  1  0.363000  0.973300  0.180700  1.0  0.1499
  H  H43  1  0.242600  0.983000  0.267300  1.0  -0.004
  H  H44  1  0.374900  0.013200  0.336100  1.0  0.1049
  H  H45  1  0.165600  0.095100  0.230400  1.0  0.2382
  H  H46  1  0.137100  0.173000  0.245400  1.0  0.2635
  H  H47  1  0.178900  0.225400  0.331600  1.0  0.123
  H  H48  1  0.228000  0.217000  0.438000  1.0  0.1048
  H  H49  1  0.365000  0.178000  0.449000  1.0  0.1961
  H  H50  1  0.303400  0.310800  0.425700  1.0  0.0928
  H  H51  1  0.680000  0.365000  0.407000  1.0  0.0991
  H  H52  1  0.958000  0.104000  0.435000  1.0  0.1123
  H  H53  1  0.020000  0.121000  0.363000  1.0  0.1369
  H  H54  1  0.368200  0.025300  0.458600  1.0  0.1163
  H  H55  1  0.253700  0.019400  0.406800  1.0  0.1031
  H  H56  1  0.256800  0.072000  0.453000  1.0  0.1036
  H  H57  1  0.218400  0.202700  0.533600  1.0  0.0922
  H  H58  1  0.109600  0.153200  0.531400  1.0  0.1086
  H  H59  1  0.296000  0.263000  0.637000  1.0  0.0935
  H  H60  1  0.273000  0.174000  0.775000  1.0  0.1158
  H  H61  1  0.209000  0.058000  0.748000  1.0  0.0898
  H  H62  1  0.092000  0.050000  0.699000  1.0  0.1206
  H  H63  1  0.102000  0.090000  0.838000  1.0  0.2099
  H  H64  1  0.727000  0.131000  0.844000  1.0  0.1559
  H  H65  1  0.576400  0.144800  0.766300  1.0  0.1175
  H  H66  1  0.607700  0.110600  0.709400  1.0  0.1107
  H  H67  1  0.659200  0.250700  0.781200  1.0  0.108
  H  H68  1  0.686000  0.339000  0.740000  1.0  0.1037
  H  H69  1  0.663000  0.334000  0.640000  1.0  0.0938
  H  H70  1  0.596800  0.278600  0.545700  1.0  0.1154
  H  H71  1  0.623500  0.212500  0.541000  1.0  0.1201
  H  H72  1  0.779000  0.328000  0.516000  1.0  0.226
  H  H73  1  0.183000  0.296000  0.519000  1.0  0.0093
  H  H74  1  0.180000  0.016000  0.543000  1.0  0.302
  H  H75  1  0.204000  0.066000  0.561000  1.0  0.2076
  H  H76  1  0.497000  0.082000  0.572000  1.0  0.106
  H  H77  1  0.424000  0.151000  0.578000  1.0  0.1159
  H  H78  1  0.170000  0.756000  0.579000  1.0  0.163
  H  H79  1  0.149000  0.704000  0.606000  1.0  0.1206
  H  H80  1  0.213900  0.710200  0.718200  1.0  0.1065
  H  H81  1  0.204000  0.761000  0.816000  1.0  0.1132
  H  H82  1  0.187400  0.862000  0.810800  1.0  0.1071
  H  H83  1  0.150600  0.945600  0.691600  1.0  0.0939
  H  H84  1  0.105900  0.946000  0.753300  1.0  0.0989
  H  H85  1  0.263000  0.982800  0.835400  1.0  0.1032
  H  H86  1  0.637000  0.026700  0.819300  1.0  0.1496
  H  H87  1  0.757400  0.017000  0.732700  1.0  -0.0048
  H  H88  1  0.625100  0.986800  0.663900  1.0  0.1035
  H  H89  1  0.834400  0.904900  0.769600  1.0  0.2386
  H  H90  1  0.862900  0.827000  0.754600  1.0  0.2649
  H  H91  1  0.821100  0.774600  0.668400  1.0  0.1246
  H  H92  1  0.772000  0.783000  0.562000  1.0  0.1048
  H  H93  1  0.635000  0.822000  0.551000  1.0  0.1987
  H  H94  1  0.696600  0.689200  0.574300  1.0  0.0931
  H  H95  1  0.320000  0.635000  0.593000  1.0  0.0984
  H  H96  1  0.042000  0.896000  0.565000  1.0  0.1109
  H  H97  1  0.980000  0.879000  0.637000  1.0  0.1372
  H  H98  1  0.631800  0.974700  0.541400  1.0  0.1164
  H  H99  1  0.746300  0.980600  0.593200  1.0  0.1027
  H  H100  1  0.743200  0.928000  0.547000  1.0  0.1039
  C  C101  1  0.972600  0.766600  0.459600  1.0  0.0437
  C  C102  1  0.860300  0.809600  0.449500  1.0  -0.2744
  C  C103  1  0.820300  0.815700  0.386000  1.0  0.0367
  C  C104  1  0.748100  0.771000  0.350700  1.0  -0.0418
  C  C105  1  0.714300  0.774600  0.292500  1.0  -0.0059
  C  C106  1  0.756900  0.825300  0.269100  1.0  -0.0501
  C  C107  1  0.826500  0.868700  0.300800  1.0  0.0779
  C  C108  1  0.877400  0.918400  0.273800  1.0  -0.1274
  C  C109  1  0.993800  0.904200  0.238700  1.0  0.0136
  C  C110  1  0.976000  0.905900  0.180000  1.0  -0.0216
  C  C111  1  0.078700  0.890400  0.146200  1.0  -0.2647
  C  C112  1  0.202600  0.874000  0.175000  1.0  -0.0466
  C  C113  1  0.222100  0.873800  0.232900  1.0  0.0406
  C  C114  1  0.360100  0.858500  0.262000  1.0  -0.2215
  C  C115  1  0.357300  0.801500  0.291200  1.0  0.0314
  C  C116  1  0.342900  0.749900  0.258400  1.0  -0.0546
  C  C117  1  0.331500  0.698500  0.283000  1.0  -0.1398
  C  C118  1  0.332800  0.700800  0.342000  1.0  -0.098
  C  C119  1  0.349300  0.751600  0.376600  1.0  0.0947
  C  C120  1  0.343200  0.750700  0.440000  1.0  -0.2351
  C  C121  1  0.203000  0.739100  0.456000  1.0  0.0599
  C  C122  1  0.172200  0.687400  0.475700  1.0  0.0052
  C  C123  1  0.044200  0.674200  0.489300  1.0  -0.1586
  C  C124  1  0.941900  0.714400  0.479800  1.0  0.3578
  C  C125  1  0.100400  0.778800  0.448900  1.0  0.2289
  C  C126  1  0.855100  0.865300  0.359500  1.0  0.1792
  C  C127  1  0.119100  0.889900  0.264500  1.0  0.2502
  C  C128  1  0.364000  0.800700  0.349700  1.0  0.214
  C  C129  1  0.848400  0.954800  0.414600  1.0  0.242
  C  C130  1  0.512500  0.874500  0.400200  1.0  0.3875
  C  C131  1  0.652700  0.271500  0.398200  1.0  0.0554
  C  C132  1  0.797200  0.258000  0.387100  1.0  -0.1708
  C  C133  1  0.803900  0.223200  0.329100  1.0  -0.0113
  C  C134  1  0.794600  0.250100  0.280100  1.0  -0.1198
  C  C135  1  0.797500  0.218700  0.226600  1.0  0.0172
  C  C136  1  0.809900  0.159000  0.224300  1.0  -0.158
  C  C137  1  0.818100  0.130700  0.273900  1.0  0.0643
  C  C138  1  0.824500  0.066500  0.270300  1.0  -0.2803
  C  C139  1  0.688800  0.037900  0.245000  1.0  -0.0164
  C  C140  1  0.666667  0.016190  0.187260  1.0  -0.0559
  C  C141  1  0.542000  0.993330  0.163620  1.0  -0.2752
  C  C142  1  0.434600  0.993520  0.197480  1.0  -0.0058
  C  C143  1  0.452200  0.014700  0.255020  1.0  -0.0011
  C  C144  1  0.333800  0.015340  0.290360  1.0  0.0343
  C  C145  1  0.283500  0.074080  0.303280  1.0  0.0349
  C  C146  1  0.206100  0.103020  0.262400  1.0  -0.0727
  C  C147  1  0.165400  0.157420  0.273450  1.0  -0.1189
  C  C148  1  0.204200  0.187430  0.325230  1.0  -0.1401
  C  C149  1  0.280700  0.161600  0.367900  1.0  0.0181
  C  C150  1  0.327600  0.196600  0.425500  1.0  -0.064
  C  C151  1  0.426400  0.242900  0.417900  1.0  0.0389
  C  C152  1  0.390900  0.301100  0.419000  1.0  -0.063
  C  C153  1  0.479300  0.344100  0.410500  1.0  -0.2195
  C  C154  1  0.608100  0.329500  0.399400  1.0  -0.0444
  C  C155  1  0.562800  0.230000  0.409400  1.0  0.2004
  C  C156  1  0.818500  0.163100  0.326500  1.0  0.1635
  C  C157  1  0.580500  0.035700  0.279100  1.0  0.1427
  C  C158  1  0.317500  0.105200  0.357000  1.0  0.1741
  C  C159  1  0.962300  0.129000  0.402700  1.0  0.2779
  C  C160  1  0.311400  0.046000  0.432200  1.0  -0.0165
  C  C161  1  0.027400  0.233400  0.540400  1.0  0.0443
  C  C162  1  0.139700  0.190400  0.550500  1.0  -0.2699
  C  C163  1  0.179700  0.184300  0.614000  1.0  0.0371
  C  C164  1  0.251900  0.229000  0.649300  1.0  -0.039
  C  C165  1  0.285700  0.225400  0.707500  1.0  -0.0066
  C  C166  1  0.243100  0.174700  0.730900  1.0  -0.0507
  C  C167  1  0.173500  0.131300  0.699200  1.0  0.079
  C  C168  1  0.122600  0.081600  0.726200  1.0  -0.129
  C  C169  1  0.006200  0.095800  0.761300  1.0  0.015
  C  C170  1  0.024000  0.094100  0.820000  1.0  -0.0233
  C  C171  1  0.921300  0.109600  0.853800  1.0  -0.2599
  C  C172  1  0.797400  0.126000  0.825000  1.0  -0.0463
  C  C173  1  0.777900  0.126200  0.767100  1.0  0.0444
  C  C174  1  0.639900  0.141500  0.738000  1.0  -0.2213
  C  C175  1  0.642700  0.198500  0.708800  1.0  0.0313
  C  C176  1  0.657100  0.250100  0.741600  1.0  -0.0522
  C  C177  1  0.668500  0.301500  0.717000  1.0  -0.138
  C  C178  1  0.667200  0.299200  0.658000  1.0  -0.0983
  C  C179  1  0.650700  0.248400  0.623400  1.0  0.0957
  C  C180  1  0.656800  0.249300  0.560000  1.0  -0.2332
  C  C181  1  0.797000  0.260900  0.544000  1.0  0.0609
  C  C182  1  0.827800  0.312600  0.524300  1.0  0.0033
  C  C183  1  0.955800  0.325800  0.510700  1.0  -0.1561
  C  C184  1  0.058100  0.285600  0.520200  1.0  0.3549
  C  C185  1  0.899600  0.221200  0.551100  1.0  0.2299
  C  C186  1  0.144900  0.134700  0.640500  1.0  0.1789
  C  C187  1  0.880900  0.110100  0.735500  1.0  0.252
  C  C188  1  0.636000  0.199300  0.650300  1.0  0.2142
  C  C189  1  0.151600  0.045200  0.585400  1.0  0.247
  C  C190  1  0.487500  0.125500  0.599800  1.0  0.387
  C  C191  1  0.347300  0.728500  0.601800  1.0  0.0586
  C  C192  1  0.202800  0.742000  0.612900  1.0  -0.1691
  C  C193  1  0.196100  0.776800  0.670900  1.0  -0.0127
  C  C194  1  0.205400  0.749900  0.719900  1.0  -0.1205
  C  C195  1  0.202500  0.781300  0.773400  1.0  0.0179
  C  C196  1  0.190100  0.841000  0.775700  1.0  -0.1602
  C  C197  1  0.181900  0.869300  0.726100  1.0  0.0661
  C  C198  1  0.175500  0.933500  0.729700  1.0  -0.2764
  C  C199  1  0.311200  0.962100  0.755000  1.0  -0.0137
  C  C200  1  0.333333  0.983810  0.812740  1.0  -0.0568
  C  C201  1  0.458000  0.006670  0.836380  1.0  -0.2731
  C  C202  1  0.565400  0.006480  0.802520  1.0  -0.005
  C  C203  1  0.547800  0.985300  0.744980  1.0  -0.0007
  C  C204  1  0.666200  0.984660  0.709640  1.0  0.0351
  C  C205  1  0.716500  0.925920  0.696720  1.0  0.0367
  C  C206  1  0.793900  0.896980  0.737600  1.0  -0.0723
  C  C207  1  0.834600  0.842580  0.726550  1.0  -0.1137
  C  C208  1  0.795800  0.812570  0.674770  1.0  -0.1412
  C  C209  1  0.719300  0.838400  0.632100  1.0  0.0191
  C  C210  1  0.672400  0.803400  0.574500  1.0  -0.064
  C  C211  1  0.573600  0.757100  0.582100  1.0  0.0389
  C  C212  1  0.609100  0.698900  0.581000  1.0  -0.0599
  C  C213  1  0.520700  0.655900  0.589500  1.0  -0.2209
  C  C214  1  0.391900  0.670500  0.600600  1.0  -0.046
  C  C215  1  0.437200  0.770000  0.590600  1.0  0.2003
  C  C216  1  0.181500  0.836900  0.673500  1.0  0.1633
  C  C217  1  0.419500  0.964300  0.720900  1.0  0.143
  C  C218  1  0.682500  0.894800  0.643000  1.0  0.1728
  C  C219  1  0.037700  0.871000  0.597300  1.0  0.2735
  C  C220  1  0.688600  0.954000  0.567800  1.0  -0.017
  N  N221  1  0.042300  0.047900  0.100100  1.0  0.7657
  N  N222  1  0.261000  0.521000  0.444000  1.0  -0.0485
  N  N223  1  0.957700  0.952100  0.899900  1.0  0.7668
  N  N224  1  0.739000  0.479000  0.556000  1.0  -0.0493
  O  O225  1  0.928700  0.907800  0.394000  1.0  -0.3983
  O  O226  1  0.141000  0.893900  0.323400  1.0  -0.5605
  O  O227  1  0.373600  0.853400  0.383100  1.0  -0.3052
  O  O228  1  0.132000  0.832100  0.432600  1.0  -0.5415
  O  O229  1  0.917900  0.919000  0.054400  1.0  -0.9119
  O  O230  1  0.173400  0.934500  0.055500  1.0  -0.8833
  O  O231  1  0.073100  0.835400  0.041700  1.0  -0.541
  O  O232  1  0.136500  0.579000  0.535000  1.0  -0.8762
  O  O233  1  0.906400  0.571400  0.478600  1.0  -0.8976
  O  O234  1  0.935600  0.628500  0.574100  1.0  -0.544
  O  O235  1  0.826400  0.136600  0.376400  1.0  -0.2848
  O  O236  1  0.608200  0.053800  0.335400  1.0  -0.5214
  O  O237  1  0.394200  0.078000  0.399400  1.0  -0.325
  O  O238  1  0.595900  0.174400  0.413400  1.0  -0.5439
  O  O239  1  0.643500  0.952900  0.069000  1.0  -0.879
  O  O240  1  0.429000  0.012000  0.059000  1.0  -0.8951
  O  O241  1  0.424300  0.909900  0.086300  1.0  -0.5628
  O  O242  1  0.381400  0.430900  0.351400  1.0  -0.571
  O  O243  1  0.541900  0.455300  0.439200  1.0  -0.865
  O  O244  1  0.306100  0.423500  0.446800  1.0  -0.85
  O  O245  1  0.992100  0.038900  0.047300  1.0  -0.7575
  O  O246  1  0.168000  0.051900  0.109100  1.0  -0.6475
  O  O247  1  0.970400  0.052200  0.138600  1.0  -0.5228
  O  O248  1  0.334000  0.556900  0.442300  1.0  -0.5695
  O  O249  1  0.121100  0.512600  0.421800  1.0  -0.5837
  O  O250  1  0.230100  0.557300  0.399500  1.0  -0.5218
  O  O251  1  0.071300  0.092200  0.606000  1.0  -0.4003
  O  O252  1  0.859000  0.106100  0.676600  1.0  -0.5595
  O  O253  1  0.626400  0.146600  0.616900  1.0  -0.3046
  O  O254  1  0.868000  0.167900  0.567400  1.0  -0.5427
  O  O255  1  0.082100  0.081000  0.945600  1.0  -0.9099
  O  O256  1  0.826600  0.065500  0.944500  1.0  -0.8822
  O  O257  1  0.926900  0.164600  0.958300  1.0  -0.5376
  O  O258  1  0.863500  0.421000  0.465000  1.0  -0.8779
  O  O259  1  0.093600  0.428600  0.521400  1.0  -0.8972
  O  O260  1  0.064400  0.371500  0.425900  1.0  -0.5433
  O  O261  1  0.173600  0.863400  0.623600  1.0  -0.2839
  O  O262  1  0.391800  0.946200  0.664600  1.0  -0.5201
  O  O263  1  0.605800  0.922000  0.600600  1.0  -0.3273
  O  O264  1  0.404100  0.825600  0.586600  1.0  -0.5437
  O  O265  1  0.356500  0.047100  0.931000  1.0  -0.8792
  O  O266  1  0.571000  0.988000  0.941000  1.0  -0.8956
  O  O267  1  0.575700  0.090100  0.913700  1.0  -0.5636
  O  O268  1  0.618600  0.569100  0.648600  1.0  -0.5679
  O  O269  1  0.458100  0.544700  0.560800  1.0  -0.8642
  O  O270  1  0.693900  0.576500  0.553200  1.0  -0.8502
  O  O271  1  0.007900  0.961100  0.952700  1.0  -0.7587
  O  O272  1  0.832000  0.948100  0.890900  1.0  -0.6463
  O  O273  1  0.029600  0.947800  0.861400  1.0  -0.5228
  O  O274  1  0.666000  0.443100  0.557700  1.0  -0.5715
  O  O275  1  0.878900  0.487400  0.578200  1.0  -0.5834
  O  O276  1  0.769900  0.442700  0.600500  1.0  -0.5177
