# generated using pymatgen
data_ZnCo2H6C18O13
_symmetry_space_group_name_H-M   'P 1'
_cell_length_a   17.20650000
_cell_length_b   17.20650000
_cell_length_c   17.20650000
_cell_angle_alpha   62.56430000
_cell_angle_beta   74.35810000
_cell_angle_gamma   105.64200000
_symmetry_Int_Tables_number   1
_chemical_formula_structural   ZnCo2H6C18O13
_chemical_formula_sum   'Zn4 Co8 H24 C72 O52'
_cell_volume   3863.95860912
_cell_formula_units_Z   4
loop_
 _symmetry_equiv_pos_site_id
 _symmetry_equiv_pos_as_xyz
  1  'x, y, z'
loop_
 _atom_site_type_symbol
 _atom_site_label
 _atom_site_symmetry_multiplicity
 _atom_site_fract_x
 _atom_site_fract_y
 _atom_site_fract_z
 _atom_site_occupancy
 _atom_site_charge
  Zn  Zn1  1  0.500000  0.684280  0.494380  1.0  1.0225
  Zn  Zn2  1  0.500000  0.005620  0.815720  1.0  1.0149
  Zn  Zn3  1  0.821340  0.505620  0.994380  1.0  1.0211
  Zn  Zn4  1  0.178660  0.184280  0.315720  1.0  1.0209
  Co  Co5  1  0.867180  0.321750  0.056010  1.0  1.0639
  Co  Co6  1  0.377760  0.454570  0.678250  1.0  1.044
  Co  Co7  1  0.377760  0.821750  0.045430  1.0  1.045
  Co  Co8  1  0.132820  0.076810  0.545430  1.0  1.0654
  Co  Co9  1  0.867180  0.443990  0.178250  1.0  1.0376
  Co  Co10  1  0.622240  0.576810  0.556010  1.0  1.0417
  Co  Co11  1  0.622240  0.943990  0.923190  1.0  1.0421
  Co  Co12  1  0.132820  0.954570  0.423190  1.0  1.0351
  H  H13  1  0.387000  0.177300  0.861500  1.0  0.1146
  H  H14  1  0.298100  0.757400  0.547500  1.0  0.1311
  H  H15  1  0.298100  0.952500  0.742600  1.0  0.1306
  H  H16  1  0.961200  0.251500  0.361500  1.0  0.1135
  H  H17  1  0.701900  0.959300  0.345600  1.0  0.1312
  H  H18  1  0.038800  0.790300  0.822700  1.0  0.1147
  H  H19  1  0.308500  0.347800  0.504300  1.0  0.1164
  H  H20  1  0.038800  0.677300  0.709700  1.0  0.1129
  H  H21  1  0.304900  0.459300  0.242600  1.0  0.1307
  H  H22  1  0.691500  0.187200  0.960700  1.0  0.1155
  H  H23  1  0.961200  0.138500  0.248500  1.0  0.1148
  H  H24  1  0.147900  0.495700  0.812800  1.0  0.1156
  H  H25  1  0.695100  0.654400  0.047500  1.0  0.1313
  H  H26  1  0.852100  0.847800  0.460700  1.0  0.1154
  H  H27  1  0.701900  0.154400  0.540700  1.0  0.1303
  H  H28  1  0.613000  0.751500  0.209700  1.0  0.1147
  H  H29  1  0.852100  0.039300  0.652200  1.0  0.1154
  H  H30  1  0.147900  0.687200  0.004300  1.0  0.1167
  H  H31  1  0.695100  0.452500  0.845600  1.0  0.1303
  H  H32  1  0.308500  0.995700  0.152200  1.0  0.1159
  H  H33  1  0.613000  0.290300  0.748500  1.0  0.1151
  H  H34  1  0.304900  0.257400  0.040700  1.0  0.1299
  H  H35  1  0.691500  0.539300  0.312800  1.0  0.1149
  H  H36  1  0.387000  0.638500  0.322700  1.0  0.1131
  C  C37  1  0.314680  0.600670  0.657190  1.0  0.7296
  C  C38  1  0.912100  0.208700  0.424400  1.0  0.0224
  C  C39  1  0.316300  0.468600  0.288300  1.0  0.015
  C  C40  1  0.009100  0.138900  0.487000  1.0  0.6898
  C  C41  1  0.232600  0.622300  0.678700  1.0  -0.102
  C  C42  1  0.366900  0.575600  0.336500  1.0  0.0325
  C  C43  1  0.685320  0.785990  0.471870  1.0  0.716
  C  C44  1  0.355400  0.074100  0.003100  1.0  -0.0744
  C  C45  1  0.633100  0.296600  0.791300  1.0  0.0244
  C  C46  1  0.640800  0.469800  0.715200  1.0  0.6258
  C  C47  1  0.831000  0.061000  0.288200  1.0  -0.1019
  C  C48  1  0.152400  0.735000  0.945400  1.0  0.0231
  C  C49  1  0.767400  0.889700  0.411300  1.0  -0.1095
  C  C50  1  0.680400  0.582600  0.265000  1.0  0.0331
  C  C51  1  0.847600  0.082600  0.597800  1.0  0.0247
  C  C52  1  0.922800  0.996900  0.358500  1.0  -0.1117
  C  C53  1  0.742140  0.342810  0.971870  1.0  0.7202
  C  C54  1  0.077200  0.574100  0.781300  1.0  -0.0976
  C  C55  1  0.087900  0.796600  0.836500  1.0  0.0279
  C  C56  1  0.815000  0.284800  0.356000  1.0  0.6277
  C  C57  1  0.366900  0.163500  0.924400  1.0  0.0309
  C  C58  1  0.922800  0.141500  0.503100  1.0  -0.1092
  C  C59  1  0.683700  0.652300  0.104600  1.0  0.0148
  C  C60  1  0.087900  0.663500  0.703400  1.0  0.0263
  C  C61  1  0.680400  0.235000  0.917400  1.0  0.0323
  C  C62  1  0.349200  0.230000  0.939000  1.0  -0.1018
  C  C63  1  0.644600  0.218700  0.858500  1.0  -0.0896
  C  C64  1  0.232600  0.821300  0.877700  1.0  -0.1109
  C  C65  1  0.359200  0.329000  0.856000  1.0  0.6245
  C  C66  1  0.319600  0.402200  0.445400  1.0  0.0279
  C  C67  1  0.374100  0.003900  0.987000  1.0  0.6899
  C  C68  1  0.355400  0.496900  0.425900  1.0  -0.0968
  C  C69  1  0.374100  0.513000  0.496100  1.0  0.6956
  C  C70  1  0.257860  0.100670  0.214010  1.0  0.7081
  C  C71  1  0.767400  0.088700  0.610300  1.0  -0.1022
  C  C72  1  0.756900  0.968600  0.347700  1.0  0.0101
  C  C73  1  0.316300  0.211700  0.031400  1.0  0.012
  C  C74  1  0.815000  0.144000  0.215200  1.0  0.621
  C  C75  1  0.009100  0.013000  0.361100  1.0  0.688
  C  C76  1  0.683700  0.395400  0.847700  1.0  0.012
  C  C77  1  0.990900  0.629800  0.996100  1.0  0.6886
  C  C78  1  0.650800  0.711800  0.119200  1.0  -0.1053
  C  C79  1  0.359200  0.644000  0.171000  1.0  0.6233
  C  C80  1  0.625900  0.129800  0.861100  1.0  0.691
  C  C81  1  0.699000  0.321300  0.911300  1.0  -0.1051
  C  C82  1  0.257860  0.285990  0.399330  1.0  0.7067
  C  C83  1  0.243100  0.895400  0.788300  1.0  0.0137
  C  C84  1  0.756900  0.152300  0.531400  1.0  0.0123
  C  C85  1  0.301000  0.122300  0.110300  1.0  -0.1018
  C  C86  1  0.640800  0.784800  0.030200  1.0  0.6242
  C  C87  1  0.169000  0.880800  0.770000  1.0  -0.103
  C  C88  1  0.243100  0.711700  0.604600  1.0  0.0146
  C  C89  1  0.185000  0.829000  0.530200  1.0  0.6254
  C  C90  1  0.847600  0.902200  0.417400  1.0  0.0299
  C  C91  1  0.633100  0.708700  0.203400  1.0  0.0239
  C  C92  1  0.644600  0.641500  0.281300  1.0  -0.0906
  C  C93  1  0.319600  0.054600  0.097800  1.0  0.0373
  C  C94  1  0.685320  0.028130  0.714010  1.0  0.7177
  C  C95  1  0.077200  0.718700  0.925900  1.0  -0.0991
  C  C96  1  0.650800  0.380800  0.788200  1.0  -0.1041
  C  C97  1  0.301000  0.389700  0.377700  1.0  -0.1022
  C  C98  1  0.169000  0.730000  0.619200  1.0  -0.1002
  C  C99  1  0.912100  0.075600  0.291300  1.0  0.0211
  C  C100  1  0.152400  0.554600  0.765000  1.0  0.0284
  C  C101  1  0.185000  0.969800  0.671000  1.0  0.6247
  C  C102  1  0.314680  0.842810  0.899330  1.0  0.7083
  C  C103  1  0.349200  0.561000  0.270000  1.0  -0.1049
  C  C104  1  0.625900  0.638900  0.370200  1.0  0.6959
  C  C105  1  0.831000  0.211800  0.439000  1.0  -0.1018
  C  C106  1  0.699000  0.588700  0.178700  1.0  -0.1022
  C  C107  1  0.990900  0.503900  0.870200  1.0  0.6894
  C  C108  1  0.742140  0.528130  0.157190  1.0  0.7178
  O  O109  1  0.403300  0.601000  0.475500  1.0  -0.6225
  O  O110  1  0.363710  0.394500  0.862790  1.0  -0.4198
  O  O111  1  0.076500  0.101000  0.302300  1.0  -0.6226
  O  O112  1  0.729340  0.506700  0.101900  1.0  -0.5771
  O  O113  1  0.787240  0.499780  0.205300  1.0  -0.5712
  O  O114  1  0.636290  0.530790  0.726500  1.0  -0.4349
  O  O115  1  0.636290  0.773500  0.969210  1.0  -0.4182
  O  O116  1  0.270660  0.168760  0.222640  1.0  -0.5754
  O  O117  1  0.636690  0.572840  0.438630  1.0  -0.5728
  O  O118  1  0.895860  0.360860  0.276600  1.0  -0.5485
  O  O119  1  0.787240  0.294700  0.000220  1.0  -0.575
  O  O120  1  0.257290  0.030790  0.605500  1.0  -0.4347
  O  O121  1  0.705080  0.999780  0.787460  1.0  -0.5735
  O  O122  1  0.104140  0.827540  0.535000  1.0  -0.5499
  O  O123  1  0.923500  0.524500  0.878800  1.0  -0.6185
  O  O124  1  0.608600  0.777360  0.493300  1.0  -0.5767
  O  O125  1  0.174780  0.065490  0.434510  1.0  -0.7819
  O  O126  1  0.500000  0.565490  0.609290  1.0  -0.7845
  O  O127  1  0.742710  0.137210  0.226500  1.0  -0.4413
  O  O128  1  0.596700  0.121200  0.802300  1.0  -0.6213
  O  O129  1  0.362540  0.327540  0.776600  1.0  -0.5518
  O  O130  1  0.270660  0.277360  0.331240  1.0  -0.5767
  O  O131  1  0.637460  0.465000  0.639140  1.0  -0.5502
  O  O132  1  0.363310  0.924680  0.063850  1.0  -0.5729
  O  O133  1  0.636690  0.061370  0.927160  1.0  -0.5682
  O  O134  1  0.294920  0.794700  0.992540  1.0  -0.5752
  O  O135  1  0.403300  0.024500  0.899000  1.0  -0.6185
  O  O136  1  0.608600  0.006700  0.722640  1.0  -0.5794
  O  O137  1  0.729340  0.398100  0.993300  1.0  -0.5775
  O  O138  1  0.362540  0.723400  0.172460  1.0  -0.5524
  O  O139  1  0.637460  0.860860  0.035000  1.0  -0.5545
  O  O140  1  0.988530  0.561370  0.075320  1.0  -0.5664
  O  O141  1  0.104140  0.965000  0.672460  1.0  -0.5562
  O  O142  1  0.212760  0.212540  0.492540  1.0  -0.5728
  O  O143  1  0.363710  0.637210  0.105500  1.0  -0.4352
  O  O144  1  0.596700  0.697700  0.378800  1.0  -0.6163
  O  O145  1  0.011470  0.936150  0.427160  1.0  -0.5687
  O  O146  1  0.363310  0.436150  0.575320  1.0  -0.5681
  O  O147  1  0.011470  0.072840  0.563850  1.0  -0.5691
  O  O148  1  0.391400  0.668760  0.601900  1.0  -0.5706
  O  O149  1  0.705080  0.712540  0.500220  1.0  -0.5729
  O  O150  1  0.257290  0.894500  0.469210  1.0  -0.4219
  O  O151  1  0.742710  0.273500  0.362790  1.0  -0.425
  O  O152  1  0.988530  0.424680  0.938630  1.0  -0.5693
  O  O153  1  0.391400  0.898100  0.831240  1.0  -0.5799
  O  O154  1  0.825220  0.390710  0.109290  1.0  -0.7823
  O  O155  1  0.212760  0.007460  0.287460  1.0  -0.5747
  O  O156  1  0.500000  0.890710  0.934510  1.0  -0.789
  O  O157  1  0.294920  0.507460  0.705300  1.0  -0.5741
  O  O158  1  0.923500  0.621200  0.975500  1.0  -0.6258
  O  O159  1  0.895860  0.223400  0.139140  1.0  -0.558
  O  O160  1  0.076500  0.197700  0.399000  1.0  -0.6173
