# generated using pymatgen
data_TbH9(C3O)6
_symmetry_space_group_name_H-M   'P 1'
_cell_length_a   12.13230000
_cell_length_b   12.36760000
_cell_length_c   13.37570000
_cell_angle_alpha   101.74800000
_cell_angle_beta   99.02500000
_cell_angle_gamma   105.98400000
_symmetry_Int_Tables_number   1
_chemical_formula_structural   TbH9(C3O)6
_chemical_formula_sum   'Tb2 H18 C36 O12'
_cell_volume   1840.00455526
_cell_formula_units_Z   2
loop_
 _symmetry_equiv_pos_site_id
 _symmetry_equiv_pos_as_xyz
  1  'x, y, z'
loop_
 _atom_site_type_symbol
 _atom_site_label
 _atom_site_symmetry_multiplicity
 _atom_site_fract_x
 _atom_site_fract_y
 _atom_site_fract_z
 _atom_site_occupancy
 _atom_site_charge
  Tb  Tb1  1  0.326460  0.481210  0.454320  1.0  2.2177
  Tb  Tb2  1  0.673540  0.518790  0.545680  1.0  2.2136
  H  H3  1  0.044500  0.356400  0.109100  1.0  0.0985
  H  H4  1  0.197300  0.699000  0.212300  1.0  0.0906
  H  H5  1  0.893100  0.272400  0.939100  1.0  0.1191
  H  H6  1  0.595500  0.228500  0.539700  1.0  0.0933
  H  H7  1  0.258400  0.061100  0.384500  1.0  0.1105
  H  H8  1  0.717000  0.113500  0.607800  1.0  0.1018
  H  H9  1  0.365200  0.470100  0.134300  1.0  0.0872
  H  H10  1  0.714100  0.537100  0.215900  1.0  0.1048
  H  H11  1  0.271400  0.453900  0.949600  1.0  0.1014
  H  H12  1  0.955500  0.643600  0.890900  1.0  0.0982
  H  H13  1  0.802700  0.301000  0.787700  1.0  0.0902
  H  H14  1  0.106900  0.727600  0.060900  1.0  0.1194
  H  H15  1  0.404500  0.771500  0.460300  1.0  0.0943
  H  H16  1  0.741600  0.938900  0.615500  1.0  0.1099
  H  H17  1  0.283000  0.886500  0.392200  1.0  0.102
  H  H18  1  0.634800  0.529900  0.865700  1.0  0.0878
  H  H19  1  0.285900  0.462900  0.784100  1.0  0.1046
  H  H20  1  0.728600  0.546100  0.050400  1.0  0.1019
  C  C21  1  0.191500  0.508000  0.277900  1.0  0.7136
  C  C22  1  0.989500  0.443300  0.007000  1.0  0.0491
  C  C23  1  0.053800  0.430600  0.099700  1.0  -0.0771
  C  C24  1  0.128700  0.524800  0.175300  1.0  -0.1537
  C  C25  1  0.146400  0.635100  0.160000  1.0  -0.0331
  C  C26  1  0.908700  0.347100  0.929400  1.0  -0.139
  C  C27  1  0.409300  0.278300  0.456200  1.0  0.7386
  C  C28  1  0.549000  0.051900  0.521100  1.0  0.0438
  C  C29  1  0.533000  0.159600  0.512100  1.0  -0.0424
  C  C30  1  0.426100  0.162600  0.462900  1.0  -0.1395
  C  C31  1  0.330400  0.058500  0.418100  1.0  -0.0822
  C  C32  1  0.655200  0.045200  0.575500  1.0  -0.076
  C  C33  1  0.525100  0.495900  0.301400  1.0  0.7864
  C  C34  1  0.444300  0.486600  0.013000  1.0  0.032
  C  C35  1  0.438000  0.483600  0.116600  1.0  -0.0582
  C  C36  1  0.534800  0.499700  0.191500  1.0  -0.1508
  C  C37  1  0.646700  0.524700  0.165300  1.0  -0.0801
  C  C38  1  0.345100  0.469600  0.933600  1.0  -0.1039
  C  C39  1  0.808500  0.492000  0.722100  1.0  0.7134
  C  C40  1  0.010500  0.556700  0.993000  1.0  0.0499
  C  C41  1  0.946200  0.569400  0.900300  1.0  -0.0763
  C  C42  1  0.871300  0.475200  0.824700  1.0  -0.1547
  C  C43  1  0.853600  0.364900  0.840000  1.0  -0.0348
  C  C44  1  0.091300  0.652900  0.070600  1.0  -0.1401
  C  C45  1  0.590700  0.721700  0.543800  1.0  0.7409
  C  C46  1  0.451000  0.948100  0.478900  1.0  0.0435
  C  C47  1  0.467000  0.840400  0.487900  1.0  -0.0422
  C  C48  1  0.573900  0.837400  0.537100  1.0  -0.1397
  C  C49  1  0.669600  0.941500  0.581900  1.0  -0.0817
  C  C50  1  0.344800  0.954800  0.424500  1.0  -0.0785
  C  C51  1  0.474900  0.504100  0.698600  1.0  0.7849
  C  C52  1  0.555700  0.513400  0.987000  1.0  0.0325
  C  C53  1  0.562000  0.516400  0.883400  1.0  -0.0556
  C  C54  1  0.465200  0.500300  0.808500  1.0  -0.1509
  C  C55  1  0.353300  0.475300  0.834700  1.0  -0.0817
  C  C56  1  0.654900  0.530400  0.066400  1.0  -0.1103
  O  O57  1  0.171700  0.408700  0.291400  1.0  -0.6845
  O  O58  1  0.262700  0.595500  0.341300  1.0  -0.6573
  O  O59  1  0.308400  0.278600  0.421400  1.0  -0.6444
  O  O60  1  0.497100  0.369300  0.489100  1.0  -0.8467
  O  O61  1  0.423200  0.463100  0.317300  1.0  -0.7215
  O  O62  1  0.619800  0.525200  0.368600  1.0  -0.7922
  O  O63  1  0.828300  0.591300  0.708600  1.0  -0.6844
  O  O64  1  0.737300  0.404500  0.658700  1.0  -0.655
  O  O65  1  0.691600  0.721400  0.578600  1.0  -0.6449
  O  O66  1  0.502900  0.630700  0.510900  1.0  -0.846
  O  O67  1  0.576800  0.536900  0.682700  1.0  -0.7211
  O  O68  1  0.380200  0.474800  0.631400  1.0  -0.7945
