# generated using pymatgen
data_CeH9(C3O)6
_symmetry_space_group_name_H-M   'P 1'
_cell_length_a   12.20150000
_cell_length_b   12.36780000
_cell_length_c   13.52030000
_cell_angle_alpha   102.22200000
_cell_angle_beta   98.70400000
_cell_angle_gamma   106.48000000
_symmetry_Int_Tables_number   1
_chemical_formula_structural   CeH9(C3O)6
_chemical_formula_sum   'Ce2 H18 C36 O12'
_cell_volume   1862.85490252
_cell_formula_units_Z   2
loop_
 _symmetry_equiv_pos_site_id
 _symmetry_equiv_pos_as_xyz
  1  'x, y, z'
loop_
 _atom_site_type_symbol
 _atom_site_label
 _atom_site_symmetry_multiplicity
 _atom_site_fract_x
 _atom_site_fract_y
 _atom_site_fract_z
 _atom_site_occupancy
 _atom_site_charge
  Ce  Ce1  1  0.325140  0.480910  0.453960  1.0  2.1995
  Ce  Ce2  1  0.674860  0.519090  0.546040  1.0  2.2009
  H  H3  1  0.037500  0.356700  0.111800  1.0  0.1044
  H  H4  1  0.202200  0.699900  0.205800  1.0  0.1095
  H  H5  1  0.894100  0.278500  0.944100  1.0  0.0994
  H  H6  1  0.585100  0.229500  0.543800  1.0  0.0937
  H  H7  1  0.261000  0.051100  0.378900  1.0  0.1087
  H  H8  1  0.711800  0.122100  0.609100  1.0  0.1094
  H  H9  1  0.366800  0.469000  0.134200  1.0  0.0983
  H  H10  1  0.712800  0.531100  0.208400  1.0  0.113
  H  H11  1  0.274100  0.462300  0.955500  1.0  0.1063
  H  H12  1  0.962500  0.643300  0.888200  1.0  0.1046
  H  H13  1  0.797800  0.300100  0.794200  1.0  0.1095
  H  H14  1  0.105900  0.721500  0.055900  1.0  0.1002
  H  H15  1  0.414900  0.770500  0.456200  1.0  0.0934
  H  H16  1  0.739000  0.948900  0.621100  1.0  0.1086
  H  H17  1  0.288200  0.877900  0.390900  1.0  0.1093
  H  H18  1  0.633200  0.531000  0.865800  1.0  0.101
  H  H19  1  0.287200  0.468900  0.791600  1.0  0.1129
  H  H20  1  0.725900  0.537700  0.044500  1.0  0.1066
  C  C21  1  0.188500  0.509100  0.271800  1.0  0.6944
  C  C22  1  0.990000  0.442900  0.004700  1.0  0.0357
  C  C23  1  0.051600  0.430600  0.100600  1.0  -0.0868
  C  C24  1  0.127500  0.523300  0.172500  1.0  -0.1226
  C  C25  1  0.148600  0.634800  0.156300  1.0  -0.0667
  C  C26  1  0.910400  0.352600  0.933200  1.0  -0.1219
  C  C27  1  0.402200  0.269900  0.452700  1.0  0.7657
  C  C28  1  0.544600  0.052300  0.523100  1.0  0.0393
  C  C29  1  0.525500  0.158500  0.513200  1.0  -0.0669
  C  C30  1  0.422100  0.157200  0.460100  1.0  -0.1517
  C  C31  1  0.332600  0.051700  0.414700  1.0  -0.0346
  C  C32  1  0.651300  0.051800  0.577700  1.0  -0.1081
  C  C33  1  0.527500  0.493900  0.297300  1.0  0.7919
  C  C34  1  0.445500  0.488600  0.012500  1.0  0.0417
  C  C35  1  0.438800  0.483200  0.115600  1.0  -0.0798
  C  C36  1  0.536500  0.498400  0.186800  1.0  -0.155
  C  C37  1  0.645700  0.520100  0.159200  1.0  -0.0509
  C  C38  1  0.346600  0.475000  0.937800  1.0  -0.1248
  C  C39  1  0.811500  0.490900  0.728200  1.0  0.6907
  C  C40  1  0.010000  0.557100  0.995300  1.0  0.0363
  C  C41  1  0.948400  0.569400  0.899400  1.0  -0.0893
  C  C42  1  0.872500  0.476700  0.827500  1.0  -0.1225
  C  C43  1  0.851400  0.365200  0.843700  1.0  -0.0679
  C  C44  1  0.089600  0.647400  0.066800  1.0  -0.1255
  C  C45  1  0.597800  0.730100  0.547300  1.0  0.7617
  C  C46  1  0.455400  0.947700  0.476900  1.0  0.0387
  C  C47  1  0.474500  0.841500  0.486800  1.0  -0.0641
  C  C48  1  0.577900  0.842800  0.539900  1.0  -0.1511
  C  C49  1  0.667400  0.948300  0.585300  1.0  -0.0334
  C  C50  1  0.348700  0.948200  0.422300  1.0  -0.1125
  C  C51  1  0.472500  0.506100  0.702700  1.0  0.7944
  C  C52  1  0.554500  0.511400  0.987500  1.0  0.0418
  C  C53  1  0.561200  0.516800  0.884400  1.0  -0.0829
  C  C54  1  0.463500  0.501600  0.813200  1.0  -0.1541
  C  C55  1  0.354300  0.479900  0.840800  1.0  -0.0499
  C  C56  1  0.653400  0.525000  0.062200  1.0  -0.1193
  O  O57  1  0.165900  0.408700  0.287500  1.0  -0.6997
  O  O58  1  0.262200  0.598800  0.335500  1.0  -0.6882
  O  O59  1  0.301900  0.266100  0.414300  1.0  -0.6617
  O  O60  1  0.484700  0.363700  0.485800  1.0  -0.8217
  O  O61  1  0.426200  0.463100  0.312200  1.0  -0.7013
  O  O62  1  0.621900  0.520700  0.361300  1.0  -0.771
  O  O63  1  0.834100  0.591300  0.712500  1.0  -0.7001
  O  O64  1  0.737800  0.401200  0.664500  1.0  -0.6869
  O  O65  1  0.698100  0.733900  0.585700  1.0  -0.6629
  O  O66  1  0.515300  0.636300  0.514200  1.0  -0.819
  O  O67  1  0.573800  0.536900  0.687800  1.0  -0.7021
  O  O68  1  0.378100  0.479300  0.638700  1.0  -0.7648
