# generated using pymatgen
data_EuH9(C3O)6
_symmetry_space_group_name_H-M   'P 1'
_cell_length_a   12.11700000
_cell_length_b   12.33500000
_cell_length_c   13.41200000
_cell_angle_alpha   101.56900000
_cell_angle_beta   99.03600000
_cell_angle_gamma   106.28600000
_symmetry_Int_Tables_number   1
_chemical_formula_structural   EuH9(C3O)6
_chemical_formula_sum   'Eu2 H18 C36 O12'
_cell_volume   1835.94089823
_cell_formula_units_Z   2
loop_
 _symmetry_equiv_pos_site_id
 _symmetry_equiv_pos_as_xyz
  1  'x, y, z'
loop_
 _atom_site_type_symbol
 _atom_site_label
 _atom_site_symmetry_multiplicity
 _atom_site_fract_x
 _atom_site_fract_y
 _atom_site_fract_z
 _atom_site_occupancy
 _atom_site_charge
  Eu  Eu1  1  0.326400  0.481180  0.454220  1.0  2.1257
  Eu  Eu2  1  0.673600  0.518820  0.545780  1.0  2.1241
  H  H3  1  0.043300  0.355500  0.110800  1.0  0.1007
  H  H4  1  0.198300  0.698600  0.207600  1.0  0.1011
  H  H5  1  0.897700  0.277200  0.942700  1.0  0.1064
  H  H6  1  0.592900  0.229100  0.543000  1.0  0.1087
  H  H7  1  0.260500  0.057200  0.378900  1.0  0.112
  H  H8  1  0.719100  0.116400  0.602600  1.0  0.1134
  H  H9  1  0.363700  0.465700  0.133600  1.0  0.1045
  H  H10  1  0.713000  0.528400  0.211700  1.0  0.1159
  H  H11  1  0.272000  0.458300  0.951300  1.0  0.1029
  H  H12  1  0.956700  0.644500  0.889200  1.0  0.1012
  H  H13  1  0.801700  0.301400  0.792400  1.0  0.1009
  H  H14  1  0.102300  0.722800  0.057300  1.0  0.1064
  H  H15  1  0.407100  0.770900  0.457000  1.0  0.1087
  H  H16  1  0.739500  0.942800  0.621100  1.0  0.1123
  H  H17  1  0.280900  0.883600  0.397400  1.0  0.1131
  H  H18  1  0.636300  0.534300  0.866400  1.0  0.1054
  H  H19  1  0.287000  0.471600  0.788300  1.0  0.1158
  H  H20  1  0.728000  0.541700  0.048700  1.0  0.1039
  C  C21  1  0.190800  0.509400  0.275700  1.0  0.7126
  C  C22  1  0.989700  0.443200  0.006600  1.0  0.0253
  C  C23  1  0.053600  0.430000  0.101200  1.0  -0.0941
  C  C24  1  0.126400  0.521500  0.174300  1.0  -0.1216
  C  C25  1  0.145700  0.633700  0.157300  1.0  -0.0565
  C  C26  1  0.912300  0.351800  0.932600  1.0  -0.1251
  C  C27  1  0.408500  0.277300  0.456000  1.0  0.7457
  C  C28  1  0.545300  0.051300  0.521800  1.0  0.0203
  C  C29  1  0.530900  0.159600  0.513300  1.0  -0.0663
  C  C30  1  0.425500  0.161000  0.461200  1.0  -0.145
  C  C31  1  0.331600  0.055600  0.415700  1.0  -0.0484
  C  C32  1  0.655800  0.047700  0.574700  1.0  -0.1209
  C  C33  1  0.525100  0.495900  0.300700  1.0  0.7901
  C  C34  1  0.443900  0.486800  0.012500  1.0  0.0473
  C  C35  1  0.436600  0.481700  0.115700  1.0  -0.1003
  C  C36  1  0.537100  0.500400  0.189600  1.0  -0.1495
  C  C37  1  0.646000  0.520100  0.162400  1.0  -0.0584
  C  C38  1  0.345700  0.472900  0.934900  1.0  -0.1113
  C  C39  1  0.809200  0.490600  0.724300  1.0  0.7125
  C  C40  1  0.010300  0.556800  0.993400  1.0  0.0263
  C  C41  1  0.946400  0.570000  0.898800  1.0  -0.0911
  C  C42  1  0.873600  0.478500  0.825700  1.0  -0.1224
  C  C43  1  0.854300  0.366300  0.842700  1.0  -0.0554
  C  C44  1  0.087700  0.648200  0.067400  1.0  -0.1238
  C  C45  1  0.591500  0.722700  0.544000  1.0  0.7483
  C  C46  1  0.454700  0.948700  0.478200  1.0  0.0195
  C  C47  1  0.469100  0.840400  0.486700  1.0  -0.0622
  C  C48  1  0.574500  0.839000  0.538800  1.0  -0.1442
  C  C49  1  0.668400  0.944400  0.584300  1.0  -0.0488
  C  C50  1  0.344200  0.952300  0.425300  1.0  -0.1245
  C  C51  1  0.474900  0.504100  0.699300  1.0  0.7876
  C  C52  1  0.556100  0.513200  0.987500  1.0  0.0479
  C  C53  1  0.563400  0.518300  0.884300  1.0  -0.0998
  C  C54  1  0.462900  0.499600  0.810400  1.0  -0.1505
  C  C55  1  0.354000  0.479900  0.837600  1.0  -0.0575
  C  C56  1  0.654300  0.527100  0.065100  1.0  -0.114
  O  O57  1  0.169300  0.408600  0.291400  1.0  -0.6998
  O  O58  1  0.262900  0.597000  0.338800  1.0  -0.6406
  O  O59  1  0.305200  0.275500  0.419000  1.0  -0.6335
  O  O60  1  0.492700  0.368600  0.487200  1.0  -0.8138
  O  O61  1  0.423600  0.462700  0.314700  1.0  -0.6896
  O  O62  1  0.621100  0.524500  0.366800  1.0  -0.7582
  O  O63  1  0.830700  0.591400  0.708600  1.0  -0.7008
  O  O64  1  0.737100  0.403000  0.661200  1.0  -0.6394
  O  O65  1  0.694800  0.724500  0.581000  1.0  -0.6357
  O  O66  1  0.507300  0.631400  0.512800  1.0  -0.8129
  O  O67  1  0.576400  0.537300  0.685300  1.0  -0.6903
  O  O68  1  0.378900  0.475500  0.633200  1.0  -0.76
