# generated using pymatgen
data_CuH8C11O6
_symmetry_space_group_name_H-M   'P 1'
_cell_length_a   18.45900000
_cell_length_b   18.45900000
_cell_length_c   6.74890000
_cell_angle_alpha   90.00000000
_cell_angle_beta   90.00000000
_cell_angle_gamma   120.00000000
_symmetry_Int_Tables_number   1
_chemical_formula_structural   CuH8C11O6
_chemical_formula_sum   'Cu6 H48 C66 O36'
_cell_volume   1991.49841207
_cell_formula_units_Z   6
loop_
 _symmetry_equiv_pos_site_id
 _symmetry_equiv_pos_as_xyz
  1  'x, y, z'
loop_
 _atom_site_type_symbol
 _atom_site_label
 _atom_site_symmetry_multiplicity
 _atom_site_fract_x
 _atom_site_fract_y
 _atom_site_fract_z
 _atom_site_occupancy
 _atom_site_charge
  Cu  Cu1  1  0.524010  0.475990  0.342500  1.0  0.9247
  Cu  Cu2  1  0.524010  0.048020  0.342500  1.0  0.9265
  Cu  Cu3  1  0.951980  0.475990  0.342500  1.0  0.9246
  Cu  Cu4  1  0.475990  0.524010  0.657500  1.0  0.9237
  Cu  Cu5  1  0.048020  0.524010  0.657500  1.0  0.9242
  Cu  Cu6  1  0.475990  0.951980  0.657500  1.0  0.9236
  H  H7  1  0.363200  0.292000  0.984300  1.0  0.1143
  H  H8  1  0.254300  0.172200  0.553600  1.0  0.1022
  H  H9  1  0.176300  0.137100  0.405400  1.0  0.0558
  H  H10  1  0.708000  0.071200  0.984300  1.0  0.1148
  H  H11  1  0.827800  0.082100  0.553600  1.0  0.1029
  H  H12  1  0.862900  0.039200  0.405400  1.0  0.0634
  H  H13  1  0.928800  0.636800  0.984300  1.0  0.1141
  H  H14  1  0.917900  0.745700  0.553600  1.0  0.1001
  H  H15  1  0.960800  0.823700  0.405400  1.0  0.0571
  H  H16  1  0.292000  0.363200  0.015700  1.0  0.1137
  H  H17  1  0.172200  0.254300  0.446400  1.0  0.1004
  H  H18  1  0.137100  0.176300  0.594600  1.0  0.0555
  H  H19  1  0.071200  0.708000  0.015700  1.0  0.114
  H  H20  1  0.082100  0.827800  0.446400  1.0  0.1005
  H  H21  1  0.039200  0.862900  0.594600  1.0  0.0543
  H  H22  1  0.636800  0.928800  0.015700  1.0  0.1148
  H  H23  1  0.745700  0.917900  0.446400  1.0  0.0994
  H  H24  1  0.823700  0.960800  0.594600  1.0  0.0628
  H  H25  1  0.636800  0.708000  0.015700  1.0  0.1144
  H  H26  1  0.745700  0.827800  0.446400  1.0  0.1004
  H  H27  1  0.823700  0.862900  0.594600  1.0  0.0556
  H  H28  1  0.292000  0.928800  0.015700  1.0  0.1144
  H  H29  1  0.172200  0.917900  0.446400  1.0  0.1001
  H  H30  1  0.137100  0.960800  0.594600  1.0  0.0577
  H  H31  1  0.071200  0.363200  0.015700  1.0  0.1134
  H  H32  1  0.082100  0.254300  0.446400  1.0  0.0996
  H  H33  1  0.039200  0.176300  0.594600  1.0  0.0573
  H  H34  1  0.708000  0.636800  0.984300  1.0  0.1137
  H  H35  1  0.827800  0.745700  0.553600  1.0  0.0999
  H  H36  1  0.862900  0.823700  0.405400  1.0  0.0568
  H  H37  1  0.928800  0.292000  0.984300  1.0  0.1147
  H  H38  1  0.917900  0.172200  0.553600  1.0  0.1028
  H  H39  1  0.960800  0.137100  0.405400  1.0  0.0569
  H  H40  1  0.363200  0.071200  0.984300  1.0  0.1146
  H  H41  1  0.254300  0.082100  0.553600  1.0  0.1033
  H  H42  1  0.176300  0.039200  0.405400  1.0  0.0576
  H  H43  1  0.465100  0.232550  0.528400  1.0  0.1154
  H  H44  1  0.767450  0.232550  0.528400  1.0  0.1154
  H  H45  1  0.767450  0.534900  0.528400  1.0  0.1163
  H  H46  1  0.232550  0.465100  0.471600  1.0  0.1163
  H  H47  1  0.232550  0.767450  0.471600  1.0  0.1145
  H  H48  1  0.534900  0.767450  0.471600  1.0  0.1154
  H  H49  1  0.229700  0.229700  0.500000  1.0  0.112
  H  H50  1  0.770300  0.000000  0.500000  1.0  0.1141
  H  H51  1  0.000000  0.770300  0.500000  1.0  0.1107
  H  H52  1  0.770300  0.770300  0.500000  1.0  0.1124
  H  H53  1  0.229700  0.000000  0.500000  1.0  0.1158
  H  H54  1  0.000000  0.229700  0.500000  1.0  0.1133
  C  C55  1  0.378400  0.255000  0.924400  1.0  -0.0439
  C  C56  1  0.422300  0.276400  0.748000  1.0  -0.1422
  C  C57  1  0.449300  0.359400  0.654000  1.0  0.6818
  C  C58  1  0.232000  0.185800  0.438000  1.0  -0.0714
  C  C59  1  0.745000  0.123400  0.924400  1.0  -0.0443
  C  C60  1  0.723600  0.145900  0.748000  1.0  -0.1438
  C  C61  1  0.640600  0.089900  0.654000  1.0  0.6793
  C  C62  1  0.814200  0.046200  0.438000  1.0  -0.0727
  C  C63  1  0.876600  0.621600  0.924400  1.0  -0.042
  C  C64  1  0.854100  0.577700  0.748000  1.0  -0.1399
  C  C65  1  0.910100  0.550700  0.654000  1.0  0.6766
  C  C66  1  0.953800  0.768000  0.438000  1.0  -0.071
  C  C67  1  0.255000  0.378400  0.075600  1.0  -0.0422
  C  C68  1  0.276400  0.422300  0.252000  1.0  -0.1412
  C  C69  1  0.359400  0.449300  0.346000  1.0  0.6776
  C  C70  1  0.185800  0.232000  0.562000  1.0  -0.0696
  C  C71  1  0.123400  0.745000  0.075600  1.0  -0.0435
  C  C72  1  0.145900  0.723600  0.252000  1.0  -0.1431
  C  C73  1  0.089900  0.640600  0.346000  1.0  0.6816
  C  C74  1  0.046200  0.814200  0.562000  1.0  -0.0696
  C  C75  1  0.621600  0.876600  0.075600  1.0  -0.0438
  C  C76  1  0.577700  0.854100  0.252000  1.0  -0.1443
  C  C77  1  0.550700  0.910100  0.346000  1.0  0.6794
  C  C78  1  0.768000  0.953800  0.562000  1.0  -0.0707
  C  C79  1  0.621600  0.745000  0.075600  1.0  -0.0435
  C  C80  1  0.577700  0.723600  0.252000  1.0  -0.1427
  C  C81  1  0.550700  0.640600  0.346000  1.0  0.6809
  C  C82  1  0.768000  0.814200  0.562000  1.0  -0.0696
  C  C83  1  0.255000  0.876600  0.075600  1.0  -0.043
  C  C84  1  0.276400  0.854100  0.252000  1.0  -0.1448
  C  C85  1  0.359400  0.910100  0.346000  1.0  0.6799
  C  C86  1  0.185800  0.953800  0.562000  1.0  -0.0707
  C  C87  1  0.123400  0.378400  0.075600  1.0  -0.0438
  C  C88  1  0.145900  0.422300  0.252000  1.0  -0.1407
  C  C89  1  0.089900  0.449300  0.346000  1.0  0.6765
  C  C90  1  0.046200  0.232000  0.562000  1.0  -0.0705
  C  C91  1  0.745000  0.621600  0.924400  1.0  -0.043
  C  C92  1  0.723600  0.577700  0.748000  1.0  -0.14
  C  C93  1  0.640600  0.550700  0.654000  1.0  0.6759
  C  C94  1  0.814200  0.768000  0.438000  1.0  -0.0721
  C  C95  1  0.876600  0.255000  0.924400  1.0  -0.0433
  C  C96  1  0.854100  0.276400  0.748000  1.0  -0.1413
  C  C97  1  0.910100  0.359400  0.654000  1.0  0.6823
  C  C98  1  0.953800  0.185800  0.438000  1.0  -0.0721
  C  C99  1  0.378400  0.123400  0.924400  1.0  -0.0433
  C  C100  1  0.422300  0.145900  0.748000  1.0  -0.1439
  C  C101  1  0.449300  0.089900  0.654000  1.0  0.6802
  C  C102  1  0.232000  0.046200  0.438000  1.0  -0.0734
  C  C103  1  0.306800  0.153400  0.200000  1.0  0.6748
  C  C104  1  0.355300  0.177650  0.012900  1.0  -0.1396
  C  C105  1  0.440100  0.220050  0.656000  1.0  -0.0221
  C  C106  1  0.846600  0.153400  0.200000  1.0  0.6746
  C  C107  1  0.822350  0.177650  0.012900  1.0  -0.1394
  C  C108  1  0.779950  0.220050  0.656000  1.0  -0.0229
  C  C109  1  0.846600  0.693200  0.200000  1.0  0.6727
  C  C110  1  0.822350  0.644700  0.012900  1.0  -0.1362
  C  C111  1  0.779950  0.559900  0.656000  1.0  -0.0192
  C  C112  1  0.153400  0.306800  0.800000  1.0  0.675
  C  C113  1  0.177650  0.355300  0.987100  1.0  -0.1358
  C  C114  1  0.220050  0.440100  0.344000  1.0  -0.0207
  C  C115  1  0.153400  0.846600  0.800000  1.0  0.6763
  C  C116  1  0.177650  0.822350  0.987100  1.0  -0.1395
  C  C117  1  0.220050  0.779950  0.344000  1.0  -0.022
  C  C118  1  0.693200  0.846600  0.800000  1.0  0.6759
  C  C119  1  0.644700  0.822350  0.987100  1.0  -0.1399
  C  C120  1  0.559900  0.779950  0.344000  1.0  -0.0237
  O  O121  1  0.286900  0.202900  0.272800  1.0  -0.3992
  O  O122  1  0.480000  0.371700  0.484400  1.0  -0.566
  O  O123  1  0.440900  0.411400  0.754600  1.0  -0.5628
  O  O124  1  0.797100  0.084000  0.272800  1.0  -0.4014
  O  O125  1  0.628300  0.108300  0.484400  1.0  -0.5674
  O  O126  1  0.588600  0.029500  0.754600  1.0  -0.563
  O  O127  1  0.916000  0.713100  0.272800  1.0  -0.3969
  O  O128  1  0.891700  0.520000  0.484400  1.0  -0.5681
  O  O129  1  0.970500  0.559100  0.754600  1.0  -0.5621
  O  O130  1  0.202900  0.286900  0.727200  1.0  -0.3991
  O  O131  1  0.371700  0.480000  0.515600  1.0  -0.5662
  O  O132  1  0.411400  0.440900  0.245400  1.0  -0.5619
  O  O133  1  0.084000  0.797100  0.727200  1.0  -0.4016
  O  O134  1  0.108300  0.628300  0.515600  1.0  -0.5652
  O  O135  1  0.029500  0.588600  0.245400  1.0  -0.5625
  O  O136  1  0.713100  0.916000  0.727200  1.0  -0.4022
  O  O137  1  0.520000  0.891700  0.515600  1.0  -0.5669
  O  O138  1  0.559100  0.970500  0.245400  1.0  -0.5624
  O  O139  1  0.713100  0.797100  0.727200  1.0  -0.4013
  O  O140  1  0.520000  0.628300  0.515600  1.0  -0.5656
  O  O141  1  0.559100  0.588600  0.245400  1.0  -0.5629
  O  O142  1  0.202900  0.916000  0.727200  1.0  -0.4001
  O  O143  1  0.371700  0.891700  0.515600  1.0  -0.5675
  O  O144  1  0.411400  0.970500  0.245400  1.0  -0.5626
  O  O145  1  0.084000  0.286900  0.727200  1.0  -0.4016
  O  O146  1  0.108300  0.480000  0.515600  1.0  -0.5663
  O  O147  1  0.029500  0.440900  0.245400  1.0  -0.5617
  O  O148  1  0.797100  0.713100  0.272800  1.0  -0.3994
  O  O149  1  0.628300  0.520000  0.484400  1.0  -0.5675
  O  O150  1  0.588600  0.559100  0.754600  1.0  -0.5626
  O  O151  1  0.916000  0.202900  0.272800  1.0  -0.3974
  O  O152  1  0.891700  0.371700  0.484400  1.0  -0.5668
  O  O153  1  0.970500  0.411400  0.754600  1.0  -0.5628
  O  O154  1  0.286900  0.084000  0.272800  1.0  -0.3993
  O  O155  1  0.480000  0.108300  0.484400  1.0  -0.5676
  O  O156  1  0.440900  0.029500  0.754600  1.0  -0.5634
