# generated using pymatgen
data_CuH8C11O6
_symmetry_space_group_name_H-M   'P 1'
_cell_length_a   18.25910000
_cell_length_b   18.25910000
_cell_length_c   6.62740000
_cell_angle_alpha   90.00000000
_cell_angle_beta   90.00000000
_cell_angle_gamma   120.00000000
_symmetry_Int_Tables_number   1
_chemical_formula_structural   CuH8C11O6
_chemical_formula_sum   'Cu6 H48 C66 O36'
_cell_volume   1913.51798911
_cell_formula_units_Z   6
loop_
 _symmetry_equiv_pos_site_id
 _symmetry_equiv_pos_as_xyz
  1  'x, y, z'
loop_
 _atom_site_type_symbol
 _atom_site_label
 _atom_site_symmetry_multiplicity
 _atom_site_fract_x
 _atom_site_fract_y
 _atom_site_fract_z
 _atom_site_occupancy
 _atom_site_charge
  Cu  Cu1  1  0.475130  0.524870  0.156500  1.0  0.9003
  Cu  Cu2  1  0.475130  0.950260  0.156500  1.0  0.9003
  Cu  Cu3  1  0.049740  0.524870  0.156500  1.0  0.9016
  Cu  Cu4  1  0.524870  0.475130  0.843500  1.0  0.9015
  Cu  Cu5  1  0.950260  0.475130  0.843500  1.0  0.9007
  Cu  Cu6  1  0.524870  0.049740  0.843500  1.0  0.9034
  H  H7  1  0.368000  0.295800  0.511200  1.0  0.1018
  H  H8  1  0.281200  0.094100  0.104900  1.0  0.1072
  H  H9  1  0.195600  0.052300  0.990600  1.0  0.0389
  H  H10  1  0.704200  0.072200  0.511200  1.0  0.103
  H  H11  1  0.905900  0.187100  0.104900  1.0  0.1068
  H  H12  1  0.947700  0.143300  0.990600  1.0  0.0316
  H  H13  1  0.927800  0.632000  0.511200  1.0  0.1023
  H  H14  1  0.812900  0.718800  0.104900  1.0  0.1072
  H  H15  1  0.856700  0.804400  0.990600  1.0  0.0322
  H  H16  1  0.295800  0.368000  0.488800  1.0  0.1015
  H  H17  1  0.094100  0.281200  0.895100  1.0  0.1097
  H  H18  1  0.052300  0.195600  0.009400  1.0  0.0296
  H  H19  1  0.072200  0.704200  0.488800  1.0  0.1019
  H  H20  1  0.187100  0.905900  0.895100  1.0  0.1085
  H  H21  1  0.143300  0.947700  0.009400  1.0  0.0401
  H  H22  1  0.632000  0.927800  0.488800  1.0  0.1019
  H  H23  1  0.718800  0.812900  0.895100  1.0  0.108
  H  H24  1  0.804400  0.856700  0.009400  1.0  0.0343
  H  H25  1  0.632000  0.704200  0.488800  1.0  0.1021
  H  H26  1  0.718800  0.905900  0.895100  1.0  0.1084
  H  H27  1  0.804400  0.947700  0.009400  1.0  0.037
  H  H28  1  0.295800  0.927800  0.488800  1.0  0.1016
  H  H29  1  0.094100  0.812900  0.895100  1.0  0.1093
  H  H30  1  0.052300  0.856700  0.009400  1.0  0.0366
  H  H31  1  0.072200  0.368000  0.488800  1.0  0.1013
  H  H32  1  0.187100  0.281200  0.895100  1.0  0.1099
  H  H33  1  0.143300  0.195600  0.009400  1.0  0.0317
  H  H34  1  0.704200  0.632000  0.511200  1.0  0.1019
  H  H35  1  0.905900  0.718800  0.104900  1.0  0.1068
  H  H36  1  0.947700  0.804400  0.990600  1.0  0.0367
  H  H37  1  0.927800  0.295800  0.511200  1.0  0.1017
  H  H38  1  0.812900  0.094100  0.104900  1.0  0.1068
  H  H39  1  0.856700  0.052300  0.990600  1.0  0.0366
  H  H40  1  0.368000  0.072200  0.511200  1.0  0.1027
  H  H41  1  0.281200  0.187100  0.104900  1.0  0.1079
  H  H42  1  0.195600  0.143300  0.990600  1.0  0.0322
  H  H43  1  0.469200  0.234600  0.044700  1.0  0.1117
  H  H44  1  0.765400  0.234600  0.044700  1.0  0.112
  H  H45  1  0.765400  0.530800  0.044700  1.0  0.1133
  H  H46  1  0.234600  0.469200  0.955300  1.0  0.1138
  H  H47  1  0.234600  0.765400  0.955300  1.0  0.111
  H  H48  1  0.530800  0.765400  0.955300  1.0  0.1115
  H  H49  1  0.240800  0.000000  0.000000  1.0  0.1643
  H  H50  1  0.000000  0.240800  0.000000  1.0  0.1609
  H  H51  1  0.759200  0.759200  0.000000  1.0  0.1588
  H  H52  1  0.759200  0.000000  0.000000  1.0  0.1637
  H  H53  1  0.000000  0.759200  0.000000  1.0  0.1616
  H  H54  1  0.240800  0.240800  0.000000  1.0  0.1617
  C  C55  1  0.447800  0.359000  0.162000  1.0  0.6893
  C  C56  1  0.422000  0.276300  0.261000  1.0  -0.0562
  C  C57  1  0.381100  0.256200  0.446000  1.0  -0.0898
  C  C58  1  0.251900  0.057800  0.997000  1.0  -0.0308
  C  C59  1  0.641000  0.088800  0.162000  1.0  0.6843
  C  C60  1  0.723700  0.145700  0.261000  1.0  -0.0544
  C  C61  1  0.743800  0.124900  0.446000  1.0  -0.0916
  C  C62  1  0.942200  0.194100  0.997000  1.0  -0.0314
  C  C63  1  0.911200  0.552200  0.162000  1.0  0.6852
  C  C64  1  0.854300  0.578000  0.261000  1.0  -0.0531
  C  C65  1  0.875100  0.618900  0.446000  1.0  -0.0876
  C  C66  1  0.805900  0.748100  0.997000  1.0  -0.0291
  C  C67  1  0.359000  0.447800  0.838000  1.0  0.6861
  C  C68  1  0.276300  0.422000  0.739000  1.0  -0.0541
  C  C69  1  0.256200  0.381100  0.554000  1.0  -0.0872
  C  C70  1  0.057800  0.251900  0.003000  1.0  -0.0289
  C  C71  1  0.088800  0.641000  0.838000  1.0  0.6892
  C  C72  1  0.145700  0.723700  0.739000  1.0  -0.0556
  C  C73  1  0.124900  0.743800  0.554000  1.0  -0.088
  C  C74  1  0.194100  0.942200  0.003000  1.0  -0.0312
  C  C75  1  0.552200  0.911200  0.838000  1.0  0.6845
  C  C76  1  0.578000  0.854300  0.739000  1.0  -0.056
  C  C77  1  0.618900  0.875100  0.554000  1.0  -0.0905
  C  C78  1  0.748100  0.805900  0.003000  1.0  -0.0319
  C  C79  1  0.552200  0.641000  0.838000  1.0  0.6882
  C  C80  1  0.578000  0.723700  0.739000  1.0  -0.0577
  C  C81  1  0.618900  0.743800  0.554000  1.0  -0.0903
  C  C82  1  0.748100  0.942200  0.003000  1.0  -0.0337
  C  C83  1  0.359000  0.911200  0.838000  1.0  0.6835
  C  C84  1  0.276300  0.854300  0.739000  1.0  -0.0543
  C  C85  1  0.256200  0.875100  0.554000  1.0  -0.0882
  C  C86  1  0.057800  0.805900  0.003000  1.0  -0.0318
  C  C87  1  0.088800  0.447800  0.838000  1.0  0.6862
  C  C88  1  0.145700  0.422000  0.739000  1.0  -0.0535
  C  C89  1  0.124900  0.381100  0.554000  1.0  -0.0887
  C  C90  1  0.194100  0.251900  0.003000  1.0  -0.0305
  C  C91  1  0.641000  0.552200  0.162000  1.0  0.6853
  C  C92  1  0.723700  0.578000  0.261000  1.0  -0.0528
  C  C93  1  0.743800  0.618900  0.446000  1.0  -0.0893
  C  C94  1  0.942200  0.748100  0.997000  1.0  -0.0305
  C  C95  1  0.911200  0.359000  0.162000  1.0  0.6892
  C  C96  1  0.854300  0.276300  0.261000  1.0  -0.0545
  C  C97  1  0.875100  0.256200  0.446000  1.0  -0.0909
  C  C98  1  0.805900  0.057800  0.997000  1.0  -0.0326
  C  C99  1  0.447800  0.088800  0.162000  1.0  0.6834
  C  C100  1  0.422000  0.145700  0.261000  1.0  -0.054
  C  C101  1  0.381100  0.124900  0.446000  1.0  -0.09
  C  C102  1  0.251900  0.194100  0.997000  1.0  -0.0313
  C  C103  1  0.358400  0.179200  0.536000  1.0  -0.1296
  C  C104  1  0.440400  0.220200  0.169000  1.0  -0.1233
  C  C105  1  0.314800  0.157400  0.730000  1.0  0.6036
  C  C106  1  0.820800  0.179200  0.536000  1.0  -0.1287
  C  C107  1  0.779800  0.220200  0.169000  1.0  -0.1232
  C  C108  1  0.842600  0.157400  0.730000  1.0  0.6037
  C  C109  1  0.820800  0.641600  0.536000  1.0  -0.126
  C  C110  1  0.779800  0.559600  0.169000  1.0  -0.1197
  C  C111  1  0.842600  0.685200  0.730000  1.0  0.6028
  C  C112  1  0.179200  0.358400  0.464000  1.0  -0.125
  C  C113  1  0.220200  0.440400  0.831000  1.0  -0.1181
  C  C114  1  0.157400  0.314800  0.270000  1.0  0.6066
  C  C115  1  0.179200  0.820800  0.464000  1.0  -0.1292
  C  C116  1  0.220200  0.779800  0.831000  1.0  -0.1234
  C  C117  1  0.157400  0.842600  0.270000  1.0  0.6068
  C  C118  1  0.641600  0.820800  0.464000  1.0  -0.1293
  C  C119  1  0.559600  0.779800  0.831000  1.0  -0.1235
  C  C120  1  0.685200  0.842600  0.270000  1.0  0.6065
  O  O121  1  0.438400  0.412100  0.257200  1.0  -0.5756
  O  O122  1  0.481200  0.371500  0.989000  1.0  -0.5864
  O  O123  1  0.295000  0.085700  0.809000  1.0  -0.3559
  O  O124  1  0.587900  0.026300  0.257200  1.0  -0.5746
  O  O125  1  0.628500  0.109700  0.989000  1.0  -0.5888
  O  O126  1  0.914300  0.209300  0.809000  1.0  -0.3562
  O  O127  1  0.973700  0.561600  0.257200  1.0  -0.5737
  O  O128  1  0.890300  0.518800  0.989000  1.0  -0.5868
  O  O129  1  0.790700  0.705000  0.809000  1.0  -0.3562
  O  O130  1  0.412100  0.438400  0.742800  1.0  -0.5747
  O  O131  1  0.371500  0.481200  0.011000  1.0  -0.5866
  O  O132  1  0.085700  0.295000  0.191000  1.0  -0.3614
  O  O133  1  0.026300  0.587900  0.742800  1.0  -0.5756
  O  O134  1  0.109700  0.628500  0.011000  1.0  -0.5875
  O  O135  1  0.209300  0.914300  0.191000  1.0  -0.3607
  O  O136  1  0.561600  0.973700  0.742800  1.0  -0.5754
  O  O137  1  0.518800  0.890300  0.011000  1.0  -0.5888
  O  O138  1  0.705000  0.790700  0.191000  1.0  -0.3607
  O  O139  1  0.561600  0.587900  0.742800  1.0  -0.5754
  O  O140  1  0.518800  0.628500  0.011000  1.0  -0.5881
  O  O141  1  0.705000  0.914300  0.191000  1.0  -0.3621
  O  O142  1  0.412100  0.973700  0.742800  1.0  -0.5756
  O  O143  1  0.371500  0.890300  0.011000  1.0  -0.5898
  O  O144  1  0.085700  0.790700  0.191000  1.0  -0.3603
  O  O145  1  0.026300  0.438400  0.742800  1.0  -0.5744
  O  O146  1  0.109700  0.481200  0.011000  1.0  -0.5868
  O  O147  1  0.209300  0.295000  0.191000  1.0  -0.3598
  O  O148  1  0.587900  0.561600  0.257200  1.0  -0.5737
  O  O149  1  0.628500  0.518800  0.989000  1.0  -0.5867
  O  O150  1  0.914300  0.705000  0.809000  1.0  -0.3554
  O  O151  1  0.973700  0.412100  0.257200  1.0  -0.5754
  O  O152  1  0.890300  0.371500  0.989000  1.0  -0.5874
  O  O153  1  0.790700  0.085700  0.809000  1.0  -0.3558
  O  O154  1  0.438400  0.026300  0.257200  1.0  -0.5756
  O  O155  1  0.481200  0.109700  0.989000  1.0  -0.5892
  O  O156  1  0.295000  0.209300  0.809000  1.0  -0.3563
