# generated using pymatgen
data_CuH8C11O6
_symmetry_space_group_name_H-M   'P 1'
_cell_length_a   18.54200000
_cell_length_b   18.54200000
_cell_length_c   6.81140000
_cell_angle_alpha   90.00000000
_cell_angle_beta   90.00000000
_cell_angle_gamma   120.00000000
_symmetry_Int_Tables_number   1
_chemical_formula_structural   CuH8C11O6
_chemical_formula_sum   'Cu6 H48 C66 O36'
_cell_volume   2028.05706161
_cell_formula_units_Z   6
loop_
 _symmetry_equiv_pos_site_id
 _symmetry_equiv_pos_as_xyz
  1  'x, y, z'
loop_
 _atom_site_type_symbol
 _atom_site_label
 _atom_site_symmetry_multiplicity
 _atom_site_fract_x
 _atom_site_fract_y
 _atom_site_fract_z
 _atom_site_occupancy
 _atom_site_charge
  Cu  Cu1  1  0.476350  0.523650  0.156000  1.0  0.9004
  Cu  Cu2  1  0.476350  0.952700  0.156000  1.0  0.9006
  Cu  Cu3  1  0.047300  0.523650  0.156000  1.0  0.9006
  Cu  Cu4  1  0.523650  0.476350  0.844000  1.0  0.9011
  Cu  Cu5  1  0.952700  0.476350  0.844000  1.0  0.9012
  Cu  Cu6  1  0.523650  0.047300  0.844000  1.0  0.9032
  H  H7  1  0.378100  0.297100  0.498200  1.0  0.0957
  H  H8  1  0.279000  0.091800  0.061000  1.0  0.0782
  H  H9  1  0.195100  0.052800  0.948600  1.0  0.059
  H  H10  1  0.702900  0.081000  0.498200  1.0  0.0955
  H  H11  1  0.908200  0.187200  0.061000  1.0  0.0793
  H  H12  1  0.947200  0.142300  0.948600  1.0  0.0611
  H  H13  1  0.919000  0.621900  0.498200  1.0  0.0955
  H  H14  1  0.812800  0.721000  0.061000  1.0  0.0772
  H  H15  1  0.857700  0.804900  0.948600  1.0  0.0604
  H  H16  1  0.297100  0.378100  0.501800  1.0  0.0955
  H  H17  1  0.091800  0.279000  0.939000  1.0  0.0811
  H  H18  1  0.052800  0.195100  0.051400  1.0  0.0571
  H  H19  1  0.081000  0.702900  0.501800  1.0  0.0955
  H  H20  1  0.187200  0.908200  0.939000  1.0  0.0787
  H  H21  1  0.142300  0.947200  0.051400  1.0  0.0593
  H  H22  1  0.621900  0.919000  0.501800  1.0  0.0961
  H  H23  1  0.721000  0.812800  0.939000  1.0  0.0797
  H  H24  1  0.804900  0.857700  0.051400  1.0  0.0587
  H  H25  1  0.621900  0.702900  0.501800  1.0  0.0956
  H  H26  1  0.721000  0.908200  0.939000  1.0  0.0796
  H  H27  1  0.804900  0.947200  0.051400  1.0  0.0633
  H  H28  1  0.297100  0.919000  0.501800  1.0  0.0958
  H  H29  1  0.091800  0.812800  0.939000  1.0  0.0797
  H  H30  1  0.052800  0.857700  0.051400  1.0  0.0572
  H  H31  1  0.081000  0.378100  0.501800  1.0  0.0955
  H  H32  1  0.187200  0.279000  0.939000  1.0  0.0812
  H  H33  1  0.142300  0.195100  0.051400  1.0  0.0556
  H  H34  1  0.702900  0.621900  0.498200  1.0  0.0951
  H  H35  1  0.908200  0.721000  0.061000  1.0  0.0767
  H  H36  1  0.947200  0.804900  0.948600  1.0  0.0591
  H  H37  1  0.919000  0.297100  0.498200  1.0  0.0954
  H  H38  1  0.812800  0.091800  0.061000  1.0  0.0787
  H  H39  1  0.857700  0.052800  0.948600  1.0  0.064
  H  H40  1  0.378100  0.081000  0.498200  1.0  0.0955
  H  H41  1  0.279000  0.187200  0.061000  1.0  0.0788
  H  H42  1  0.195100  0.142300  0.948600  1.0  0.0578
  H  H43  1  0.469800  0.234900  0.032800  1.0  0.1034
  H  H44  1  0.765100  0.234900  0.032800  1.0  0.1028
  H  H45  1  0.765100  0.530200  0.032800  1.0  0.1044
  H  H46  1  0.234900  0.469800  0.967200  1.0  0.106
  H  H47  1  0.234900  0.765100  0.967200  1.0  0.1029
  H  H48  1  0.530200  0.765100  0.967200  1.0  0.1027
  H  H49  1  0.238200  0.000000  0.000000  1.0  0.1599
  H  H50  1  0.000000  0.238200  0.000000  1.0  0.1559
  H  H51  1  0.761800  0.761800  0.000000  1.0  0.157
  H  H52  1  0.761800  0.000000  0.000000  1.0  0.1584
  H  H53  1  0.000000  0.761800  0.000000  1.0  0.1587
  H  H54  1  0.238200  0.238200  0.000000  1.0  0.1561
  C  C55  1  0.450200  0.358500  0.151800  1.0  0.6749
  C  C56  1  0.423900  0.276100  0.243800  1.0  -0.1176
  C  C57  1  0.382300  0.255400  0.424000  1.0  -0.0743
  C  C58  1  0.248800  0.056300  0.951000  1.0  0.0188
  C  C59  1  0.641500  0.091700  0.151800  1.0  0.6737
  C  C60  1  0.723900  0.147800  0.243800  1.0  -0.1184
  C  C61  1  0.744600  0.126900  0.424000  1.0  -0.0733
  C  C62  1  0.943700  0.192500  0.951000  1.0  0.0193
  C  C63  1  0.908300  0.549800  0.151800  1.0  0.6691
  C  C64  1  0.852200  0.576100  0.243800  1.0  -0.1134
  C  C65  1  0.873100  0.617700  0.424000  1.0  -0.0717
  C  C66  1  0.807500  0.751200  0.951000  1.0  0.0195
  C  C67  1  0.358500  0.450200  0.848200  1.0  0.6701
  C  C68  1  0.276100  0.423900  0.756200  1.0  -0.1122
  C  C69  1  0.255400  0.382300  0.576000  1.0  -0.072
  C  C70  1  0.056300  0.248800  0.049000  1.0  0.0171
  C  C71  1  0.091700  0.641500  0.848200  1.0  0.6751
  C  C72  1  0.147800  0.723900  0.756200  1.0  -0.1161
  C  C73  1  0.126900  0.744600  0.576000  1.0  -0.0741
  C  C74  1  0.192500  0.943700  0.049000  1.0  0.0167
  C  C75  1  0.549800  0.908300  0.848200  1.0  0.6739
  C  C76  1  0.576100  0.852200  0.756200  1.0  -0.1187
  C  C77  1  0.617700  0.873100  0.576000  1.0  -0.0725
  C  C78  1  0.751200  0.807500  0.049000  1.0  0.0172
  C  C79  1  0.549800  0.641500  0.848200  1.0  0.6738
  C  C80  1  0.576100  0.723900  0.756200  1.0  -0.1217
  C  C81  1  0.617700  0.744600  0.576000  1.0  -0.0737
  C  C82  1  0.751200  0.943700  0.049000  1.0  0.0154
  C  C83  1  0.358500  0.908300  0.848200  1.0  0.6731
  C  C84  1  0.276100  0.852200  0.756200  1.0  -0.1161
  C  C85  1  0.255400  0.873100  0.576000  1.0  -0.0732
  C  C86  1  0.056300  0.807500  0.049000  1.0  0.0175
  C  C87  1  0.091700  0.450200  0.848200  1.0  0.67
  C  C88  1  0.147800  0.423900  0.756200  1.0  -0.1137
  C  C89  1  0.126900  0.382300  0.576000  1.0  -0.0732
  C  C90  1  0.192500  0.248800  0.049000  1.0  0.0183
  C  C91  1  0.641500  0.549800  0.151800  1.0  0.6699
  C  C92  1  0.723900  0.576100  0.243800  1.0  -0.115
  C  C93  1  0.744600  0.617700  0.424000  1.0  -0.0726
  C  C94  1  0.943700  0.751200  0.951000  1.0  0.0197
  C  C95  1  0.908300  0.358500  0.151800  1.0  0.6747
  C  C96  1  0.852200  0.276100  0.243800  1.0  -0.1201
  C  C97  1  0.873100  0.255400  0.424000  1.0  -0.0739
  C  C98  1  0.807500  0.056300  0.951000  1.0  0.0182
  C  C99  1  0.450200  0.091700  0.151800  1.0  0.6731
  C  C100  1  0.423900  0.147800  0.243800  1.0  -0.1168
  C  C101  1  0.382300  0.126900  0.424000  1.0  -0.0738
  C  C102  1  0.248800  0.192500  0.951000  1.0  0.0201
  C  C103  1  0.358200  0.179100  0.510000  1.0  -0.1272
  C  C104  1  0.442000  0.221000  0.153000  1.0  -0.0629
  C  C105  1  0.313000  0.156500  0.698000  1.0  0.6304
  C  C106  1  0.820900  0.179100  0.510000  1.0  -0.1265
  C  C107  1  0.779000  0.221000  0.153000  1.0  -0.0626
  C  C108  1  0.843500  0.156500  0.698000  1.0  0.6311
  C  C109  1  0.820900  0.641800  0.510000  1.0  -0.1242
  C  C110  1  0.779000  0.558000  0.153000  1.0  -0.0599
  C  C111  1  0.843500  0.687000  0.698000  1.0  0.6308
  C  C112  1  0.179100  0.358200  0.490000  1.0  -0.1246
  C  C113  1  0.221000  0.442000  0.847000  1.0  -0.0599
  C  C114  1  0.156500  0.313000  0.302000  1.0  0.6326
  C  C115  1  0.179100  0.820900  0.490000  1.0  -0.128
  C  C116  1  0.221000  0.779000  0.847000  1.0  -0.0625
  C  C117  1  0.156500  0.843500  0.302000  1.0  0.6322
  C  C118  1  0.641800  0.820900  0.490000  1.0  -0.1271
  C  C119  1  0.558000  0.779000  0.847000  1.0  -0.0623
  C  C120  1  0.687000  0.843500  0.302000  1.0  0.6329
  O  O121  1  0.440400  0.410400  0.249300  1.0  -0.5895
  O  O122  1  0.481600  0.372000  0.982800  1.0  -0.5915
  O  O123  1  0.292400  0.086000  0.771700  1.0  -0.3542
  O  O124  1  0.589600  0.030000  0.249300  1.0  -0.5892
  O  O125  1  0.628000  0.109600  0.982800  1.0  -0.5951
  O  O126  1  0.914000  0.206400  0.771700  1.0  -0.3555
  O  O127  1  0.970000  0.559600  0.249300  1.0  -0.589
  O  O128  1  0.890400  0.518400  0.982800  1.0  -0.5939
  O  O129  1  0.793600  0.707600  0.771700  1.0  -0.3536
  O  O130  1  0.410400  0.440400  0.750700  1.0  -0.5894
  O  O131  1  0.372000  0.481600  0.017200  1.0  -0.5936
  O  O132  1  0.086000  0.292400  0.228300  1.0  -0.3557
  O  O133  1  0.030000  0.589600  0.750700  1.0  -0.5898
  O  O134  1  0.109600  0.628000  0.017200  1.0  -0.5915
  O  O135  1  0.206400  0.914000  0.228300  1.0  -0.355
  O  O136  1  0.559600  0.970000  0.750700  1.0  -0.5895
  O  O137  1  0.518400  0.890400  0.017200  1.0  -0.5939
  O  O138  1  0.707600  0.793600  0.228300  1.0  -0.3559
  O  O139  1  0.559600  0.589600  0.750700  1.0  -0.5899
  O  O140  1  0.518400  0.628000  0.017200  1.0  -0.5924
  O  O141  1  0.707600  0.914000  0.228300  1.0  -0.356
  O  O142  1  0.410400  0.970000  0.750700  1.0  -0.5901
  O  O143  1  0.372000  0.890400  0.017200  1.0  -0.5939
  O  O144  1  0.086000  0.793600  0.228300  1.0  -0.356
  O  O145  1  0.030000  0.440400  0.750700  1.0  -0.5885
  O  O146  1  0.109600  0.481600  0.017200  1.0  -0.5938
  O  O147  1  0.206400  0.292400  0.228300  1.0  -0.3552
  O  O148  1  0.589600  0.559600  0.249300  1.0  -0.5894
  O  O149  1  0.628000  0.518400  0.982800  1.0  -0.5936
  O  O150  1  0.914000  0.707600  0.771700  1.0  -0.3549
  O  O151  1  0.970000  0.410400  0.249300  1.0  -0.5897
  O  O152  1  0.890400  0.372000  0.982800  1.0  -0.5936
  O  O153  1  0.793600  0.086000  0.771700  1.0  -0.3544
  O  O154  1  0.440400  0.030000  0.249300  1.0  -0.5903
  O  O155  1  0.481600  0.109600  0.982800  1.0  -0.5945
  O  O156  1  0.292400  0.206400  0.771700  1.0  -0.3548
