# generated using pymatgen
data_CuH2(C3O2)2
_symmetry_space_group_name_H-M   'P 1'
_cell_length_a   26.31500000
_cell_length_b   26.31500000
_cell_length_c   26.31500000
_cell_angle_alpha   90.00000000
_cell_angle_beta   90.00000000
_cell_angle_gamma   90.00000000
_symmetry_Int_Tables_number   1
_chemical_formula_structural   CuH2(C3O2)2
_chemical_formula_sum   'Cu48 H96 C288 O192'
_cell_volume   18222.59080588
_cell_formula_units_Z   48
loop_
 _symmetry_equiv_pos_site_id
 _symmetry_equiv_pos_as_xyz
  1  'x, y, z'
loop_
 _atom_site_type_symbol
 _atom_site_label
 _atom_site_symmetry_multiplicity
 _atom_site_fract_x
 _atom_site_fract_y
 _atom_site_fract_z
 _atom_site_occupancy
 _atom_site_charge
  Cu  Cu1  1  0.785340  0.285340  0.500000  1.0  0.8992
  Cu  Cu2  1  0.785340  0.785340  0.000000  1.0  0.8992
  Cu  Cu3  1  0.214660  0.714660  0.500000  1.0  0.8987
  Cu  Cu4  1  0.214660  0.214660  0.000000  1.0  0.8987
  Cu  Cu5  1  0.214660  0.285340  0.500000  1.0  0.899
  Cu  Cu6  1  0.214660  0.785340  0.000000  1.0  0.899
  Cu  Cu7  1  0.785340  0.714660  0.500000  1.0  0.8978
  Cu  Cu8  1  0.785340  0.214660  0.000000  1.0  0.8978
  Cu  Cu9  1  0.500000  0.785340  0.285340  1.0  0.897
  Cu  Cu10  1  0.000000  0.785340  0.785340  1.0  0.897
  Cu  Cu11  1  0.500000  0.214660  0.714660  1.0  0.897
  Cu  Cu12  1  0.000000  0.214660  0.214660  1.0  0.897
  Cu  Cu13  1  0.500000  0.214660  0.285340  1.0  0.8962
  Cu  Cu14  1  0.000000  0.214660  0.785340  1.0  0.8962
  Cu  Cu15  1  0.500000  0.785340  0.714660  1.0  0.8971
  Cu  Cu16  1  0.000000  0.785340  0.214660  1.0  0.8971
  Cu  Cu17  1  0.285340  0.500000  0.785340  1.0  0.8961
  Cu  Cu18  1  0.285340  0.000000  0.285340  1.0  0.8961
  Cu  Cu19  1  0.714660  0.500000  0.214660  1.0  0.898
  Cu  Cu20  1  0.714660  0.000000  0.714660  1.0  0.898
  Cu  Cu21  1  0.285340  0.500000  0.214660  1.0  0.8969
  Cu  Cu22  1  0.285340  0.000000  0.714660  1.0  0.8969
  Cu  Cu23  1  0.714660  0.500000  0.785340  1.0  0.8971
  Cu  Cu24  1  0.714660  0.000000  0.285340  1.0  0.8971
  Cu  Cu25  1  0.285340  0.785340  0.500000  1.0  0.8992
  Cu  Cu26  1  0.285340  0.285340  0.000000  1.0  0.8992
  Cu  Cu27  1  0.714660  0.214660  0.500000  1.0  0.8987
  Cu  Cu28  1  0.714660  0.714660  0.000000  1.0  0.8987
  Cu  Cu29  1  0.285340  0.214660  0.500000  1.0  0.8978
  Cu  Cu30  1  0.285340  0.714660  0.000000  1.0  0.8978
  Cu  Cu31  1  0.714660  0.785340  0.500000  1.0  0.899
  Cu  Cu32  1  0.714660  0.285340  0.000000  1.0  0.899
  Cu  Cu33  1  0.785340  0.500000  0.714660  1.0  0.8969
  Cu  Cu34  1  0.785340  0.000000  0.214660  1.0  0.8969
  Cu  Cu35  1  0.214660  0.500000  0.285340  1.0  0.8971
  Cu  Cu36  1  0.214660  0.000000  0.785340  1.0  0.8971
  Cu  Cu37  1  0.214660  0.500000  0.714660  1.0  0.898
  Cu  Cu38  1  0.214660  0.000000  0.214660  1.0  0.898
  Cu  Cu39  1  0.785340  0.500000  0.285340  1.0  0.8961
  Cu  Cu40  1  0.785340  0.000000  0.785340  1.0  0.8961
  Cu  Cu41  1  0.500000  0.285340  0.214660  1.0  0.8971
  Cu  Cu42  1  0.000000  0.285340  0.714660  1.0  0.8971
  Cu  Cu43  1  0.500000  0.714660  0.785340  1.0  0.8962
  Cu  Cu44  1  0.000000  0.714660  0.285340  1.0  0.8962
  Cu  Cu45  1  0.500000  0.285340  0.785340  1.0  0.897
  Cu  Cu46  1  0.000000  0.285340  0.285340  1.0  0.897
  Cu  Cu47  1  0.500000  0.714660  0.214660  1.0  0.897
  Cu  Cu48  1  0.000000  0.714660  0.714660  1.0  0.897
  H  H49  1  0.770200  0.120700  0.620700  1.0  0.1212
  H  H50  1  0.270200  0.120700  0.120700  1.0  0.1212
  H  H51  1  0.270200  0.620700  0.620700  1.0  0.1212
  H  H52  1  0.229800  0.879300  0.620700  1.0  0.1215
  H  H53  1  0.729800  0.879300  0.120700  1.0  0.1215
  H  H54  1  0.229800  0.120700  0.379300  1.0  0.1212
  H  H55  1  0.229800  0.620700  0.879300  1.0  0.1212
  H  H56  1  0.729800  0.120700  0.879300  1.0  0.1212
  H  H57  1  0.770200  0.879300  0.379300  1.0  0.1213
  H  H58  1  0.270200  0.879300  0.879300  1.0  0.1213
  H  H59  1  0.620700  0.770200  0.120700  1.0  0.1212
  H  H60  1  0.620700  0.270200  0.620700  1.0  0.1212
  H  H61  1  0.620700  0.229800  0.879300  1.0  0.1216
  H  H62  1  0.620700  0.729800  0.379300  1.0  0.1216
  H  H63  1  0.379300  0.229800  0.120700  1.0  0.1216
  H  H64  1  0.379300  0.729800  0.620700  1.0  0.1216
  H  H65  1  0.879300  0.229800  0.620700  1.0  0.1216
  H  H66  1  0.379300  0.770200  0.879300  1.0  0.1214
  H  H67  1  0.379300  0.270200  0.379300  1.0  0.1214
  H  H68  1  0.879300  0.270200  0.879300  1.0  0.1214
  H  H69  1  0.120700  0.620700  0.770200  1.0  0.1222
  H  H70  1  0.120700  0.120700  0.270200  1.0  0.1222
  H  H71  1  0.620700  0.620700  0.270200  1.0  0.1222
  H  H72  1  0.879300  0.620700  0.229800  1.0  0.1217
  H  H73  1  0.879300  0.120700  0.729800  1.0  0.1217
  H  H74  1  0.120700  0.379300  0.229800  1.0  0.1221
  H  H75  1  0.120700  0.879300  0.729800  1.0  0.1221
  H  H76  1  0.620700  0.879300  0.229800  1.0  0.1221
  H  H77  1  0.879300  0.379300  0.770200  1.0  0.1227
  H  H78  1  0.879300  0.879300  0.270200  1.0  0.1227
  H  H79  1  0.120700  0.770200  0.379300  1.0  0.1213
  H  H80  1  0.120700  0.270200  0.879300  1.0  0.1213
  H  H81  1  0.620700  0.770200  0.879300  1.0  0.1213
  H  H82  1  0.879300  0.229800  0.379300  1.0  0.1217
  H  H83  1  0.879300  0.729800  0.879300  1.0  0.1217
  H  H84  1  0.120700  0.229800  0.620700  1.0  0.1215
  H  H85  1  0.120700  0.729800  0.120700  1.0  0.1215
  H  H86  1  0.620700  0.729800  0.620700  1.0  0.1215
  H  H87  1  0.879300  0.770200  0.620700  1.0  0.1215
  H  H88  1  0.879300  0.270200  0.120700  1.0  0.1215
  H  H89  1  0.770200  0.620700  0.879300  1.0  0.1212
  H  H90  1  0.270200  0.620700  0.379300  1.0  0.1212
  H  H91  1  0.229800  0.620700  0.120700  1.0  0.121
  H  H92  1  0.729800  0.620700  0.620700  1.0  0.121
  H  H93  1  0.229800  0.379300  0.879300  1.0  0.1216
  H  H94  1  0.729800  0.379300  0.379300  1.0  0.1216
  H  H95  1  0.729800  0.879300  0.879300  1.0  0.1216
  H  H96  1  0.770200  0.379300  0.120700  1.0  0.1214
  H  H97  1  0.770200  0.879300  0.620700  1.0  0.1214
  H  H98  1  0.270200  0.379300  0.620700  1.0  0.1214
  H  H99  1  0.620700  0.120700  0.229800  1.0  0.1219
  H  H100  1  0.620700  0.620700  0.729800  1.0  0.1219
  H  H101  1  0.620700  0.879300  0.770200  1.0  0.1224
  H  H102  1  0.620700  0.379300  0.270200  1.0  0.1224
  H  H103  1  0.379300  0.120700  0.770200  1.0  0.1224
  H  H104  1  0.379300  0.620700  0.270200  1.0  0.1224
  H  H105  1  0.879300  0.620700  0.770200  1.0  0.1224
  H  H106  1  0.379300  0.879300  0.229800  1.0  0.1222
  H  H107  1  0.379300  0.379300  0.729800  1.0  0.1222
  H  H108  1  0.879300  0.879300  0.729800  1.0  0.1222
  H  H109  1  0.229800  0.879300  0.379300  1.0  0.1216
  H  H110  1  0.770200  0.120700  0.379300  1.0  0.1212
  H  H111  1  0.270200  0.120700  0.879300  1.0  0.1212
  H  H112  1  0.270200  0.879300  0.120700  1.0  0.1214
  H  H113  1  0.229800  0.120700  0.620700  1.0  0.121
  H  H114  1  0.729800  0.120700  0.120700  1.0  0.121
  H  H115  1  0.379300  0.229800  0.879300  1.0  0.1217
  H  H116  1  0.379300  0.729800  0.379300  1.0  0.1217
  H  H117  1  0.379300  0.770200  0.120700  1.0  0.1215
  H  H118  1  0.379300  0.270200  0.620700  1.0  0.1215
  H  H119  1  0.620700  0.270200  0.379300  1.0  0.1213
  H  H120  1  0.620700  0.229800  0.120700  1.0  0.1215
  H  H121  1  0.879300  0.379300  0.229800  1.0  0.1222
  H  H122  1  0.120700  0.379300  0.770200  1.0  0.1224
  H  H123  1  0.120700  0.879300  0.270200  1.0  0.1224
  H  H124  1  0.879300  0.120700  0.270200  1.0  0.1224
  H  H125  1  0.120700  0.620700  0.229800  1.0  0.1219
  H  H126  1  0.120700  0.120700  0.729800  1.0  0.1219
  H  H127  1  0.879300  0.729800  0.120700  1.0  0.1216
  H  H128  1  0.120700  0.770200  0.620700  1.0  0.1212
  H  H129  1  0.120700  0.270200  0.120700  1.0  0.1212
  H  H130  1  0.879300  0.770200  0.379300  1.0  0.1214
  H  H131  1  0.120700  0.229800  0.379300  1.0  0.1216
  H  H132  1  0.120700  0.729800  0.879300  1.0  0.1216
  H  H133  1  0.229800  0.379300  0.120700  1.0  0.1215
  H  H134  1  0.729800  0.379300  0.620700  1.0  0.1215
  H  H135  1  0.770200  0.379300  0.879300  1.0  0.1213
  H  H136  1  0.270200  0.379300  0.379300  1.0  0.1213
  H  H137  1  0.770200  0.620700  0.120700  1.0  0.1212
  H  H138  1  0.729800  0.620700  0.379300  1.0  0.1212
  H  H139  1  0.379300  0.879300  0.770200  1.0  0.1227
  H  H140  1  0.379300  0.379300  0.270200  1.0  0.1227
  H  H141  1  0.379300  0.120700  0.229800  1.0  0.1217
  H  H142  1  0.379300  0.620700  0.729800  1.0  0.1217
  H  H143  1  0.620700  0.379300  0.729800  1.0  0.1221
  H  H144  1  0.620700  0.120700  0.770200  1.0  0.1222
  C  C145  1  0.796830  0.203170  0.569120  1.0  0.681
  C  C146  1  0.822210  0.177790  0.613110  1.0  -0.1525
  C  C147  1  0.796830  0.703170  0.069120  1.0  0.681
  C  C148  1  0.822210  0.677790  0.113110  1.0  -0.1525
  C  C149  1  0.296830  0.203170  0.069120  1.0  0.681
  C  C150  1  0.322210  0.177790  0.113110  1.0  -0.1525
  C  C151  1  0.296830  0.703170  0.569120  1.0  0.681
  C  C152  1  0.322210  0.677790  0.613110  1.0  -0.1525
  C  C153  1  0.203170  0.796830  0.569120  1.0  0.6811
  C  C154  1  0.177790  0.822210  0.613110  1.0  -0.1524
  C  C155  1  0.203170  0.296830  0.069120  1.0  0.6811
  C  C156  1  0.177790  0.322210  0.113110  1.0  -0.1524
  C  C157  1  0.703170  0.796830  0.069120  1.0  0.6811
  C  C158  1  0.677790  0.822210  0.113110  1.0  -0.1524
  C  C159  1  0.703170  0.296830  0.569120  1.0  0.6811
  C  C160  1  0.677790  0.322210  0.613110  1.0  -0.1524
  C  C161  1  0.203170  0.203170  0.430880  1.0  0.6814
  C  C162  1  0.177790  0.177790  0.386890  1.0  -0.1538
  C  C163  1  0.203170  0.703170  0.930880  1.0  0.6814
  C  C164  1  0.177790  0.677790  0.886890  1.0  -0.1538
  C  C165  1  0.703170  0.203170  0.930880  1.0  0.6814
  C  C166  1  0.677790  0.177790  0.886890  1.0  -0.1538
  C  C167  1  0.703170  0.703170  0.430880  1.0  0.6814
  C  C168  1  0.677790  0.677790  0.386890  1.0  -0.1538
  C  C169  1  0.796830  0.796830  0.430880  1.0  0.6808
  C  C170  1  0.822210  0.822210  0.386890  1.0  -0.1539
  C  C171  1  0.796830  0.296830  0.930880  1.0  0.6808
  C  C172  1  0.822210  0.322210  0.886890  1.0  -0.1539
  C  C173  1  0.296830  0.796830  0.930880  1.0  0.6808
  C  C174  1  0.322210  0.822210  0.886890  1.0  -0.1539
  C  C175  1  0.296830  0.296830  0.430880  1.0  0.6808
  C  C176  1  0.322210  0.322210  0.386890  1.0  -0.1539
  C  C177  1  0.569120  0.796830  0.203170  1.0  0.6799
  C  C178  1  0.613110  0.822210  0.177790  1.0  -0.1532
  C  C179  1  0.569120  0.296830  0.703170  1.0  0.6799
  C  C180  1  0.613110  0.322210  0.677790  1.0  -0.1532
  C  C181  1  0.069120  0.796830  0.703170  1.0  0.6799
  C  C182  1  0.113110  0.822210  0.677790  1.0  -0.1532
  C  C183  1  0.069120  0.296830  0.203170  1.0  0.6799
  C  C184  1  0.113110  0.322210  0.177790  1.0  -0.1532
  C  C185  1  0.569120  0.203170  0.796830  1.0  0.68
  C  C186  1  0.613110  0.177790  0.822210  1.0  -0.1533
  C  C187  1  0.569120  0.703170  0.296830  1.0  0.68
  C  C188  1  0.613110  0.677790  0.322210  1.0  -0.1533
  C  C189  1  0.069120  0.203170  0.296830  1.0  0.68
  C  C190  1  0.113110  0.177790  0.322210  1.0  -0.1533
  C  C191  1  0.069120  0.703170  0.796830  1.0  0.68
  C  C192  1  0.113110  0.677790  0.822210  1.0  -0.1533
  C  C193  1  0.430880  0.203170  0.203170  1.0  0.6802
  C  C194  1  0.386890  0.177790  0.177790  1.0  -0.1531
  C  C195  1  0.430880  0.703170  0.703170  1.0  0.6802
  C  C196  1  0.386890  0.677790  0.677790  1.0  -0.1531
  C  C197  1  0.930880  0.203170  0.703170  1.0  0.6802
  C  C198  1  0.886890  0.177790  0.677790  1.0  -0.1531
  C  C199  1  0.930880  0.703170  0.203170  1.0  0.6802
  C  C200  1  0.886890  0.677790  0.177790  1.0  -0.1531
  C  C201  1  0.430880  0.796830  0.796830  1.0  0.6797
  C  C202  1  0.386890  0.822210  0.822210  1.0  -0.1531
  C  C203  1  0.430880  0.296830  0.296830  1.0  0.6797
  C  C204  1  0.386890  0.322210  0.322210  1.0  -0.1531
  C  C205  1  0.930880  0.796830  0.296830  1.0  0.6797
  C  C206  1  0.886890  0.822210  0.322210  1.0  -0.1531
  C  C207  1  0.930880  0.296830  0.796830  1.0  0.6797
  C  C208  1  0.886890  0.322210  0.822210  1.0  -0.1531
  C  C209  1  0.203170  0.569120  0.796830  1.0  0.6796
  C  C210  1  0.177790  0.613110  0.822210  1.0  -0.1524
  C  C211  1  0.203170  0.069120  0.296830  1.0  0.6796
  C  C212  1  0.177790  0.113110  0.322210  1.0  -0.1524
  C  C213  1  0.703170  0.569120  0.296830  1.0  0.6796
  C  C214  1  0.677790  0.613110  0.322210  1.0  -0.1524
  C  C215  1  0.703170  0.069120  0.796830  1.0  0.6796
  C  C216  1  0.677790  0.113110  0.822210  1.0  -0.1524
  C  C217  1  0.796830  0.569120  0.203170  1.0  0.6796
  C  C218  1  0.822210  0.613110  0.177790  1.0  -0.1525
  C  C219  1  0.796830  0.069120  0.703170  1.0  0.6796
  C  C220  1  0.822210  0.113110  0.677790  1.0  -0.1525
  C  C221  1  0.296830  0.569120  0.703170  1.0  0.6796
  C  C222  1  0.322210  0.613110  0.677790  1.0  -0.1525
  C  C223  1  0.296830  0.069120  0.203170  1.0  0.6796
  C  C224  1  0.322210  0.113110  0.177790  1.0  -0.1525
  C  C225  1  0.203170  0.430880  0.203170  1.0  0.68
  C  C226  1  0.177790  0.386890  0.177790  1.0  -0.1526
  C  C227  1  0.203170  0.930880  0.703170  1.0  0.68
  C  C228  1  0.177790  0.886890  0.677790  1.0  -0.1526
  C  C229  1  0.703170  0.430880  0.703170  1.0  0.68
  C  C230  1  0.677790  0.386890  0.677790  1.0  -0.1526
  C  C231  1  0.703170  0.930880  0.203170  1.0  0.68
  C  C232  1  0.677790  0.886890  0.177790  1.0  -0.1526
  C  C233  1  0.796830  0.430880  0.796830  1.0  0.6795
  C  C234  1  0.822210  0.386890  0.822210  1.0  -0.1529
  C  C235  1  0.796830  0.930880  0.296830  1.0  0.6795
  C  C236  1  0.822210  0.886890  0.322210  1.0  -0.1529
  C  C237  1  0.296830  0.430880  0.296830  1.0  0.6795
  C  C238  1  0.322210  0.386890  0.322210  1.0  -0.1529
  C  C239  1  0.296830  0.930880  0.796830  1.0  0.6795
  C  C240  1  0.322210  0.886890  0.822210  1.0  -0.1529
  C  C241  1  0.203170  0.796830  0.430880  1.0  0.681
  C  C242  1  0.177790  0.822210  0.386890  1.0  -0.1538
  C  C243  1  0.203170  0.296830  0.930880  1.0  0.681
  C  C244  1  0.177790  0.322210  0.886890  1.0  -0.1538
  C  C245  1  0.703170  0.796830  0.930880  1.0  0.681
  C  C246  1  0.677790  0.822210  0.886890  1.0  -0.1538
  C  C247  1  0.703170  0.296830  0.430880  1.0  0.681
  C  C248  1  0.677790  0.322210  0.386890  1.0  -0.1538
  C  C249  1  0.796830  0.203170  0.430880  1.0  0.6811
  C  C250  1  0.822210  0.177790  0.386890  1.0  -0.1539
  C  C251  1  0.796830  0.703170  0.930880  1.0  0.6811
  C  C252  1  0.822210  0.677790  0.886890  1.0  -0.1539
  C  C253  1  0.296830  0.203170  0.930880  1.0  0.6811
  C  C254  1  0.322210  0.177790  0.886890  1.0  -0.1539
  C  C255  1  0.296830  0.703170  0.430880  1.0  0.6811
  C  C256  1  0.322210  0.677790  0.386890  1.0  -0.1539
  C  C257  1  0.203170  0.203170  0.569120  1.0  0.6814
  C  C258  1  0.177790  0.177790  0.613110  1.0  -0.1521
  C  C259  1  0.203170  0.703170  0.069120  1.0  0.6814
  C  C260  1  0.177790  0.677790  0.113110  1.0  -0.1521
  C  C261  1  0.703170  0.203170  0.069120  1.0  0.6814
  C  C262  1  0.677790  0.177790  0.113110  1.0  -0.1521
  C  C263  1  0.703170  0.703170  0.569120  1.0  0.6814
  C  C264  1  0.677790  0.677790  0.613110  1.0  -0.1521
  C  C265  1  0.796830  0.796830  0.569120  1.0  0.6807
  C  C266  1  0.822210  0.822210  0.613110  1.0  -0.1526
  C  C267  1  0.796830  0.296830  0.069120  1.0  0.6807
  C  C268  1  0.822210  0.322210  0.113110  1.0  -0.1526
  C  C269  1  0.296830  0.796830  0.069120  1.0  0.6807
  C  C270  1  0.322210  0.822210  0.113110  1.0  -0.1526
  C  C271  1  0.296830  0.296830  0.569120  1.0  0.6807
  C  C272  1  0.322210  0.322210  0.613110  1.0  -0.1526
  C  C273  1  0.796830  0.569120  0.796830  1.0  0.6793
  C  C274  1  0.822210  0.613110  0.822210  1.0  -0.1526
  C  C275  1  0.796830  0.069120  0.296830  1.0  0.6793
  C  C276  1  0.822210  0.113110  0.322210  1.0  -0.1526
  C  C277  1  0.296830  0.569120  0.296830  1.0  0.6793
  C  C278  1  0.322210  0.613110  0.322210  1.0  -0.1526
  C  C279  1  0.296830  0.069120  0.796830  1.0  0.6793
  C  C280  1  0.322210  0.113110  0.822210  1.0  -0.1526
  C  C281  1  0.203170  0.569120  0.203170  1.0  0.6797
  C  C282  1  0.177790  0.613110  0.177790  1.0  -0.1523
  C  C283  1  0.203170  0.069120  0.703170  1.0  0.6797
  C  C284  1  0.177790  0.113110  0.677790  1.0  -0.1523
  C  C285  1  0.703170  0.569120  0.703170  1.0  0.6797
  C  C286  1  0.677790  0.613110  0.677790  1.0  -0.1523
  C  C287  1  0.703170  0.069120  0.203170  1.0  0.6797
  C  C288  1  0.677790  0.113110  0.177790  1.0  -0.1523
  C  C289  1  0.203170  0.430880  0.796830  1.0  0.6799
  C  C290  1  0.177790  0.386890  0.822210  1.0  -0.1526
  C  C291  1  0.203170  0.930880  0.296830  1.0  0.6799
  C  C292  1  0.177790  0.886890  0.322210  1.0  -0.1526
  C  C293  1  0.703170  0.430880  0.296830  1.0  0.6799
  C  C294  1  0.677790  0.386890  0.322210  1.0  -0.1526
  C  C295  1  0.703170  0.930880  0.796830  1.0  0.6799
  C  C296  1  0.677790  0.886890  0.822210  1.0  -0.1526
  C  C297  1  0.796830  0.430880  0.203170  1.0  0.6797
  C  C298  1  0.822210  0.386890  0.177790  1.0  -0.1528
  C  C299  1  0.796830  0.930880  0.703170  1.0  0.6797
  C  C300  1  0.822210  0.886890  0.677790  1.0  -0.1528
  C  C301  1  0.296830  0.430880  0.703170  1.0  0.6797
  C  C302  1  0.322210  0.386890  0.677790  1.0  -0.1528
  C  C303  1  0.296830  0.930880  0.203170  1.0  0.6797
  C  C304  1  0.322210  0.886890  0.177790  1.0  -0.1528
  C  C305  1  0.569120  0.203170  0.203170  1.0  0.6801
  C  C306  1  0.613110  0.177790  0.177790  1.0  -0.1532
  C  C307  1  0.569120  0.703170  0.703170  1.0  0.6801
  C  C308  1  0.613110  0.677790  0.677790  1.0  -0.1532
  C  C309  1  0.069120  0.203170  0.703170  1.0  0.6801
  C  C310  1  0.113110  0.177790  0.677790  1.0  -0.1532
  C  C311  1  0.069120  0.703170  0.203170  1.0  0.6801
  C  C312  1  0.113110  0.677790  0.177790  1.0  -0.1532
  C  C313  1  0.569120  0.796830  0.796830  1.0  0.6797
  C  C314  1  0.613110  0.822210  0.822210  1.0  -0.1533
  C  C315  1  0.569120  0.296830  0.296830  1.0  0.6797
  C  C316  1  0.613110  0.322210  0.322210  1.0  -0.1533
  C  C317  1  0.069120  0.796830  0.296830  1.0  0.6797
  C  C318  1  0.113110  0.822210  0.322210  1.0  -0.1533
  C  C319  1  0.069120  0.296830  0.796830  1.0  0.6797
  C  C320  1  0.113110  0.322210  0.822210  1.0  -0.1533
  C  C321  1  0.430880  0.203170  0.796830  1.0  0.6801
  C  C322  1  0.386890  0.177790  0.822210  1.0  -0.153
  C  C323  1  0.430880  0.703170  0.296830  1.0  0.6801
  C  C324  1  0.386890  0.677790  0.322210  1.0  -0.153
  C  C325  1  0.930880  0.203170  0.296830  1.0  0.6801
  C  C326  1  0.886890  0.177790  0.322210  1.0  -0.153
  C  C327  1  0.930880  0.703170  0.796830  1.0  0.6801
  C  C328  1  0.886890  0.677790  0.822210  1.0  -0.153
  C  C329  1  0.430880  0.796830  0.203170  1.0  0.6799
  C  C330  1  0.386890  0.822210  0.177790  1.0  -0.1532
  C  C331  1  0.430880  0.296830  0.703170  1.0  0.6799
  C  C332  1  0.386890  0.322210  0.677790  1.0  -0.1532
  C  C333  1  0.930880  0.796830  0.703170  1.0  0.6799
  C  C334  1  0.886890  0.822210  0.677790  1.0  -0.1532
  C  C335  1  0.930880  0.296830  0.203170  1.0  0.6799
  C  C336  1  0.886890  0.322210  0.177790  1.0  -0.1532
  C  C337  1  0.800890  0.134650  0.634650  1.0  0.0155
  C  C338  1  0.300890  0.134650  0.134650  1.0  0.0155
  C  C339  1  0.300890  0.634650  0.634650  1.0  0.0155
  C  C340  1  0.199110  0.865350  0.634650  1.0  0.015
  C  C341  1  0.699110  0.865350  0.134650  1.0  0.015
  C  C342  1  0.199110  0.134650  0.365350  1.0  0.0165
  C  C343  1  0.199110  0.634650  0.865350  1.0  0.0165
  C  C344  1  0.699110  0.134650  0.865350  1.0  0.0165
  C  C345  1  0.800890  0.865350  0.365350  1.0  0.0154
  C  C346  1  0.300890  0.865350  0.865350  1.0  0.0154
  C  C347  1  0.634650  0.800890  0.134650  1.0  0.0155
  C  C348  1  0.634650  0.300890  0.634650  1.0  0.0155
  C  C349  1  0.634650  0.199110  0.865350  1.0  0.0151
  C  C350  1  0.634650  0.699110  0.365350  1.0  0.0151
  C  C351  1  0.365350  0.199110  0.134650  1.0  0.0152
  C  C352  1  0.365350  0.699110  0.634650  1.0  0.0152
  C  C353  1  0.865350  0.199110  0.634650  1.0  0.0152
  C  C354  1  0.365350  0.800890  0.865350  1.0  0.017
  C  C355  1  0.365350  0.300890  0.365350  1.0  0.017
  C  C356  1  0.865350  0.300890  0.865350  1.0  0.017
  C  C357  1  0.134650  0.634650  0.800890  1.0  0.0158
  C  C358  1  0.134650  0.134650  0.300890  1.0  0.0158
  C  C359  1  0.634650  0.634650  0.300890  1.0  0.0158
  C  C360  1  0.865350  0.634650  0.199110  1.0  0.0165
  C  C361  1  0.865350  0.134650  0.699110  1.0  0.0165
  C  C362  1  0.134650  0.365350  0.199110  1.0  0.0149
  C  C363  1  0.134650  0.865350  0.699110  1.0  0.0149
  C  C364  1  0.634650  0.865350  0.199110  1.0  0.0149
  C  C365  1  0.865350  0.365350  0.800890  1.0  0.0155
  C  C366  1  0.865350  0.865350  0.300890  1.0  0.0155
  C  C367  1  0.134650  0.800890  0.365350  1.0  0.0166
  C  C368  1  0.134650  0.300890  0.865350  1.0  0.0166
  C  C369  1  0.634650  0.800890  0.865350  1.0  0.0166
  C  C370  1  0.865350  0.199110  0.365350  1.0  0.0154
  C  C371  1  0.865350  0.699110  0.865350  1.0  0.0154
  C  C372  1  0.134650  0.199110  0.634650  1.0  0.0148
  C  C373  1  0.134650  0.699110  0.134650  1.0  0.0148
  C  C374  1  0.634650  0.699110  0.634650  1.0  0.0148
  C  C375  1  0.865350  0.800890  0.634650  1.0  0.0161
  C  C376  1  0.865350  0.300890  0.134650  1.0  0.0161
  C  C377  1  0.800890  0.634650  0.865350  1.0  0.0166
  C  C378  1  0.300890  0.634650  0.365350  1.0  0.0166
  C  C379  1  0.199110  0.634650  0.134650  1.0  0.0154
  C  C380  1  0.699110  0.634650  0.634650  1.0  0.0154
  C  C381  1  0.199110  0.365350  0.865350  1.0  0.0155
  C  C382  1  0.699110  0.365350  0.365350  1.0  0.0155
  C  C383  1  0.699110  0.865350  0.865350  1.0  0.0155
  C  C384  1  0.800890  0.365350  0.134650  1.0  0.0151
  C  C385  1  0.800890  0.865350  0.634650  1.0  0.0151
  C  C386  1  0.300890  0.365350  0.634650  1.0  0.0151
  C  C387  1  0.634650  0.134650  0.199110  1.0  0.0161
  C  C388  1  0.634650  0.634650  0.699110  1.0  0.0161
  C  C389  1  0.634650  0.865350  0.800890  1.0  0.0154
  C  C390  1  0.634650  0.365350  0.300890  1.0  0.0154
  C  C391  1  0.365350  0.134650  0.800890  1.0  0.016
  C  C392  1  0.365350  0.634650  0.300890  1.0  0.016
  C  C393  1  0.865350  0.634650  0.800890  1.0  0.016
  C  C394  1  0.365350  0.865350  0.199110  1.0  0.0152
  C  C395  1  0.365350  0.365350  0.699110  1.0  0.0152
  C  C396  1  0.865350  0.865350  0.699110  1.0  0.0152
  C  C397  1  0.199110  0.865350  0.365350  1.0  0.0155
  C  C398  1  0.800890  0.134650  0.365350  1.0  0.0166
  C  C399  1  0.300890  0.134650  0.865350  1.0  0.0166
  C  C400  1  0.300890  0.865350  0.134650  1.0  0.0151
  C  C401  1  0.199110  0.134650  0.634650  1.0  0.0154
  C  C402  1  0.699110  0.134650  0.134650  1.0  0.0154
  C  C403  1  0.365350  0.199110  0.865350  1.0  0.0154
  C  C404  1  0.365350  0.699110  0.365350  1.0  0.0154
  C  C405  1  0.365350  0.800890  0.134650  1.0  0.0161
  C  C406  1  0.365350  0.300890  0.634650  1.0  0.0161
  C  C407  1  0.634650  0.300890  0.365350  1.0  0.0166
  C  C408  1  0.634650  0.199110  0.134650  1.0  0.0148
  C  C409  1  0.865350  0.365350  0.199110  1.0  0.0152
  C  C410  1  0.134650  0.365350  0.800890  1.0  0.0154
  C  C411  1  0.134650  0.865350  0.300890  1.0  0.0154
  C  C412  1  0.865350  0.134650  0.300890  1.0  0.016
  C  C413  1  0.134650  0.634650  0.199110  1.0  0.0161
  C  C414  1  0.134650  0.134650  0.699110  1.0  0.0161
  C  C415  1  0.865350  0.699110  0.134650  1.0  0.0152
  C  C416  1  0.134650  0.800890  0.634650  1.0  0.0155
  C  C417  1  0.134650  0.300890  0.134650  1.0  0.0155
  C  C418  1  0.865350  0.800890  0.365350  1.0  0.017
  C  C419  1  0.134650  0.199110  0.365350  1.0  0.0151
  C  C420  1  0.134650  0.699110  0.865350  1.0  0.0151
  C  C421  1  0.199110  0.365350  0.134650  1.0  0.015
  C  C422  1  0.699110  0.365350  0.634650  1.0  0.015
  C  C423  1  0.800890  0.365350  0.865350  1.0  0.0154
  C  C424  1  0.300890  0.365350  0.365350  1.0  0.0154
  C  C425  1  0.800890  0.634650  0.134650  1.0  0.0155
  C  C426  1  0.699110  0.634650  0.365350  1.0  0.0165
  C  C427  1  0.365350  0.865350  0.800890  1.0  0.0155
  C  C428  1  0.365350  0.365350  0.300890  1.0  0.0155
  C  C429  1  0.365350  0.134650  0.199110  1.0  0.0165
  C  C430  1  0.365350  0.634650  0.699110  1.0  0.0165
  C  C431  1  0.634650  0.365350  0.699110  1.0  0.0149
  C  C432  1  0.634650  0.134650  0.800890  1.0  0.0158
  O  O433  1  0.817010  0.243280  0.552530  1.0  -0.5574
  O  O434  1  0.817010  0.743280  0.052530  1.0  -0.557
  O  O435  1  0.317010  0.243280  0.052530  1.0  -0.557
  O  O436  1  0.317010  0.743280  0.552530  1.0  -0.557
  O  O437  1  0.182990  0.756720  0.552530  1.0  -0.5559
  O  O438  1  0.182990  0.256720  0.052530  1.0  -0.5559
  O  O439  1  0.682990  0.756720  0.052530  1.0  -0.5559
  O  O440  1  0.682990  0.256720  0.552530  1.0  -0.5559
  O  O441  1  0.182990  0.243280  0.447470  1.0  -0.5577
  O  O442  1  0.182990  0.743280  0.947470  1.0  -0.5573
  O  O443  1  0.682990  0.243280  0.947470  1.0  -0.5573
  O  O444  1  0.682990  0.743280  0.447470  1.0  -0.5577
  O  O445  1  0.817010  0.756720  0.447470  1.0  -0.557
  O  O446  1  0.817010  0.256720  0.947470  1.0  -0.5574
  O  O447  1  0.317010  0.756720  0.947470  1.0  -0.557
  O  O448  1  0.317010  0.256720  0.447470  1.0  -0.5565
  O  O449  1  0.552530  0.817010  0.243280  1.0  -0.5576
  O  O450  1  0.552530  0.317010  0.743280  1.0  -0.5572
  O  O451  1  0.052530  0.817010  0.743280  1.0  -0.5572
  O  O452  1  0.052530  0.317010  0.243280  1.0  -0.5569
  O  O453  1  0.552530  0.182990  0.756720  1.0  -0.5561
  O  O454  1  0.552530  0.682990  0.256720  1.0  -0.5563
  O  O455  1  0.052530  0.182990  0.256720  1.0  -0.5561
  O  O456  1  0.052530  0.682990  0.756720  1.0  -0.5561
  O  O457  1  0.447470  0.182990  0.243280  1.0  -0.5568
  O  O458  1  0.447470  0.682990  0.743280  1.0  -0.5573
  O  O459  1  0.947470  0.182990  0.743280  1.0  -0.5568
  O  O460  1  0.947470  0.682990  0.243280  1.0  -0.5568
  O  O461  1  0.447470  0.817010  0.756720  1.0  -0.5561
  O  O462  1  0.447470  0.317010  0.256720  1.0  -0.5558
  O  O463  1  0.947470  0.817010  0.256720  1.0  -0.5565
  O  O464  1  0.947470  0.317010  0.756720  1.0  -0.5561
  O  O465  1  0.243280  0.552530  0.817010  1.0  -0.5566
  O  O466  1  0.243280  0.052530  0.317010  1.0  -0.5574
  O  O467  1  0.743280  0.552530  0.317010  1.0  -0.5574
  O  O468  1  0.743280  0.052530  0.817010  1.0  -0.5574
  O  O469  1  0.756720  0.552530  0.182990  1.0  -0.557
  O  O470  1  0.756720  0.052530  0.682990  1.0  -0.5566
  O  O471  1  0.256720  0.552530  0.682990  1.0  -0.5564
  O  O472  1  0.256720  0.052530  0.182990  1.0  -0.5565
  O  O473  1  0.243280  0.447470  0.182990  1.0  -0.5567
  O  O474  1  0.243280  0.947470  0.682990  1.0  -0.5569
  O  O475  1  0.743280  0.447470  0.682990  1.0  -0.5569
  O  O476  1  0.743280  0.947470  0.182990  1.0  -0.5572
  O  O477  1  0.756720  0.447470  0.817010  1.0  -0.5569
  O  O478  1  0.756720  0.947470  0.317010  1.0  -0.5569
  O  O479  1  0.256720  0.447470  0.317010  1.0  -0.5563
  O  O480  1  0.256720  0.947470  0.817010  1.0  -0.5569
  O  O481  1  0.243280  0.817010  0.447470  1.0  -0.5572
  O  O482  1  0.243280  0.317010  0.947470  1.0  -0.5572
  O  O483  1  0.743280  0.817010  0.947470  1.0  -0.5572
  O  O484  1  0.743280  0.317010  0.447470  1.0  -0.5572
  O  O485  1  0.756720  0.182990  0.447470  1.0  -0.5569
  O  O486  1  0.756720  0.682990  0.947470  1.0  -0.5572
  O  O487  1  0.256720  0.182990  0.947470  1.0  -0.5569
  O  O488  1  0.256720  0.682990  0.447470  1.0  -0.5569
  O  O489  1  0.243280  0.182990  0.552530  1.0  -0.5569
  O  O490  1  0.243280  0.682990  0.052530  1.0  -0.5569
  O  O491  1  0.743280  0.182990  0.052530  1.0  -0.5569
  O  O492  1  0.743280  0.682990  0.552530  1.0  -0.5571
  O  O493  1  0.756720  0.817010  0.552530  1.0  -0.557
  O  O494  1  0.756720  0.317010  0.052530  1.0  -0.557
  O  O495  1  0.256720  0.817010  0.052530  1.0  -0.557
  O  O496  1  0.256720  0.317010  0.552530  1.0  -0.557
  O  O497  1  0.817010  0.552530  0.756720  1.0  -0.5554
  O  O498  1  0.817010  0.052530  0.256720  1.0  -0.5556
  O  O499  1  0.317010  0.552530  0.256720  1.0  -0.5556
  O  O500  1  0.317010  0.052530  0.756720  1.0  -0.5554
  O  O501  1  0.182990  0.552530  0.243280  1.0  -0.5555
  O  O502  1  0.182990  0.052530  0.743280  1.0  -0.5555
  O  O503  1  0.682990  0.552530  0.743280  1.0  -0.5558
  O  O504  1  0.682990  0.052530  0.243280  1.0  -0.5555
  O  O505  1  0.182990  0.447470  0.756720  1.0  -0.5553
  O  O506  1  0.182990  0.947470  0.256720  1.0  -0.5553
  O  O507  1  0.682990  0.447470  0.256720  1.0  -0.5553
  O  O508  1  0.682990  0.947470  0.756720  1.0  -0.5556
  O  O509  1  0.817010  0.447470  0.243280  1.0  -0.5556
  O  O510  1  0.817010  0.947470  0.743280  1.0  -0.5556
  O  O511  1  0.317010  0.447470  0.743280  1.0  -0.5556
  O  O512  1  0.317010  0.947470  0.243280  1.0  -0.5556
  O  O513  1  0.552530  0.243280  0.182990  1.0  -0.5571
  O  O514  1  0.552530  0.743280  0.682990  1.0  -0.5571
  O  O515  1  0.052530  0.243280  0.682990  1.0  -0.5569
  O  O516  1  0.052530  0.743280  0.182990  1.0  -0.5569
  O  O517  1  0.552530  0.756720  0.817010  1.0  -0.5569
  O  O518  1  0.552530  0.256720  0.317010  1.0  -0.5569
  O  O519  1  0.052530  0.756720  0.317010  1.0  -0.5571
  O  O520  1  0.052530  0.256720  0.817010  1.0  -0.5571
  O  O521  1  0.447470  0.243280  0.817010  1.0  -0.5569
  O  O522  1  0.447470  0.743280  0.317010  1.0  -0.5567
  O  O523  1  0.947470  0.243280  0.317010  1.0  -0.5567
  O  O524  1  0.947470  0.743280  0.817010  1.0  -0.5567
  O  O525  1  0.447470  0.756720  0.182990  1.0  -0.5569
  O  O526  1  0.447470  0.256720  0.682990  1.0  -0.5571
  O  O527  1  0.947470  0.756720  0.682990  1.0  -0.5572
  O  O528  1  0.947470  0.256720  0.182990  1.0  -0.5569
  O  O529  1  0.182990  0.756720  0.447470  1.0  -0.5562
  O  O530  1  0.182990  0.256720  0.947470  1.0  -0.5559
  O  O531  1  0.682990  0.756720  0.947470  1.0  -0.5559
  O  O532  1  0.682990  0.256720  0.447470  1.0  -0.5562
  O  O533  1  0.817010  0.243280  0.447470  1.0  -0.5572
  O  O534  1  0.817010  0.743280  0.947470  1.0  -0.5577
  O  O535  1  0.317010  0.243280  0.947470  1.0  -0.5577
  O  O536  1  0.317010  0.743280  0.447470  1.0  -0.5577
  O  O537  1  0.817010  0.756720  0.552530  1.0  -0.5572
  O  O538  1  0.817010  0.256720  0.052530  1.0  -0.5567
  O  O539  1  0.317010  0.756720  0.052530  1.0  -0.5572
  O  O540  1  0.317010  0.256720  0.552530  1.0  -0.5572
  O  O541  1  0.182990  0.243280  0.552530  1.0  -0.5569
  O  O542  1  0.182990  0.743280  0.052530  1.0  -0.5569
  O  O543  1  0.682990  0.243280  0.052530  1.0  -0.5569
  O  O544  1  0.682990  0.743280  0.552530  1.0  -0.5572
  O  O545  1  0.447470  0.182990  0.756720  1.0  -0.5567
  O  O546  1  0.447470  0.682990  0.256720  1.0  -0.5567
  O  O547  1  0.947470  0.182990  0.256720  1.0  -0.5567
  O  O548  1  0.947470  0.682990  0.756720  1.0  -0.5563
  O  O549  1  0.447470  0.817010  0.243280  1.0  -0.5566
  O  O550  1  0.447470  0.317010  0.743280  1.0  -0.557
  O  O551  1  0.947470  0.817010  0.743280  1.0  -0.557
  O  O552  1  0.947470  0.317010  0.243280  1.0  -0.557
  O  O553  1  0.552530  0.817010  0.756720  1.0  -0.5568
  O  O554  1  0.552530  0.317010  0.256720  1.0  -0.5564
  O  O555  1  0.052530  0.817010  0.256720  1.0  -0.5564
  O  O556  1  0.052530  0.317010  0.756720  1.0  -0.5568
  O  O557  1  0.552530  0.182990  0.243280  1.0  -0.5565
  O  O558  1  0.552530  0.682990  0.743280  1.0  -0.5567
  O  O559  1  0.052530  0.182990  0.743280  1.0  -0.5565
  O  O560  1  0.052530  0.682990  0.243280  1.0  -0.5565
  O  O561  1  0.756720  0.447470  0.182990  1.0  -0.5564
  O  O562  1  0.756720  0.947470  0.682990  1.0  -0.5568
  O  O563  1  0.256720  0.447470  0.682990  1.0  -0.5561
  O  O564  1  0.256720  0.947470  0.182990  1.0  -0.5568
  O  O565  1  0.243280  0.447470  0.817010  1.0  -0.5567
  O  O566  1  0.243280  0.947470  0.317010  1.0  -0.5569
  O  O567  1  0.743280  0.447470  0.317010  1.0  -0.5569
  O  O568  1  0.743280  0.947470  0.817010  1.0  -0.5569
  O  O569  1  0.756720  0.552530  0.817010  1.0  -0.5566
  O  O570  1  0.756720  0.052530  0.317010  1.0  -0.5566
  O  O571  1  0.256720  0.552530  0.317010  1.0  -0.5563
  O  O572  1  0.256720  0.052530  0.817010  1.0  -0.557
  O  O573  1  0.243280  0.552530  0.182990  1.0  -0.5569
  O  O574  1  0.243280  0.052530  0.682990  1.0  -0.5571
  O  O575  1  0.743280  0.552530  0.682990  1.0  -0.5576
  O  O576  1  0.743280  0.052530  0.182990  1.0  -0.5576
  O  O577  1  0.756720  0.182990  0.552530  1.0  -0.557
  O  O578  1  0.756720  0.682990  0.052530  1.0  -0.5572
  O  O579  1  0.256720  0.182990  0.052530  1.0  -0.5572
  O  O580  1  0.256720  0.682990  0.552530  1.0  -0.557
  O  O581  1  0.243280  0.817010  0.552530  1.0  -0.557
  O  O582  1  0.243280  0.317010  0.052530  1.0  -0.5573
  O  O583  1  0.743280  0.817010  0.052530  1.0  -0.5573
  O  O584  1  0.743280  0.317010  0.552530  1.0  -0.5573
  O  O585  1  0.756720  0.817010  0.447470  1.0  -0.5574
  O  O586  1  0.756720  0.317010  0.947470  1.0  -0.5574
  O  O587  1  0.256720  0.817010  0.947470  1.0  -0.5571
  O  O588  1  0.256720  0.317010  0.447470  1.0  -0.5571
  O  O589  1  0.243280  0.182990  0.447470  1.0  -0.5569
  O  O590  1  0.243280  0.682990  0.947470  1.0  -0.5569
  O  O591  1  0.743280  0.182990  0.947470  1.0  -0.5569
  O  O592  1  0.743280  0.682990  0.447470  1.0  -0.5569
  O  O593  1  0.182990  0.447470  0.243280  1.0  -0.5557
  O  O594  1  0.182990  0.947470  0.743280  1.0  -0.5557
  O  O595  1  0.682990  0.447470  0.743280  1.0  -0.5557
  O  O596  1  0.682990  0.947470  0.243280  1.0  -0.5557
  O  O597  1  0.817010  0.447470  0.756720  1.0  -0.5551
  O  O598  1  0.817010  0.947470  0.256720  1.0  -0.5548
  O  O599  1  0.317010  0.447470  0.256720  1.0  -0.5549
  O  O600  1  0.317010  0.947470  0.756720  1.0  -0.5548
  O  O601  1  0.817010  0.552530  0.243280  1.0  -0.5558
  O  O602  1  0.817010  0.052530  0.743280  1.0  -0.5561
  O  O603  1  0.317010  0.552530  0.743280  1.0  -0.5558
  O  O604  1  0.317010  0.052530  0.243280  1.0  -0.5559
  O  O605  1  0.182990  0.552530  0.756720  1.0  -0.5558
  O  O606  1  0.182990  0.052530  0.256720  1.0  -0.5558
  O  O607  1  0.682990  0.552530  0.256720  1.0  -0.5558
  O  O608  1  0.682990  0.052530  0.756720  1.0  -0.5558
  O  O609  1  0.447470  0.756720  0.817010  1.0  -0.557
  O  O610  1  0.447470  0.256720  0.317010  1.0  -0.5568
  O  O611  1  0.947470  0.756720  0.317010  1.0  -0.557
  O  O612  1  0.947470  0.256720  0.817010  1.0  -0.5567
  O  O613  1  0.447470  0.243280  0.182990  1.0  -0.5569
  O  O614  1  0.447470  0.743280  0.682990  1.0  -0.5567
  O  O615  1  0.947470  0.243280  0.682990  1.0  -0.5567
  O  O616  1  0.947470  0.743280  0.182990  1.0  -0.5567
  O  O617  1  0.552530  0.756720  0.182990  1.0  -0.5571
  O  O618  1  0.552530  0.256720  0.682990  1.0  -0.5571
  O  O619  1  0.052530  0.756720  0.682990  1.0  -0.5573
  O  O620  1  0.052530  0.256720  0.182990  1.0  -0.5571
  O  O621  1  0.552530  0.243280  0.817010  1.0  -0.5572
  O  O622  1  0.552530  0.743280  0.317010  1.0  -0.5575
  O  O623  1  0.052530  0.243280  0.317010  1.0  -0.5573
  O  O624  1  0.052530  0.743280  0.817010  1.0  -0.5573
