# generated using pymatgen
data_CuH9C11O6
_symmetry_space_group_name_H-M   'P 1'
_cell_length_a   17.99100000
_cell_length_b   17.99100000
_cell_length_c   6.53710000
_cell_angle_alpha   90.00000000
_cell_angle_beta   90.00000000
_cell_angle_gamma   120.00000000
_symmetry_Int_Tables_number   1
_chemical_formula_structural   CuH9C11O6
_chemical_formula_sum   'Cu6 H54 C66 O36'
_cell_volume   1832.42567123
_cell_formula_units_Z   6
loop_
 _symmetry_equiv_pos_site_id
 _symmetry_equiv_pos_as_xyz
  1  'x, y, z'
loop_
 _atom_site_type_symbol
 _atom_site_label
 _atom_site_symmetry_multiplicity
 _atom_site_fract_x
 _atom_site_fract_y
 _atom_site_fract_z
 _atom_site_occupancy
 _atom_site_charge
  Cu  Cu1  1  0.473880  0.526120  0.155200  1.0  0.9267
  Cu  Cu2  1  0.473880  0.947760  0.155200  1.0  0.9272
  Cu  Cu3  1  0.052240  0.526120  0.155200  1.0  0.9292
  Cu  Cu4  1  0.526120  0.473880  0.844800  1.0  0.9286
  Cu  Cu5  1  0.947760  0.473880  0.844800  1.0  0.927
  Cu  Cu6  1  0.526120  0.052240  0.844800  1.0  0.9286
  H  H7  1  0.369900  0.298000  0.534000  1.0  0.1321
  H  H8  1  0.242000  0.001400  0.065400  1.0  0.0563
  H  H9  1  0.287900  0.096000  0.139200  1.0  0.1499
  H  H10  1  0.198800  0.056600  0.034300  1.0  0.1701
  H  H11  1  0.702000  0.071900  0.534000  1.0  0.1342
  H  H12  1  0.998600  0.240600  0.065400  1.0  0.0548
  H  H13  1  0.904000  0.191900  0.139200  1.0  0.1495
  H  H14  1  0.943400  0.142200  0.034300  1.0  0.1699
  H  H15  1  0.928100  0.630100  0.534000  1.0  0.1326
  H  H16  1  0.759400  0.758000  0.065400  1.0  0.0511
  H  H17  1  0.808100  0.712100  0.139200  1.0  0.1504
  H  H18  1  0.857800  0.801200  0.034300  1.0  0.1683
  H  H19  1  0.298000  0.369900  0.466000  1.0  0.1318
  H  H20  1  0.001400  0.242000  0.934600  1.0  0.052
  H  H21  1  0.096000  0.287900  0.860800  1.0  0.1503
  H  H22  1  0.056600  0.198800  0.965700  1.0  0.17
  H  H23  1  0.071900  0.702000  0.466000  1.0  0.1321
  H  H24  1  0.240600  0.998600  0.934600  1.0  0.0526
  H  H25  1  0.191900  0.904000  0.860800  1.0  0.1502
  H  H26  1  0.142200  0.943400  0.965700  1.0  0.1728
  H  H27  1  0.630100  0.928100  0.466000  1.0  0.1334
  H  H28  1  0.758000  0.759400  0.934600  1.0  0.0503
  H  H29  1  0.712100  0.808100  0.860800  1.0  0.1487
  H  H30  1  0.801200  0.857800  0.965700  1.0  0.1698
  H  H31  1  0.630100  0.702000  0.466000  1.0  0.1321
  H  H32  1  0.758000  0.998600  0.934600  1.0  0.0536
  H  H33  1  0.712100  0.904000  0.860800  1.0  0.1498
  H  H34  1  0.801200  0.943400  0.965700  1.0  0.1746
  H  H35  1  0.298000  0.928100  0.466000  1.0  0.1325
  H  H36  1  0.001400  0.759400  0.934600  1.0  0.0485
  H  H37  1  0.096000  0.808100  0.860800  1.0  0.1494
  H  H38  1  0.056600  0.857800  0.965700  1.0  0.1713
  H  H39  1  0.071900  0.369900  0.466000  1.0  0.1317
  H  H40  1  0.240600  0.242000  0.934600  1.0  0.0517
  H  H41  1  0.191900  0.287900  0.860800  1.0  0.1506
  H  H42  1  0.142200  0.198800  0.965700  1.0  0.1692
  H  H43  1  0.702000  0.630100  0.534000  1.0  0.1325
  H  H44  1  0.998600  0.758000  0.065400  1.0  0.0518
  H  H45  1  0.904000  0.712100  0.139200  1.0  0.1506
  H  H46  1  0.943400  0.801200  0.034300  1.0  0.1701
  H  H47  1  0.928100  0.298000  0.534000  1.0  0.1323
  H  H48  1  0.759400  0.001400  0.065400  1.0  0.0545
  H  H49  1  0.808100  0.096000  0.139200  1.0  0.1495
  H  H50  1  0.857800  0.056600  0.034300  1.0  0.1738
  H  H51  1  0.369900  0.071900  0.534000  1.0  0.1333
  H  H52  1  0.242000  0.240600  0.065400  1.0  0.0533
  H  H53  1  0.287900  0.191900  0.139200  1.0  0.1494
  H  H54  1  0.198800  0.142200  0.034300  1.0  0.1685
  H  H55  1  0.456100  0.228050  0.044400  1.0  0.1169
  H  H56  1  0.771950  0.228050  0.044400  1.0  0.117
  H  H57  1  0.771950  0.543900  0.044400  1.0  0.1178
  H  H58  1  0.228050  0.456100  0.955600  1.0  0.1174
  H  H59  1  0.228050  0.771950  0.955600  1.0  0.1172
  H  H60  1  0.543900  0.771950  0.955600  1.0  0.1177
  C  C61  1  0.446200  0.357500  0.172000  1.0  0.6974
  C  C62  1  0.419800  0.275400  0.273000  1.0  0.0061
  C  C63  1  0.380400  0.256600  0.466000  1.0  -0.1209
  C  C64  1  0.251800  0.057400  0.038000  1.0  -0.2074
  C  C65  1  0.642500  0.088700  0.172000  1.0  0.6967
  C  C66  1  0.724600  0.144400  0.273000  1.0  0.0073
  C  C67  1  0.743400  0.123800  0.466000  1.0  -0.1238
  C  C68  1  0.942600  0.194400  0.038000  1.0  -0.2036
  C  C69  1  0.911300  0.553800  0.172000  1.0  0.7024
  C  C70  1  0.855600  0.580200  0.273000  1.0  0.01
  C  C71  1  0.876200  0.619600  0.466000  1.0  -0.1193
  C  C72  1  0.805600  0.748200  0.038000  1.0  -0.2031
  C  C73  1  0.357500  0.446200  0.828000  1.0  0.7006
  C  C74  1  0.275400  0.419800  0.727000  1.0  0.0101
  C  C75  1  0.256600  0.380400  0.534000  1.0  -0.1213
  C  C76  1  0.057400  0.251800  0.962000  1.0  -0.2024
  C  C77  1  0.088700  0.642500  0.828000  1.0  0.6977
  C  C78  1  0.144400  0.724600  0.727000  1.0  0.0071
  C  C79  1  0.123800  0.743400  0.534000  1.0  -0.1203
  C  C80  1  0.194400  0.942600  0.962000  1.0  -0.2045
  C  C81  1  0.553800  0.911300  0.828000  1.0  0.6953
  C  C82  1  0.580200  0.855600  0.727000  1.0  0.0051
  C  C83  1  0.619600  0.876200  0.534000  1.0  -0.124
  C  C84  1  0.748200  0.805600  0.962000  1.0  -0.2044
  C  C85  1  0.553800  0.642500  0.828000  1.0  0.6952
  C  C86  1  0.580200  0.724600  0.727000  1.0  0.0053
  C  C87  1  0.619600  0.743400  0.534000  1.0  -0.1209
  C  C88  1  0.748200  0.942600  0.962000  1.0  -0.2044
  C  C89  1  0.357500  0.911300  0.828000  1.0  0.6939
  C  C90  1  0.275400  0.855600  0.727000  1.0  0.0079
  C  C91  1  0.256600  0.876200  0.534000  1.0  -0.1233
  C  C92  1  0.057400  0.805600  0.962000  1.0  -0.2086
  C  C93  1  0.088700  0.446200  0.828000  1.0  0.6997
  C  C94  1  0.144400  0.419800  0.727000  1.0  0.0104
  C  C95  1  0.123800  0.380400  0.534000  1.0  -0.1228
  C  C96  1  0.194400  0.251800  0.962000  1.0  -0.2036
  C  C97  1  0.642500  0.553800  0.172000  1.0  0.7013
  C  C98  1  0.724600  0.580200  0.273000  1.0  0.0112
  C  C99  1  0.743400  0.619600  0.466000  1.0  -0.1193
  C  C100  1  0.942600  0.748200  0.038000  1.0  -0.2028
  C  C101  1  0.911300  0.357500  0.172000  1.0  0.6974
  C  C102  1  0.855600  0.275400  0.273000  1.0  0.0074
  C  C103  1  0.876200  0.256600  0.466000  1.0  -0.1186
  C  C104  1  0.805600  0.057400  0.038000  1.0  -0.2061
  C  C105  1  0.446200  0.088700  0.172000  1.0  0.6938
  C  C106  1  0.419800  0.144400  0.273000  1.0  0.0091
  C  C107  1  0.380400  0.123800  0.466000  1.0  -0.1246
  C  C108  1  0.251800  0.194400  0.038000  1.0  -0.2087
  C  C109  1  0.434100  0.217050  0.180000  1.0  -0.1366
  C  C110  1  0.356600  0.178300  0.556000  1.0  -0.0912
  C  C111  1  0.314100  0.157050  0.762000  1.0  0.6596
  C  C112  1  0.782950  0.217050  0.180000  1.0  -0.1371
  C  C113  1  0.821700  0.178300  0.556000  1.0  -0.0899
  C  C114  1  0.842950  0.157050  0.762000  1.0  0.66
  C  C115  1  0.782950  0.565900  0.180000  1.0  -0.1343
  C  C116  1  0.821700  0.643400  0.556000  1.0  -0.0874
  C  C117  1  0.842950  0.685900  0.762000  1.0  0.6587
  C  C118  1  0.217050  0.434100  0.820000  1.0  -0.1327
  C  C119  1  0.178300  0.356600  0.444000  1.0  -0.088
  C  C120  1  0.157050  0.314100  0.238000  1.0  0.6626
  C  C121  1  0.217050  0.782950  0.820000  1.0  -0.1371
  C  C122  1  0.178300  0.821700  0.444000  1.0  -0.0919
  C  C123  1  0.157050  0.842950  0.238000  1.0  0.6615
  C  C124  1  0.565900  0.782950  0.820000  1.0  -0.1388
  C  C125  1  0.643400  0.821700  0.444000  1.0  -0.0924
  C  C126  1  0.685900  0.842950  0.238000  1.0  0.6623
  O  O127  1  0.434200  0.410500  0.262000  1.0  -0.5525
  O  O128  1  0.520700  0.631000  0.002000  1.0  -0.5715
  O  O129  1  0.293400  0.085700  0.838000  1.0  -0.4998
  O  O130  1  0.589500  0.023700  0.262000  1.0  -0.5491
  O  O131  1  0.369000  0.889700  0.002000  1.0  -0.5726
  O  O132  1  0.914300  0.207700  0.838000  1.0  -0.501
  O  O133  1  0.976300  0.565800  0.262000  1.0  -0.5507
  O  O134  1  0.110300  0.479300  0.002000  1.0  -0.5697
  O  O135  1  0.792300  0.706600  0.838000  1.0  -0.5003
  O  O136  1  0.410500  0.434200  0.738000  1.0  -0.5504
  O  O137  1  0.631000  0.520700  0.998000  1.0  -0.5699
  O  O138  1  0.085700  0.293400  0.162000  1.0  -0.5057
  O  O139  1  0.023700  0.589500  0.738000  1.0  -0.5537
  O  O140  1  0.889700  0.369000  0.998000  1.0  -0.5718
  O  O141  1  0.207700  0.914300  0.162000  1.0  -0.5026
  O  O142  1  0.565800  0.976300  0.738000  1.0  -0.5506
  O  O143  1  0.479300  0.110300  0.998000  1.0  -0.5716
  O  O144  1  0.706600  0.792300  0.162000  1.0  -0.5043
  O  O145  1  0.565800  0.589500  0.738000  1.0  -0.5524
  O  O146  1  0.479300  0.369000  0.998000  1.0  -0.5713
  O  O147  1  0.706600  0.914300  0.162000  1.0  -0.5056
  O  O148  1  0.410500  0.976300  0.738000  1.0  -0.5519
  O  O149  1  0.631000  0.110300  0.998000  1.0  -0.5719
  O  O150  1  0.085700  0.792300  0.162000  1.0  -0.5014
  O  O151  1  0.023700  0.434200  0.738000  1.0  -0.5502
  O  O152  1  0.889700  0.520700  0.998000  1.0  -0.5705
  O  O153  1  0.207700  0.293400  0.162000  1.0  -0.5031
  O  O154  1  0.589500  0.565800  0.262000  1.0  -0.5503
  O  O155  1  0.369000  0.479300  0.002000  1.0  -0.5693
  O  O156  1  0.914300  0.706600  0.838000  1.0  -0.4995
  O  O157  1  0.976300  0.410500  0.262000  1.0  -0.5514
  O  O158  1  0.110300  0.631000  0.002000  1.0  -0.5711
  O  O159  1  0.792300  0.085700  0.838000  1.0  -0.5029
  O  O160  1  0.434200  0.023700  0.262000  1.0  -0.5516
  O  O161  1  0.520700  0.889700  0.002000  1.0  -0.5715
  O  O162  1  0.293400  0.207700  0.838000  1.0  -0.502
