# generated using pymatgen
data_CdH42(C5N2)6
_symmetry_space_group_name_H-M   'P 1'
_cell_length_a   13.31800000
_cell_length_b   13.31800000
_cell_length_c   13.27800000
_cell_angle_alpha   90.00000000
_cell_angle_beta   90.00000000
_cell_angle_gamma   120.00000000
_symmetry_Int_Tables_number   1
_chemical_formula_structural   CdH42(C5N2)6
_chemical_formula_sum   'Cd2 H84 C60 N24'
_cell_volume   2039.58268849
_cell_formula_units_Z   2
loop_
 _symmetry_equiv_pos_site_id
 _symmetry_equiv_pos_as_xyz
  1  'x, y, z'
loop_
 _atom_site_type_symbol
 _atom_site_label
 _atom_site_symmetry_multiplicity
 _atom_site_fract_x
 _atom_site_fract_y
 _atom_site_fract_z
 _atom_site_occupancy
 _atom_site_charge
  Cd  Cd1  1  0.000000  0.000000  0.884230  1.0  0.717
  Cd  Cd2  1  0.666667  0.333333  0.384090  1.0  0.6902
  H  H3  1  0.338700  0.487500  0.807200  1.0  0.0646
  H  H4  1  0.319800  0.500500  0.689800  1.0  0.0641
  H  H5  1  0.462500  0.447500  0.651300  1.0  0.0409
  H  H6  1  0.484700  0.443800  0.769500  1.0  0.0465
  H  H7  1  0.528900  0.648300  0.660200  1.0  0.046
  H  H8  1  0.542800  0.646800  0.779900  1.0  0.0517
  H  H9  1  0.724600  0.721500  0.712600  1.0  0.0678
  H  H10  1  0.688800  0.596000  0.755700  1.0  0.0625
  H  H11  1  0.194600  0.293300  0.876900  1.0  0.0714
  H  H12  1  0.121800  0.090000  0.640400  1.0  0.0673
  H  H13  1  0.265200  0.286600  0.586600  1.0  0.099
  H  H14  1  0.638700  0.430900  0.622100  1.0  0.0764
  H  H15  1  0.777200  0.630900  0.383900  1.0  0.0673
  H  H16  1  0.764600  0.752200  0.516900  1.0  0.103
  H  H17  1  0.167100  0.652000  0.189600  1.0  0.0661
  H  H18  1  0.154200  0.670700  0.307100  1.0  0.0629
  H  H19  1  0.111000  0.818500  0.269400  1.0  0.0542
  H  H20  1  0.114100  0.796300  0.151200  1.0  0.044
  H  H21  1  0.314500  0.875900  0.278600  1.0  0.0525
  H  H22  1  0.315100  0.863400  0.158800  1.0  0.0432
  H  H23  1  0.262400  0.021600  0.256700  1.0  0.0697
  H  H24  1  0.388300  0.058400  0.213800  1.0  0.0651
  H  H25  1  0.960300  0.527600  0.377100  1.0  0.0761
  H  H26  1  0.757100  0.454700  0.140100  1.0  0.0681
  H  H27  1  0.953800  0.598200  0.086600  1.0  0.0985
  H  H28  1  0.098000  0.972800  0.122600  1.0  0.0786
  H  H29  1  0.297900  0.111400  0.884200  1.0  0.0639
  H  H30  1  0.419800  0.100300  0.017500  1.0  0.0987
  H  H31  1  0.512500  0.851200  0.807200  1.0  0.0653
  H  H32  1  0.499500  0.819300  0.689800  1.0  0.0628
  H  H33  1  0.552500  0.015000  0.651300  1.0  0.0397
  H  H34  1  0.556200  0.040900  0.769500  1.0  0.0447
  H  H35  1  0.351700  0.880600  0.660200  1.0  0.0459
  H  H36  1  0.353200  0.896000  0.779900  1.0  0.0522
  H  H37  1  0.278500  0.003100  0.712600  1.0  0.0641
  H  H38  1  0.404000  0.092800  0.755700  1.0  0.0618
  H  H39  1  0.706700  0.901300  0.876900  1.0  0.0726
  H  H40  1  0.910000  0.031800  0.640400  1.0  0.0682
  H  H41  1  0.713400  0.978600  0.586600  1.0  0.0984
  H  H42  1  0.569100  0.207800  0.622100  1.0  0.0763
  H  H43  1  0.369100  0.146300  0.383900  1.0  0.0677
  H  H44  1  0.247800  0.012400  0.516900  1.0  0.1002
  H  H45  1  0.348000  0.515100  0.189600  1.0  0.0659
  H  H46  1  0.329300  0.483500  0.307100  1.0  0.0632
  H  H47  1  0.181500  0.292500  0.269400  1.0  0.0589
  H  H48  1  0.203700  0.317800  0.151200  1.0  0.0435
  H  H49  1  0.124100  0.438600  0.278600  1.0  0.0519
  H  H50  1  0.136600  0.451700  0.158800  1.0  0.0447
  H  H51  1  0.978400  0.240800  0.256700  1.0  0.0696
  H  H52  1  0.941600  0.329900  0.213800  1.0  0.0628
  H  H53  1  0.472400  0.432700  0.377100  1.0  0.077
  H  H54  1  0.545300  0.302400  0.140100  1.0  0.0691
  H  H55  1  0.401800  0.355600  0.086600  1.0  0.0982
  H  H56  1  0.027200  0.125200  0.122600  1.0  0.0778
  H  H57  1  0.888600  0.186500  0.884200  1.0  0.0641
  H  H58  1  0.899700  0.319500  0.017500  1.0  0.0981
  H  H59  1  0.148800  0.661300  0.807200  1.0  0.0645
  H  H60  1  0.180700  0.680200  0.689800  1.0  0.0625
  H  H61  1  0.985000  0.537500  0.651300  1.0  0.0403
  H  H62  1  0.959100  0.515300  0.769500  1.0  0.0415
  H  H63  1  0.119400  0.471100  0.660200  1.0  0.046
  H  H64  1  0.104000  0.457200  0.779900  1.0  0.0508
  H  H65  1  0.996900  0.275400  0.712600  1.0  0.0664
  H  H66  1  0.907200  0.311200  0.755700  1.0  0.0632
  H  H67  1  0.098700  0.805400  0.876900  1.0  0.0723
  H  H68  1  0.968200  0.878200  0.640400  1.0  0.0677
  H  H69  1  0.021400  0.734800  0.586600  1.0  0.099
  H  H70  1  0.792200  0.361300  0.622100  1.0  0.0771
  H  H71  1  0.853700  0.222800  0.383900  1.0  0.0671
  H  H72  1  0.987600  0.235400  0.516900  1.0  0.1016
  H  H73  1  0.484900  0.832900  0.189600  1.0  0.0652
  H  H74  1  0.516500  0.845800  0.307100  1.0  0.0631
  H  H75  1  0.707500  0.889000  0.269400  1.0  0.057
  H  H76  1  0.682200  0.885900  0.151200  1.0  0.0444
  H  H77  1  0.561400  0.685500  0.278600  1.0  0.0525
  H  H78  1  0.548300  0.684900  0.158800  1.0  0.0449
  H  H79  1  0.759200  0.737600  0.256700  1.0  0.0683
  H  H80  1  0.670100  0.611700  0.213800  1.0  0.0654
  H  H81  1  0.567300  0.039700  0.377100  1.0  0.0758
  H  H82  1  0.697600  0.242900  0.140100  1.0  0.0681
  H  H83  1  0.644400  0.046200  0.086600  1.0  0.0989
  H  H84  1  0.874800  0.902000  0.122600  1.0  0.0787
  H  H85  1  0.813500  0.702100  0.884200  1.0  0.0634
  H  H86  1  0.680500  0.580200  0.017500  1.0  0.1006
  C  C87  1  0.340800  0.458200  0.739200  1.0  -0.028
  C  C88  1  0.461600  0.481500  0.717400  1.0  -0.1281
  C  C89  1  0.548700  0.611900  0.715900  1.0  -0.1246
  C  C90  1  0.671500  0.637400  0.702600  1.0  -0.0434
  C  C91  1  0.192600  0.266400  0.810300  1.0  0.1312
  C  C92  1  0.154200  0.157100  0.681900  1.0  -0.0368
  C  C93  1  0.232500  0.263900  0.652000  1.0  -0.1455
  C  C94  1  0.672900  0.496200  0.578600  1.0  0.1111
  C  C95  1  0.747500  0.605200  0.449700  1.0  0.0232
  C  C96  1  0.741500  0.672400  0.522300  1.0  -0.1498
  C  C97  1  0.125100  0.673100  0.239000  1.0  -0.0339
  C  C98  1  0.148400  0.795400  0.217100  1.0  -0.1225
  C  C99  1  0.279100  0.882700  0.215200  1.0  -0.1183
  C  C100  1  0.304300  0.005200  0.203500  1.0  -0.0481
  C  C101  1  0.933300  0.525900  0.310600  1.0  0.1329
  C  C102  1  0.823900  0.487300  0.182100  1.0  -0.0201
  C  C103  1  0.931200  0.565700  0.152100  1.0  -0.1454
  C  C104  1  0.163000  0.006200  0.078600  1.0  0.1166
  C  C105  1  0.271900  0.081100  0.949800  1.0  0.03
  C  C106  1  0.339700  0.076100  0.022600  1.0  -0.1533
  C  C107  1  0.541800  0.882600  0.739200  1.0  -0.0325
  C  C108  1  0.518500  0.980100  0.717400  1.0  -0.1286
  C  C109  1  0.388100  0.936800  0.715900  1.0  -0.1259
  C  C110  1  0.362600  0.034100  0.702600  1.0  -0.045
  C  C111  1  0.733600  0.926200  0.810300  1.0  0.131
  C  C112  1  0.842900  0.997100  0.681900  1.0  -0.0373
  C  C113  1  0.736100  0.968600  0.652000  1.0  -0.1457
  C  C114  1  0.503800  0.176700  0.578600  1.0  0.1113
  C  C115  1  0.394800  0.142300  0.449700  1.0  0.0239
  C  C116  1  0.327600  0.069100  0.522300  1.0  -0.1496
  C  C117  1  0.326900  0.452000  0.239000  1.0  -0.0406
  C  C118  1  0.204600  0.353000  0.217100  1.0  -0.1278
  C  C119  1  0.117300  0.396400  0.215200  1.0  -0.1277
  C  C120  1  0.994800  0.299100  0.203500  1.0  -0.046
  C  C121  1  0.474100  0.407400  0.310600  1.0  0.1305
  C  C122  1  0.512700  0.336600  0.182100  1.0  -0.0197
  C  C123  1  0.434300  0.365500  0.152100  1.0  -0.1458
  C  C124  1  0.993800  0.156800  0.078600  1.0  0.1186
  C  C125  1  0.918900  0.190800  0.949800  1.0  0.0296
  C  C126  1  0.923900  0.263600  0.022600  1.0  -0.1536
  C  C127  1  0.117400  0.659200  0.739200  1.0  -0.0257
  C  C128  1  0.019900  0.538400  0.717400  1.0  -0.1245
  C  C129  1  0.063200  0.451300  0.715900  1.0  -0.1178
  C  C130  1  0.965900  0.328500  0.702600  1.0  -0.0466
  C  C131  1  0.073800  0.807400  0.810300  1.0  0.1324
  C  C132  1  0.002900  0.845800  0.681900  1.0  -0.0383
  C  C133  1  0.031400  0.767500  0.652000  1.0  -0.1443
  C  C134  1  0.823300  0.327100  0.578600  1.0  0.1095
  C  C135  1  0.857700  0.252500  0.449700  1.0  0.0239
  C  C136  1  0.930900  0.258500  0.522300  1.0  -0.1497
  C  C137  1  0.548000  0.874900  0.239000  1.0  -0.0359
  C  C138  1  0.647000  0.851600  0.217100  1.0  -0.1259
  C  C139  1  0.603600  0.720900  0.215200  1.0  -0.1258
  C  C140  1  0.700900  0.695700  0.203500  1.0  -0.046
  C  C141  1  0.592600  0.066700  0.310600  1.0  0.1312
  C  C142  1  0.663400  0.176100  0.182100  1.0  -0.0188
  C  C143  1  0.634500  0.068800  0.152100  1.0  -0.1454
  C  C144  1  0.843200  0.837000  0.078600  1.0  0.1174
  C  C145  1  0.809200  0.728100  0.949800  1.0  0.0283
  C  C146  1  0.736400  0.660300  0.022600  1.0  -0.1537
  N  N147  1  0.255900  0.333900  0.733800  1.0  0.0324
  N  N148  1  0.127700  0.159000  0.781500  1.0  -0.3901
  N  N149  1  0.696200  0.604300  0.604200  1.0  0.0316
  N  N150  1  0.704600  0.494600  0.484400  1.0  -0.4301
  N  N151  1  0.001100  0.589600  0.233300  1.0  0.0329
  N  N152  1  0.824200  0.460900  0.281700  1.0  -0.411
  N  N153  1  0.270900  0.029400  0.104600  1.0  0.0183
  N  N154  1  0.159800  0.036300  0.983600  1.0  -0.4556
  N  N155  1  0.666100  0.922000  0.733800  1.0  0.0317
  N  N156  1  0.841000  0.968700  0.781500  1.0  -0.3898
  N  N157  1  0.395700  0.091900  0.604200  1.0  0.031
  N  N158  1  0.505400  0.210000  0.484400  1.0  -0.4306
  N  N159  1  0.410400  0.411500  0.233300  1.0  0.0326
  N  N160  1  0.539100  0.363300  0.281700  1.0  -0.4082
  N  N161  1  0.970600  0.241500  0.104600  1.0  0.0167
  N  N162  1  0.963700  0.123500  0.983600  1.0  -0.4563
  N  N163  1  0.078000  0.744100  0.733800  1.0  0.0323
  N  N164  1  0.031300  0.872300  0.781500  1.0  -0.3901
  N  N165  1  0.908100  0.303800  0.604200  1.0  0.032
  N  N166  1  0.790000  0.295400  0.484400  1.0  -0.4298
  N  N167  1  0.588500  0.998900  0.233300  1.0  0.0333
  N  N168  1  0.636700  0.175800  0.281700  1.0  -0.411
  N  N169  1  0.758500  0.729100  0.104600  1.0  0.0167
  N  N170  1  0.876500  0.840200  0.983600  1.0  -0.457
