# generated using pymatgen
data_ZnH8C12(IN2)2
_symmetry_space_group_name_H-M   'P 1'
_cell_length_a   15.09600000
_cell_length_b   15.67760000
_cell_length_c   31.84600000
_cell_angle_alpha   93.63050000
_cell_angle_beta   90.00000000
_cell_angle_gamma   118.78000000
_symmetry_Int_Tables_number   1
_chemical_formula_structural   ZnH8C12(IN2)2
_chemical_formula_sum   'Zn12 H96 C144 I24 N48'
_cell_volume   6588.69527948
_cell_formula_units_Z   12
loop_
 _symmetry_equiv_pos_site_id
 _symmetry_equiv_pos_as_xyz
  1  'x, y, z'
loop_
 _atom_site_type_symbol
 _atom_site_label
 _atom_site_symmetry_multiplicity
 _atom_site_fract_x
 _atom_site_fract_y
 _atom_site_fract_z
 _atom_site_occupancy
 _atom_site_charge
  Zn  Zn1  1  0.938550  0.586200  0.195750  1.0  0.9484
  Zn  Zn2  1  0.545680  0.856460  0.883530  1.0  0.8364
  Zn  Zn3  1  0.101260  0.379820  0.002210  1.0  0.8756
  Zn  Zn4  1  0.647650  0.586200  0.695750  1.0  0.9474
  Zn  Zn5  1  0.310780  0.856460  0.383530  1.0  0.8351
  Zn  Zn6  1  0.278560  0.379820  0.502210  1.0  0.8779
  Zn  Zn7  1  0.352350  0.413800  0.304250  1.0  0.9482
  Zn  Zn8  1  0.689220  0.143540  0.616470  1.0  0.8367
  Zn  Zn9  1  0.721440  0.620180  0.497790  1.0  0.8789
  Zn  Zn10  1  0.061450  0.413800  0.804250  1.0  0.9461
  Zn  Zn11  1  0.454320  0.143540  0.116470  1.0  0.8354
  Zn  Zn12  1  0.898740  0.620180  0.997790  1.0  0.8809
  H  H13  1  0.196200  0.268200  0.951300  1.0  0.0991
  H  H14  1  0.229800  0.143200  0.960800  1.0  0.1175
  H  H15  1  0.042900  0.068000  0.059400  1.0  0.1304
  H  H16  1  0.016900  0.198800  0.048000  1.0  0.0773
  H  H17  1  0.410200  0.769000  0.952900  1.0  0.0875
  H  H18  1  0.306900  0.797200  0.000400  1.0  0.1191
  H  H19  1  0.404200  0.060000  0.954600  1.0  0.1203
  H  H20  1  0.514500  0.029400  0.912500  1.0  0.0892
  H  H21  1  0.108200  0.652200  0.138900  1.0  0.0877
  H  H22  1  0.183500  0.753400  0.085500  1.0  0.1268
  H  H23  1  0.986800  0.856000  0.102400  1.0  0.1134
  H  H24  1  0.911500  0.746800  0.154100  1.0  0.0955
  H  H25  1  0.100100  0.482200  0.086900  1.0  0.0883
  H  H26  1  0.198500  0.550800  0.147800  1.0  0.1206
  H  H27  1  0.389900  0.456600  0.103000  1.0  0.124
  H  H28  1  0.288800  0.398200  0.041800  1.0  0.0925
  H  H29  1  0.501700  0.858800  0.347300  1.0  0.0879
  H  H30  1  0.543900  0.784000  0.291000  1.0  0.12
  H  H31  1  0.247000  0.629400  0.257300  1.0  0.1181
  H  H32  1  0.211800  0.697000  0.317700  1.0  0.0866
  H  H33  1  0.825600  0.655400  0.257500  1.0  0.1018
  H  H34  1  0.680000  0.667800  0.258300  1.0  0.1245
  H  H35  1  0.596500  0.515000  0.145300  1.0  0.125
  H  H36  1  0.742300  0.503400  0.147300  1.0  0.0872
  H  H37  1  0.072000  0.268200  0.451300  1.0  0.0998
  H  H38  1  0.913400  0.143200  0.460800  1.0  0.1173
  H  H39  1  0.025100  0.068000  0.559400  1.0  0.13
  H  H40  1  0.181900  0.198800  0.548000  1.0  0.0769
  H  H41  1  0.358800  0.769000  0.452900  1.0  0.0875
  H  H42  1  0.490300  0.797200  0.500400  1.0  0.1186
  H  H43  1  0.655800  0.060000  0.454600  1.0  0.1198
  H  H44  1  0.514900  0.029400  0.412500  1.0  0.0896
  H  H45  1  0.544000  0.652200  0.638900  1.0  0.0874
  H  H46  1  0.569900  0.753400  0.585500  1.0  0.1268
  H  H47  1  0.869200  0.856000  0.602400  1.0  0.1139
  H  H48  1  0.835300  0.746800  0.654100  1.0  0.0957
  H  H49  1  0.382100  0.482200  0.586900  1.0  0.0881
  H  H50  1  0.352300  0.550800  0.647800  1.0  0.1204
  H  H51  1  0.066700  0.456600  0.603000  1.0  0.1249
  H  H52  1  0.109400  0.398200  0.541800  1.0  0.0926
  H  H53  1  0.357100  0.858800  0.847300  1.0  0.0881
  H  H54  1  0.240100  0.784000  0.791000  1.0  0.1206
  H  H55  1  0.382400  0.629400  0.757300  1.0  0.1186
  H  H56  1  0.485200  0.697000  0.817700  1.0  0.0866
  H  H57  1  0.829800  0.655400  0.757500  1.0  0.1011
  H  H58  1  0.987800  0.667800  0.758300  1.0  0.1248
  H  H59  1  0.918500  0.515000  0.645300  1.0  0.1251
  H  H60  1  0.761100  0.503400  0.647300  1.0  0.087
  H  H61  1  0.928000  0.731800  0.548700  1.0  0.0976
  H  H62  1  0.086600  0.856800  0.539200  1.0  0.1175
  H  H63  1  0.974900  0.932000  0.440600  1.0  0.1306
  H  H64  1  0.818100  0.801200  0.452000  1.0  0.0771
  H  H65  1  0.641200  0.231000  0.547100  1.0  0.0882
  H  H66  1  0.509700  0.202800  0.499600  1.0  0.1203
  H  H67  1  0.344200  0.940000  0.545400  1.0  0.1195
  H  H68  1  0.485100  0.970600  0.587500  1.0  0.0897
  H  H69  1  0.456000  0.347800  0.361100  1.0  0.0871
  H  H70  1  0.430100  0.246600  0.414500  1.0  0.1269
  H  H71  1  0.130800  0.144000  0.397600  1.0  0.1136
  H  H72  1  0.164700  0.253200  0.345900  1.0  0.0955
  H  H73  1  0.617900  0.517800  0.413100  1.0  0.0883
  H  H74  1  0.647700  0.449200  0.352200  1.0  0.1207
  H  H75  1  0.933300  0.543400  0.397000  1.0  0.1236
  H  H76  1  0.890600  0.601800  0.458200  1.0  0.0922
  H  H77  1  0.642900  0.141200  0.152700  1.0  0.0885
  H  H78  1  0.759900  0.216000  0.209000  1.0  0.1197
  H  H79  1  0.617600  0.370600  0.242700  1.0  0.1183
  H  H80  1  0.514800  0.303000  0.182300  1.0  0.0873
  H  H81  1  0.170200  0.344600  0.242500  1.0  0.1022
  H  H82  1  0.012200  0.332200  0.241700  1.0  0.1248
  H  H83  1  0.081500  0.485000  0.354700  1.0  0.1249
  H  H84  1  0.238900  0.496600  0.352700  1.0  0.087
  H  H85  1  0.803800  0.731800  0.048700  1.0  0.0988
  H  H86  1  0.770200  0.856800  0.039200  1.0  0.1176
  H  H87  1  0.957100  0.932000  0.940600  1.0  0.1306
  H  H88  1  0.983100  0.801200  0.952000  1.0  0.0766
  H  H89  1  0.589800  0.231000  0.047100  1.0  0.0885
  H  H90  1  0.693100  0.202800  0.999600  1.0  0.1194
  H  H91  1  0.595800  0.940000  0.045400  1.0  0.1197
  H  H92  1  0.485500  0.970600  0.087500  1.0  0.0898
  H  H93  1  0.891800  0.347800  0.861100  1.0  0.0873
  H  H94  1  0.816500  0.246600  0.914500  1.0  0.1267
  H  H95  1  0.013200  0.144000  0.897600  1.0  0.1137
  H  H96  1  0.088500  0.253200  0.845900  1.0  0.0957
  H  H97  1  0.899900  0.517800  0.913100  1.0  0.0876
  H  H98  1  0.801500  0.449200  0.852200  1.0  0.1206
  H  H99  1  0.610100  0.543400  0.897000  1.0  0.1242
  H  H100  1  0.711200  0.601800  0.958200  1.0  0.0927
  H  H101  1  0.498300  0.141200  0.652700  1.0  0.0884
  H  H102  1  0.456100  0.216000  0.709000  1.0  0.1204
  H  H103  1  0.753000  0.370600  0.742700  1.0  0.1181
  H  H104  1  0.788200  0.303000  0.682300  1.0  0.0872
  H  H105  1  0.174400  0.344600  0.742500  1.0  0.1011
  H  H106  1  0.320000  0.332200  0.741700  1.0  0.1251
  H  H107  1  0.403500  0.485000  0.854700  1.0  0.1248
  H  H108  1  0.257700  0.496600  0.852700  1.0  0.087
  C  C109  1  0.148700  0.889400  0.057500  1.0  0.3556
  C  C110  1  0.266700  0.943600  0.007600  1.0  0.3894
  C  C111  1  0.169400  0.016200  0.020300  1.0  0.3527
  C  C112  1  0.166400  0.228000  0.973900  1.0  0.1323
  C  C113  1  0.186200  0.153600  0.979400  1.0  -0.1163
  C  C114  1  0.143700  0.092800  0.011600  1.0  -0.0416
  C  C115  1  0.076600  0.109400  0.037500  1.0  -0.1557
  C  C116  1  0.061300  0.187400  0.030200  1.0  0.1524
  C  C117  1  0.410100  0.829600  0.953700  1.0  0.1274
  C  C118  1  0.346600  0.845000  0.981600  1.0  -0.1582
  C  C119  1  0.342800  0.931800  0.981000  1.0  -0.0699
  C  C120  1  0.404700  0.999800  0.955300  1.0  -0.1245
  C  C121  1  0.469600  0.980400  0.929600  1.0  0.133
  C  C122  1  0.082100  0.693400  0.130800  1.0  0.1423
  C  C123  1  0.129400  0.755400  0.099900  1.0  -0.1661
  C  C124  1  0.097400  0.820400  0.090100  1.0  -0.0444
  C  C125  1  0.013500  0.814800  0.109700  1.0  -0.1148
  C  C126  1  0.968000  0.748600  0.140200  1.0  0.1378
  C  C127  1  0.378000  0.559800  0.169100  1.0  0.3739
  C  C128  1  0.422400  0.649400  0.231700  1.0  0.3817
  C  C129  1  0.528400  0.602200  0.200500  1.0  0.3524
  C  C130  1  0.160800  0.478600  0.090000  1.0  0.1506
  C  C131  1  0.219100  0.519800  0.126400  1.0  -0.1331
  C  C132  1  0.309000  0.515600  0.131800  1.0  -0.0573
  C  C133  1  0.332400  0.465600  0.100100  1.0  -0.1269
  C  C134  1  0.270300  0.428800  0.064200  1.0  0.1407
  C  C135  1  0.449100  0.810000  0.329300  1.0  0.1402
  C  C136  1  0.475100  0.766800  0.295300  1.0  -0.1307
  C  C137  1  0.399300  0.698600  0.268000  1.0  -0.1164
  C  C138  1  0.300500  0.674600  0.276000  1.0  -0.1485
  C  C139  1  0.280300  0.717200  0.311500  1.0  0.1467
  C  C140  1  0.778600  0.626800  0.234300  1.0  0.1318
  C  C141  1  0.692000  0.634000  0.235100  1.0  -0.1179
  C  C142  1  0.621800  0.592000  0.201900  1.0  -0.1088
  C  C143  1  0.642700  0.544000  0.168700  1.0  -0.1577
  C  C144  1  0.729900  0.538400  0.169900  1.0  0.1408
  C  C145  1  0.740700  0.889400  0.557500  1.0  0.3559
  C  C146  1  0.676900  0.943600  0.507600  1.0  0.3896
  C  C147  1  0.846800  0.016200  0.520300  1.0  0.3525
  C  C148  1  0.061600  0.228000  0.473900  1.0  0.1333
  C  C149  1  0.967400  0.153600  0.479400  1.0  -0.1184
  C  C150  1  0.949100  0.092800  0.511600  1.0  -0.0452
  C  C151  1  0.032800  0.109400  0.537500  1.0  -0.1549
  C  C152  1  0.126100  0.187400  0.530200  1.0  0.1533
  C  C153  1  0.419500  0.829600  0.453700  1.0  0.1293
  C  C154  1  0.498400  0.845000  0.481600  1.0  -0.1577
  C  C155  1  0.589000  0.931800  0.481000  1.0  -0.0687
  C  C156  1  0.595100  0.999800  0.455300  1.0  -0.1244
  C  C157  1  0.510800  0.980400  0.429600  1.0  0.1333
  C  C158  1  0.611300  0.693400  0.630800  1.0  0.1427
  C  C159  1  0.626000  0.755400  0.599900  1.0  -0.1668
  C  C160  1  0.723000  0.820400  0.590100  1.0  -0.0446
  C  C161  1  0.801300  0.814800  0.609700  1.0  -0.1154
  C  C162  1  0.780600  0.748600  0.640200  1.0  0.1372
  C  C163  1  0.181800  0.559800  0.669100  1.0  0.3739
  C  C164  1  0.227000  0.649400  0.731700  1.0  0.3812
  C  C165  1  0.073800  0.602200  0.700500  1.0  0.352
  C  C166  1  0.317800  0.478600  0.590000  1.0  0.1502
  C  C167  1  0.300700  0.519800  0.626400  1.0  -0.1327
  C  C168  1  0.206600  0.515600  0.631800  1.0  -0.0565
  C  C169  1  0.133200  0.465600  0.600100  1.0  -0.1314
  C  C170  1  0.158500  0.428800  0.564200  1.0  0.1414
  C  C171  1  0.360900  0.810000  0.829300  1.0  0.1405
  C  C172  1  0.291700  0.766800  0.795300  1.0  -0.1315
  C  C173  1  0.299300  0.698600  0.768000  1.0  -0.1155
  C  C174  1  0.374100  0.674600  0.776000  1.0  -0.1484
  C  C175  1  0.436900  0.717200  0.811500  1.0  0.1471
  C  C176  1  0.848200  0.626800  0.734300  1.0  0.1309
  C  C177  1  0.942000  0.634000  0.735100  1.0  -0.1163
  C  C178  1  0.970200  0.592000  0.701900  1.0  -0.1096
  C  C179  1  0.901300  0.544000  0.668700  1.0  -0.1597
  C  C180  1  0.808500  0.538400  0.669900  1.0  0.1396
  C  C181  1  0.259300  0.110600  0.442500  1.0  0.3555
  C  C182  1  0.323100  0.056400  0.492400  1.0  0.3896
  C  C183  1  0.153200  0.983800  0.479700  1.0  0.3531
  C  C184  1  0.938400  0.772000  0.526100  1.0  0.1327
  C  C185  1  0.032600  0.846400  0.520600  1.0  -0.1158
  C  C186  1  0.050900  0.907200  0.488400  1.0  -0.0398
  C  C187  1  0.967200  0.890600  0.462500  1.0  -0.1546
  C  C188  1  0.873900  0.812600  0.469800  1.0  0.1548
  C  C189  1  0.580500  0.170400  0.546300  1.0  0.1292
  C  C190  1  0.501600  0.155000  0.518400  1.0  -0.1573
  C  C191  1  0.411000  0.068200  0.519000  1.0  -0.0708
  C  C192  1  0.404900  0.000200  0.544700  1.0  -0.1242
  C  C193  1  0.489200  0.019600  0.570400  1.0  0.1325
  C  C194  1  0.388700  0.306600  0.369200  1.0  0.1416
  C  C195  1  0.374000  0.244600  0.400100  1.0  -0.1652
  C  C196  1  0.277000  0.179600  0.409900  1.0  -0.0444
  C  C197  1  0.198700  0.185200  0.390300  1.0  -0.1127
  C  C198  1  0.219400  0.251400  0.359800  1.0  0.1377
  C  C199  1  0.818200  0.440200  0.330900  1.0  0.3745
  C  C200  1  0.773000  0.350600  0.268300  1.0  0.3813
  C  C201  1  0.926200  0.397800  0.299500  1.0  0.3525
  C  C202  1  0.682200  0.521400  0.410000  1.0  0.1511
  C  C203  1  0.699300  0.480200  0.373600  1.0  -0.1322
  C  C204  1  0.793400  0.484400  0.368200  1.0  -0.0567
  C  C205  1  0.866800  0.534400  0.399900  1.0  -0.127
  C  C206  1  0.841500  0.571200  0.435800  1.0  0.1404
  C  C207  1  0.639100  0.190000  0.170700  1.0  0.1405
  C  C208  1  0.708300  0.233200  0.204700  1.0  -0.1308
  C  C209  1  0.700700  0.301400  0.232000  1.0  -0.117
  C  C210  1  0.625900  0.325400  0.224000  1.0  -0.1486
  C  C211  1  0.563100  0.282800  0.188500  1.0  0.1472
  C  C212  1  0.151800  0.373200  0.265700  1.0  0.1322
  C  C213  1  0.058000  0.366000  0.264900  1.0  -0.1165
  C  C214  1  0.029800  0.408000  0.298100  1.0  -0.1092
  C  C215  1  0.098700  0.456000  0.331300  1.0  -0.1606
  C  C216  1  0.191500  0.461600  0.330100  1.0  0.1414
  C  C217  1  0.851300  0.110600  0.942500  1.0  0.3558
  C  C218  1  0.733300  0.056400  0.992400  1.0  0.3898
  C  C219  1  0.830600  0.983800  0.979700  1.0  0.3528
  C  C220  1  0.833600  0.772000  0.026100  1.0  0.1333
  C  C221  1  0.813800  0.846400  0.020600  1.0  -0.1175
  C  C222  1  0.856300  0.907200  0.988400  1.0  -0.0436
  C  C223  1  0.923400  0.890600  0.962500  1.0  -0.1543
  C  C224  1  0.938700  0.812600  0.969800  1.0  0.1536
  C  C225  1  0.589900  0.170400  0.046300  1.0  0.1294
  C  C226  1  0.653400  0.155000  0.018400  1.0  -0.1563
  C  C227  1  0.657200  0.068200  0.019000  1.0  -0.07
  C  C228  1  0.595300  0.000200  0.044700  1.0  -0.1234
  C  C229  1  0.530400  0.019600  0.070400  1.0  0.1327
  C  C230  1  0.917900  0.306600  0.869200  1.0  0.1423
  C  C231  1  0.870600  0.244600  0.900100  1.0  -0.166
  C  C232  1  0.902600  0.179600  0.909900  1.0  -0.045
  C  C233  1  0.986500  0.185200  0.890300  1.0  -0.1138
  C  C234  1  0.032000  0.251400  0.859800  1.0  0.1366
  C  C235  1  0.622000  0.440200  0.830900  1.0  0.3743
  C  C236  1  0.577600  0.350600  0.768300  1.0  0.3807
  C  C237  1  0.471600  0.397800  0.799500  1.0  0.3518
  C  C238  1  0.839200  0.521400  0.910000  1.0  0.1512
  C  C239  1  0.780900  0.480200  0.873600  1.0  -0.1323
  C  C240  1  0.691000  0.484400  0.868200  1.0  -0.0563
  C  C241  1  0.667600  0.534400  0.899900  1.0  -0.1312
  C  C242  1  0.729700  0.571200  0.935800  1.0  0.1408
  C  C243  1  0.550900  0.190000  0.670700  1.0  0.1411
  C  C244  1  0.524900  0.233200  0.704700  1.0  -0.1307
  C  C245  1  0.600700  0.301400  0.732000  1.0  -0.1164
  C  C246  1  0.699500  0.325400  0.724000  1.0  -0.1488
  C  C247  1  0.719700  0.282800  0.688500  1.0  0.1467
  C  C248  1  0.221400  0.373200  0.765700  1.0  0.1336
  C  C249  1  0.308000  0.366000  0.764900  1.0  -0.1161
  C  C250  1  0.378200  0.408000  0.798100  1.0  -0.109
  C  C251  1  0.357300  0.456000  0.831300  1.0  -0.1605
  C  C252  1  0.270100  0.461600  0.830100  1.0  0.1392
  I  I253  1  0.027600  0.654400  0.267300  1.0  -0.4005
  I  I254  1  0.930000  0.432940  0.159920  1.0  -0.4298
  I  I255  1  0.674900  0.014400  0.847500  1.0  -0.3278
  I  I256  1  0.583600  0.727000  0.916550  1.0  -0.3786
  I  I257  1  0.221490  0.480620  0.947080  1.0  -0.4013
  I  I258  1  0.926150  0.349020  0.018910  1.0  -0.43
  I  I259  1  0.626800  0.654400  0.767300  1.0  -0.4012
  I  I260  1  0.502940  0.432940  0.659920  1.0  -0.4302
  I  I261  1  0.339500  0.014400  0.347500  1.0  -0.3269
  I  I262  1  0.143400  0.727000  0.416550  1.0  -0.3786
  I  I263  1  0.259130  0.480620  0.447080  1.0  -0.4012
  I  I264  1  0.422870  0.349020  0.518910  1.0  -0.4323
  I  I265  1  0.373200  0.345600  0.232700  1.0  -0.3997
  I  I266  1  0.497060  0.567060  0.340080  1.0  -0.4299
  I  I267  1  0.660500  0.985600  0.652500  1.0  -0.3272
  I  I268  1  0.856600  0.273000  0.583450  1.0  -0.3787
  I  I269  1  0.740870  0.519380  0.552920  1.0  -0.403
  I  I270  1  0.577130  0.650980  0.481090  1.0  -0.4296
  I  I271  1  0.972400  0.345600  0.732700  1.0  -0.4008
  I  I272  1  0.070000  0.567060  0.840080  1.0  -0.4299
  I  I273  1  0.325100  0.985600  0.152500  1.0  -0.3263
  I  I274  1  0.416400  0.273000  0.083450  1.0  -0.3787
  I  I275  1  0.778510  0.519380  0.052920  1.0  -0.4024
  I  I276  1  0.073850  0.650980  0.981090  1.0  -0.4317
  N  N277  1  0.225900  0.883600  0.037600  1.0  -0.4326
  N  N278  1  0.243600  0.012600  0.997200  1.0  -0.5229
  N  N279  1  0.118300  0.954000  0.049370  1.0  -0.4936
  N  N280  1  0.104400  0.247000  0.000200  1.0  -0.3291
  N  N281  1  0.470300  0.896400  0.928400  1.0  -0.3034
  N  N282  1  0.001000  0.687800  0.150400  1.0  -0.2867
  N  N283  1  0.352300  0.603000  0.200900  1.0  -0.4229
  N  N284  1  0.514700  0.654400  0.232800  1.0  -0.459
  N  N285  1  0.465200  0.557600  0.167350  1.0  -0.4484
  N  N286  1  0.185000  0.434800  0.059600  1.0  -0.2934
  N  N287  1  0.353000  0.785600  0.337400  1.0  -0.3122
  N  N288  1  0.799900  0.581000  0.202060  1.0  -0.3254
  N  N289  1  0.657700  0.883600  0.537600  1.0  -0.4337
  N  N290  1  0.769000  0.012600  0.497200  1.0  -0.5231
  N  N291  1  0.835700  0.954000  0.549370  1.0  -0.4914
  N  N292  1  0.142600  0.247000  0.500200  1.0  -0.3296
  N  N293  1  0.426100  0.896400  0.428400  1.0  -0.3033
  N  N294  1  0.686800  0.687800  0.650400  1.0  -0.2873
  N  N295  1  0.250700  0.603000  0.700900  1.0  -0.4236
  N  N296  1  0.139700  0.654400  0.732800  1.0  -0.4591
  N  N297  1  0.092400  0.557600  0.667350  1.0  -0.4493
  N  N298  1  0.249800  0.434800  0.559600  1.0  -0.2932
  N  N299  1  0.432600  0.785600  0.837400  1.0  -0.3103
  N  N300  1  0.781100  0.581000  0.702060  1.0  -0.3257
  N  N301  1  0.342300  0.116400  0.462400  1.0  -0.4331
  N  N302  1  0.231000  0.987400  0.502800  1.0  -0.5213
  N  N303  1  0.164300  0.046000  0.450630  1.0  -0.4946
  N  N304  1  0.857400  0.753000  0.499800  1.0  -0.3302
  N  N305  1  0.573900  0.103600  0.571600  1.0  -0.3038
  N  N306  1  0.313200  0.312200  0.349600  1.0  -0.2878
  N  N307  1  0.749300  0.397000  0.299100  1.0  -0.4225
  N  N308  1  0.860300  0.345600  0.267200  1.0  -0.459
  N  N309  1  0.907600  0.442400  0.332650  1.0  -0.4475
  N  N310  1  0.750200  0.565200  0.440400  1.0  -0.2921
  N  N311  1  0.567400  0.214400  0.162600  1.0  -0.3122
  N  N312  1  0.218900  0.419000  0.297940  1.0  -0.3251
  N  N313  1  0.774100  0.116400  0.962400  1.0  -0.4335
  N  N314  1  0.756400  0.987400  0.002800  1.0  -0.5216
  N  N315  1  0.881700  0.046000  0.950630  1.0  -0.4926
  N  N316  1  0.895600  0.753000  0.999800  1.0  -0.3288
  N  N317  1  0.529700  0.103600  0.071600  1.0  -0.3026
  N  N318  1  0.999000  0.312200  0.849600  1.0  -0.2877
  N  N319  1  0.647700  0.397000  0.799100  1.0  -0.4223
  N  N320  1  0.485300  0.345600  0.767200  1.0  -0.4597
  N  N321  1  0.534800  0.442400  0.832650  1.0  -0.4483
  N  N322  1  0.815000  0.565200  0.940400  1.0  -0.2923
  N  N323  1  0.647000  0.214400  0.662600  1.0  -0.3106
  N  N324  1  0.200100  0.419000  0.797940  1.0  -0.3253
