# generated using pymatgen
data_ZnH8C12(IN2)2
_symmetry_space_group_name_H-M   'P 1'
_cell_length_a   35.25200000
_cell_length_b   39.50900000
_cell_length_c   8.15300000
_cell_angle_alpha   90.00000000
_cell_angle_beta   90.00000000
_cell_angle_gamma   90.00000000
_symmetry_Int_Tables_number   1
_chemical_formula_structural   ZnH8C12(IN2)2
_chemical_formula_sum   'Zn24 H192 C288 I48 N96'
_cell_volume   11355.26414800
_cell_formula_units_Z   24
loop_
 _symmetry_equiv_pos_site_id
 _symmetry_equiv_pos_as_xyz
  1  'x, y, z'
loop_
 _atom_site_type_symbol
 _atom_site_label
 _atom_site_symmetry_multiplicity
 _atom_site_fract_x
 _atom_site_fract_y
 _atom_site_fract_z
 _atom_site_occupancy
 _atom_site_charge
  Zn  Zn1  1  0.997800  0.318630  0.378080  1.0  0.8749
  Zn  Zn2  1  0.997800  0.818630  0.878080  1.0  0.8749
  Zn  Zn3  1  0.497800  0.318630  0.878080  1.0  0.8749
  Zn  Zn4  1  0.497800  0.818630  0.378080  1.0  0.8749
  Zn  Zn5  1  0.002200  0.681370  0.378080  1.0  0.877
  Zn  Zn6  1  0.002200  0.181370  0.878080  1.0  0.877
  Zn  Zn7  1  0.502200  0.681370  0.878080  1.0  0.877
  Zn  Zn8  1  0.502200  0.181370  0.378080  1.0  0.877
  Zn  Zn9  1  0.247800  0.931370  0.628080  1.0  0.8746
  Zn  Zn10  1  0.247800  0.431370  0.128080  1.0  0.8746
  Zn  Zn11  1  0.747800  0.931370  0.128080  1.0  0.8746
  Zn  Zn12  1  0.747800  0.431370  0.628080  1.0  0.8746
  Zn  Zn13  1  0.252200  0.568630  0.628080  1.0  0.8773
  Zn  Zn14  1  0.252200  0.068630  0.128080  1.0  0.8773
  Zn  Zn15  1  0.752200  0.568630  0.128080  1.0  0.8773
  Zn  Zn16  1  0.752200  0.068630  0.628080  1.0  0.8773
  Zn  Zn17  1  0.250000  0.250000  0.463200  1.0  0.8398
  Zn  Zn18  1  0.250000  0.750000  0.963200  1.0  0.8398
  Zn  Zn19  1  0.750000  0.750000  0.463200  1.0  0.8398
  Zn  Zn20  1  0.750000  0.250000  0.963200  1.0  0.8398
  Zn  Zn21  1  0.500000  0.000000  0.713200  1.0  0.8398
  Zn  Zn22  1  0.500000  0.500000  0.213200  1.0  0.8398
  Zn  Zn23  1  0.000000  0.500000  0.713200  1.0  0.8398
  Zn  Zn24  1  0.000000  0.000000  0.213200  1.0  0.8398
  H  H25  1  0.171700  0.255000  0.312400  1.0  0.0861
  H  H26  1  0.142700  0.242100  0.065700  1.0  0.1171
  H  H27  1  0.231500  0.181300  0.956700  1.0  0.1036
  H  H28  1  0.259100  0.195000  0.204700  1.0  0.1121
  H  H29  1  0.031900  0.293600  0.690200  1.0  0.0832
  H  H30  1  0.081300  0.260900  0.782300  1.0  0.1254
  H  H31  1  0.093600  0.224900  0.323600  1.0  0.1168
  H  H32  1  0.048200  0.263100  0.236000  1.0  0.0875
  H  H33  1  0.179900  0.111100  0.124300  1.0  0.0756
  H  H34  1  0.147200  0.150600  0.280800  1.0  0.1292
  H  H35  1  0.236000  0.149100  0.598100  1.0  0.1305
  H  H36  1  0.266500  0.111400  0.420300  1.0  0.0872
  H  H37  1  0.171700  0.755000  0.812400  1.0  0.0861
  H  H38  1  0.142700  0.742100  0.565700  1.0  0.1171
  H  H39  1  0.231500  0.681300  0.456700  1.0  0.1036
  H  H40  1  0.259100  0.695000  0.704700  1.0  0.1121
  H  H41  1  0.031900  0.793600  0.190200  1.0  0.0832
  H  H42  1  0.081300  0.760900  0.282300  1.0  0.1254
  H  H43  1  0.093600  0.724900  0.823600  1.0  0.1168
  H  H44  1  0.048200  0.763100  0.736000  1.0  0.0875
  H  H45  1  0.179900  0.611100  0.624300  1.0  0.0756
  H  H46  1  0.147200  0.650600  0.780800  1.0  0.1292
  H  H47  1  0.236000  0.649100  0.098100  1.0  0.1305
  H  H48  1  0.266500  0.611400  0.920300  1.0  0.0872
  H  H49  1  0.671700  0.255000  0.812400  1.0  0.0861
  H  H50  1  0.642700  0.242100  0.565700  1.0  0.1171
  H  H51  1  0.731500  0.181300  0.456700  1.0  0.1036
  H  H52  1  0.759100  0.195000  0.704700  1.0  0.1121
  H  H53  1  0.531900  0.293600  0.190200  1.0  0.0832
  H  H54  1  0.581300  0.260900  0.282300  1.0  0.1254
  H  H55  1  0.593600  0.224900  0.823600  1.0  0.1168
  H  H56  1  0.548200  0.263100  0.736000  1.0  0.0875
  H  H57  1  0.679900  0.111100  0.624300  1.0  0.0756
  H  H58  1  0.647200  0.150600  0.780800  1.0  0.1292
  H  H59  1  0.736000  0.149100  0.098100  1.0  0.1305
  H  H60  1  0.766500  0.111400  0.920300  1.0  0.0872
  H  H61  1  0.671700  0.755000  0.312400  1.0  0.0861
  H  H62  1  0.642700  0.742100  0.065700  1.0  0.1171
  H  H63  1  0.731500  0.681300  0.956700  1.0  0.1036
  H  H64  1  0.759100  0.695000  0.204700  1.0  0.1121
  H  H65  1  0.531900  0.793600  0.690200  1.0  0.0832
  H  H66  1  0.581300  0.760900  0.782300  1.0  0.1254
  H  H67  1  0.593600  0.724900  0.323600  1.0  0.1168
  H  H68  1  0.548200  0.763100  0.236000  1.0  0.0875
  H  H69  1  0.679900  0.611100  0.124300  1.0  0.0756
  H  H70  1  0.647200  0.650600  0.280800  1.0  0.1292
  H  H71  1  0.736000  0.649100  0.598100  1.0  0.1305
  H  H72  1  0.766500  0.611400  0.420300  1.0  0.0872
  H  H73  1  0.828300  0.745000  0.312400  1.0  0.0861
  H  H74  1  0.857300  0.757900  0.065700  1.0  0.1169
  H  H75  1  0.768500  0.818700  0.956700  1.0  0.1035
  H  H76  1  0.740900  0.805000  0.204700  1.0  0.1114
  H  H77  1  0.968100  0.706400  0.690200  1.0  0.0833
  H  H78  1  0.918700  0.739100  0.782300  1.0  0.1258
  H  H79  1  0.906400  0.775100  0.323600  1.0  0.1166
  H  H80  1  0.951800  0.736900  0.236000  1.0  0.0877
  H  H81  1  0.820100  0.888900  0.124300  1.0  0.0758
  H  H82  1  0.852800  0.849400  0.280800  1.0  0.1294
  H  H83  1  0.764000  0.850900  0.598100  1.0  0.1315
  H  H84  1  0.733500  0.888600  0.420300  1.0  0.0865
  H  H85  1  0.828300  0.245000  0.812400  1.0  0.0861
  H  H86  1  0.857300  0.257900  0.565700  1.0  0.1169
  H  H87  1  0.768500  0.318700  0.456700  1.0  0.1035
  H  H88  1  0.740900  0.305000  0.704700  1.0  0.1114
  H  H89  1  0.968100  0.206400  0.190200  1.0  0.0833
  H  H90  1  0.918700  0.239100  0.282300  1.0  0.1258
  H  H91  1  0.906400  0.275100  0.823600  1.0  0.1166
  H  H92  1  0.951800  0.236900  0.736000  1.0  0.0877
  H  H93  1  0.820100  0.388900  0.624300  1.0  0.0758
  H  H94  1  0.852800  0.349400  0.780800  1.0  0.1294
  H  H95  1  0.764000  0.350900  0.098100  1.0  0.1315
  H  H96  1  0.733500  0.388600  0.920300  1.0  0.0865
  H  H97  1  0.328300  0.745000  0.812400  1.0  0.0861
  H  H98  1  0.357300  0.757900  0.565700  1.0  0.1169
  H  H99  1  0.268500  0.818700  0.456700  1.0  0.1035
  H  H100  1  0.240900  0.805000  0.704700  1.0  0.1114
  H  H101  1  0.468100  0.706400  0.190200  1.0  0.0833
  H  H102  1  0.418700  0.739100  0.282300  1.0  0.1258
  H  H103  1  0.406400  0.775100  0.823600  1.0  0.1166
  H  H104  1  0.451800  0.736900  0.736000  1.0  0.0877
  H  H105  1  0.320100  0.888900  0.624300  1.0  0.0758
  H  H106  1  0.352800  0.849400  0.780800  1.0  0.1294
  H  H107  1  0.264000  0.850900  0.098100  1.0  0.1315
  H  H108  1  0.233500  0.888600  0.920300  1.0  0.0865
  H  H109  1  0.328300  0.245000  0.312400  1.0  0.0861
  H  H110  1  0.357300  0.257900  0.065700  1.0  0.1169
  H  H111  1  0.268500  0.318700  0.956700  1.0  0.1035
  H  H112  1  0.240900  0.305000  0.204700  1.0  0.1114
  H  H113  1  0.468100  0.206400  0.690200  1.0  0.0833
  H  H114  1  0.418700  0.239100  0.782300  1.0  0.1258
  H  H115  1  0.406400  0.275100  0.323600  1.0  0.1166
  H  H116  1  0.451800  0.236900  0.236000  1.0  0.0877
  H  H117  1  0.320100  0.388900  0.124300  1.0  0.0758
  H  H118  1  0.352800  0.349400  0.280800  1.0  0.1294
  H  H119  1  0.264000  0.350900  0.598100  1.0  0.1315
  H  H120  1  0.233500  0.388600  0.420300  1.0  0.0865
  H  H121  1  0.421700  0.995000  0.562400  1.0  0.0862
  H  H122  1  0.392700  0.007900  0.315700  1.0  0.1169
  H  H123  1  0.481500  0.068700  0.206700  1.0  0.1037
  H  H124  1  0.509100  0.055000  0.454700  1.0  0.1123
  H  H125  1  0.281900  0.956400  0.940200  1.0  0.0833
  H  H126  1  0.331300  0.989100  0.032300  1.0  0.1256
  H  H127  1  0.343600  0.025100  0.573600  1.0  0.1168
  H  H128  1  0.298200  0.986900  0.486000  1.0  0.0876
  H  H129  1  0.429900  0.138900  0.374300  1.0  0.0754
  H  H130  1  0.397200  0.099400  0.530800  1.0  0.1293
  H  H131  1  0.486000  0.100900  0.848100  1.0  0.1305
  H  H132  1  0.516500  0.138600  0.670300  1.0  0.087
  H  H133  1  0.421700  0.495000  0.062400  1.0  0.0862
  H  H134  1  0.392700  0.507900  0.815700  1.0  0.1169
  H  H135  1  0.481500  0.568700  0.706700  1.0  0.1037
  H  H136  1  0.509100  0.555000  0.954700  1.0  0.1123
  H  H137  1  0.281900  0.456400  0.440200  1.0  0.0833
  H  H138  1  0.331300  0.489100  0.532300  1.0  0.1256
  H  H139  1  0.343600  0.525100  0.073600  1.0  0.1168
  H  H140  1  0.298200  0.486900  0.986000  1.0  0.0876
  H  H141  1  0.429900  0.638900  0.874300  1.0  0.0754
  H  H142  1  0.397200  0.599400  0.030800  1.0  0.1293
  H  H143  1  0.486000  0.600900  0.348100  1.0  0.1305
  H  H144  1  0.516500  0.638600  0.170300  1.0  0.087
  H  H145  1  0.921700  0.995000  0.062400  1.0  0.0862
  H  H146  1  0.892700  0.007900  0.815700  1.0  0.1169
  H  H147  1  0.981500  0.068700  0.706700  1.0  0.1037
  H  H148  1  0.009100  0.055000  0.954700  1.0  0.1123
  H  H149  1  0.781900  0.956400  0.440200  1.0  0.0833
  H  H150  1  0.831300  0.989100  0.532300  1.0  0.1256
  H  H151  1  0.843600  0.025100  0.073600  1.0  0.1168
  H  H152  1  0.798200  0.986900  0.986000  1.0  0.0876
  H  H153  1  0.929900  0.138900  0.874300  1.0  0.0754
  H  H154  1  0.897200  0.099400  0.030800  1.0  0.1293
  H  H155  1  0.986000  0.100900  0.348100  1.0  0.1305
  H  H156  1  0.016500  0.138600  0.170300  1.0  0.087
  H  H157  1  0.921700  0.495000  0.562400  1.0  0.0862
  H  H158  1  0.892700  0.507900  0.315700  1.0  0.1169
  H  H159  1  0.981500  0.568700  0.206700  1.0  0.1037
  H  H160  1  0.009100  0.555000  0.454700  1.0  0.1123
  H  H161  1  0.781900  0.456400  0.940200  1.0  0.0833
  H  H162  1  0.831300  0.489100  0.032300  1.0  0.1256
  H  H163  1  0.843600  0.525100  0.573600  1.0  0.1168
  H  H164  1  0.798200  0.486900  0.486000  1.0  0.0876
  H  H165  1  0.929900  0.638900  0.374300  1.0  0.0754
  H  H166  1  0.897200  0.599400  0.530800  1.0  0.1293
  H  H167  1  0.986000  0.600900  0.848100  1.0  0.1305
  H  H168  1  0.016500  0.638600  0.670300  1.0  0.087
  H  H169  1  0.078300  0.505000  0.562400  1.0  0.0857
  H  H170  1  0.107300  0.492100  0.315700  1.0  0.1173
  H  H171  1  0.018500  0.431300  0.206700  1.0  0.1033
  H  H172  1  0.990900  0.445000  0.454700  1.0  0.1116
  H  H173  1  0.218100  0.543600  0.940200  1.0  0.083
  H  H174  1  0.168700  0.510900  0.032300  1.0  0.1255
  H  H175  1  0.156400  0.474900  0.573600  1.0  0.1166
  H  H176  1  0.201800  0.513100  0.486000  1.0  0.0875
  H  H177  1  0.070100  0.361100  0.374300  1.0  0.0753
  H  H178  1  0.102800  0.400600  0.530800  1.0  0.1294
  H  H179  1  0.014000  0.399100  0.848100  1.0  0.1314
  H  H180  1  0.983500  0.361400  0.670300  1.0  0.0863
  H  H181  1  0.078300  0.005000  0.062400  1.0  0.0857
  H  H182  1  0.107300  0.992100  0.815700  1.0  0.1173
  H  H183  1  0.018500  0.931300  0.706700  1.0  0.1033
  H  H184  1  0.990900  0.945000  0.954700  1.0  0.1116
  H  H185  1  0.218100  0.043600  0.440200  1.0  0.083
  H  H186  1  0.168700  0.010900  0.532300  1.0  0.1255
  H  H187  1  0.156400  0.974900  0.073600  1.0  0.1166
  H  H188  1  0.201800  0.013100  0.986000  1.0  0.0875
  H  H189  1  0.070100  0.861100  0.874300  1.0  0.0753
  H  H190  1  0.102800  0.900600  0.030800  1.0  0.1294
  H  H191  1  0.014000  0.899100  0.348100  1.0  0.1314
  H  H192  1  0.983500  0.861400  0.170300  1.0  0.0863
  H  H193  1  0.578300  0.505000  0.062400  1.0  0.0857
  H  H194  1  0.607300  0.492100  0.815700  1.0  0.1173
  H  H195  1  0.518500  0.431300  0.706700  1.0  0.1033
  H  H196  1  0.490900  0.445000  0.954700  1.0  0.1116
  H  H197  1  0.718100  0.543600  0.440200  1.0  0.083
  H  H198  1  0.668700  0.510900  0.532300  1.0  0.1255
  H  H199  1  0.656400  0.474900  0.073600  1.0  0.1166
  H  H200  1  0.701800  0.513100  0.986000  1.0  0.0875
  H  H201  1  0.570100  0.361100  0.874300  1.0  0.0753
  H  H202  1  0.602800  0.400600  0.030800  1.0  0.1294
  H  H203  1  0.514000  0.399100  0.348100  1.0  0.1314
  H  H204  1  0.483500  0.361400  0.170300  1.0  0.0863
  H  H205  1  0.578300  0.005000  0.562400  1.0  0.0857
  H  H206  1  0.607300  0.992100  0.315700  1.0  0.1173
  H  H207  1  0.518500  0.931300  0.206700  1.0  0.1033
  H  H208  1  0.490900  0.945000  0.454700  1.0  0.1116
  H  H209  1  0.718100  0.043600  0.940200  1.0  0.083
  H  H210  1  0.668700  0.010900  0.032300  1.0  0.1255
  H  H211  1  0.656400  0.974900  0.573600  1.0  0.1166
  H  H212  1  0.701800  0.013100  0.486000  1.0  0.0875
  H  H213  1  0.570100  0.861100  0.374300  1.0  0.0753
  H  H214  1  0.602800  0.900600  0.530800  1.0  0.1294
  H  H215  1  0.514000  0.899100  0.848100  1.0  0.1314
  H  H216  1  0.483500  0.861400  0.670300  1.0  0.0863
  C  C217  1  0.168100  0.205100  0.814300  1.0  0.3604
  C  C218  1  0.125200  0.217600  0.622700  1.0  0.3677
  C  C219  1  0.169900  0.177900  0.573400  1.0  0.3912
  C  C220  1  0.184100  0.240000  0.238600  1.0  0.1586
  C  C221  1  0.166800  0.232600  0.090400  1.0  -0.1192
  C  C222  1  0.184600  0.211500  0.977000  1.0  -0.0444
  C  C223  1  0.219100  0.197000  0.027300  1.0  -0.055
  C  C224  1  0.235400  0.204700  0.175400  1.0  0.1266
  C  C225  1  0.045800  0.280500  0.613100  1.0  0.1567
  C  C226  1  0.074500  0.260500  0.669700  1.0  -0.1512
  C  C227  1  0.093200  0.239900  0.562800  1.0  -0.0807
  C  C228  1  0.082100  0.240000  0.399700  1.0  -0.1112
  C  C229  1  0.054600  0.262100  0.349100  1.0  0.1239
  C  C230  1  0.191600  0.119500  0.220900  1.0  0.1483
  C  C231  1  0.171300  0.142500  0.314800  1.0  -0.1798
  C  C232  1  0.187700  0.153100  0.459400  1.0  -0.0926
  C  C233  1  0.223900  0.141800  0.500300  1.0  -0.1411
  C  C234  1  0.241800  0.119300  0.393200  1.0  0.1437
  C  C235  1  0.168100  0.705100  0.314300  1.0  0.3604
  C  C236  1  0.125200  0.717600  0.122700  1.0  0.3677
  C  C237  1  0.169900  0.677900  0.073400  1.0  0.3912
  C  C238  1  0.184100  0.740000  0.738600  1.0  0.1586
  C  C239  1  0.166800  0.732600  0.590400  1.0  -0.1192
  C  C240  1  0.184600  0.711500  0.477000  1.0  -0.0444
  C  C241  1  0.219100  0.697000  0.527300  1.0  -0.055
  C  C242  1  0.235400  0.704700  0.675400  1.0  0.1266
  C  C243  1  0.045800  0.780500  0.113100  1.0  0.1567
  C  C244  1  0.074500  0.760500  0.169700  1.0  -0.1512
  C  C245  1  0.093200  0.739900  0.062800  1.0  -0.0807
  C  C246  1  0.082100  0.740000  0.899700  1.0  -0.1112
  C  C247  1  0.054600  0.762100  0.849100  1.0  0.1239
  C  C248  1  0.191600  0.619500  0.720900  1.0  0.1483
  C  C249  1  0.171300  0.642500  0.814800  1.0  -0.1798
  C  C250  1  0.187700  0.653100  0.959400  1.0  -0.0926
  C  C251  1  0.223900  0.641800  0.000300  1.0  -0.1411
  C  C252  1  0.241800  0.619300  0.893200  1.0  0.1437
  C  C253  1  0.668100  0.205100  0.314300  1.0  0.3604
  C  C254  1  0.625200  0.217600  0.122700  1.0  0.3677
  C  C255  1  0.669900  0.177900  0.073400  1.0  0.3912
  C  C256  1  0.684100  0.240000  0.738600  1.0  0.1586
  C  C257  1  0.666800  0.232600  0.590400  1.0  -0.1192
  C  C258  1  0.684600  0.211500  0.477000  1.0  -0.0444
  C  C259  1  0.719100  0.197000  0.527300  1.0  -0.055
  C  C260  1  0.735400  0.204700  0.675400  1.0  0.1266
  C  C261  1  0.545800  0.280500  0.113100  1.0  0.1567
  C  C262  1  0.574500  0.260500  0.169700  1.0  -0.1512
  C  C263  1  0.593200  0.239900  0.062800  1.0  -0.0807
  C  C264  1  0.582100  0.240000  0.899700  1.0  -0.1112
  C  C265  1  0.554600  0.262100  0.849100  1.0  0.1239
  C  C266  1  0.691600  0.119500  0.720900  1.0  0.1483
  C  C267  1  0.671300  0.142500  0.814800  1.0  -0.1798
  C  C268  1  0.687700  0.153100  0.959400  1.0  -0.0926
  C  C269  1  0.723900  0.141800  0.000300  1.0  -0.1411
  C  C270  1  0.741800  0.119300  0.893200  1.0  0.1437
  C  C271  1  0.668100  0.705100  0.814300  1.0  0.3604
  C  C272  1  0.625200  0.717600  0.622700  1.0  0.3677
  C  C273  1  0.669900  0.677900  0.573400  1.0  0.3912
  C  C274  1  0.684100  0.740000  0.238600  1.0  0.1586
  C  C275  1  0.666800  0.732600  0.090400  1.0  -0.1192
  C  C276  1  0.684600  0.711500  0.977000  1.0  -0.0444
  C  C277  1  0.719100  0.697000  0.027300  1.0  -0.055
  C  C278  1  0.735400  0.704700  0.175400  1.0  0.1266
  C  C279  1  0.545800  0.780500  0.613100  1.0  0.1567
  C  C280  1  0.574500  0.760500  0.669700  1.0  -0.1512
  C  C281  1  0.593200  0.739900  0.562800  1.0  -0.0807
  C  C282  1  0.582100  0.740000  0.399700  1.0  -0.1112
  C  C283  1  0.554600  0.762100  0.349100  1.0  0.1239
  C  C284  1  0.691600  0.619500  0.220900  1.0  0.1483
  C  C285  1  0.671300  0.642500  0.314800  1.0  -0.1798
  C  C286  1  0.687700  0.653100  0.459400  1.0  -0.0926
  C  C287  1  0.723900  0.641800  0.500300  1.0  -0.1411
  C  C288  1  0.741800  0.619300  0.393200  1.0  0.1437
  C  C289  1  0.831900  0.794900  0.814300  1.0  0.3612
  C  C290  1  0.874800  0.782400  0.622700  1.0  0.3677
  C  C291  1  0.830100  0.822100  0.573400  1.0  0.3916
  C  C292  1  0.815900  0.760000  0.238600  1.0  0.1602
  C  C293  1  0.833200  0.767400  0.090400  1.0  -0.1194
  C  C294  1  0.815400  0.788500  0.977000  1.0  -0.0443
  C  C295  1  0.780900  0.803000  0.027300  1.0  -0.055
  C  C296  1  0.764600  0.795300  0.175400  1.0  0.1271
  C  C297  1  0.954200  0.719500  0.613100  1.0  0.1563
  C  C298  1  0.925500  0.739500  0.669700  1.0  -0.153
  C  C299  1  0.906800  0.760100  0.562800  1.0  -0.0819
  C  C300  1  0.917900  0.760000  0.399700  1.0  -0.1108
  C  C301  1  0.945400  0.737900  0.349100  1.0  0.124
  C  C302  1  0.808400  0.880500  0.220900  1.0  0.1478
  C  C303  1  0.828700  0.857500  0.314800  1.0  -0.1771
  C  C304  1  0.812300  0.846900  0.459400  1.0  -0.0925
  C  C305  1  0.776100  0.858200  0.500300  1.0  -0.1427
  C  C306  1  0.758200  0.880700  0.393200  1.0  0.1445
  C  C307  1  0.831900  0.294900  0.314300  1.0  0.3612
  C  C308  1  0.874800  0.282400  0.122700  1.0  0.3677
  C  C309  1  0.830100  0.322100  0.073400  1.0  0.3916
  C  C310  1  0.815900  0.260000  0.738600  1.0  0.1602
  C  C311  1  0.833200  0.267400  0.590400  1.0  -0.1194
  C  C312  1  0.815400  0.288500  0.477000  1.0  -0.0443
  C  C313  1  0.780900  0.303000  0.527300  1.0  -0.055
  C  C314  1  0.764600  0.295300  0.675400  1.0  0.1271
  C  C315  1  0.954200  0.219500  0.113100  1.0  0.1563
  C  C316  1  0.925500  0.239500  0.169700  1.0  -0.153
  C  C317  1  0.906800  0.260100  0.062800  1.0  -0.0819
  C  C318  1  0.917900  0.260000  0.899700  1.0  -0.1108
  C  C319  1  0.945400  0.237900  0.849100  1.0  0.124
  C  C320  1  0.808400  0.380500  0.720900  1.0  0.1478
  C  C321  1  0.828700  0.357500  0.814800  1.0  -0.1771
  C  C322  1  0.812300  0.346900  0.959400  1.0  -0.0925
  C  C323  1  0.776100  0.358200  0.000300  1.0  -0.1427
  C  C324  1  0.758200  0.380700  0.893200  1.0  0.1445
  C  C325  1  0.331900  0.794900  0.314300  1.0  0.3612
  C  C326  1  0.374800  0.782400  0.122700  1.0  0.3677
  C  C327  1  0.330100  0.822100  0.073400  1.0  0.3916
  C  C328  1  0.315900  0.760000  0.738600  1.0  0.1602
  C  C329  1  0.333200  0.767400  0.590400  1.0  -0.1194
  C  C330  1  0.315400  0.788500  0.477000  1.0  -0.0443
  C  C331  1  0.280900  0.803000  0.527300  1.0  -0.055
  C  C332  1  0.264600  0.795300  0.675400  1.0  0.1271
  C  C333  1  0.454200  0.719500  0.113100  1.0  0.1563
  C  C334  1  0.425500  0.739500  0.169700  1.0  -0.153
  C  C335  1  0.406800  0.760100  0.062800  1.0  -0.0819
  C  C336  1  0.417900  0.760000  0.899700  1.0  -0.1108
  C  C337  1  0.445400  0.737900  0.849100  1.0  0.124
  C  C338  1  0.308400  0.880500  0.720900  1.0  0.1478
  C  C339  1  0.328700  0.857500  0.814800  1.0  -0.1771
  C  C340  1  0.312300  0.846900  0.959400  1.0  -0.0925
  C  C341  1  0.276100  0.858200  0.000300  1.0  -0.1427
  C  C342  1  0.258200  0.880700  0.893200  1.0  0.1445
  C  C343  1  0.331900  0.294900  0.814300  1.0  0.3612
  C  C344  1  0.374800  0.282400  0.622700  1.0  0.3677
  C  C345  1  0.330100  0.322100  0.573400  1.0  0.3916
  C  C346  1  0.315900  0.260000  0.238600  1.0  0.1602
  C  C347  1  0.333200  0.267400  0.090400  1.0  -0.1194
  C  C348  1  0.315400  0.288500  0.977000  1.0  -0.0443
  C  C349  1  0.280900  0.303000  0.027300  1.0  -0.055
  C  C350  1  0.264600  0.295300  0.175400  1.0  0.1271
  C  C351  1  0.454200  0.219500  0.613100  1.0  0.1563
  C  C352  1  0.425500  0.239500  0.669700  1.0  -0.153
  C  C353  1  0.406800  0.260100  0.562800  1.0  -0.0819
  C  C354  1  0.417900  0.260000  0.399700  1.0  -0.1108
  C  C355  1  0.445400  0.237900  0.349100  1.0  0.124
  C  C356  1  0.308400  0.380500  0.220900  1.0  0.1478
  C  C357  1  0.328700  0.357500  0.314800  1.0  -0.1771
  C  C358  1  0.312300  0.346900  0.459400  1.0  -0.0925
  C  C359  1  0.276100  0.358200  0.500300  1.0  -0.1427
  C  C360  1  0.258200  0.380700  0.393200  1.0  0.1445
  C  C361  1  0.418100  0.044900  0.064300  1.0  0.3604
  C  C362  1  0.375200  0.032400  0.872700  1.0  0.3677
  C  C363  1  0.419900  0.072100  0.823400  1.0  0.3918
  C  C364  1  0.434100  0.010000  0.488600  1.0  0.1606
  C  C365  1  0.416800  0.017400  0.340400  1.0  -0.1183
  C  C366  1  0.434600  0.038500  0.227000  1.0  -0.0444
  C  C367  1  0.469100  0.053000  0.277300  1.0  -0.0561
  C  C368  1  0.485400  0.045300  0.425400  1.0  0.1267
  C  C369  1  0.295800  0.969500  0.863100  1.0  0.1566
  C  C370  1  0.324500  0.989500  0.919700  1.0  -0.1514
  C  C371  1  0.343200  0.010100  0.812800  1.0  -0.081
  C  C372  1  0.332100  0.010000  0.649700  1.0  -0.1108
  C  C373  1  0.304600  0.987900  0.599100  1.0  0.1238
  C  C374  1  0.441600  0.130500  0.470900  1.0  0.1482
  C  C375  1  0.421300  0.107500  0.564800  1.0  -0.1802
  C  C376  1  0.437700  0.096900  0.709400  1.0  -0.0916
  C  C377  1  0.473900  0.108200  0.750300  1.0  -0.1411
  C  C378  1  0.491800  0.130700  0.643200  1.0  0.1436
  C  C379  1  0.418100  0.544900  0.564300  1.0  0.3604
  C  C380  1  0.375200  0.532400  0.372700  1.0  0.3677
  C  C381  1  0.419900  0.572100  0.323400  1.0  0.3918
  C  C382  1  0.434100  0.510000  0.988600  1.0  0.1606
  C  C383  1  0.416800  0.517400  0.840400  1.0  -0.1183
  C  C384  1  0.434600  0.538500  0.727000  1.0  -0.0444
  C  C385  1  0.469100  0.553000  0.777300  1.0  -0.0561
  C  C386  1  0.485400  0.545300  0.925400  1.0  0.1267
  C  C387  1  0.295800  0.469500  0.363100  1.0  0.1566
  C  C388  1  0.324500  0.489500  0.419700  1.0  -0.1514
  C  C389  1  0.343200  0.510100  0.312800  1.0  -0.081
  C  C390  1  0.332100  0.510000  0.149700  1.0  -0.1108
  C  C391  1  0.304600  0.487900  0.099100  1.0  0.1238
  C  C392  1  0.441600  0.630500  0.970900  1.0  0.1482
  C  C393  1  0.421300  0.607500  0.064800  1.0  -0.1802
  C  C394  1  0.437700  0.596900  0.209400  1.0  -0.0916
  C  C395  1  0.473900  0.608200  0.250300  1.0  -0.1411
  C  C396  1  0.491800  0.630700  0.143200  1.0  0.1436
  C  C397  1  0.918100  0.044900  0.564300  1.0  0.3604
  C  C398  1  0.875200  0.032400  0.372700  1.0  0.3677
  C  C399  1  0.919900  0.072100  0.323400  1.0  0.3918
  C  C400  1  0.934100  0.010000  0.988600  1.0  0.1606
  C  C401  1  0.916800  0.017400  0.840400  1.0  -0.1183
  C  C402  1  0.934600  0.038500  0.727000  1.0  -0.0444
  C  C403  1  0.969100  0.053000  0.777300  1.0  -0.0561
  C  C404  1  0.985400  0.045300  0.925400  1.0  0.1267
  C  C405  1  0.795800  0.969500  0.363100  1.0  0.1566
  C  C406  1  0.824500  0.989500  0.419700  1.0  -0.1514
  C  C407  1  0.843200  0.010100  0.312800  1.0  -0.081
  C  C408  1  0.832100  0.010000  0.149700  1.0  -0.1108
  C  C409  1  0.804600  0.987900  0.099100  1.0  0.1238
  C  C410  1  0.941600  0.130500  0.970900  1.0  0.1482
  C  C411  1  0.921300  0.107500  0.064800  1.0  -0.1802
  C  C412  1  0.937700  0.096900  0.209400  1.0  -0.0916
  C  C413  1  0.973900  0.108200  0.250300  1.0  -0.1411
  C  C414  1  0.991800  0.130700  0.143200  1.0  0.1436
  C  C415  1  0.918100  0.544900  0.064300  1.0  0.3604
  C  C416  1  0.875200  0.532400  0.872700  1.0  0.3677
  C  C417  1  0.919900  0.572100  0.823400  1.0  0.3918
  C  C418  1  0.934100  0.510000  0.488600  1.0  0.1606
  C  C419  1  0.916800  0.517400  0.340400  1.0  -0.1183
  C  C420  1  0.934600  0.538500  0.227000  1.0  -0.0444
  C  C421  1  0.969100  0.553000  0.277300  1.0  -0.0561
  C  C422  1  0.985400  0.545300  0.425400  1.0  0.1267
  C  C423  1  0.795800  0.469500  0.863100  1.0  0.1566
  C  C424  1  0.824500  0.489500  0.919700  1.0  -0.1514
  C  C425  1  0.843200  0.510100  0.812800  1.0  -0.081
  C  C426  1  0.832100  0.510000  0.649700  1.0  -0.1108
  C  C427  1  0.804600  0.487900  0.599100  1.0  0.1238
  C  C428  1  0.941600  0.630500  0.470900  1.0  0.1482
  C  C429  1  0.921300  0.607500  0.564800  1.0  -0.1802
  C  C430  1  0.937700  0.596900  0.709400  1.0  -0.0916
  C  C431  1  0.973900  0.608200  0.750300  1.0  -0.1411
  C  C432  1  0.991800  0.630700  0.643200  1.0  0.1436
  C  C433  1  0.081900  0.455100  0.064300  1.0  0.3612
  C  C434  1  0.124800  0.467600  0.872700  1.0  0.3678
  C  C435  1  0.080100  0.427900  0.823400  1.0  0.3911
  C  C436  1  0.065900  0.490000  0.488600  1.0  0.159
  C  C437  1  0.083200  0.482600  0.340400  1.0  -0.1198
  C  C438  1  0.065400  0.461500  0.227000  1.0  -0.0444
  C  C439  1  0.030900  0.447000  0.277300  1.0  -0.0541
  C  C440  1  0.014600  0.454700  0.425400  1.0  0.1271
  C  C441  1  0.204200  0.530500  0.863100  1.0  0.1565
  C  C442  1  0.175500  0.510500  0.919700  1.0  -0.1528
  C  C443  1  0.156800  0.489900  0.812800  1.0  -0.0819
  C  C444  1  0.167900  0.490000  0.649700  1.0  -0.1113
  C  C445  1  0.195400  0.512100  0.599100  1.0  0.1241
  C  C446  1  0.058400  0.369500  0.470900  1.0  0.1478
  C  C447  1  0.078700  0.392500  0.564800  1.0  -0.1773
  C  C448  1  0.062300  0.403100  0.709400  1.0  -0.0932
  C  C449  1  0.026100  0.391800  0.750300  1.0  -0.1424
  C  C450  1  0.008200  0.369300  0.643200  1.0  0.1447
  C  C451  1  0.081900  0.955100  0.564300  1.0  0.3612
  C  C452  1  0.124800  0.967600  0.372700  1.0  0.3678
  C  C453  1  0.080100  0.927900  0.323400  1.0  0.3911
  C  C454  1  0.065900  0.990000  0.988600  1.0  0.159
  C  C455  1  0.083200  0.982600  0.840400  1.0  -0.1198
  C  C456  1  0.065400  0.961500  0.727000  1.0  -0.0444
  C  C457  1  0.030900  0.947000  0.777300  1.0  -0.0541
  C  C458  1  0.014600  0.954700  0.925400  1.0  0.1271
  C  C459  1  0.204200  0.030500  0.363100  1.0  0.1565
  C  C460  1  0.175500  0.010500  0.419700  1.0  -0.1528
  C  C461  1  0.156800  0.989900  0.312800  1.0  -0.0819
  C  C462  1  0.167900  0.990000  0.149700  1.0  -0.1113
  C  C463  1  0.195400  0.012100  0.099100  1.0  0.1241
  C  C464  1  0.058400  0.869500  0.970900  1.0  0.1478
  C  C465  1  0.078700  0.892500  0.064800  1.0  -0.1773
  C  C466  1  0.062300  0.903100  0.209400  1.0  -0.0932
  C  C467  1  0.026100  0.891800  0.250300  1.0  -0.1424
  C  C468  1  0.008200  0.869300  0.143200  1.0  0.1447
  C  C469  1  0.581900  0.455100  0.564300  1.0  0.3612
  C  C470  1  0.624800  0.467600  0.372700  1.0  0.3678
  C  C471  1  0.580100  0.427900  0.323400  1.0  0.3911
  C  C472  1  0.565900  0.490000  0.988600  1.0  0.159
  C  C473  1  0.583200  0.482600  0.840400  1.0  -0.1198
  C  C474  1  0.565400  0.461500  0.727000  1.0  -0.0444
  C  C475  1  0.530900  0.447000  0.777300  1.0  -0.0541
  C  C476  1  0.514600  0.454700  0.925400  1.0  0.1271
  C  C477  1  0.704200  0.530500  0.363100  1.0  0.1565
  C  C478  1  0.675500  0.510500  0.419700  1.0  -0.1528
  C  C479  1  0.656800  0.489900  0.312800  1.0  -0.0819
  C  C480  1  0.667900  0.490000  0.149700  1.0  -0.1113
  C  C481  1  0.695400  0.512100  0.099100  1.0  0.1241
  C  C482  1  0.558400  0.369500  0.970900  1.0  0.1478
  C  C483  1  0.578700  0.392500  0.064800  1.0  -0.1773
  C  C484  1  0.562300  0.403100  0.209400  1.0  -0.0932
  C  C485  1  0.526100  0.391800  0.250300  1.0  -0.1424
  C  C486  1  0.508200  0.369300  0.143200  1.0  0.1447
  C  C487  1  0.581900  0.955100  0.064300  1.0  0.3612
  C  C488  1  0.624800  0.967600  0.872700  1.0  0.3678
  C  C489  1  0.580100  0.927900  0.823400  1.0  0.3911
  C  C490  1  0.565900  0.990000  0.488600  1.0  0.159
  C  C491  1  0.583200  0.982600  0.340400  1.0  -0.1198
  C  C492  1  0.565400  0.961500  0.227000  1.0  -0.0444
  C  C493  1  0.530900  0.947000  0.277300  1.0  -0.0541
  C  C494  1  0.514600  0.954700  0.425400  1.0  0.1271
  C  C495  1  0.704200  0.030500  0.863100  1.0  0.1565
  C  C496  1  0.675500  0.010500  0.919700  1.0  -0.1528
  C  C497  1  0.656800  0.989900  0.812800  1.0  -0.0819
  C  C498  1  0.667900  0.990000  0.649700  1.0  -0.1113
  C  C499  1  0.695400  0.012100  0.599100  1.0  0.1241
  C  C500  1  0.558400  0.869500  0.470900  1.0  0.1478
  C  C501  1  0.578700  0.892500  0.564800  1.0  -0.1773
  C  C502  1  0.562300  0.903100  0.709400  1.0  -0.0932
  C  C503  1  0.526100  0.891800  0.750300  1.0  -0.1424
  C  C504  1  0.508200  0.869300  0.643200  1.0  0.1447
  I  I505  1  0.997950  0.322470  0.066450  1.0  -0.4471
  I  I506  1  0.934840  0.309270  0.517270  1.0  -0.3962
  I  I507  1  0.293340  0.211460  0.623000  1.0  -0.4313
  I  I508  1  0.997950  0.822470  0.566450  1.0  -0.4471
  I  I509  1  0.934840  0.809270  0.017270  1.0  -0.3962
  I  I510  1  0.293340  0.711460  0.123000  1.0  -0.4313
  I  I511  1  0.497950  0.322470  0.566450  1.0  -0.4471
  I  I512  1  0.434840  0.309270  0.017270  1.0  -0.3962
  I  I513  1  0.793340  0.211460  0.123000  1.0  -0.4313
  I  I514  1  0.497950  0.822470  0.066450  1.0  -0.4471
  I  I515  1  0.434840  0.809270  0.517270  1.0  -0.3962
  I  I516  1  0.793340  0.711460  0.623000  1.0  -0.4313
  I  I517  1  0.002050  0.677530  0.066450  1.0  -0.4471
  I  I518  1  0.065160  0.690730  0.517270  1.0  -0.3961
  I  I519  1  0.706660  0.788540  0.623000  1.0  -0.431
  I  I520  1  0.002050  0.177530  0.566450  1.0  -0.4471
  I  I521  1  0.065160  0.190730  0.017270  1.0  -0.3961
  I  I522  1  0.706660  0.288540  0.123000  1.0  -0.431
  I  I523  1  0.502050  0.677530  0.566450  1.0  -0.4471
  I  I524  1  0.565160  0.690730  0.017270  1.0  -0.3961
  I  I525  1  0.206660  0.788540  0.123000  1.0  -0.431
  I  I526  1  0.502050  0.177530  0.066450  1.0  -0.4471
  I  I527  1  0.565160  0.190730  0.517270  1.0  -0.3961
  I  I528  1  0.206660  0.288540  0.623000  1.0  -0.431
  I  I529  1  0.247950  0.927530  0.316450  1.0  -0.4472
  I  I530  1  0.184840  0.940730  0.767270  1.0  -0.3964
  I  I531  1  0.543340  0.038540  0.873000  1.0  -0.4311
  I  I532  1  0.247950  0.427530  0.816450  1.0  -0.4472
  I  I533  1  0.184840  0.440730  0.267270  1.0  -0.3964
  I  I534  1  0.543340  0.538540  0.373000  1.0  -0.4311
  I  I535  1  0.747950  0.927530  0.816450  1.0  -0.4472
  I  I536  1  0.684840  0.940730  0.267270  1.0  -0.3964
  I  I537  1  0.043340  0.038540  0.373000  1.0  -0.4311
  I  I538  1  0.747950  0.427530  0.316450  1.0  -0.4472
  I  I539  1  0.684840  0.440730  0.767270  1.0  -0.3964
  I  I540  1  0.043340  0.538540  0.873000  1.0  -0.4311
  I  I541  1  0.252050  0.572470  0.316450  1.0  -0.447
  I  I542  1  0.315160  0.559270  0.767270  1.0  -0.3961
  I  I543  1  0.956660  0.461460  0.873000  1.0  -0.4315
  I  I544  1  0.252050  0.072470  0.816450  1.0  -0.447
  I  I545  1  0.315160  0.059270  0.267270  1.0  -0.3961
  I  I546  1  0.956660  0.961460  0.373000  1.0  -0.4315
  I  I547  1  0.752050  0.572470  0.816450  1.0  -0.447
  I  I548  1  0.815160  0.559270  0.267270  1.0  -0.3961
  I  I549  1  0.456660  0.461460  0.373000  1.0  -0.4315
  I  I550  1  0.752050  0.072470  0.316450  1.0  -0.447
  I  I551  1  0.815160  0.059270  0.767270  1.0  -0.3961
  I  I552  1  0.456660  0.961460  0.873000  1.0  -0.4315
  N  N553  1  0.138200  0.223700  0.773300  1.0  -0.4922
  N  N554  1  0.139200  0.195500  0.514500  1.0  -0.4511
  N  N555  1  0.184700  0.181600  0.719200  1.0  -0.3763
  N  N556  1  0.217600  0.226700  0.281800  1.0  -0.335
  N  N557  1  0.036100  0.282600  0.455600  1.0  -0.3102
  N  N558  1  0.226000  0.108590  0.256300  1.0  -0.3116
  N  N559  1  0.138200  0.723700  0.273300  1.0  -0.4922
  N  N560  1  0.139200  0.695500  0.014500  1.0  -0.4511
  N  N561  1  0.184700  0.681600  0.219200  1.0  -0.3763
  N  N562  1  0.217600  0.726700  0.781800  1.0  -0.335
  N  N563  1  0.036100  0.782600  0.955600  1.0  -0.3102
  N  N564  1  0.226000  0.608590  0.756300  1.0  -0.3116
  N  N565  1  0.638200  0.223700  0.273300  1.0  -0.4922
  N  N566  1  0.639200  0.195500  0.014500  1.0  -0.4511
  N  N567  1  0.684700  0.181600  0.219200  1.0  -0.3763
  N  N568  1  0.717600  0.226700  0.781800  1.0  -0.335
  N  N569  1  0.536100  0.282600  0.955600  1.0  -0.3102
  N  N570  1  0.726000  0.108590  0.756300  1.0  -0.3116
  N  N571  1  0.638200  0.723700  0.773300  1.0  -0.4922
  N  N572  1  0.639200  0.695500  0.514500  1.0  -0.4511
  N  N573  1  0.684700  0.681600  0.719200  1.0  -0.3763
  N  N574  1  0.717600  0.726700  0.281800  1.0  -0.335
  N  N575  1  0.536100  0.782600  0.455600  1.0  -0.3102
  N  N576  1  0.726000  0.608590  0.256300  1.0  -0.3116
  N  N577  1  0.861800  0.776300  0.773300  1.0  -0.4905
  N  N578  1  0.860800  0.804500  0.514500  1.0  -0.4507
  N  N579  1  0.815300  0.818400  0.719200  1.0  -0.3775
  N  N580  1  0.782400  0.773300  0.281800  1.0  -0.3367
  N  N581  1  0.963900  0.717400  0.455600  1.0  -0.3115
  N  N582  1  0.774000  0.891410  0.256300  1.0  -0.3125
  N  N583  1  0.861800  0.276300  0.273300  1.0  -0.4905
  N  N584  1  0.860800  0.304500  0.014500  1.0  -0.4507
  N  N585  1  0.815300  0.318400  0.219200  1.0  -0.3775
  N  N586  1  0.782400  0.273300  0.781800  1.0  -0.3367
  N  N587  1  0.963900  0.217400  0.955600  1.0  -0.3115
  N  N588  1  0.774000  0.391410  0.756300  1.0  -0.3125
  N  N589  1  0.361800  0.776300  0.273300  1.0  -0.4905
  N  N590  1  0.360800  0.804500  0.014500  1.0  -0.4507
  N  N591  1  0.315300  0.818400  0.219200  1.0  -0.3775
  N  N592  1  0.282400  0.773300  0.781800  1.0  -0.3367
  N  N593  1  0.463900  0.717400  0.955600  1.0  -0.3115
  N  N594  1  0.274000  0.891410  0.756300  1.0  -0.3125
  N  N595  1  0.361800  0.276300  0.773300  1.0  -0.4905
  N  N596  1  0.360800  0.304500  0.514500  1.0  -0.4507
  N  N597  1  0.315300  0.318400  0.719200  1.0  -0.3775
  N  N598  1  0.282400  0.273300  0.281800  1.0  -0.3367
  N  N599  1  0.463900  0.217400  0.455600  1.0  -0.3115
  N  N600  1  0.274000  0.391410  0.256300  1.0  -0.3125
  N  N601  1  0.388200  0.026300  0.023300  1.0  -0.492
  N  N602  1  0.389200  0.054500  0.764500  1.0  -0.4506
  N  N603  1  0.434700  0.068400  0.969200  1.0  -0.3772
  N  N604  1  0.467600  0.023300  0.531800  1.0  -0.3344
  N  N605  1  0.286100  0.967400  0.705600  1.0  -0.3118
  N  N606  1  0.476000  0.141410  0.506300  1.0  -0.3108
  N  N607  1  0.388200  0.526300  0.523300  1.0  -0.492
  N  N608  1  0.389200  0.554500  0.264500  1.0  -0.4506
  N  N609  1  0.434700  0.568400  0.469200  1.0  -0.3772
  N  N610  1  0.467600  0.523300  0.031800  1.0  -0.3344
  N  N611  1  0.286100  0.467400  0.205600  1.0  -0.3118
  N  N612  1  0.476000  0.641410  0.006300  1.0  -0.3108
  N  N613  1  0.888200  0.026300  0.523300  1.0  -0.492
  N  N614  1  0.889200  0.054500  0.264500  1.0  -0.4506
  N  N615  1  0.934700  0.068400  0.469200  1.0  -0.3772
  N  N616  1  0.967600  0.023300  0.031800  1.0  -0.3344
  N  N617  1  0.786100  0.967400  0.205600  1.0  -0.3118
  N  N618  1  0.976000  0.141410  0.006300  1.0  -0.3108
  N  N619  1  0.888200  0.526300  0.023300  1.0  -0.492
  N  N620  1  0.889200  0.554500  0.764500  1.0  -0.4506
  N  N621  1  0.934700  0.568400  0.969200  1.0  -0.3772
  N  N622  1  0.967600  0.523300  0.531800  1.0  -0.3344
  N  N623  1  0.786100  0.467400  0.705600  1.0  -0.3118
  N  N624  1  0.976000  0.641410  0.506300  1.0  -0.3108
  N  N625  1  0.111800  0.473700  0.023300  1.0  -0.4911
  N  N626  1  0.110800  0.445500  0.764500  1.0  -0.4502
  N  N627  1  0.065300  0.431600  0.969200  1.0  -0.3775
  N  N628  1  0.032400  0.476700  0.531800  1.0  -0.337
  N  N629  1  0.213900  0.532600  0.705600  1.0  -0.3115
  N  N630  1  0.024000  0.358590  0.506300  1.0  -0.3137
  N  N631  1  0.111800  0.973700  0.523300  1.0  -0.4911
  N  N632  1  0.110800  0.945500  0.264500  1.0  -0.4502
  N  N633  1  0.065300  0.931600  0.469200  1.0  -0.3775
  N  N634  1  0.032400  0.976700  0.031800  1.0  -0.337
  N  N635  1  0.213900  0.032600  0.205600  1.0  -0.3115
  N  N636  1  0.024000  0.858590  0.006300  1.0  -0.3137
  N  N637  1  0.611800  0.473700  0.523300  1.0  -0.4911
  N  N638  1  0.610800  0.445500  0.264500  1.0  -0.4502
  N  N639  1  0.565300  0.431600  0.469200  1.0  -0.3775
  N  N640  1  0.532400  0.476700  0.031800  1.0  -0.337
  N  N641  1  0.713900  0.532600  0.205600  1.0  -0.3115
  N  N642  1  0.524000  0.358590  0.006300  1.0  -0.3137
  N  N643  1  0.611800  0.973700  0.023300  1.0  -0.4911
  N  N644  1  0.610800  0.945500  0.764500  1.0  -0.4502
  N  N645  1  0.565300  0.931600  0.969200  1.0  -0.3775
  N  N646  1  0.532400  0.976700  0.531800  1.0  -0.337
  N  N647  1  0.713900  0.032600  0.705600  1.0  -0.3115
  N  N648  1  0.524000  0.858590  0.506300  1.0  -0.3137
