# generated using pymatgen
data_CuH12C18(N3O2)2
_symmetry_space_group_name_H-M   'P 1'
_cell_length_a   13.06300000
_cell_length_b   9.90170000
_cell_length_c   17.47200000
_cell_angle_alpha   90.00000000
_cell_angle_beta   90.00000000
_cell_angle_gamma   90.00000000
_symmetry_Int_Tables_number   1
_chemical_formula_structural   CuH12C18(N3O2)2
_chemical_formula_sum   'Cu4 H48 C72 N24 O16'
_cell_volume   2259.93168885
_cell_formula_units_Z   4
loop_
 _symmetry_equiv_pos_site_id
 _symmetry_equiv_pos_as_xyz
  1  'x, y, z'
loop_
 _atom_site_type_symbol
 _atom_site_label
 _atom_site_symmetry_multiplicity
 _atom_site_fract_x
 _atom_site_fract_y
 _atom_site_fract_z
 _atom_site_occupancy
 _atom_site_charge
  Cu  Cu1  1  0.750000  0.500000  0.338230  1.0  0.8298
  Cu  Cu2  1  0.250000  0.000000  0.838230  1.0  0.8298
  Cu  Cu3  1  0.750000  0.000000  0.161770  1.0  0.8301
  Cu  Cu4  1  0.250000  0.500000  0.661770  1.0  0.8301
  H  H5  1  0.961900  0.641200  0.301100  1.0  0.0928
  H  H6  1  0.826800  0.367100  0.180900  1.0  0.105
  H  H7  1  0.120200  0.525100  0.086800  1.0  0.1213
  H  H8  1  0.918200  0.226100  0.103600  1.0  0.1151
  H  H9  1  0.195700  0.416800  0.984700  1.0  0.1003
  H  H10  1  0.001400  0.111600  0.005300  1.0  0.1072
  H  H11  1  0.538100  0.358800  0.301100  1.0  0.0934
  H  H12  1  0.673200  0.632900  0.180900  1.0  0.1041
  H  H13  1  0.379800  0.474900  0.086800  1.0  0.1215
  H  H14  1  0.581800  0.773900  0.103600  1.0  0.1149
  H  H15  1  0.304300  0.583200  0.984700  1.0  0.1004
  H  H16  1  0.498600  0.888400  0.005300  1.0  0.1077
  H  H17  1  0.461900  0.858800  0.801100  1.0  0.0933
  H  H18  1  0.326800  0.132900  0.680900  1.0  0.1042
  H  H19  1  0.620200  0.974900  0.586800  1.0  0.1217
  H  H20  1  0.418200  0.273900  0.603600  1.0  0.1154
  H  H21  1  0.695700  0.083200  0.484700  1.0  0.1008
  H  H22  1  0.501400  0.388400  0.505300  1.0  0.1075
  H  H23  1  0.038100  0.141200  0.801100  1.0  0.0934
  H  H24  1  0.173200  0.867100  0.680900  1.0  0.1052
  H  H25  1  0.879800  0.025100  0.586800  1.0  0.1215
  H  H26  1  0.081800  0.726100  0.603600  1.0  0.1154
  H  H27  1  0.804300  0.916800  0.484700  1.0  0.1002
  H  H28  1  0.998600  0.611600  0.505300  1.0  0.1075
  H  H29  1  0.538100  0.141200  0.198900  1.0  0.0934
  H  H30  1  0.673200  0.867100  0.319100  1.0  0.1048
  H  H31  1  0.379800  0.025100  0.413200  1.0  0.1212
  H  H32  1  0.581800  0.726100  0.396400  1.0  0.1151
  H  H33  1  0.304300  0.916800  0.515300  1.0  0.1002
  H  H34  1  0.498600  0.611600  0.494700  1.0  0.1074
  H  H35  1  0.961900  0.858800  0.198900  1.0  0.0931
  H  H36  1  0.826800  0.132900  0.319100  1.0  0.1038
  H  H37  1  0.120200  0.974900  0.413200  1.0  0.1212
  H  H38  1  0.918200  0.273900  0.396400  1.0  0.1154
  H  H39  1  0.195700  0.083200  0.515300  1.0  0.1013
  H  H40  1  0.001400  0.388400  0.494700  1.0  0.1069
  H  H41  1  0.038100  0.358800  0.698900  1.0  0.0929
  H  H42  1  0.173200  0.632900  0.819100  1.0  0.1038
  H  H43  1  0.879800  0.474900  0.913200  1.0  0.1207
  H  H44  1  0.081800  0.773900  0.896400  1.0  0.1149
  H  H45  1  0.804300  0.583200  0.015300  1.0  0.1006
  H  H46  1  0.998600  0.888400  0.994700  1.0  0.1072
  H  H47  1  0.461900  0.641200  0.698900  1.0  0.0932
  H  H48  1  0.326800  0.367100  0.819100  1.0  0.1046
  H  H49  1  0.620200  0.525100  0.913200  1.0  0.1212
  H  H50  1  0.418200  0.226100  0.896400  1.0  0.1149
  H  H51  1  0.695700  0.416800  0.015300  1.0  0.1006
  H  H52  1  0.501400  0.111600  0.994700  1.0  0.1071
  C  C53  1  0.948400  0.577300  0.263400  1.0  0.2641
  C  C54  1  0.874700  0.428600  0.199100  1.0  0.1617
  C  C55  1  0.011800  0.385100  0.104300  1.0  0.1659
  C  C56  1  0.095100  0.442400  0.069900  1.0  -0.1474
  C  C57  1  0.975700  0.263700  0.080600  1.0  -0.1576
  C  C58  1  0.141200  0.375700  0.009800  1.0  -0.033
  C  C59  1  0.025300  0.195500  0.021200  1.0  -0.0261
  C  C60  1  0.109500  0.252000  0.986300  1.0  -0.1051
  C  C61  1  0.165600  0.178300  0.925400  1.0  0.6462
  C  C62  1  0.551600  0.422700  0.263400  1.0  0.263
  C  C63  1  0.625300  0.571400  0.199100  1.0  0.1617
  C  C64  1  0.488200  0.614900  0.104300  1.0  0.1656
  C  C65  1  0.404900  0.557600  0.069900  1.0  -0.147
  C  C66  1  0.524300  0.736300  0.080600  1.0  -0.1582
  C  C67  1  0.358800  0.624300  0.009800  1.0  -0.0325
  C  C68  1  0.474700  0.804500  0.021200  1.0  -0.0272
  C  C69  1  0.390500  0.748000  0.986300  1.0  -0.1051
  C  C70  1  0.334400  0.821700  0.925400  1.0  0.6466
  C  C71  1  0.448400  0.922700  0.763400  1.0  0.2644
  C  C72  1  0.374700  0.071400  0.699100  1.0  0.1618
  C  C73  1  0.511800  0.114900  0.604300  1.0  0.166
  C  C74  1  0.595100  0.057600  0.569900  1.0  -0.1473
  C  C75  1  0.475700  0.236300  0.580600  1.0  -0.1575
  C  C76  1  0.641200  0.124300  0.509800  1.0  -0.0327
  C  C77  1  0.525300  0.304500  0.521200  1.0  -0.0263
  C  C78  1  0.609500  0.248000  0.486300  1.0  -0.1053
  C  C79  1  0.665600  0.321700  0.425400  1.0  0.6461
  C  C80  1  0.051600  0.077300  0.763400  1.0  0.2624
  C  C81  1  0.125300  0.928600  0.699100  1.0  0.1613
  C  C82  1  0.988200  0.885100  0.604300  1.0  0.1658
  C  C83  1  0.904900  0.942400  0.569900  1.0  -0.1468
  C  C84  1  0.024300  0.763700  0.580600  1.0  -0.1586
  C  C85  1  0.858800  0.875700  0.509800  1.0  -0.0331
  C  C86  1  0.974700  0.695500  0.521200  1.0  -0.0266
  C  C87  1  0.890500  0.752000  0.486300  1.0  -0.1051
  C  C88  1  0.834400  0.678300  0.425400  1.0  0.6467
  C  C89  1  0.551600  0.077300  0.236600  1.0  0.2627
  C  C90  1  0.625300  0.928600  0.300900  1.0  0.1612
  C  C91  1  0.488200  0.885100  0.395700  1.0  0.1655
  C  C92  1  0.404900  0.942400  0.430100  1.0  -0.1465
  C  C93  1  0.524300  0.763700  0.419400  1.0  -0.1591
  C  C94  1  0.358800  0.875700  0.490200  1.0  -0.0314
  C  C95  1  0.474700  0.695500  0.478800  1.0  -0.027
  C  C96  1  0.390500  0.752000  0.513700  1.0  -0.1055
  C  C97  1  0.334400  0.678300  0.574600  1.0  0.6466
  C  C98  1  0.948400  0.922700  0.236600  1.0  0.2637
  C  C99  1  0.874700  0.071400  0.300900  1.0  0.1617
  C  C100  1  0.011800  0.114900  0.395700  1.0  0.1661
  C  C101  1  0.095100  0.057600  0.430100  1.0  -0.147
  C  C102  1  0.975700  0.236300  0.419400  1.0  -0.1573
  C  C103  1  0.141200  0.124300  0.490200  1.0  -0.0315
  C  C104  1  0.025300  0.304500  0.478800  1.0  -0.0266
  C  C105  1  0.109500  0.248000  0.513700  1.0  -0.1052
  C  C106  1  0.165600  0.321700  0.574600  1.0  0.6462
  C  C107  1  0.051600  0.422700  0.736600  1.0  0.2625
  C  C108  1  0.125300  0.571400  0.800900  1.0  0.1616
  C  C109  1  0.988200  0.614900  0.895700  1.0  0.1653
  C  C110  1  0.904900  0.557600  0.930100  1.0  -0.1464
  C  C111  1  0.024300  0.736300  0.919400  1.0  -0.1584
  C  C112  1  0.858800  0.624300  0.990200  1.0  -0.0312
  C  C113  1  0.974700  0.804500  0.978800  1.0  -0.0275
  C  C114  1  0.890500  0.748000  0.013700  1.0  -0.1053
  C  C115  1  0.834400  0.821700  0.074600  1.0  0.6464
  C  C116  1  0.448400  0.577300  0.736600  1.0  0.264
  C  C117  1  0.374700  0.428600  0.800900  1.0  0.1616
  C  C118  1  0.511800  0.385100  0.895700  1.0  0.166
  C  C119  1  0.595100  0.442400  0.930100  1.0  -0.1472
  C  C120  1  0.475700  0.263700  0.919400  1.0  -0.1578
  C  C121  1  0.641200  0.375700  0.990200  1.0  -0.0317
  C  C122  1  0.525300  0.195500  0.978800  1.0  -0.0265
  C  C123  1  0.609500  0.252000  0.013700  1.0  -0.1051
  C  C124  1  0.665600  0.178300  0.074600  1.0  0.6462
  N  N125  1  0.861900  0.504500  0.260600  1.0  -0.3842
  N  N126  1  0.012700  0.549000  0.207000  1.0  -0.3886
  N  N127  1  0.963700  0.451300  0.167200  1.0  0.1581
  N  N128  1  0.638100  0.495500  0.260600  1.0  -0.3851
  N  N129  1  0.487300  0.451000  0.207000  1.0  -0.3881
  N  N130  1  0.536300  0.548700  0.167200  1.0  0.1586
  N  N131  1  0.361900  0.995500  0.760600  1.0  -0.3842
  N  N132  1  0.512700  0.951000  0.707000  1.0  -0.3878
  N  N133  1  0.463700  0.048700  0.667200  1.0  0.1584
  N  N134  1  0.138100  0.004500  0.760600  1.0  -0.3851
  N  N135  1  0.987300  0.049000  0.707000  1.0  -0.3866
  N  N136  1  0.036300  0.951300  0.667200  1.0  0.1586
  N  N137  1  0.638100  0.004500  0.239400  1.0  -0.3857
  N  N138  1  0.487300  0.049000  0.293000  1.0  -0.3862
  N  N139  1  0.536300  0.951300  0.332800  1.0  0.1579
  N  N140  1  0.861900  0.995500  0.239400  1.0  -0.3847
  N  N141  1  0.012700  0.951000  0.293000  1.0  -0.3888
  N  N142  1  0.963700  0.048700  0.332800  1.0  0.1574
  N  N143  1  0.138100  0.495500  0.739400  1.0  -0.3858
  N  N144  1  0.987300  0.451000  0.793000  1.0  -0.388
  N  N145  1  0.036300  0.548700  0.832800  1.0  0.158
  N  N146  1  0.361900  0.504500  0.739400  1.0  -0.3847
  N  N147  1  0.512700  0.549000  0.793000  1.0  -0.3895
  N  N148  1  0.463700  0.451300  0.832800  1.0  0.1571
  O  O149  1  0.150100  0.052400  0.917700  1.0  -0.5834
  O  O150  1  0.226200  0.240400  0.881500  1.0  -0.6277
  O  O151  1  0.349900  0.947600  0.917700  1.0  -0.5819
  O  O152  1  0.273800  0.759600  0.881500  1.0  -0.6269
  O  O153  1  0.650100  0.447600  0.417700  1.0  -0.5824
  O  O154  1  0.726200  0.259600  0.381500  1.0  -0.6277
  O  O155  1  0.849900  0.552400  0.417700  1.0  -0.5824
  O  O156  1  0.773800  0.740400  0.381500  1.0  -0.627
  O  O157  1  0.349900  0.552400  0.582300  1.0  -0.5827
  O  O158  1  0.273800  0.740400  0.618500  1.0  -0.6274
  O  O159  1  0.150100  0.447600  0.582300  1.0  -0.5829
  O  O160  1  0.226200  0.259600  0.618500  1.0  -0.6274
  O  O161  1  0.849900  0.947600  0.082300  1.0  -0.5822
  O  O162  1  0.773800  0.759600  0.118500  1.0  -0.6271
  O  O163  1  0.650100  0.052400  0.082300  1.0  -0.5838
  O  O164  1  0.726200  0.240400  0.118500  1.0  -0.628
