# generated using pymatgen
data_CdH12C18(N3O2)2
_symmetry_space_group_name_H-M   'P 1'
_cell_length_a   15.62900000
_cell_length_b   15.99100000
_cell_length_c   9.23430000
_cell_angle_alpha   90.00000000
_cell_angle_beta   102.77400000
_cell_angle_gamma   90.00000000
_symmetry_Int_Tables_number   1
_chemical_formula_structural   CdH12C18(N3O2)2
_chemical_formula_sum   'Cd4 H48 C72 N24 O16'
_cell_volume   2250.74689287
_cell_formula_units_Z   4
loop_
 _symmetry_equiv_pos_site_id
 _symmetry_equiv_pos_as_xyz
  1  'x, y, z'
loop_
 _atom_site_type_symbol
 _atom_site_label
 _atom_site_symmetry_multiplicity
 _atom_site_fract_x
 _atom_site_fract_y
 _atom_site_fract_z
 _atom_site_occupancy
 _atom_site_charge
  Cd  Cd1  1  0.500000  0.000000  0.000000  1.0  1.0152
  Cd  Cd2  1  0.000000  0.500000  0.000000  1.0  1.0152
  Cd  Cd3  1  0.500000  0.000000  0.500000  1.0  1.0152
  Cd  Cd4  1  0.000000  0.500000  0.500000  1.0  1.0152
  H  H5  1  0.477500  0.788600  0.066200  1.0  0.0894
  H  H6  1  0.628400  0.875000  0.822100  1.0  0.1084
  H  H7  1  0.667400  0.608400  0.965300  1.0  0.1163
  H  H8  1  0.698900  0.790700  0.686100  1.0  0.1195
  H  H9  1  0.769600  0.528800  0.883600  1.0  0.0967
  H  H10  1  0.800300  0.709100  0.601100  1.0  0.0999
  H  H11  1  0.977500  0.288600  0.066200  1.0  0.0894
  H  H12  1  0.128400  0.375000  0.822100  1.0  0.1084
  H  H13  1  0.167400  0.108400  0.965300  1.0  0.1163
  H  H14  1  0.198900  0.290700  0.686100  1.0  0.1195
  H  H15  1  0.269600  0.028800  0.883600  1.0  0.0967
  H  H16  1  0.300300  0.209100  0.601100  1.0  0.0999
  H  H17  1  0.522500  0.788600  0.433800  1.0  0.0896
  H  H18  1  0.371600  0.875000  0.677900  1.0  0.1081
  H  H19  1  0.332600  0.608400  0.534700  1.0  0.1168
  H  H20  1  0.301100  0.790700  0.813900  1.0  0.1193
  H  H21  1  0.230400  0.528800  0.616400  1.0  0.097
  H  H22  1  0.199700  0.709100  0.898900  1.0  0.0998
  H  H23  1  0.022500  0.288600  0.433800  1.0  0.0896
  H  H24  1  0.871600  0.375000  0.677900  1.0  0.1081
  H  H25  1  0.832600  0.108400  0.534700  1.0  0.1168
  H  H26  1  0.801100  0.290700  0.813900  1.0  0.1193
  H  H27  1  0.730400  0.028800  0.616400  1.0  0.097
  H  H28  1  0.699700  0.209100  0.898900  1.0  0.0998
  H  H29  1  0.522500  0.211400  0.933800  1.0  0.0902
  H  H30  1  0.371600  0.125000  0.177900  1.0  0.1079
  H  H31  1  0.332600  0.391600  0.034700  1.0  0.1174
  H  H32  1  0.301100  0.209300  0.313900  1.0  0.1186
  H  H33  1  0.230400  0.471200  0.116400  1.0  0.0975
  H  H34  1  0.199700  0.290900  0.398900  1.0  0.1002
  H  H35  1  0.022500  0.711400  0.933800  1.0  0.0902
  H  H36  1  0.871600  0.625000  0.177900  1.0  0.1079
  H  H37  1  0.832600  0.891600  0.034700  1.0  0.1174
  H  H38  1  0.801100  0.709300  0.313900  1.0  0.1186
  H  H39  1  0.730400  0.971200  0.116400  1.0  0.0975
  H  H40  1  0.699700  0.790900  0.398900  1.0  0.1002
  H  H41  1  0.477500  0.211400  0.566200  1.0  0.0894
  H  H42  1  0.628400  0.125000  0.322100  1.0  0.1078
  H  H43  1  0.667400  0.391600  0.465300  1.0  0.1166
  H  H44  1  0.698900  0.209300  0.186100  1.0  0.1182
  H  H45  1  0.769600  0.471200  0.383600  1.0  0.0971
  H  H46  1  0.800300  0.290900  0.101100  1.0  0.1
  H  H47  1  0.977500  0.711400  0.566200  1.0  0.0894
  H  H48  1  0.128400  0.625000  0.322100  1.0  0.1078
  H  H49  1  0.167400  0.891600  0.465300  1.0  0.1166
  H  H50  1  0.198900  0.709300  0.186100  1.0  0.1182
  H  H51  1  0.269600  0.971200  0.383600  1.0  0.0971
  H  H52  1  0.300300  0.790900  0.101100  1.0  0.1
  C  C53  1  0.518700  0.791200  0.007500  1.0  0.3083
  C  C54  1  0.599500  0.839600  0.875300  1.0  0.1582
  C  C55  1  0.672400  0.706700  0.831700  1.0  0.1288
  C  C56  1  0.694200  0.628900  0.892100  1.0  -0.1004
  C  C57  1  0.712800  0.737500  0.725100  1.0  -0.1562
  C  C58  1  0.755700  0.581800  0.843600  1.0  -0.0386
  C  C59  1  0.774400  0.689000  0.675700  1.0  -0.0193
  C  C60  1  0.797400  0.611360  0.736700  1.0  -0.144
  C  C61  1  0.868100  0.560500  0.690200  1.0  0.7063
  C  C62  1  0.018700  0.291200  0.007500  1.0  0.3083
  C  C63  1  0.099500  0.339600  0.875300  1.0  0.1582
  C  C64  1  0.172400  0.206700  0.831700  1.0  0.1288
  C  C65  1  0.194200  0.128900  0.892100  1.0  -0.1004
  C  C66  1  0.212800  0.237500  0.725100  1.0  -0.1562
  C  C67  1  0.255700  0.081800  0.843600  1.0  -0.0386
  C  C68  1  0.274400  0.189000  0.675700  1.0  -0.0193
  C  C69  1  0.297400  0.111360  0.736700  1.0  -0.144
  C  C70  1  0.368100  0.060500  0.690200  1.0  0.7063
  C  C71  1  0.481300  0.791200  0.492500  1.0  0.3052
  C  C72  1  0.400500  0.839600  0.624700  1.0  0.1582
  C  C73  1  0.327600  0.706700  0.668300  1.0  0.1305
  C  C74  1  0.305800  0.628900  0.607900  1.0  -0.102
  C  C75  1  0.287200  0.737500  0.774900  1.0  -0.155
  C  C76  1  0.244300  0.581800  0.656400  1.0  -0.0381
  C  C77  1  0.225600  0.689000  0.824300  1.0  -0.0174
  C  C78  1  0.202600  0.611360  0.763300  1.0  -0.1436
  C  C79  1  0.131900  0.560500  0.809800  1.0  0.7042
  C  C80  1  0.981300  0.291200  0.492500  1.0  0.3052
  C  C81  1  0.900500  0.339600  0.624700  1.0  0.1582
  C  C82  1  0.827600  0.206700  0.668300  1.0  0.1305
  C  C83  1  0.805800  0.128900  0.607900  1.0  -0.102
  C  C84  1  0.787200  0.237500  0.774900  1.0  -0.155
  C  C85  1  0.744300  0.081800  0.656400  1.0  -0.0381
  C  C86  1  0.725600  0.189000  0.824300  1.0  -0.0174
  C  C87  1  0.702600  0.111360  0.763300  1.0  -0.1436
  C  C88  1  0.631900  0.060500  0.809800  1.0  0.7042
  C  C89  1  0.481300  0.208800  0.992500  1.0  0.3057
  C  C90  1  0.400500  0.160400  0.124700  1.0  0.158
  C  C91  1  0.327600  0.293300  0.168300  1.0  0.1301
  C  C92  1  0.305800  0.371100  0.107900  1.0  -0.1012
  C  C93  1  0.287200  0.262500  0.274900  1.0  -0.1555
  C  C94  1  0.244300  0.418200  0.156400  1.0  -0.0378
  C  C95  1  0.225600  0.311000  0.324300  1.0  -0.0176
  C  C96  1  0.202600  0.388640  0.263300  1.0  -0.1429
  C  C97  1  0.131900  0.439500  0.309800  1.0  0.7044
  C  C98  1  0.981300  0.708800  0.992500  1.0  0.3057
  C  C99  1  0.900500  0.660400  0.124700  1.0  0.158
  C  C100  1  0.827600  0.793300  0.168300  1.0  0.1301
  C  C101  1  0.805800  0.871100  0.107900  1.0  -0.1012
  C  C102  1  0.787200  0.762500  0.274900  1.0  -0.1555
  C  C103  1  0.744300  0.918200  0.156400  1.0  -0.0378
  C  C104  1  0.725600  0.811000  0.324300  1.0  -0.0176
  C  C105  1  0.702600  0.888640  0.263300  1.0  -0.1429
  C  C106  1  0.631900  0.939500  0.309800  1.0  0.7044
  C  C107  1  0.518700  0.208800  0.507500  1.0  0.3068
  C  C108  1  0.599500  0.160400  0.375300  1.0  0.1579
  C  C109  1  0.672400  0.293300  0.331700  1.0  0.1287
  C  C110  1  0.694200  0.371100  0.392100  1.0  -0.1007
  C  C111  1  0.712800  0.262500  0.225100  1.0  -0.1565
  C  C112  1  0.755700  0.418200  0.343600  1.0  -0.0383
  C  C113  1  0.774400  0.311000  0.175700  1.0  -0.0192
  C  C114  1  0.797400  0.388640  0.236700  1.0  -0.1429
  C  C115  1  0.868100  0.439500  0.190200  1.0  0.7064
  C  C116  1  0.018700  0.708800  0.507500  1.0  0.3068
  C  C117  1  0.099500  0.660400  0.375300  1.0  0.1579
  C  C118  1  0.172400  0.793300  0.331700  1.0  0.1287
  C  C119  1  0.194200  0.871100  0.392100  1.0  -0.1007
  C  C120  1  0.212800  0.762500  0.225100  1.0  -0.1565
  C  C121  1  0.255700  0.918200  0.343600  1.0  -0.0383
  C  C122  1  0.274400  0.811000  0.175700  1.0  -0.0192
  C  C123  1  0.297400  0.888640  0.236700  1.0  -0.1429
  C  C124  1  0.368100  0.939500  0.190200  1.0  0.7064
  N  N125  1  0.540960  0.863860  0.950500  1.0  -0.4296
  N  N126  1  0.559300  0.724670  0.973900  1.0  -0.3821
  N  N127  1  0.611110  0.757560  0.886700  1.0  0.1336
  N  N128  1  0.040960  0.363860  0.950500  1.0  -0.4296
  N  N129  1  0.059300  0.224670  0.973900  1.0  -0.3821
  N  N130  1  0.111110  0.257560  0.886700  1.0  0.1336
  N  N131  1  0.459040  0.863860  0.549500  1.0  -0.4293
  N  N132  1  0.440700  0.724670  0.526100  1.0  -0.3821
  N  N133  1  0.388890  0.757560  0.613300  1.0  0.1339
  N  N134  1  0.959040  0.363860  0.549500  1.0  -0.4293
  N  N135  1  0.940700  0.224670  0.526100  1.0  -0.3821
  N  N136  1  0.888890  0.257560  0.613300  1.0  0.1339
  N  N137  1  0.459040  0.136140  0.049500  1.0  -0.43
  N  N138  1  0.440700  0.275330  0.026100  1.0  -0.3815
  N  N139  1  0.388890  0.242440  0.113300  1.0  0.1342
  N  N140  1  0.959040  0.636140  0.049500  1.0  -0.43
  N  N141  1  0.940700  0.775330  0.026100  1.0  -0.3815
  N  N142  1  0.888890  0.742440  0.113300  1.0  0.1342
  N  N143  1  0.540960  0.136140  0.450500  1.0  -0.4301
  N  N144  1  0.559300  0.275330  0.473900  1.0  -0.3826
  N  N145  1  0.611110  0.242440  0.386700  1.0  0.1339
  N  N146  1  0.040960  0.636140  0.450500  1.0  -0.4301
  N  N147  1  0.059300  0.775330  0.473900  1.0  -0.3826
  N  N148  1  0.111110  0.742440  0.386700  1.0  0.1339
  O  O149  1  0.889820  0.578550  0.572000  1.0  -0.6544
  O  O150  1  0.901200  0.501320  0.774300  1.0  -0.6482
  O  O151  1  0.389820  0.078550  0.572000  1.0  -0.6545
  O  O152  1  0.401200  0.001320  0.774300  1.0  -0.6482
  O  O153  1  0.110180  0.578550  0.928000  1.0  -0.6545
  O  O154  1  0.098800  0.501320  0.725700  1.0  -0.6481
  O  O155  1  0.610180  0.078550  0.928000  1.0  -0.6546
  O  O156  1  0.598800  0.001320  0.725700  1.0  -0.6481
  O  O157  1  0.110180  0.421450  0.428000  1.0  -0.6542
  O  O158  1  0.098800  0.498680  0.225700  1.0  -0.6482
  O  O159  1  0.610180  0.921450  0.428000  1.0  -0.6542
  O  O160  1  0.598800  0.998680  0.225700  1.0  -0.6482
  O  O161  1  0.889820  0.421450  0.072000  1.0  -0.6552
  O  O162  1  0.901200  0.498680  0.274300  1.0  -0.6481
  O  O163  1  0.389820  0.921450  0.072000  1.0  -0.6552
  O  O164  1  0.401200  0.998680  0.274300  1.0  -0.6481
