# generated using pymatgen
data_MnH10C14(NO2)2
_symmetry_space_group_name_H-M   'P 1'
_cell_length_a   11.88700000
_cell_length_b   11.88700000
_cell_length_c   16.35500000
_cell_angle_alpha   73.37590000
_cell_angle_beta   73.37590000
_cell_angle_gamma   78.41940000
_symmetry_Int_Tables_number   1
_chemical_formula_structural   MnH10C14(NO2)2
_chemical_formula_sum   'Mn4 H40 C56 N8 O16'
_cell_volume   2103.95858558
_cell_formula_units_Z   4
loop_
 _symmetry_equiv_pos_site_id
 _symmetry_equiv_pos_as_xyz
  1  'x, y, z'
loop_
 _atom_site_type_symbol
 _atom_site_label
 _atom_site_symmetry_multiplicity
 _atom_site_fract_x
 _atom_site_fract_y
 _atom_site_fract_z
 _atom_site_occupancy
 _atom_site_charge
  Mn  Mn1  1  0.832430  0.615870  0.546670  1.0  1.0256
  Mn  Mn2  1  0.384130  0.167570  0.953330  1.0  1.0276
  Mn  Mn3  1  0.167570  0.384130  0.453330  1.0  1.0265
  Mn  Mn4  1  0.615870  0.832430  0.046670  1.0  1.0266
  H  H5  1  0.166600  0.452600  0.037200  1.0  0.2732
  H  H6  1  0.813500  0.663300  0.274500  1.0  0.0986
  H  H7  1  0.142800  0.486000  0.245400  1.0  0.11
  H  H8  1  0.979900  0.573900  0.046600  1.0  0.1096
  H  H9  1  0.328200  0.360800  0.078100  1.0  0.0973
  H  H10  1  0.266900  0.378100  0.172900  1.0  0.0921
  H  H11  1  0.293800  0.636200  0.003000  1.0  0.1197
  H  H12  1  0.458700  0.423900  0.180300  1.0  0.1295
  H  H13  1  0.577000  0.566200  0.152400  1.0  0.0674
  H  H14  1  0.414200  0.773600  0.981800  1.0  0.076
  H  H15  1  0.547400  0.833400  0.462800  1.0  0.2703
  H  H16  1  0.336700  0.186500  0.225500  1.0  0.0997
  H  H17  1  0.514000  0.857200  0.254600  1.0  0.1099
  H  H18  1  0.426100  0.020100  0.453400  1.0  0.1104
  H  H19  1  0.639200  0.671800  0.421900  1.0  0.0974
  H  H20  1  0.621900  0.733100  0.327100  1.0  0.0921
  H  H21  1  0.363800  0.706200  0.497000  1.0  0.1197
  H  H22  1  0.576100  0.541300  0.319700  1.0  0.1285
  H  H23  1  0.433800  0.423000  0.347600  1.0  0.0678
  H  H24  1  0.226400  0.585800  0.518200  1.0  0.0752
  H  H25  1  0.833400  0.547400  0.962800  1.0  0.2716
  H  H26  1  0.186500  0.336700  0.725500  1.0  0.0993
  H  H27  1  0.857200  0.514000  0.754600  1.0  0.1103
  H  H28  1  0.020100  0.426100  0.953400  1.0  0.1102
  H  H29  1  0.671800  0.639200  0.921900  1.0  0.0975
  H  H30  1  0.733100  0.621900  0.827100  1.0  0.0923
  H  H31  1  0.706200  0.363800  0.997000  1.0  0.119
  H  H32  1  0.541300  0.576100  0.819700  1.0  0.1296
  H  H33  1  0.423000  0.433800  0.847600  1.0  0.0671
  H  H34  1  0.585800  0.226400  0.018200  1.0  0.0751
  H  H35  1  0.452600  0.166600  0.537200  1.0  0.2713
  H  H36  1  0.663300  0.813500  0.774500  1.0  0.0996
  H  H37  1  0.486000  0.142800  0.745400  1.0  0.1099
  H  H38  1  0.573900  0.979900  0.546600  1.0  0.1096
  H  H39  1  0.360800  0.328200  0.578100  1.0  0.0981
  H  H40  1  0.378100  0.266900  0.672900  1.0  0.092
  H  H41  1  0.636200  0.293800  0.503000  1.0  0.12
  H  H42  1  0.423900  0.458700  0.680300  1.0  0.1283
  H  H43  1  0.566200  0.577000  0.652400  1.0  0.0672
  H  H44  1  0.773600  0.414200  0.481800  1.0  0.0759
  C  C45  1  0.976800  0.573200  0.273800  1.0  -0.1272
  C  C46  1  0.078400  0.518000  0.137600  1.0  0.2057
  C  C47  1  0.777800  0.689200  0.116700  1.0  0.6245
  C  C48  1  0.879500  0.626900  0.240300  1.0  -0.0354
  C  C49  1  0.881000  0.626000  0.155200  1.0  -0.1234
  C  C50  1  0.077100  0.519900  0.222700  1.0  -0.173
  C  C51  1  0.976700  0.573100  0.366500  1.0  0.7225
  C  C52  1  0.979300  0.573100  0.103800  1.0  -0.1567
  C  C53  1  0.359900  0.512100  0.096200  1.0  0.1407
  C  C54  1  0.283800  0.418600  0.111000  1.0  -0.0076
  C  C55  1  0.350100  0.619700  0.035700  1.0  -0.2227
  C  C56  1  0.446700  0.494900  0.139400  1.0  -0.2389
  C  C57  1  0.517100  0.582300  0.122900  1.0  0.1916
  C  C58  1  0.422700  0.702500  0.023500  1.0  0.1741
  C  C59  1  0.426800  0.023200  0.226200  1.0  -0.1292
  C  C60  1  0.482000  0.921600  0.362400  1.0  0.2063
  C  C61  1  0.310800  0.222200  0.383300  1.0  0.627
  C  C62  1  0.373100  0.120500  0.259700  1.0  -0.0337
  C  C63  1  0.374000  0.119000  0.344800  1.0  -0.1234
  C  C64  1  0.480100  0.922900  0.277300  1.0  -0.1716
  C  C65  1  0.426900  0.023300  0.133500  1.0  0.7228
  C  C66  1  0.426900  0.020700  0.396200  1.0  -0.1576
  C  C67  1  0.487900  0.640100  0.403800  1.0  0.1422
  C  C68  1  0.581400  0.716200  0.389000  1.0  -0.0059
  C  C69  1  0.380300  0.649900  0.464300  1.0  -0.222
  C  C70  1  0.505100  0.553300  0.360600  1.0  -0.2387
  C  C71  1  0.417700  0.482900  0.377100  1.0  0.1917
  C  C72  1  0.297500  0.577300  0.476500  1.0  0.1757
  C  C73  1  0.023200  0.426800  0.726200  1.0  -0.1272
  C  C74  1  0.921600  0.482000  0.862400  1.0  0.2059
  C  C75  1  0.222200  0.310800  0.883300  1.0  0.6244
  C  C76  1  0.120500  0.373100  0.759700  1.0  -0.0354
  C  C77  1  0.119000  0.374000  0.844800  1.0  -0.1237
  C  C78  1  0.922900  0.480100  0.777300  1.0  -0.1742
  C  C79  1  0.023300  0.426900  0.633500  1.0  0.7222
  C  C80  1  0.020700  0.426900  0.896200  1.0  -0.1565
  C  C81  1  0.640100  0.487900  0.903800  1.0  0.1413
  C  C82  1  0.716200  0.581400  0.889000  1.0  -0.0062
  C  C83  1  0.649900  0.380300  0.964300  1.0  -0.2232
  C  C84  1  0.553300  0.505100  0.860600  1.0  -0.2387
  C  C85  1  0.482900  0.417700  0.877100  1.0  0.1912
  C  C86  1  0.577300  0.297500  0.976500  1.0  0.1738
  C  C87  1  0.573200  0.976800  0.773800  1.0  -0.1298
  C  C88  1  0.518000  0.078400  0.637600  1.0  0.2069
  C  C89  1  0.689200  0.777800  0.616700  1.0  0.6276
  C  C90  1  0.626900  0.879500  0.740300  1.0  -0.0334
  C  C91  1  0.626000  0.881000  0.655200  1.0  -0.1232
  C  C92  1  0.519900  0.077100  0.722700  1.0  -0.1738
  C  C93  1  0.573100  0.976700  0.866500  1.0  0.7236
  C  C94  1  0.573100  0.979300  0.603800  1.0  -0.1579
  C  C95  1  0.512100  0.359900  0.596200  1.0  0.1422
  C  C96  1  0.418600  0.283800  0.611000  1.0  -0.006
  C  C97  1  0.619700  0.350100  0.535700  1.0  -0.2215
  C  C98  1  0.494900  0.446700  0.639400  1.0  -0.2386
  C  C99  1  0.582300  0.517100  0.622900  1.0  0.1921
  C  C100  1  0.702500  0.422700  0.523500  1.0  0.1747
  N  N101  1  0.173600  0.461800  0.085800  1.0  -0.3803
  N  N102  1  0.505300  0.686500  0.068300  1.0  -0.3658
  N  N103  1  0.538200  0.826400  0.414200  1.0  -0.3821
  N  N104  1  0.313500  0.494700  0.431700  1.0  -0.3654
  N  N105  1  0.826400  0.538200  0.914200  1.0  -0.3821
  N  N106  1  0.494700  0.313500  0.931700  1.0  -0.3664
  N  N107  1  0.461800  0.173600  0.585800  1.0  -0.3823
  N  N108  1  0.686500  0.505300  0.568300  1.0  -0.3663
  O  O109  1  0.689000  0.737400  0.163800  1.0  -0.5863
  O  O110  1  0.784900  0.696100  0.036300  1.0  -0.6031
  O  O111  1  0.069100  0.536700  0.392100  1.0  -0.6299
  O  O112  1  0.879600  0.613400  0.412400  1.0  -0.6098
  O  O113  1  0.262600  0.311000  0.336200  1.0  -0.5862
  O  O114  1  0.303900  0.215100  0.463700  1.0  -0.6009
  O  O115  1  0.463300  0.930900  0.107900  1.0  -0.6327
  O  O116  1  0.386600  0.120400  0.087600  1.0  -0.6096
  O  O117  1  0.311000  0.262600  0.836200  1.0  -0.5869
  O  O118  1  0.215100  0.303900  0.963700  1.0  -0.6035
  O  O119  1  0.930900  0.463300  0.607900  1.0  -0.6301
  O  O120  1  0.120400  0.386600  0.587600  1.0  -0.6086
  O  O121  1  0.737400  0.689000  0.663800  1.0  -0.5858
  O  O122  1  0.696100  0.784900  0.536300  1.0  -0.602
  O  O123  1  0.536700  0.069100  0.892100  1.0  -0.6332
  O  O124  1  0.613400  0.879600  0.912400  1.0  -0.6095
