# generated using pymatgen
data_MnH10C14(NO2)2
_symmetry_space_group_name_H-M   'P 1'
_cell_length_a   11.88500000
_cell_length_b   11.88500000
_cell_length_c   16.34400000
_cell_angle_alpha   73.48310000
_cell_angle_beta   73.48310000
_cell_angle_gamma   78.51000000
_symmetry_Int_Tables_number   1
_chemical_formula_structural   MnH10C14(NO2)2
_chemical_formula_sum   'Mn4 H40 C56 N8 O16'
_cell_volume   2104.37573053
_cell_formula_units_Z   4
loop_
 _symmetry_equiv_pos_site_id
 _symmetry_equiv_pos_as_xyz
  1  'x, y, z'
loop_
 _atom_site_type_symbol
 _atom_site_label
 _atom_site_symmetry_multiplicity
 _atom_site_fract_x
 _atom_site_fract_y
 _atom_site_fract_z
 _atom_site_occupancy
 _atom_site_charge
  Mn  Mn1  1  0.332500  0.115380  0.547060  1.0  1.026
  Mn  Mn2  1  0.884620  0.667500  0.952940  1.0  1.0281
  Mn  Mn3  1  0.667500  0.884620  0.452940  1.0  1.027
  Mn  Mn4  1  0.115380  0.332500  0.047060  1.0  1.0272
  H  H5  1  0.952700  0.664700  0.536800  1.0  0.2811
  H  H6  1  0.987100  0.642300  0.744900  1.0  0.1052
  H  H7  1  0.163800  0.313000  0.774600  1.0  0.0949
  H  H8  1  0.075200  0.479800  0.546400  1.0  0.11
  H  H9  1  0.877600  0.766400  0.671800  1.0  0.0961
  H  H10  1  0.861900  0.827300  0.576600  1.0  0.1006
  H  H11  1  0.134200  0.795000  0.499700  1.0  0.1307
  H  H12  1  0.922200  0.959600  0.679200  1.0  0.1328
  H  H13  1  0.067900  0.073700  0.654600  1.0  0.0643
  H  H14  1  0.274300  0.913100  0.482100  1.0  0.0759
  H  H15  1  0.335300  0.047300  0.963200  1.0  0.2806
  H  H16  1  0.357700  0.012900  0.755100  1.0  0.1047
  H  H17  1  0.687000  0.836200  0.725400  1.0  0.0951
  H  H18  1  0.520200  0.924800  0.953600  1.0  0.1103
  H  H19  1  0.233600  0.122400  0.828200  1.0  0.0973
  H  H20  1  0.172700  0.138100  0.923400  1.0  0.1004
  H  H21  1  0.205000  0.865800  0.000300  1.0  0.1301
  H  H22  1  0.040400  0.077800  0.820800  1.0  0.1343
  H  H23  1  0.926300  0.932100  0.845400  1.0  0.0642
  H  H24  1  0.086900  0.725700  0.017900  1.0  0.0755
  H  H25  1  0.047300  0.335300  0.463200  1.0  0.2795
  H  H26  1  0.012900  0.357700  0.255100  1.0  0.1047
  H  H27  1  0.836200  0.687000  0.225400  1.0  0.0951
  H  H28  1  0.924800  0.520200  0.453600  1.0  0.1106
  H  H29  1  0.122400  0.233600  0.328200  1.0  0.0968
  H  H30  1  0.138100  0.172700  0.423400  1.0  0.0996
  H  H31  1  0.865800  0.205000  0.500300  1.0  0.1301
  H  H32  1  0.077800  0.040400  0.320800  1.0  0.1327
  H  H33  1  0.932100  0.926300  0.345400  1.0  0.0638
  H  H34  1  0.725700  0.086900  0.517900  1.0  0.0756
  H  H35  1  0.664700  0.952700  0.036800  1.0  0.2832
  H  H36  1  0.642300  0.987100  0.244900  1.0  0.1052
  H  H37  1  0.313000  0.163800  0.274600  1.0  0.0943
  H  H38  1  0.479800  0.075200  0.046400  1.0  0.1098
  H  H39  1  0.766400  0.877600  0.171800  1.0  0.0961
  H  H40  1  0.827300  0.861900  0.076600  1.0  0.0997
  H  H41  1  0.795000  0.134200  0.999700  1.0  0.1302
  H  H42  1  0.959600  0.922200  0.179200  1.0  0.134
  H  H43  1  0.073700  0.067900  0.154600  1.0  0.0644
  H  H44  1  0.913100  0.274300  0.982100  1.0  0.0764
  C  C45  1  0.018300  0.578300  0.636500  1.0  0.2069
  C  C46  1  0.074500  0.475700  0.774400  1.0  -0.1341
  C  C47  1  0.189800  0.277600  0.616400  1.0  0.6248
  C  C48  1  0.126300  0.380700  0.655200  1.0  -0.1108
  C  C49  1  0.021000  0.576400  0.722300  1.0  -0.1585
  C  C50  1  0.127400  0.379000  0.740600  1.0  -0.0468
  C  C51  1  0.013400  0.858600  0.595800  1.0  0.1314
  C  C52  1  0.073400  0.475400  0.866500  1.0  0.7099
  C  C53  1  0.073700  0.479300  0.603700  1.0  -0.1653
  C  C54  1  0.918800  0.782800  0.610000  1.0  0.0009
  C  C55  1  0.119200  0.849400  0.533900  1.0  -0.2361
  C  C56  1  0.994100  0.946500  0.639500  1.0  -0.2333
  C  C57  1  0.082800  0.015400  0.623700  1.0  0.1921
  C  C58  1  0.202600  0.922000  0.523200  1.0  0.1811
  C  C59  1  0.421700  0.981700  0.863500  1.0  0.2055
  C  C60  1  0.524300  0.925500  0.725600  1.0  -0.1321
  C  C61  1  0.722400  0.810200  0.883600  1.0  0.6226
  C  C62  1  0.619300  0.873700  0.844800  1.0  -0.1113
  C  C63  1  0.423600  0.979000  0.777700  1.0  -0.1577
  C  C64  1  0.621000  0.872600  0.759400  1.0  -0.05
  C  C65  1  0.141400  0.986600  0.904200  1.0  0.1302
  C  C66  1  0.524600  0.926600  0.633500  1.0  0.7124
  C  C67  1  0.520700  0.926300  0.896300  1.0  -0.1646
  C  C68  1  0.217200  0.081200  0.890000  1.0  -1e-04
  C  C69  1  0.150600  0.880800  0.966100  1.0  -0.2381
  C  C70  1  0.053500  0.005900  0.860500  1.0  -0.2331
  C  C71  1  0.984600  0.917200  0.876300  1.0  0.1918
  C  C72  1  0.078000  0.797400  0.976800  1.0  0.1803
  C  C73  1  0.981700  0.421700  0.363500  1.0  0.2065
  C  C74  1  0.925500  0.524300  0.225600  1.0  -0.1339
  C  C75  1  0.810200  0.722400  0.383600  1.0  0.6251
  C  C76  1  0.873700  0.619300  0.344800  1.0  -0.1113
  C  C77  1  0.979000  0.423600  0.277700  1.0  -0.1565
  C  C78  1  0.872600  0.621000  0.259400  1.0  -0.0483
  C  C79  1  0.986600  0.141400  0.404200  1.0  0.1313
  C  C80  1  0.926600  0.524600  0.133500  1.0  0.7137
  C  C81  1  0.926300  0.520700  0.396300  1.0  -0.1647
  C  C82  1  0.081200  0.217200  0.390000  1.0  0.0005
  C  C83  1  0.880800  0.150600  0.466100  1.0  -0.2358
  C  C84  1  0.005900  0.053500  0.360500  1.0  -0.2331
  C  C85  1  0.917200  0.984600  0.376300  1.0  0.1916
  C  C86  1  0.797400  0.078000  0.476800  1.0  0.1809
  C  C87  1  0.578300  0.018300  0.136500  1.0  0.2055
  C  C88  1  0.475700  0.074500  0.274400  1.0  -0.1326
  C  C89  1  0.277600  0.189800  0.116400  1.0  0.6216
  C  C90  1  0.380700  0.126300  0.155200  1.0  -0.1107
  C  C91  1  0.576400  0.021000  0.222300  1.0  -0.1568
  C  C92  1  0.379000  0.127400  0.240600  1.0  -0.0508
  C  C93  1  0.858600  0.013400  0.095800  1.0  0.1308
  C  C94  1  0.475400  0.073400  0.366500  1.0  0.709
  C  C95  1  0.479300  0.073700  0.103700  1.0  -0.1643
  C  C96  1  0.782800  0.918800  0.110000  1.0  -0.0008
  C  C97  1  0.849400  0.119200  0.033900  1.0  -0.2361
  C  C98  1  0.946500  0.994100  0.139500  1.0  -0.2339
  C  C99  1  0.015400  0.082800  0.123700  1.0  0.192
  C  C100  1  0.922000  0.202600  0.023200  1.0  0.18
  N  N101  1  0.186300  0.004500  0.568500  1.0  -0.3588
  N  N102  1  0.962200  0.672200  0.585100  1.0  -0.3772
  N  N103  1  0.995500  0.813700  0.931500  1.0  -0.3582
  N  N104  1  0.327800  0.037800  0.914900  1.0  -0.3767
  N  N105  1  0.813700  0.995500  0.431500  1.0  -0.3578
  N  N106  1  0.037800  0.327800  0.414900  1.0  -0.3768
  N  N107  1  0.004500  0.186300  0.068500  1.0  -0.3584
  N  N108  1  0.672200  0.962200  0.085100  1.0  -0.3759
  O  O109  1  0.237500  0.188300  0.664400  1.0  -0.5983
  O  O110  1  0.197200  0.282800  0.536900  1.0  -0.598
  O  O111  1  0.114400  0.380000  0.911200  1.0  -0.6019
  O  O112  1  0.037700  0.569900  0.891400  1.0  -0.6441
  O  O113  1  0.811700  0.762500  0.835600  1.0  -0.5988
  O  O114  1  0.717200  0.802800  0.963100  1.0  -0.6002
  O  O115  1  0.620000  0.885600  0.588800  1.0  -0.6024
  O  O116  1  0.430100  0.962300  0.608600  1.0  -0.6412
  O  O117  1  0.762500  0.811700  0.335600  1.0  -0.5975
  O  O118  1  0.802800  0.717200  0.463100  1.0  -0.5996
  O  O119  1  0.885600  0.620000  0.088800  1.0  -0.6015
  O  O120  1  0.962300  0.430100  0.108600  1.0  -0.6442
  O  O121  1  0.188300  0.237500  0.164400  1.0  -0.5981
  O  O122  1  0.282800  0.197200  0.036900  1.0  -0.6007
  O  O123  1  0.380000  0.114400  0.411200  1.0  -0.6022
  O  O124  1  0.569900  0.037700  0.391400  1.0  -0.6421
