# generated using pymatgen
data_MnH10C14(NO2)2
_symmetry_space_group_name_H-M   'P 1'
_cell_length_a   11.83260000
_cell_length_b   11.83260000
_cell_length_c   16.44400000
_cell_angle_alpha   73.15830000
_cell_angle_beta   73.15830000
_cell_angle_gamma   78.86840000
_symmetry_Int_Tables_number   1
_chemical_formula_structural   MnH10C14(NO2)2
_chemical_formula_sum   'Mn4 H40 C56 N8 O16'
_cell_volume   2094.05096040
_cell_formula_units_Z   4
loop_
 _symmetry_equiv_pos_site_id
 _symmetry_equiv_pos_as_xyz
  1  'x, y, z'
loop_
 _atom_site_type_symbol
 _atom_site_label
 _atom_site_symmetry_multiplicity
 _atom_site_fract_x
 _atom_site_fract_y
 _atom_site_fract_z
 _atom_site_occupancy
 _atom_site_charge
  Mn  Mn1  1  0.836110  0.619850  0.044140  1.0  1.0285
  Mn  Mn2  1  0.380150  0.163890  0.455860  1.0  1.0307
  Mn  Mn3  1  0.163890  0.380150  0.955860  1.0  1.0293
  Mn  Mn4  1  0.619850  0.836110  0.544140  1.0  1.0296
  H  H5  1  0.664500  0.813500  0.273100  1.0  0.0951
  H  H6  1  0.451900  0.166500  0.038200  1.0  0.277
  H  H7  1  0.572300  0.981300  0.047800  1.0  0.1116
  H  H8  1  0.374200  0.267800  0.172500  1.0  0.0929
  H  H9  1  0.361700  0.329900  0.077000  1.0  0.1033
  H  H10  1  0.484600  0.140000  0.247200  1.0  0.1064
  H  H11  1  0.639000  0.288600  0.009800  1.0  0.13
  H  H12  1  0.421800  0.463200  0.177300  1.0  0.1198
  H  H13  1  0.774600  0.416000  0.984200  1.0  0.0755
  H  H14  1  0.564900  0.583300  0.149200  1.0  0.0681
  H  H15  1  0.186500  0.335500  0.226900  1.0  0.0953
  H  H16  1  0.833500  0.548100  0.461800  1.0  0.2773
  H  H17  1  0.018700  0.427700  0.452200  1.0  0.1119
  H  H18  1  0.732200  0.625800  0.327500  1.0  0.0947
  H  H19  1  0.670100  0.638300  0.423000  1.0  0.1041
  H  H20  1  0.860000  0.515400  0.252800  1.0  0.1056
  H  H21  1  0.711400  0.361000  0.490200  1.0  0.1302
  H  H22  1  0.536800  0.578200  0.322700  1.0  0.1215
  H  H23  1  0.584000  0.225400  0.515800  1.0  0.0749
  H  H24  1  0.416700  0.435100  0.350800  1.0  0.0679
  H  H25  1  0.335500  0.186500  0.726900  1.0  0.0953
  H  H26  1  0.548100  0.833500  0.961800  1.0  0.2761
  H  H27  1  0.427700  0.018700  0.952200  1.0  0.1118
  H  H28  1  0.625800  0.732200  0.827500  1.0  0.0942
  H  H29  1  0.638300  0.670100  0.923000  1.0  0.1024
  H  H30  1  0.515400  0.860000  0.752800  1.0  0.1059
  H  H31  1  0.361000  0.711400  0.990200  1.0  0.1305
  H  H32  1  0.578200  0.536800  0.822700  1.0  0.1204
  H  H33  1  0.225400  0.584000  0.015800  1.0  0.075
  H  H34  1  0.435100  0.416700  0.850800  1.0  0.068
  H  H35  1  0.813500  0.664500  0.773100  1.0  0.0946
  H  H36  1  0.166500  0.451900  0.538200  1.0  0.2789
  H  H37  1  0.981300  0.572300  0.547800  1.0  0.1118
  H  H38  1  0.267800  0.374200  0.672500  1.0  0.093
  H  H39  1  0.329900  0.361700  0.577000  1.0  0.103
  H  H40  1  0.140000  0.484600  0.747200  1.0  0.1065
  H  H41  1  0.288600  0.639000  0.509800  1.0  0.1308
  H  H42  1  0.463200  0.421800  0.677300  1.0  0.1213
  H  H43  1  0.416000  0.774600  0.484200  1.0  0.0754
  H  H44  1  0.583300  0.564900  0.649200  1.0  0.0683
  C  C45  1  0.570700  0.973700  0.274600  1.0  -0.1373
  C  C46  1  0.515700  0.077700  0.138200  1.0  0.202
  C  C47  1  0.628800  0.882600  0.153400  1.0  -0.1328
  C  C48  1  0.627200  0.879400  0.239600  1.0  -0.0404
  C  C49  1  0.569700  0.972700  0.366700  1.0  0.7215
  C  C50  1  0.693500  0.782700  0.114600  1.0  0.6427
  C  C51  1  0.513000  0.359800  0.098300  1.0  0.1327
  C  C52  1  0.572400  0.980400  0.104500  1.0  -0.162
  C  C53  1  0.417400  0.284600  0.111200  1.0  -0.0076
  C  C54  1  0.518200  0.074600  0.224200  1.0  -0.158
  C  C55  1  0.621200  0.347600  0.040100  1.0  -0.2229
  C  C56  1  0.494500  0.449500  0.138300  1.0  -0.23
  C  C57  1  0.703800  0.423400  0.026600  1.0  0.1792
  C  C58  1  0.582600  0.521200  0.121900  1.0  0.1882
  C  C59  1  0.026300  0.429300  0.225400  1.0  -0.1349
  C  C60  1  0.922300  0.484300  0.361800  1.0  0.2009
  C  C61  1  0.117400  0.371200  0.346600  1.0  -0.1336
  C  C62  1  0.120600  0.372800  0.260400  1.0  -0.0424
  C  C63  1  0.027300  0.430300  0.133300  1.0  0.724
  C  C64  1  0.217300  0.306500  0.385400  1.0  0.6404
  C  C65  1  0.640200  0.487000  0.401700  1.0  0.1304
  C  C66  1  0.019600  0.427600  0.395500  1.0  -0.1635
  C  C67  1  0.715400  0.582600  0.388800  1.0  -0.009
  C  C68  1  0.925400  0.481800  0.275800  1.0  -0.1585
  C  C69  1  0.652400  0.378800  0.459900  1.0  -0.2246
  C  C70  1  0.550500  0.505500  0.361700  1.0  -0.2304
  C  C71  1  0.576600  0.296200  0.473400  1.0  0.1789
  C  C72  1  0.478800  0.417400  0.378100  1.0  0.1879
  C  C73  1  0.429300  0.026300  0.725400  1.0  -0.1359
  C  C74  1  0.484300  0.922300  0.861800  1.0  0.2018
  C  C75  1  0.371200  0.117400  0.846600  1.0  -0.1326
  C  C76  1  0.372800  0.120600  0.760400  1.0  -0.0421
  C  C77  1  0.430300  0.027300  0.633300  1.0  0.7242
  C  C78  1  0.306500  0.217300  0.885400  1.0  0.642
  C  C79  1  0.487000  0.640200  0.901700  1.0  0.1319
  C  C80  1  0.427600  0.019600  0.895500  1.0  -0.1627
  C  C81  1  0.582600  0.715400  0.888800  1.0  -0.0086
  C  C82  1  0.481800  0.925400  0.775800  1.0  -0.1561
  C  C83  1  0.378800  0.652400  0.959900  1.0  -0.2237
  C  C84  1  0.505500  0.550500  0.861700  1.0  -0.2295
  C  C85  1  0.296200  0.576600  0.973400  1.0  0.1783
  C  C86  1  0.417400  0.478800  0.878100  1.0  0.188
  C  C87  1  0.973700  0.570700  0.774600  1.0  -0.1352
  C  C88  1  0.077700  0.515700  0.638200  1.0  0.2016
  C  C89  1  0.882600  0.628800  0.653400  1.0  -0.1332
  C  C90  1  0.879400  0.627200  0.739600  1.0  -0.0436
  C  C91  1  0.972700  0.569700  0.866700  1.0  0.7211
  C  C92  1  0.782700  0.693500  0.614600  1.0  0.6408
  C  C93  1  0.359800  0.513000  0.598300  1.0  0.1308
  C  C94  1  0.980400  0.572400  0.604500  1.0  -0.1614
  C  C95  1  0.284600  0.417400  0.611200  1.0  -0.0112
  C  C96  1  0.074600  0.518200  0.724200  1.0  -0.1579
  C  C97  1  0.347600  0.621200  0.540100  1.0  -0.2242
  C  C98  1  0.449500  0.494500  0.638300  1.0  -0.2299
  C  C99  1  0.423400  0.703800  0.526600  1.0  0.1778
  C  C100  1  0.521200  0.582600  0.621900  1.0  0.1883
  N  N101  1  0.688700  0.506900  0.070500  1.0  -0.3608
  N  N102  1  0.460700  0.173300  0.086600  1.0  -0.3757
  N  N103  1  0.493100  0.311300  0.429500  1.0  -0.3623
  N  N104  1  0.826700  0.539300  0.413400  1.0  -0.3757
  N  N105  1  0.311300  0.493100  0.929500  1.0  -0.3609
  N  N106  1  0.539300  0.826700  0.913400  1.0  -0.3753
  N  N107  1  0.506900  0.688700  0.570500  1.0  -0.3619
  N  N108  1  0.173300  0.460700  0.586600  1.0  -0.3749
  O  O109  1  0.744300  0.692900  0.160700  1.0  -0.5879
  O  O110  1  0.699500  0.788100  0.035100  1.0  -0.6121
  O  O111  1  0.615700  0.877700  0.410900  1.0  -0.6069
  O  O112  1  0.529100  0.064700  0.392900  1.0  -0.636
  O  O113  1  0.307100  0.255700  0.339300  1.0  -0.5889
  O  O114  1  0.211900  0.300500  0.464900  1.0  -0.615
  O  O115  1  0.122300  0.384300  0.089100  1.0  -0.607
  O  O116  1  0.935300  0.470900  0.107100  1.0  -0.6329
  O  O117  1  0.255700  0.307100  0.839300  1.0  -0.5891
  O  O118  1  0.300500  0.211900  0.964900  1.0  -0.6132
  O  O119  1  0.384300  0.122300  0.589100  1.0  -0.6065
  O  O120  1  0.470900  0.935300  0.607100  1.0  -0.6363
  O  O121  1  0.692900  0.744300  0.660700  1.0  -0.5877
  O  O122  1  0.788100  0.699500  0.535100  1.0  -0.6154
  O  O123  1  0.877700  0.615700  0.910900  1.0  -0.6092
  O  O124  1  0.064700  0.529100  0.892900  1.0  -0.6327
