# generated using pymatgen
data_MnH10C14(NO2)2
_symmetry_space_group_name_H-M   'P 1'
_cell_length_a   11.86470000
_cell_length_b   11.86470000
_cell_length_c   16.34300000
_cell_angle_alpha   73.31140000
_cell_angle_beta   73.31140000
_cell_angle_gamma   78.75110000
_symmetry_Int_Tables_number   1
_chemical_formula_structural   MnH10C14(NO2)2
_chemical_formula_sum   'Mn4 H40 C56 N8 O16'
_cell_volume   2094.94070289
_cell_formula_units_Z   4
loop_
 _symmetry_equiv_pos_site_id
 _symmetry_equiv_pos_as_xyz
  1  'x, y, z'
loop_
 _atom_site_type_symbol
 _atom_site_label
 _atom_site_symmetry_multiplicity
 _atom_site_fract_x
 _atom_site_fract_y
 _atom_site_fract_z
 _atom_site_occupancy
 _atom_site_charge
  Mn  Mn1  1  0.833280  0.615700  0.546880  1.0  1.0285
  Mn  Mn2  1  0.384300  0.166720  0.953120  1.0  1.0307
  Mn  Mn3  1  0.166720  0.384300  0.453120  1.0  1.029
  Mn  Mn4  1  0.615700  0.833280  0.046880  1.0  1.0299
  H  H5  1  0.165200  0.453200  0.036600  1.0  0.2817
  H  H6  1  0.812700  0.663500  0.274800  1.0  0.0943
  H  H7  1  0.141300  0.485300  0.245200  1.0  0.104
  H  H8  1  0.326300  0.361900  0.076200  1.0  0.0935
  H  H9  1  0.265200  0.376400  0.171700  1.0  0.0877
  H  H10  1  0.979600  0.576800  0.045800  1.0  0.1133
  H  H11  1  0.457300  0.422500  0.180100  1.0  0.1339
  H  H12  1  0.293100  0.637100  0.001500  1.0  0.1328
  H  H13  1  0.575700  0.565700  0.152600  1.0  0.0648
  H  H14  1  0.410900  0.775500  0.984400  1.0  0.0759
  H  H15  1  0.546800  0.834800  0.463400  1.0  0.2779
  H  H16  1  0.336500  0.187300  0.225200  1.0  0.0949
  H  H17  1  0.514700  0.858700  0.254800  1.0  0.1036
  H  H18  1  0.638100  0.673700  0.423800  1.0  0.0939
  H  H19  1  0.623600  0.734800  0.328300  1.0  0.0886
  H  H20  1  0.423200  0.020400  0.454200  1.0  0.113
  H  H21  1  0.577500  0.542700  0.319900  1.0  0.1328
  H  H22  1  0.362900  0.706900  0.498500  1.0  0.1322
  H  H23  1  0.434300  0.424300  0.347400  1.0  0.065
  H  H24  1  0.224500  0.589100  0.515600  1.0  0.0745
  H  H25  1  0.834800  0.546800  0.963400  1.0  0.2791
  H  H26  1  0.187300  0.336500  0.725200  1.0  0.095
  H  H27  1  0.858700  0.514700  0.754800  1.0  0.1034
  H  H28  1  0.673700  0.638100  0.923800  1.0  0.0946
  H  H29  1  0.734800  0.623600  0.828300  1.0  0.0889
  H  H30  1  0.020400  0.423200  0.954200  1.0  0.1129
  H  H31  1  0.542700  0.577500  0.819900  1.0  0.1347
  H  H32  1  0.706900  0.362900  0.998500  1.0  0.1323
  H  H33  1  0.424300  0.434300  0.847400  1.0  0.0648
  H  H34  1  0.589100  0.224500  0.015600  1.0  0.0747
  H  H35  1  0.453200  0.165200  0.536600  1.0  0.2797
  H  H36  1  0.663500  0.812700  0.774800  1.0  0.0952
  H  H37  1  0.485300  0.141300  0.745200  1.0  0.1042
  H  H38  1  0.361900  0.326300  0.576200  1.0  0.0944
  H  H39  1  0.376400  0.265200  0.671700  1.0  0.088
  H  H40  1  0.576800  0.979600  0.545800  1.0  0.1129
  H  H41  1  0.422500  0.457300  0.680100  1.0  0.1331
  H  H42  1  0.637100  0.293100  0.501500  1.0  0.1329
  H  H43  1  0.565700  0.575700  0.652600  1.0  0.0648
  H  H44  1  0.775500  0.410900  0.484400  1.0  0.0752
  C  C45  1  0.975800  0.574200  0.274200  1.0  -0.1303
  C  C46  1  0.077800  0.517800  0.136200  1.0  0.2052
  C  C47  1  0.880600  0.627200  0.154800  1.0  -0.1201
  C  C48  1  0.878800  0.627600  0.240600  1.0  -0.0468
  C  C49  1  0.777600  0.690800  0.116600  1.0  0.623
  C  C50  1  0.358500  0.512700  0.096300  1.0  0.1442
  C  C51  1  0.075800  0.520000  0.222400  1.0  -0.1701
  C  C52  1  0.975600  0.573800  0.366100  1.0  0.7131
  C  C53  1  0.282100  0.418500  0.110000  1.0  -0.0039
  C  C54  1  0.979100  0.574500  0.103300  1.0  -0.1625
  C  C55  1  0.445300  0.494100  0.139500  1.0  -0.2357
  C  C56  1  0.348400  0.621000  0.035000  1.0  -0.235
  C  C57  1  0.515900  0.582100  0.123100  1.0  0.1931
  C  C58  1  0.420500  0.703100  0.024800  1.0  0.1782
  C  C59  1  0.425800  0.024200  0.225800  1.0  -0.132
  C  C60  1  0.482200  0.922200  0.363800  1.0  0.2061
  C  C61  1  0.372800  0.119400  0.345200  1.0  -0.1197
  C  C62  1  0.372400  0.121200  0.259400  1.0  -0.0454
  C  C63  1  0.309200  0.222400  0.383400  1.0  0.6262
  C  C64  1  0.487300  0.641500  0.403700  1.0  0.1449
  C  C65  1  0.480000  0.924200  0.277600  1.0  -0.1689
  C  C66  1  0.426200  0.024400  0.133900  1.0  0.716
  C  C67  1  0.581500  0.717900  0.390000  1.0  -0.0014
  C  C68  1  0.425500  0.020900  0.396700  1.0  -0.1639
  C  C69  1  0.505900  0.554700  0.360500  1.0  -0.2338
  C  C70  1  0.379000  0.651600  0.465000  1.0  -0.2339
  C  C71  1  0.417900  0.484100  0.376900  1.0  0.1926
  C  C72  1  0.296900  0.579500  0.475200  1.0  0.1791
  C  C73  1  0.024200  0.425800  0.725800  1.0  -0.1302
  C  C74  1  0.922200  0.482200  0.863800  1.0  0.2052
  C  C75  1  0.119400  0.372800  0.845200  1.0  -0.1201
  C  C76  1  0.121200  0.372400  0.759400  1.0  -0.0468
  C  C77  1  0.222400  0.309200  0.883400  1.0  0.6233
  C  C78  1  0.641500  0.487300  0.903700  1.0  0.1442
  C  C79  1  0.924200  0.480000  0.777600  1.0  -0.1701
  C  C80  1  0.024400  0.426200  0.633900  1.0  0.7154
  C  C81  1  0.717900  0.581500  0.890000  1.0  -0.0018
  C  C82  1  0.020900  0.425500  0.896700  1.0  -0.1633
  C  C83  1  0.554700  0.505900  0.860500  1.0  -0.2342
  C  C84  1  0.651600  0.379000  0.965000  1.0  -0.2367
  C  C85  1  0.484100  0.417900  0.876900  1.0  0.1927
  C  C86  1  0.579500  0.296900  0.975200  1.0  0.1787
  C  C87  1  0.574200  0.975800  0.774200  1.0  -0.1323
  C  C88  1  0.517800  0.077800  0.636200  1.0  0.206
  C  C89  1  0.627200  0.880600  0.654800  1.0  -0.1198
  C  C90  1  0.627600  0.878800  0.740600  1.0  -0.0451
  C  C91  1  0.690800  0.777600  0.616600  1.0  0.6264
  C  C92  1  0.512700  0.358500  0.596300  1.0  0.1454
  C  C93  1  0.520000  0.075800  0.722400  1.0  -0.1708
  C  C94  1  0.573800  0.975600  0.866100  1.0  0.714
  C  C95  1  0.418500  0.282100  0.610000  1.0  -0.0019
  C  C96  1  0.574500  0.979100  0.603300  1.0  -0.1634
  C  C97  1  0.494100  0.445300  0.639500  1.0  -0.2351
  C  C98  1  0.621000  0.348400  0.535000  1.0  -0.235
  C  C99  1  0.582100  0.515900  0.623100  1.0  0.1928
  C  C100  1  0.703100  0.420500  0.524800  1.0  0.1804
  N  N101  1  0.172200  0.462200  0.085300  1.0  -0.3658
  N  N102  1  0.504500  0.687300  0.068800  1.0  -0.3684
  N  N103  1  0.537800  0.827800  0.414700  1.0  -0.3667
  N  N104  1  0.312700  0.495500  0.431200  1.0  -0.3677
  N  N105  1  0.827800  0.537800  0.914700  1.0  -0.3663
  N  N106  1  0.495500  0.312700  0.931200  1.0  -0.3689
  N  N107  1  0.462200  0.172200  0.585300  1.0  -0.3672
  N  N108  1  0.687300  0.504500  0.568800  1.0  -0.3681
  O  O109  1  0.688500  0.738900  0.163800  1.0  -0.5875
  O  O110  1  0.784000  0.697800  0.036000  1.0  -0.6018
  O  O111  1  0.879500  0.613500  0.411900  1.0  -0.6002
  O  O112  1  0.069400  0.536200  0.391400  1.0  -0.6439
  O  O113  1  0.261100  0.311500  0.336200  1.0  -0.5874
  O  O114  1  0.302200  0.216000  0.464000  1.0  -0.6001
  O  O115  1  0.386500  0.120500  0.088100  1.0  -0.5997
  O  O116  1  0.463800  0.930600  0.108600  1.0  -0.6465
  O  O117  1  0.311500  0.261100  0.836200  1.0  -0.5881
  O  O118  1  0.216000  0.302200  0.964000  1.0  -0.6024
  O  O119  1  0.120500  0.386500  0.588100  1.0  -0.5995
  O  O120  1  0.930600  0.463800  0.608600  1.0  -0.6429
  O  O121  1  0.738900  0.688500  0.663800  1.0  -0.5874
  O  O122  1  0.697800  0.784000  0.536000  1.0  -0.6008
  O  O123  1  0.613500  0.879500  0.911900  1.0  -0.5998
  O  O124  1  0.536200  0.069400  0.891400  1.0  -0.646
