# generated using pymatgen
data_MnH10C14(NO2)2
_symmetry_space_group_name_H-M   'P 1'
_cell_length_a   11.87600000
_cell_length_b   11.87600000
_cell_length_c   16.34100000
_cell_angle_alpha   73.36070000
_cell_angle_beta   73.36070000
_cell_angle_gamma   78.38130000
_symmetry_Int_Tables_number   1
_chemical_formula_structural   MnH10C14(NO2)2
_chemical_formula_sum   'Mn4 H40 C56 N8 O16'
_cell_volume   2097.77796547
_cell_formula_units_Z   4
loop_
 _symmetry_equiv_pos_site_id
 _symmetry_equiv_pos_as_xyz
  1  'x, y, z'
loop_
 _atom_site_type_symbol
 _atom_site_label
 _atom_site_symmetry_multiplicity
 _atom_site_fract_x
 _atom_site_fract_y
 _atom_site_fract_z
 _atom_site_occupancy
 _atom_site_charge
  Mn  Mn1  1  0.832440  0.615960  0.546760  1.0  1.026
  Mn  Mn2  1  0.384040  0.167560  0.953240  1.0  1.0281
  Mn  Mn3  1  0.167560  0.384040  0.453240  1.0  1.0268
  Mn  Mn4  1  0.615960  0.832440  0.046760  1.0  1.0271
  H  H5  1  0.453000  0.167000  0.537000  1.0  0.2778
  H  H6  1  0.662800  0.813400  0.773400  1.0  0.0879
  H  H7  1  0.573300  0.982100  0.547000  1.0  0.1091
  H  H8  1  0.486700  0.143700  0.744700  1.0  0.1071
  H  H9  1  0.378000  0.267000  0.672600  1.0  0.0969
  H  H10  1  0.361200  0.328400  0.577600  1.0  0.091
  H  H11  1  0.633500  0.293500  0.501800  1.0  0.1305
  H  H12  1  0.423000  0.459600  0.680400  1.0  0.1347
  H  H13  1  0.563500  0.578300  0.651800  1.0  0.0682
  H  H14  1  0.775200  0.412800  0.484100  1.0  0.0742
  H  H15  1  0.833000  0.547000  0.963000  1.0  0.278
  H  H16  1  0.186600  0.337200  0.726600  1.0  0.0875
  H  H17  1  0.017900  0.426700  0.953000  1.0  0.1094
  H  H18  1  0.856300  0.513300  0.755300  1.0  0.1072
  H  H19  1  0.733000  0.622000  0.827400  1.0  0.0975
  H  H20  1  0.671600  0.638800  0.922400  1.0  0.091
  H  H21  1  0.706500  0.366500  0.998200  1.0  0.1289
  H  H22  1  0.540400  0.577000  0.819600  1.0  0.1361
  H  H23  1  0.421700  0.436500  0.848200  1.0  0.0682
  H  H24  1  0.587200  0.224800  0.015900  1.0  0.0737
  H  H25  1  0.547000  0.833000  0.463000  1.0  0.2765
  H  H26  1  0.337200  0.186600  0.226600  1.0  0.0878
  H  H27  1  0.426700  0.017900  0.453000  1.0  0.1095
  H  H28  1  0.513300  0.856300  0.255300  1.0  0.1072
  H  H29  1  0.622000  0.733000  0.327400  1.0  0.0968
  H  H30  1  0.638800  0.671600  0.422400  1.0  0.0905
  H  H31  1  0.366500  0.706500  0.498200  1.0  0.1292
  H  H32  1  0.577000  0.540400  0.319600  1.0  0.1349
  H  H33  1  0.436500  0.421700  0.348200  1.0  0.0689
  H  H34  1  0.224800  0.587200  0.515900  1.0  0.0734
  H  H35  1  0.167000  0.453000  0.037000  1.0  0.2795
  H  H36  1  0.813400  0.662800  0.273400  1.0  0.0873
  H  H37  1  0.982100  0.573300  0.047000  1.0  0.1092
  H  H38  1  0.143700  0.486700  0.244700  1.0  0.1072
  H  H39  1  0.267000  0.378000  0.172600  1.0  0.097
  H  H40  1  0.328400  0.361200  0.077600  1.0  0.09
  H  H41  1  0.293500  0.633500  0.001800  1.0  0.1298
  H  H42  1  0.459600  0.423000  0.180400  1.0  0.1361
  H  H43  1  0.578300  0.563500  0.151800  1.0  0.0682
  H  H44  1  0.412800  0.775200  0.984100  1.0  0.0744
  C  C45  1  0.517600  0.079200  0.637400  1.0  0.2117
  C  C46  1  0.572900  0.976700  0.774500  1.0  -0.1466
  C  C47  1  0.625500  0.881500  0.654600  1.0  -0.1313
  C  C48  1  0.626300  0.879700  0.739600  1.0  -0.0367
  C  C49  1  0.690000  0.778200  0.616400  1.0  0.6325
  C  C50  1  0.572400  0.981000  0.604400  1.0  -0.1606
  C  C51  1  0.520200  0.077400  0.722300  1.0  -0.1593
  C  C52  1  0.513500  0.359700  0.595800  1.0  0.1337
  C  C53  1  0.572700  0.975700  0.866400  1.0  0.7135
  C  C54  1  0.418700  0.283900  0.610600  1.0  -0.0053
  C  C55  1  0.618100  0.348700  0.535400  1.0  -0.2301
  C  C56  1  0.494400  0.447800  0.639700  1.0  -0.2266
  C  C57  1  0.580400  0.517400  0.623000  1.0  0.1841
  C  C58  1  0.703100  0.422500  0.524700  1.0  0.1895
  C  C59  1  0.920800  0.482400  0.862600  1.0  0.2104
  C  C60  1  0.023300  0.427100  0.725500  1.0  -0.1445
  C  C61  1  0.118500  0.374500  0.845400  1.0  -0.1321
  C  C62  1  0.120300  0.373700  0.760400  1.0  -0.0381
  C  C63  1  0.221800  0.310000  0.883600  1.0  0.6298
  C  C64  1  0.019000  0.427600  0.895600  1.0  -0.1616
  C  C65  1  0.922600  0.479800  0.777700  1.0  -0.1604
  C  C66  1  0.640300  0.486500  0.904200  1.0  0.1309
  C  C67  1  0.024300  0.427300  0.633600  1.0  0.7136
  C  C68  1  0.716100  0.581300  0.889400  1.0  -0.0052
  C  C69  1  0.651300  0.381900  0.964600  1.0  -0.2305
  C  C70  1  0.552200  0.505600  0.860300  1.0  -0.2244
  C  C71  1  0.482600  0.419600  0.877000  1.0  0.1836
  C  C72  1  0.577500  0.296900  0.975300  1.0  0.1887
  C  C73  1  0.482400  0.920800  0.362600  1.0  0.211
  C  C74  1  0.427100  0.023300  0.225500  1.0  -0.1457
  C  C75  1  0.374500  0.118500  0.345400  1.0  -0.1316
  C  C76  1  0.373700  0.120300  0.260400  1.0  -0.0362
  C  C77  1  0.310000  0.221800  0.383600  1.0  0.6325
  C  C78  1  0.427600  0.019000  0.395600  1.0  -0.1604
  C  C79  1  0.479800  0.922600  0.277700  1.0  -0.1594
  C  C80  1  0.486500  0.640300  0.404200  1.0  0.1317
  C  C81  1  0.427300  0.024300  0.133600  1.0  0.715
  C  C82  1  0.581300  0.716100  0.389400  1.0  -0.0046
  C  C83  1  0.381900  0.651300  0.464600  1.0  -0.2302
  C  C84  1  0.505600  0.552200  0.360300  1.0  -0.2261
  C  C85  1  0.419600  0.482600  0.377000  1.0  0.1838
  C  C86  1  0.296900  0.577500  0.475300  1.0  0.1896
  C  C87  1  0.079200  0.517600  0.137400  1.0  0.2104
  C  C88  1  0.976700  0.572900  0.274500  1.0  -0.1453
  C  C89  1  0.881500  0.625500  0.154600  1.0  -0.1314
  C  C90  1  0.879700  0.626300  0.239600  1.0  -0.0379
  C  C91  1  0.778200  0.690000  0.116400  1.0  0.6292
  C  C92  1  0.981000  0.572400  0.104400  1.0  -0.1602
  C  C93  1  0.077400  0.520200  0.222300  1.0  -0.1601
  C  C94  1  0.359700  0.513500  0.095800  1.0  0.1309
  C  C95  1  0.975700  0.572700  0.366400  1.0  0.7127
  C  C96  1  0.283900  0.418700  0.110600  1.0  -0.0075
  C  C97  1  0.348700  0.618100  0.035400  1.0  -0.2276
  C  C98  1  0.447800  0.494400  0.139700  1.0  -0.2256
  C  C99  1  0.517400  0.580400  0.123000  1.0  0.1839
  C  C100  1  0.422500  0.703100  0.024700  1.0  0.1893
  N  N101  1  0.462000  0.174000  0.585600  1.0  -0.3791
  N  N102  1  0.687200  0.504600  0.568300  1.0  -0.3574
  N  N103  1  0.826000  0.538000  0.914400  1.0  -0.3793
  N  N104  1  0.495400  0.312800  0.931700  1.0  -0.3583
  N  N105  1  0.538000  0.826000  0.414400  1.0  -0.3794
  N  N106  1  0.312800  0.495400  0.431700  1.0  -0.3578
  N  N107  1  0.174000  0.462000  0.085600  1.0  -0.3775
  N  N108  1  0.504600  0.687200  0.068300  1.0  -0.3587
  O  O109  1  0.736900  0.689300  0.664200  1.0  -0.5859
  O  O110  1  0.696200  0.785200  0.536500  1.0  -0.5973
  O  O111  1  0.536300  0.070100  0.891700  1.0  -0.6425
  O  O112  1  0.614600  0.879800  0.911900  1.0  -0.6061
  O  O113  1  0.310700  0.263100  0.835800  1.0  -0.5869
  O  O114  1  0.214800  0.303800  0.963500  1.0  -0.5988
  O  O115  1  0.929900  0.463700  0.608300  1.0  -0.6399
  O  O116  1  0.120200  0.385400  0.588100  1.0  -0.6061
  O  O117  1  0.263100  0.310700  0.335800  1.0  -0.5862
  O  O118  1  0.303800  0.214800  0.463500  1.0  -0.5974
  O  O119  1  0.463700  0.929900  0.108300  1.0  -0.6424
  O  O120  1  0.385400  0.120200  0.088100  1.0  -0.6054
  O  O121  1  0.689300  0.736900  0.164200  1.0  -0.5865
  O  O122  1  0.785200  0.696200  0.036500  1.0  -0.5997
  O  O123  1  0.070100  0.536300  0.391700  1.0  -0.6405
  O  O124  1  0.879800  0.614600  0.411900  1.0  -0.6067
