# generated using pymatgen
data_MnH10C14(NO2)2
_symmetry_space_group_name_H-M   'P 1'
_cell_length_a   11.88450000
_cell_length_b   11.88450000
_cell_length_c   16.35700000
_cell_angle_alpha   73.45420000
_cell_angle_beta   73.45420000
_cell_angle_gamma   78.48890000
_symmetry_Int_Tables_number   1
_chemical_formula_structural   MnH10C14(NO2)2
_chemical_formula_sum   'Mn4 H40 C56 N8 O16'
_cell_volume   2105.20554274
_cell_formula_units_Z   4
loop_
 _symmetry_equiv_pos_site_id
 _symmetry_equiv_pos_as_xyz
  1  'x, y, z'
loop_
 _atom_site_type_symbol
 _atom_site_label
 _atom_site_symmetry_multiplicity
 _atom_site_fract_x
 _atom_site_fract_y
 _atom_site_fract_z
 _atom_site_occupancy
 _atom_site_charge
  Mn  Mn1  1  0.832520  0.615620  0.546780  1.0  1.0289
  Mn  Mn2  1  0.384380  0.167480  0.953220  1.0  1.0308
  Mn  Mn3  1  0.167480  0.384380  0.453220  1.0  1.0298
  Mn  Mn4  1  0.615620  0.832520  0.046780  1.0  1.0303
  H  H5  1  0.165600  0.454000  0.036400  1.0  0.2742
  H  H6  1  0.811900  0.661100  0.274800  1.0  0.0911
  H  H7  1  0.142900  0.488100  0.244800  1.0  0.1093
  H  H8  1  0.981000  0.574400  0.046800  1.0  0.1093
  H  H9  1  0.327200  0.360200  0.079200  1.0  0.1007
  H  H10  1  0.265400  0.378800  0.173500  1.0  0.1008
  H  H11  1  0.292700  0.634700  0.002100  1.0  0.1333
  H  H12  1  0.460600  0.423200  0.180100  1.0  0.1319
  H  H13  1  0.578900  0.564100  0.150900  1.0  0.0667
  H  H14  1  0.413900  0.773700  0.981900  1.0  0.0727
  H  H15  1  0.546000  0.834400  0.463600  1.0  0.2705
  H  H16  1  0.338900  0.188100  0.225200  1.0  0.0918
  H  H17  1  0.511900  0.857100  0.255200  1.0  0.1093
  H  H18  1  0.425600  0.019000  0.453200  1.0  0.1101
  H  H19  1  0.639800  0.672800  0.420800  1.0  0.1014
  H  H20  1  0.621200  0.734600  0.326500  1.0  0.101
  H  H21  1  0.365300  0.707300  0.497900  1.0  0.1326
  H  H22  1  0.576800  0.539400  0.319900  1.0  0.1308
  H  H23  1  0.435900  0.421100  0.349100  1.0  0.0672
  H  H24  1  0.226300  0.586100  0.518100  1.0  0.072
  H  H25  1  0.834400  0.546000  0.963600  1.0  0.2718
  H  H26  1  0.188100  0.338900  0.725200  1.0  0.0914
  H  H27  1  0.857100  0.511900  0.755200  1.0  0.109
  H  H28  1  0.019000  0.425600  0.953200  1.0  0.1101
  H  H29  1  0.672800  0.639800  0.920800  1.0  0.1016
  H  H30  1  0.734600  0.621200  0.826500  1.0  0.1016
  H  H31  1  0.707300  0.365300  0.997900  1.0  0.1325
  H  H32  1  0.539400  0.576800  0.819900  1.0  0.1321
  H  H33  1  0.421100  0.435900  0.849100  1.0  0.0667
  H  H34  1  0.586100  0.226300  0.018100  1.0  0.0719
  H  H35  1  0.454000  0.165600  0.536400  1.0  0.2719
  H  H36  1  0.661100  0.811900  0.774800  1.0  0.0918
  H  H37  1  0.488100  0.142900  0.744800  1.0  0.109
  H  H38  1  0.574400  0.981000  0.546800  1.0  0.1098
  H  H39  1  0.360200  0.327200  0.579200  1.0  0.1018
  H  H40  1  0.378800  0.265400  0.673500  1.0  0.1002
  H  H41  1  0.634700  0.292700  0.502100  1.0  0.1325
  H  H42  1  0.423200  0.460600  0.680100  1.0  0.1308
  H  H43  1  0.564100  0.578900  0.650900  1.0  0.0665
  H  H44  1  0.773700  0.413900  0.481900  1.0  0.0724
  C  C45  1  0.077600  0.519000  0.136400  1.0  0.2073
  C  C46  1  0.976400  0.573800  0.274000  1.0  -0.125
  C  C47  1  0.878700  0.626700  0.240300  1.0  -0.0413
  C  C48  1  0.881400  0.627800  0.154100  1.0  -0.1294
  C  C49  1  0.778400  0.690600  0.116300  1.0  0.6287
  C  C50  1  0.359900  0.512500  0.096500  1.0  0.1401
  C  C51  1  0.076800  0.521400  0.222500  1.0  -0.1627
  C  C52  1  0.975300  0.573100  0.367200  1.0  0.7183
  C  C53  1  0.980300  0.573700  0.104000  1.0  -0.1653
  C  C54  1  0.283000  0.418600  0.111500  1.0  -0.0107
  C  C55  1  0.348600  0.619200  0.035000  1.0  -0.2376
  C  C56  1  0.448200  0.494400  0.139400  1.0  -0.2313
  C  C57  1  0.518000  0.580600  0.122400  1.0  0.1824
  C  C58  1  0.422500  0.702500  0.023400  1.0  0.1855
  C  C59  1  0.481000  0.922400  0.363600  1.0  0.2068
  C  C60  1  0.426200  0.023600  0.226000  1.0  -0.1254
  C  C61  1  0.373300  0.121300  0.259700  1.0  -0.0393
  C  C62  1  0.372200  0.118600  0.345900  1.0  -0.1289
  C  C63  1  0.309400  0.221600  0.383700  1.0  0.6295
  C  C64  1  0.487500  0.640100  0.403500  1.0  0.1407
  C  C65  1  0.478600  0.923200  0.277500  1.0  -0.1608
  C  C66  1  0.426900  0.024700  0.132800  1.0  0.7195
  C  C67  1  0.426300  0.019700  0.396000  1.0  -0.1663
  C  C68  1  0.581400  0.717000  0.388500  1.0  -0.0086
  C  C69  1  0.380800  0.651400  0.465000  1.0  -0.2383
  C  C70  1  0.505600  0.551800  0.360600  1.0  -0.2316
  C  C71  1  0.419400  0.482000  0.377600  1.0  0.1825
  C  C72  1  0.297500  0.577500  0.476600  1.0  0.1854
  C  C73  1  0.922400  0.481000  0.863600  1.0  0.2066
  C  C74  1  0.023600  0.426200  0.726000  1.0  -0.1243
  C  C75  1  0.121300  0.373300  0.759700  1.0  -0.0407
  C  C76  1  0.118600  0.372200  0.845900  1.0  -0.1294
  C  C77  1  0.221600  0.309400  0.883700  1.0  0.6274
  C  C78  1  0.640100  0.487500  0.903500  1.0  0.1394
  C  C79  1  0.923200  0.478600  0.777500  1.0  -0.1628
  C  C80  1  0.024700  0.426900  0.632800  1.0  0.7186
  C  C81  1  0.019700  0.426300  0.896000  1.0  -0.1664
  C  C82  1  0.717000  0.581400  0.888500  1.0  -0.0092
  C  C83  1  0.651400  0.380800  0.965000  1.0  -0.2402
  C  C84  1  0.551800  0.505600  0.860600  1.0  -0.2303
  C  C85  1  0.482000  0.419400  0.877600  1.0  0.1824
  C  C86  1  0.577500  0.297500  0.976600  1.0  0.186
  C  C87  1  0.519000  0.077600  0.636400  1.0  0.2079
  C  C88  1  0.573800  0.976400  0.774000  1.0  -0.1259
  C  C89  1  0.626700  0.878700  0.740300  1.0  -0.0388
  C  C90  1  0.627800  0.881400  0.654100  1.0  -0.1289
  C  C91  1  0.690600  0.778400  0.616300  1.0  0.6294
  C  C92  1  0.512500  0.359900  0.596500  1.0  0.141
  C  C93  1  0.521400  0.076800  0.722500  1.0  -0.1635
  C  C94  1  0.573100  0.975300  0.867200  1.0  0.7193
  C  C95  1  0.573700  0.980300  0.604000  1.0  -0.166
  C  C96  1  0.418600  0.283000  0.611500  1.0  -0.0093
  C  C97  1  0.619200  0.348600  0.535000  1.0  -0.2381
  C  C98  1  0.494400  0.448200  0.639400  1.0  -0.2323
  C  C99  1  0.580600  0.518000  0.622400  1.0  0.1823
  C  C100  1  0.702500  0.422500  0.523400  1.0  0.1865
  N  N101  1  0.504900  0.687100  0.067700  1.0  -0.3633
  N  N102  1  0.172100  0.462900  0.085100  1.0  -0.3822
  N  N103  1  0.312900  0.495100  0.432300  1.0  -0.3615
  N  N104  1  0.537100  0.827900  0.414900  1.0  -0.382
  N  N105  1  0.495100  0.312900  0.932300  1.0  -0.3626
  N  N106  1  0.827900  0.537100  0.914900  1.0  -0.3826
  N  N107  1  0.687100  0.504900  0.567700  1.0  -0.3613
  N  N108  1  0.462900  0.172100  0.585100  1.0  -0.3818
  O  O109  1  0.687800  0.737400  0.164200  1.0  -0.5931
  O  O110  1  0.069600  0.535400  0.392100  1.0  -0.6444
  O  O111  1  0.784300  0.697700  0.036400  1.0  -0.597
  O  O112  1  0.880200  0.614000  0.412200  1.0  -0.6009
  O  O113  1  0.262600  0.312200  0.335800  1.0  -0.5921
  O  O114  1  0.464600  0.930400  0.107900  1.0  -0.6469
  O  O115  1  0.302300  0.215700  0.463600  1.0  -0.5953
  O  O116  1  0.386000  0.119800  0.087800  1.0  -0.6001
  O  O117  1  0.312200  0.262600  0.835800  1.0  -0.5934
  O  O118  1  0.930400  0.464600  0.607900  1.0  -0.6445
  O  O119  1  0.215700  0.302300  0.963600  1.0  -0.5968
  O  O120  1  0.119800  0.386000  0.587800  1.0  -0.6
  O  O121  1  0.737400  0.687800  0.664200  1.0  -0.5915
  O  O122  1  0.535400  0.069600  0.892100  1.0  -0.6466
  O  O123  1  0.697700  0.784300  0.536400  1.0  -0.5956
  O  O124  1  0.614000  0.880200  0.912200  1.0  -0.6011
