# generated using pymatgen
data_MnH10C14(NO2)2
_symmetry_space_group_name_H-M   'P 1'
_cell_length_a   14.91800000
_cell_length_b   15.59600000
_cell_length_c   16.44200000
_cell_angle_alpha   90.00000000
_cell_angle_beta   105.60600000
_cell_angle_gamma   90.00000000
_symmetry_Int_Tables_number   1
_chemical_formula_structural   MnH10C14(NO2)2
_chemical_formula_sum   'Mn8 H80 C112 N16 O32'
_cell_volume   3684.38807553
_cell_formula_units_Z   8
loop_
 _symmetry_equiv_pos_site_id
 _symmetry_equiv_pos_as_xyz
  1  'x, y, z'
loop_
 _atom_site_type_symbol
 _atom_site_label
 _atom_site_symmetry_multiplicity
 _atom_site_fract_x
 _atom_site_fract_y
 _atom_site_fract_z
 _atom_site_occupancy
 _atom_site_charge
  Mn  Mn1  1  0.253910  0.931600  0.962910  1.0  1.0438
  Mn  Mn2  1  0.275880  0.645940  0.045990  1.0  1.026
  Mn  Mn3  1  0.246090  0.431600  0.537090  1.0  1.0454
  Mn  Mn4  1  0.224120  0.145940  0.454010  1.0  1.025
  Mn  Mn5  1  0.746090  0.068400  0.037090  1.0  1.0451
  Mn  Mn6  1  0.724120  0.354060  0.954010  1.0  1.0256
  Mn  Mn7  1  0.753910  0.568400  0.462910  1.0  1.0437
  Mn  Mn8  1  0.775880  0.854060  0.545990  1.0  1.0257
  H  H9  1  0.276500  0.965500  0.235100  1.0  0.0954
  H  H10  1  0.315600  0.905200  0.591900  1.0  0.2971
  H  H11  1  0.264900  0.611600  0.774400  1.0  0.0849
  H  H12  1  0.238400  0.682000  0.429700  1.0  0.2747
  H  H13  1  0.277100  0.595800  0.304000  1.0  0.0924
  H  H14  1  0.271500  0.555200  0.389500  1.0  0.1019
  H  H15  1  0.272700  0.868400  0.780000  1.0  0.1047
  H  H16  1  0.251800  0.836000  0.439300  1.0  0.1041
  H  H17  1  0.239300  0.981000  0.700300  1.0  0.0805
  H  H18  1  0.226700  0.015700  0.608600  1.0  0.0985
  H  H19  1  0.287500  0.708300  0.239800  1.0  0.1062
  H  H20  1  0.406800  0.472300  0.349300  1.0  0.1183
  H  H21  1  0.277100  0.740900  0.566800  1.0  0.097
  H  H22  1  0.105600  0.900300  0.499200  1.0  0.1263
  H  H23  1  0.954400  0.865000  0.468400  1.0  0.0748
  H  H24  1  0.094500  0.968400  0.730100  1.0  0.1185
  H  H25  1  0.596400  0.688400  0.479100  1.0  0.0747
  H  H26  1  0.942400  0.929100  0.694600  1.0  0.072
  H  H27  1  0.562700  0.455700  0.390400  1.0  0.0767
  H  H28  1  0.439400  0.706900  0.446200  1.0  0.1132
  H  H29  1  0.223500  0.465500  0.264900  1.0  0.0954
  H  H30  1  0.184400  0.405200  0.908100  1.0  0.2968
  H  H31  1  0.235100  0.111600  0.725600  1.0  0.0851
  H  H32  1  0.261600  0.182000  0.070300  1.0  0.276
  H  H33  1  0.222900  0.095800  0.196000  1.0  0.091
  H  H34  1  0.228500  0.055200  0.110500  1.0  0.101
  H  H35  1  0.227300  0.368400  0.720000  1.0  0.1046
  H  H36  1  0.248200  0.336000  0.060700  1.0  0.1055
  H  H37  1  0.260700  0.481000  0.799700  1.0  0.0809
  H  H38  1  0.273300  0.515700  0.891400  1.0  0.0982
  H  H39  1  0.212500  0.208300  0.260200  1.0  0.1065
  H  H40  1  0.093200  0.972300  0.150700  1.0  0.1189
  H  H41  1  0.222900  0.240900  0.933200  1.0  0.0968
  H  H42  1  0.394400  0.400300  0.000800  1.0  0.1249
  H  H43  1  0.545600  0.365000  0.031600  1.0  0.0744
  H  H44  1  0.405500  0.468400  0.769900  1.0  0.1198
  H  H45  1  0.903600  0.188400  0.020900  1.0  0.0755
  H  H46  1  0.557600  0.429100  0.805400  1.0  0.0729
  H  H47  1  0.937300  0.955700  0.109600  1.0  0.0765
  H  H48  1  0.060600  0.206900  0.053800  1.0  0.1125
  H  H49  1  0.723500  0.034500  0.764900  1.0  0.0952
  H  H50  1  0.684400  0.094800  0.408100  1.0  0.2968
  H  H51  1  0.735100  0.388400  0.225600  1.0  0.0843
  H  H52  1  0.761600  0.318000  0.570300  1.0  0.2761
  H  H53  1  0.722900  0.404200  0.696000  1.0  0.0908
  H  H54  1  0.728500  0.444800  0.610500  1.0  0.1011
  H  H55  1  0.727300  0.131600  0.220000  1.0  0.1046
  H  H56  1  0.748200  0.164000  0.560700  1.0  0.1055
  H  H57  1  0.760700  0.019000  0.299700  1.0  0.0806
  H  H58  1  0.773300  0.984300  0.391400  1.0  0.099
  H  H59  1  0.712500  0.291700  0.760200  1.0  0.1059
  H  H60  1  0.593200  0.527700  0.650700  1.0  0.1184
  H  H61  1  0.722900  0.259100  0.433200  1.0  0.0968
  H  H62  1  0.894400  0.099700  0.500800  1.0  0.1252
  H  H63  1  0.045600  0.135000  0.531600  1.0  0.0743
  H  H64  1  0.905500  0.031600  0.269900  1.0  0.1199
  H  H65  1  0.403600  0.311600  0.520900  1.0  0.0753
  H  H66  1  0.057600  0.070900  0.305400  1.0  0.073
  H  H67  1  0.437300  0.544300  0.609600  1.0  0.0764
  H  H68  1  0.560600  0.293100  0.553800  1.0  0.1139
  H  H69  1  0.776500  0.534500  0.735100  1.0  0.095
  H  H70  1  0.815600  0.594800  0.091900  1.0  0.297
  H  H71  1  0.764900  0.888400  0.274400  1.0  0.0839
  H  H72  1  0.738400  0.818000  0.929700  1.0  0.2748
  H  H73  1  0.777100  0.904200  0.804000  1.0  0.0919
  H  H74  1  0.771500  0.944800  0.889500  1.0  0.1016
  H  H75  1  0.772700  0.631600  0.280000  1.0  0.1052
  H  H76  1  0.751800  0.664000  0.939300  1.0  0.1042
  H  H77  1  0.739300  0.519000  0.200300  1.0  0.0805
  H  H78  1  0.726700  0.484300  0.108600  1.0  0.098
  H  H79  1  0.787500  0.791700  0.739800  1.0  0.1063
  H  H80  1  0.906800  0.027700  0.849300  1.0  0.1192
  H  H81  1  0.777100  0.759100  0.066800  1.0  0.0969
  H  H82  1  0.605600  0.599700  0.999200  1.0  0.1266
  H  H83  1  0.454400  0.635000  0.968400  1.0  0.0752
  H  H84  1  0.594500  0.531600  0.230100  1.0  0.1189
  H  H85  1  0.096400  0.811600  0.979100  1.0  0.0756
  H  H86  1  0.442400  0.570900  0.194600  1.0  0.0722
  H  H87  1  0.062700  0.044300  0.890400  1.0  0.0766
  H  H88  1  0.939400  0.793100  0.946200  1.0  0.1139
  C  C89  1  0.280700  0.836500  0.223300  1.0  -0.134
  C  C90  1  0.261400  0.914100  0.344600  1.0  -0.1191
  C  C91  1  0.288900  0.834200  0.133300  1.0  0.7237
  C  C92  1  0.250600  0.996900  0.387500  1.0  0.6514
  C  C93  1  0.269700  0.664400  0.663100  1.0  -0.1217
  C  C94  1  0.273400  0.914000  0.262700  1.0  -0.0521
  C  C95  1  0.262300  0.581200  0.614700  1.0  0.6525
  C  C96  1  0.267700  0.663600  0.747400  1.0  -0.0368
  C  C97  1  0.298200  0.602000  0.364900  1.0  -0.0223
  C  C98  1  0.269900  0.739600  0.791000  1.0  -0.1426
  C  C99  1  0.278900  0.819800  0.666200  1.0  0.199
  C  C100  1  0.273600  0.817400  0.750900  1.0  -0.1473
  C  C101  1  0.259300  0.836000  0.385000  1.0  -0.1636
  C  C102  1  0.219800  0.965400  0.641100  1.0  0.0079
  C  C103  1  0.279900  0.759700  0.265900  1.0  -0.1582
  C  C104  1  0.268100  0.758200  0.346900  1.0  0.2104
  C  C105  1  0.444000  0.517300  0.376400  1.0  -0.211
  C  C106  1  0.263800  0.739800  0.881200  1.0  0.73
  C  C107  1  0.403000  0.593300  0.392000  1.0  0.1477
  C  C108  1  0.275400  0.741000  0.622900  1.0  -0.1423
  C  C109  1  0.118700  0.940500  0.618600  1.0  0.1382
  C  C110  1  0.073400  0.907500  0.539900  1.0  -0.2163
  C  C111  1  0.982300  0.885700  0.522300  1.0  0.1791
  C  C112  1  0.067100  0.947400  0.676200  1.0  -0.2155
  C  C113  1  0.558100  0.643600  0.453300  1.0  0.176
  C  C114  1  0.975300  0.923500  0.654300  1.0  0.1748
  C  C115  1  0.537900  0.508100  0.400500  1.0  0.1805
  C  C116  1  0.463100  0.655400  0.432500  1.0  -0.2171
  C  C117  1  0.219300  0.336500  0.276700  1.0  -0.1349
  C  C118  1  0.238600  0.414100  0.155400  1.0  -0.1194
  C  C119  1  0.211100  0.334200  0.366700  1.0  0.7224
  C  C120  1  0.249400  0.496900  0.112500  1.0  0.6505
  C  C121  1  0.230300  0.164400  0.836900  1.0  -0.121
  C  C122  1  0.226600  0.414000  0.237300  1.0  -0.0528
  C  C123  1  0.237700  0.081200  0.885300  1.0  0.6533
  C  C124  1  0.232300  0.163600  0.752600  1.0  -0.0366
  C  C125  1  0.201800  0.102000  0.135100  1.0  -0.0211
  C  C126  1  0.230100  0.239600  0.709000  1.0  -0.1421
  C  C127  1  0.221100  0.319800  0.833800  1.0  0.1995
  C  C128  1  0.226400  0.317400  0.749100  1.0  -0.1469
  C  C129  1  0.240700  0.336000  0.115000  1.0  -0.1624
  C  C130  1  0.280200  0.465400  0.858900  1.0  0.0084
  C  C131  1  0.220100  0.259700  0.234100  1.0  -0.1578
  C  C132  1  0.231900  0.258200  0.153100  1.0  0.2101
  C  C133  1  0.056000  0.017300  0.123600  1.0  -0.2109
  C  C134  1  0.236200  0.239800  0.618800  1.0  0.7289
  C  C135  1  0.097000  0.093300  0.108000  1.0  0.147
  C  C136  1  0.224600  0.241000  0.877100  1.0  -0.1445
  C  C137  1  0.381300  0.440500  0.881400  1.0  0.1377
  C  C138  1  0.426600  0.407500  0.960100  1.0  -0.2164
  C  C139  1  0.517700  0.385700  0.977700  1.0  0.1796
  C  C140  1  0.432900  0.447400  0.823800  1.0  -0.216
  C  C141  1  0.941900  0.143600  0.046700  1.0  0.1754
  C  C142  1  0.524700  0.423500  0.845700  1.0  0.1749
  C  C143  1  0.962100  0.008100  0.099500  1.0  0.1807
  C  C144  1  0.036900  0.155400  0.067500  1.0  -0.2148
  C  C145  1  0.719300  0.163500  0.776700  1.0  -0.1348
  C  C146  1  0.738600  0.085900  0.655400  1.0  -0.1196
  C  C147  1  0.711100  0.165800  0.866700  1.0  0.7225
  C  C148  1  0.749400  0.003100  0.612500  1.0  0.65
  C  C149  1  0.730300  0.335600  0.336900  1.0  -0.1211
  C  C150  1  0.726600  0.086000  0.737300  1.0  -0.0547
  C  C151  1  0.737700  0.418800  0.385300  1.0  0.6543
  C  C152  1  0.732300  0.336400  0.252600  1.0  -0.036
  C  C153  1  0.701800  0.398000  0.635100  1.0  -0.0192
  C  C154  1  0.730100  0.260400  0.209000  1.0  -0.1421
  C  C155  1  0.721100  0.180200  0.333800  1.0  0.1994
  C  C156  1  0.726400  0.182600  0.249100  1.0  -0.1462
  C  C157  1  0.740700  0.164000  0.615000  1.0  -0.1622
  C  C158  1  0.780200  0.034600  0.358900  1.0  0.0086
  C  C159  1  0.720100  0.240300  0.734100  1.0  -0.1573
  C  C160  1  0.731900  0.241800  0.653100  1.0  0.2099
  C  C161  1  0.556000  0.482700  0.623600  1.0  -0.2129
  C  C162  1  0.736200  0.260200  0.118800  1.0  0.7288
  C  C163  1  0.597000  0.406700  0.608000  1.0  0.147
  C  C164  1  0.724600  0.259000  0.377100  1.0  -0.1443
  C  C165  1  0.881300  0.059500  0.381400  1.0  0.1375
  C  C166  1  0.926600  0.092500  0.460100  1.0  -0.2171
  C  C167  1  0.017700  0.114300  0.477700  1.0  0.1804
  C  C168  1  0.932900  0.052600  0.323800  1.0  -0.2158
  C  C169  1  0.441900  0.356400  0.546700  1.0  0.1779
  C  C170  1  0.024700  0.076500  0.345700  1.0  0.1751
  C  C171  1  0.462100  0.491900  0.599500  1.0  0.1798
  C  C172  1  0.536900  0.344600  0.567500  1.0  -0.2167
  C  C173  1  0.780700  0.663500  0.723300  1.0  -0.134
  C  C174  1  0.761400  0.585900  0.844600  1.0  -0.1188
  C  C175  1  0.788900  0.665800  0.633300  1.0  0.7238
  C  C176  1  0.750600  0.503100  0.887500  1.0  0.6514
  C  C177  1  0.769700  0.835600  0.163100  1.0  -0.1211
  C  C178  1  0.773400  0.586000  0.762700  1.0  -0.0534
  C  C179  1  0.762300  0.918800  0.114700  1.0  0.6539
  C  C180  1  0.767700  0.836400  0.247400  1.0  -0.0359
  C  C181  1  0.798200  0.898000  0.864900  1.0  -0.0201
  C  C182  1  0.769900  0.760400  0.291000  1.0  -0.1427
  C  C183  1  0.778900  0.680200  0.166200  1.0  0.1986
  C  C184  1  0.773600  0.682600  0.250900  1.0  -0.1471
  C  C185  1  0.759300  0.664000  0.885000  1.0  -0.1638
  C  C186  1  0.719800  0.534600  0.141100  1.0  0.0084
  C  C187  1  0.779900  0.740300  0.765900  1.0  -0.1584
  C  C188  1  0.768100  0.741800  0.846900  1.0  0.21
  C  C189  1  0.944000  0.982700  0.876400  1.0  -0.2128
  C  C190  1  0.763800  0.760200  0.381200  1.0  0.7301
  C  C191  1  0.903000  0.906700  0.892000  1.0  0.1474
  C  C192  1  0.775400  0.759000  0.122900  1.0  -0.1426
  C  C193  1  0.618700  0.559500  0.118600  1.0  0.1379
  C  C194  1  0.573400  0.592500  0.039900  1.0  -0.217
  C  C195  1  0.482300  0.614300  0.022300  1.0  0.1795
  C  C196  1  0.567100  0.552600  0.176200  1.0  -0.2151
  C  C197  1  0.058100  0.856400  0.953300  1.0  0.1767
  C  C198  1  0.475300  0.576500  0.154300  1.0  0.1746
  C  C199  1  0.037900  0.991900  0.900500  1.0  0.18
  C  C200  1  0.963100  0.844600  0.932500  1.0  -0.2172
  N  N201  1  0.928800  0.891600  0.576400  1.0  -0.3497
  N  N202  1  0.282300  0.897000  0.625500  1.0  -0.4301
  N  N203  1  0.262800  0.682000  0.388100  1.0  -0.3915
  N  N204  1  0.597600  0.570400  0.438000  1.0  -0.3788
  N  N205  1  0.571200  0.391600  0.923600  1.0  -0.3509
  N  N206  1  0.217700  0.397000  0.874500  1.0  -0.4319
  N  N207  1  0.237200  0.182000  0.111900  1.0  -0.3933
  N  N208  1  0.902400  0.070400  0.062000  1.0  -0.3791
  N  N209  1  0.071200  0.108400  0.423600  1.0  -0.3494
  N  N210  1  0.717700  0.103000  0.374500  1.0  -0.4315
  N  N211  1  0.737200  0.318000  0.611900  1.0  -0.3932
  N  N212  1  0.402400  0.429600  0.562000  1.0  -0.3787
  N  N213  1  0.428800  0.608400  0.076400  1.0  -0.3463
  N  N214  1  0.782300  0.603000  0.125500  1.0  -0.4295
  N  N215  1  0.762800  0.818000  0.888100  1.0  -0.3916
  N  N216  1  0.097600  0.929600  0.938000  1.0  -0.3787
  O  O217  1  0.237100  0.065100  0.345700  1.0  -0.5916
  O  O218  1  0.262100  0.511000  0.653600  1.0  -0.5977
  O  O219  1  0.255900  0.582500  0.536700  1.0  -0.6075
  O  O220  1  0.274700  0.669500  0.918800  1.0  -0.6
  O  O221  1  0.254600  0.996400  0.464900  1.0  -0.6051
  O  O222  1  0.277600  0.904800  0.093200  1.0  -0.6178
  O  O223  1  0.306800  0.764600  0.105200  1.0  -0.6371
  O  O224  1  0.245000  0.807800  0.910200  1.0  -0.6469
  O  O225  1  0.262900  0.565100  0.154300  1.0  -0.5924
  O  O226  1  0.237900  0.011000  0.846400  1.0  -0.5993
  O  O227  1  0.244100  0.082500  0.963300  1.0  -0.6082
  O  O228  1  0.225300  0.169500  0.581200  1.0  -0.5997
  O  O229  1  0.245400  0.496400  0.035100  1.0  -0.6047
  O  O230  1  0.222400  0.404800  0.406800  1.0  -0.6168
  O  O231  1  0.193200  0.264600  0.394800  1.0  -0.6389
  O  O232  1  0.255000  0.307800  0.589800  1.0  -0.6467
  O  O233  1  0.762900  0.934900  0.654300  1.0  -0.5919
  O  O234  1  0.737900  0.489000  0.346400  1.0  -0.5971
  O  O235  1  0.744100  0.417500  0.463300  1.0  -0.6082
  O  O236  1  0.725300  0.330500  0.081200  1.0  -0.5987
  O  O237  1  0.745400  0.003600  0.535100  1.0  -0.604
  O  O238  1  0.722400  0.095200  0.906800  1.0  -0.6166
  O  O239  1  0.693200  0.235400  0.894800  1.0  -0.6375
  O  O240  1  0.755000  0.192200  0.089800  1.0  -0.647
  O  O241  1  0.737100  0.434900  0.845700  1.0  -0.5916
  O  O242  1  0.762100  0.989000  0.153600  1.0  -0.5984
  O  O243  1  0.755900  0.917500  0.036700  1.0  -0.6074
  O  O244  1  0.774700  0.830500  0.418800  1.0  -0.5994
  O  O245  1  0.754600  0.503600  0.964900  1.0  -0.6048
  O  O246  1  0.777600  0.595200  0.593200  1.0  -0.6177
  O  O247  1  0.806800  0.735400  0.605200  1.0  -0.6356
  O  O248  1  0.745000  0.692200  0.410200  1.0  -0.6469
