# generated using pymatgen
data_FeNiH4(C4N3)2
_symmetry_space_group_name_H-M   'P 1'
_cell_length_a   7.02800000
_cell_length_b   7.01000000
_cell_length_c   6.72500000
_cell_angle_alpha   90.00000000
_cell_angle_beta   90.00000000
_cell_angle_gamma   90.00000000
_symmetry_Int_Tables_number   1
_chemical_formula_structural   FeNiH4(C4N3)2
_chemical_formula_sum   'Fe1 Ni1 H4 C8 N6'
_cell_volume   331.31573300
_cell_formula_units_Z   1
loop_
 _symmetry_equiv_pos_site_id
 _symmetry_equiv_pos_as_xyz
  1  'x, y, z'
loop_
 _atom_site_type_symbol
 _atom_site_label
 _atom_site_symmetry_multiplicity
 _atom_site_fract_x
 _atom_site_fract_y
 _atom_site_fract_z
 _atom_site_occupancy
 _atom_site_charge
  Fe  Fe1  1  0.000000  0.000000  0.000000  1.0  0.3731
  Ni  Ni2  1  0.500000  0.500000  0.000000  1.0  0.1281
  H  H3  1  0.000000  0.281800  0.671100  1.0  0.0898
  H  H4  1  0.000000  0.718200  0.671100  1.0  0.0895
  H  H5  1  0.000000  0.281800  0.328900  1.0  0.0888
  H  H6  1  0.000000  0.718200  0.328900  1.0  0.088
  C  C7  1  0.686500  0.310400  0.000000  1.0  0.1295
  C  C8  1  0.313500  0.689600  0.000000  1.0  0.1272
  C  C9  1  0.313500  0.310400  0.000000  1.0  0.1276
  C  C10  1  0.686500  0.689600  0.000000  1.0  0.1291
  C  C11  1  0.000000  0.163600  0.602200  1.0  0.1303
  C  C12  1  0.000000  0.836400  0.602200  1.0  0.1308
  C  C13  1  0.000000  0.163600  0.397800  1.0  0.1296
  C  C14  1  0.000000  0.836400  0.397800  1.0  0.1315
  N  N15  1  0.804900  0.196900  0.000000  1.0  -0.319
  N  N16  1  0.195100  0.803100  0.000000  1.0  -0.3181
  N  N17  1  0.195100  0.196900  0.000000  1.0  -0.3195
  N  N18  1  0.804900  0.803100  0.000000  1.0  -0.3181
  N  N19  1  0.000000  0.000000  0.706900  1.0  -0.3092
  N  N20  1  0.000000  0.000000  0.293100  1.0  -0.3091
