# generated using pymatgen
data_FeNiH4(C4N3)2
_symmetry_space_group_name_H-M   'P 1'
_cell_length_a   7.11390000
_cell_length_b   6.91090000
_cell_length_c   6.77990000
_cell_angle_alpha   90.00000000
_cell_angle_beta   90.00000000
_cell_angle_gamma   90.00000000
_symmetry_Int_Tables_number   1
_chemical_formula_structural   FeNiH4(C4N3)2
_chemical_formula_sum   'Fe1 Ni1 H4 C8 N6'
_cell_volume   333.32328489
_cell_formula_units_Z   1
loop_
 _symmetry_equiv_pos_site_id
 _symmetry_equiv_pos_as_xyz
  1  'x, y, z'
loop_
 _atom_site_type_symbol
 _atom_site_label
 _atom_site_symmetry_multiplicity
 _atom_site_fract_x
 _atom_site_fract_y
 _atom_site_fract_z
 _atom_site_occupancy
 _atom_site_charge
  Fe  Fe1  1  0.000000  0.000000  0.000000  1.0  0.4665
  Ni  Ni2  1  0.500000  0.500000  0.000000  1.0  0.1228
  H  H3  1  0.000000  0.284300  0.329200  1.0  0.0773
  H  H4  1  0.000000  0.715700  0.329200  1.0  0.0764
  H  H5  1  0.000000  0.284300  0.670800  1.0  0.0761
  H  H6  1  0.000000  0.715700  0.670800  1.0  0.0763
  C  C7  1  0.312500  0.311100  0.000000  1.0  0.1205
  C  C8  1  0.687500  0.688900  0.000000  1.0  0.1219
  C  C9  1  0.687500  0.311100  0.000000  1.0  0.1224
  C  C10  1  0.312500  0.688900  0.000000  1.0  0.1202
  C  C11  1  0.000000  0.164100  0.397200  1.0  0.133
  C  C12  1  0.000000  0.835900  0.397200  1.0  0.1335
  C  C13  1  0.000000  0.164100  0.602800  1.0  0.1322
  C  C14  1  0.000000  0.835900  0.602800  1.0  0.1336
  N  N15  1  0.194800  0.197300  0.000000  1.0  -0.3191
  N  N16  1  0.805200  0.802700  0.000000  1.0  -0.3215
  N  N17  1  0.805200  0.197300  0.000000  1.0  -0.323
  N  N18  1  0.194800  0.802700  0.000000  1.0  -0.3175
  N  N19  1  0.000000  0.000000  0.292900  1.0  -0.3152
  N  N20  1  0.000000  0.000000  0.707100  1.0  -0.3164
