# generated using pymatgen
data_FeNiH4(C4N3)2
_symmetry_space_group_name_H-M   'P 1'
_cell_length_a   7.24210000
_cell_length_b   7.26660000
_cell_length_c   7.26960000
_cell_angle_alpha   90.00000000
_cell_angle_beta   90.00000000
_cell_angle_gamma   90.00000000
_symmetry_Int_Tables_number   1
_chemical_formula_structural   FeNiH4(C4N3)2
_chemical_formula_sum   'Fe1 Ni1 H4 C8 N6'
_cell_volume   382.56592668
_cell_formula_units_Z   1
loop_
 _symmetry_equiv_pos_site_id
 _symmetry_equiv_pos_as_xyz
  1  'x, y, z'
loop_
 _atom_site_type_symbol
 _atom_site_label
 _atom_site_symmetry_multiplicity
 _atom_site_fract_x
 _atom_site_fract_y
 _atom_site_fract_z
 _atom_site_occupancy
 _atom_site_charge
  Fe  Fe1  1  0.000000  0.000000  0.000000  1.0  0.3912
  Ni  Ni2  1  0.000000  0.500000  0.500000  1.0  0.0731
  H  H3  1  0.659400  0.000000  0.733900  1.0  0.1043
  H  H4  1  0.659400  0.000000  0.266100  1.0  0.1049
  H  H5  1  0.340600  0.000000  0.733900  1.0  0.1046
  H  H6  1  0.340600  0.000000  0.266100  1.0  0.1052
  C  C7  1  0.000000  0.675700  0.688000  1.0  0.0765
  C  C8  1  0.000000  0.324300  0.312000  1.0  0.0767
  C  C9  1  0.000000  0.324300  0.688000  1.0  0.0769
  C  C10  1  0.000000  0.675700  0.312000  1.0  0.0765
  C  C11  1  0.596900  0.000000  0.845600  1.0  0.0888
  C  C12  1  0.596900  0.000000  0.154400  1.0  0.0886
  C  C13  1  0.403100  0.000000  0.845600  1.0  0.0885
  C  C14  1  0.403100  0.000000  0.154400  1.0  0.0877
  N  N15  1  0.000000  0.794900  0.791200  1.0  -0.2836
  N  N16  1  0.000000  0.205100  0.208800  1.0  -0.2838
  N  N17  1  0.000000  0.205100  0.791200  1.0  -0.2845
  N  N18  1  0.000000  0.794900  0.208800  1.0  -0.283
  N  N19  1  0.692700  0.000000  0.000000  1.0  -0.2034
  N  N20  1  0.307300  0.000000  0.000000  1.0  -0.2053
