# generated using pymatgen
data_Co3H28C48N2O15
_symmetry_space_group_name_H-M   'P 1'
_cell_length_a   10.93290000
_cell_length_b   28.93400000
_cell_length_c   15.03280000
_cell_angle_alpha   90.00000000
_cell_angle_beta   90.37000000
_cell_angle_gamma   90.00000000
_symmetry_Int_Tables_number   1
_chemical_formula_structural   Co3H28C48N2O15
_chemical_formula_sum   'Co12 H112 C192 N8 O60'
_cell_volume   4755.26448190
_cell_formula_units_Z   4
loop_
 _symmetry_equiv_pos_site_id
 _symmetry_equiv_pos_as_xyz
  1  'x, y, z'
loop_
 _atom_site_type_symbol
 _atom_site_label
 _atom_site_symmetry_multiplicity
 _atom_site_fract_x
 _atom_site_fract_y
 _atom_site_fract_z
 _atom_site_occupancy
 _atom_site_charge
  Co  Co1  1  0.661990  0.009260  0.872510  1.0  1.0918
  Co  Co2  1  0.997310  0.896110  0.968280  1.0  0.981
  Co  Co3  1  0.919080  0.020740  0.731770  1.0  1.0082
  Co  Co4  1  0.338010  0.509260  0.627490  1.0  1.0933
  Co  Co5  1  0.002690  0.396110  0.531720  1.0  0.9808
  Co  Co6  1  0.080920  0.520740  0.768230  1.0  1.0036
  Co  Co7  1  0.338010  0.990740  0.127490  1.0  1.0933
  Co  Co8  1  0.002690  0.103890  0.031720  1.0  0.98
  Co  Co9  1  0.080920  0.979260  0.268230  1.0  1.0036
  Co  Co10  1  0.661990  0.490740  0.372510  1.0  1.0919
  Co  Co11  1  0.997310  0.603890  0.468280  1.0  0.9803
  Co  Co12  1  0.919080  0.479260  0.231770  1.0  1.008
  H  H13  1  0.882400  0.981000  0.870500  1.0  0.3206
  H  H14  1  0.888200  0.030200  0.888100  1.0  0.3894
  H  H15  1  0.824800  0.921100  0.568200  1.0  0.113
  H  H16  1  0.110500  0.864000  0.141200  1.0  0.0716
  H  H17  1  0.897200  0.871900  0.442000  1.0  0.1299
  H  H18  1  0.721700  0.753600  0.389100  1.0  0.1082
  H  H19  1  0.596800  0.763900  0.509100  1.0  0.1124
  H  H20  1  0.542500  0.809500  0.643600  1.0  0.107
  H  H21  1  0.457200  0.893400  0.900700  1.0  0.0979
  H  H22  1  0.197700  0.921500  0.665000  1.0  0.1068
  H  H23  1  0.388500  0.890100  0.639200  1.0  0.1215
  H  H24  1  0.542200  0.877300  0.031600  1.0  0.1005
  H  H25  1  0.616300  0.845400  0.284900  1.0  0.1162
  H  H26  1  0.801300  0.882600  0.273100  1.0  0.0923
  H  H27  1  0.235400  0.871200  0.401700  1.0  0.1036
  H  H28  1  0.220800  0.816300  0.529600  1.0  0.1257
  H  H29  1  0.260200  0.744500  0.587000  1.0  0.0938
  H  H30  1  0.370400  0.691000  0.507200  1.0  0.0919
  H  H31  1  0.441700  0.707700  0.368500  1.0  0.123
  H  H32  1  0.464600  0.765800  0.244800  1.0  0.1092
  H  H33  1  0.874700  0.800000  0.994200  1.0  0.0695
  H  H34  1  0.877600  0.737800  0.085200  1.0  0.1094
  H  H35  1  0.114800  0.804900  0.241300  1.0  0.1207
  H  H36  1  0.837800  0.695000  0.205000  1.0  0.1151
  H  H37  1  0.847600  0.635900  0.303800  1.0  0.0764
  H  H38  1  0.161700  0.677600  0.392900  1.0  0.0689
  H  H39  1  0.162800  0.737100  0.293300  1.0  0.1094
  H  H40  1  0.873900  0.806300  0.358700  1.0  0.0872
  H  H41  1  0.117600  0.481000  0.629500  1.0  0.3206
  H  H42  1  0.111800  0.530200  0.611900  1.0  0.3872
  H  H43  1  0.175200  0.421100  0.931800  1.0  0.1128
  H  H44  1  0.889500  0.364000  0.358800  1.0  0.0715
  H  H45  1  0.102800  0.371900  0.058000  1.0  0.1303
  H  H46  1  0.278300  0.253600  0.110900  1.0  0.109
  H  H47  1  0.403200  0.263900  0.990900  1.0  0.113
  H  H48  1  0.457500  0.309500  0.856400  1.0  0.1069
  H  H49  1  0.542800  0.393400  0.599300  1.0  0.0973
  H  H50  1  0.802300  0.421500  0.835000  1.0  0.1063
  H  H51  1  0.611500  0.390100  0.860800  1.0  0.1218
  H  H52  1  0.457800  0.377300  0.468400  1.0  0.1003
  H  H53  1  0.383700  0.345400  0.215100  1.0  0.116
  H  H54  1  0.198700  0.382600  0.226900  1.0  0.0921
  H  H55  1  0.764600  0.371200  0.098300  1.0  0.1031
  H  H56  1  0.779200  0.316300  0.970400  1.0  0.1262
  H  H57  1  0.739800  0.244500  0.913000  1.0  0.0943
  H  H58  1  0.629600  0.191000  0.992800  1.0  0.0916
  H  H59  1  0.558300  0.207700  0.131500  1.0  0.1231
  H  H60  1  0.535400  0.265800  0.255200  1.0  0.1095
  H  H61  1  0.125300  0.300000  0.505800  1.0  0.0697
  H  H62  1  0.122400  0.237800  0.414800  1.0  0.1094
  H  H63  1  0.885200  0.304900  0.258700  1.0  0.1209
  H  H64  1  0.162200  0.195000  0.295000  1.0  0.1155
  H  H65  1  0.152400  0.135900  0.196200  1.0  0.0762
  H  H66  1  0.838300  0.177600  0.107100  1.0  0.0689
  H  H67  1  0.837200  0.237100  0.206700  1.0  0.1097
  H  H68  1  0.126100  0.306300  0.141300  1.0  0.0868
  H  H69  1  0.117600  0.019000  0.129500  1.0  0.3191
  H  H70  1  0.111800  0.969800  0.111900  1.0  0.3865
  H  H71  1  0.175200  0.078900  0.431800  1.0  0.1127
  H  H72  1  0.889500  0.136000  0.858800  1.0  0.071
  H  H73  1  0.102800  0.128100  0.558000  1.0  0.1299
  H  H74  1  0.278300  0.246400  0.610900  1.0  0.1085
  H  H75  1  0.403200  0.236100  0.490900  1.0  0.1129
  H  H76  1  0.457500  0.190500  0.356400  1.0  0.1071
  H  H77  1  0.542800  0.106600  0.099300  1.0  0.0972
  H  H78  1  0.802300  0.078500  0.335000  1.0  0.1062
  H  H79  1  0.611500  0.109900  0.360800  1.0  0.1219
  H  H80  1  0.457800  0.122700  0.968400  1.0  0.0997
  H  H81  1  0.383700  0.154600  0.715100  1.0  0.1159
  H  H82  1  0.198700  0.117400  0.726900  1.0  0.0915
  H  H83  1  0.764600  0.128800  0.598300  1.0  0.1033
  H  H84  1  0.779200  0.183700  0.470400  1.0  0.1259
  H  H85  1  0.739800  0.255500  0.413000  1.0  0.094
  H  H86  1  0.629600  0.309000  0.492800  1.0  0.092
  H  H87  1  0.558300  0.292300  0.631500  1.0  0.1229
  H  H88  1  0.535400  0.234200  0.755200  1.0  0.1105
  H  H89  1  0.125300  0.200000  0.005800  1.0  0.07
  H  H90  1  0.122400  0.262200  0.914800  1.0  0.109
  H  H91  1  0.885200  0.195100  0.758700  1.0  0.1205
  H  H92  1  0.162200  0.305000  0.795000  1.0  0.1156
  H  H93  1  0.152400  0.364100  0.696200  1.0  0.0759
  H  H94  1  0.838300  0.322400  0.607100  1.0  0.0689
  H  H95  1  0.837200  0.262900  0.706700  1.0  0.1098
  H  H96  1  0.126100  0.193700  0.641300  1.0  0.0869
  H  H97  1  0.882400  0.519000  0.370500  1.0  0.3197
  H  H98  1  0.888200  0.469800  0.388100  1.0  0.3895
  H  H99  1  0.824800  0.578900  0.068200  1.0  0.1132
  H  H100  1  0.110500  0.636000  0.641200  1.0  0.0716
  H  H101  1  0.897200  0.628100  0.942000  1.0  0.1301
  H  H102  1  0.721700  0.746400  0.889100  1.0  0.1083
  H  H103  1  0.596800  0.736100  0.009100  1.0  0.1126
  H  H104  1  0.542500  0.690500  0.143600  1.0  0.1068
  H  H105  1  0.457200  0.606600  0.400700  1.0  0.098
  H  H106  1  0.197700  0.578500  0.165000  1.0  0.1066
  H  H107  1  0.388500  0.609900  0.139200  1.0  0.1216
  H  H108  1  0.542200  0.622700  0.531600  1.0  0.0996
  H  H109  1  0.616300  0.654600  0.784900  1.0  0.1163
  H  H110  1  0.801300  0.617400  0.773100  1.0  0.0924
  H  H111  1  0.235400  0.628800  0.901700  1.0  0.1035
  H  H112  1  0.220800  0.683700  0.029600  1.0  0.1257
  H  H113  1  0.260200  0.755500  0.087000  1.0  0.0938
  H  H114  1  0.370400  0.809000  0.007200  1.0  0.0918
  H  H115  1  0.441700  0.792300  0.868500  1.0  0.123
  H  H116  1  0.464600  0.734200  0.744800  1.0  0.1107
  H  H117  1  0.874700  0.700000  0.494200  1.0  0.0697
  H  H118  1  0.877600  0.762200  0.585200  1.0  0.1092
  H  H119  1  0.114800  0.695100  0.741300  1.0  0.1207
  H  H120  1  0.837800  0.805000  0.705000  1.0  0.115
  H  H121  1  0.847600  0.864100  0.803800  1.0  0.0765
  H  H122  1  0.161700  0.822400  0.892900  1.0  0.0688
  H  H123  1  0.162800  0.762900  0.793300  1.0  0.1096
  H  H124  1  0.873900  0.693700  0.858700  1.0  0.087
  C  C125  1  0.714300  0.950580  0.708100  1.0  0.7033
  C  C126  1  0.695800  0.905780  0.656200  1.0  -0.1436
  C  C127  1  0.767500  0.898640  0.583100  1.0  -0.0377
  C  C128  1  0.061800  0.838240  0.130200  1.0  0.1778
  C  C129  1  0.836500  0.850660  0.456100  1.0  -0.1606
  C  C130  1  0.758300  0.858650  0.529400  1.0  0.0334
  C  C131  1  0.731400  0.779500  0.425200  1.0  -0.0767
  C  C132  1  0.656600  0.785770  0.496300  1.0  -0.1303
  C  C133  1  0.669400  0.825410  0.550800  1.0  0.0372
  C  C134  1  0.599600  0.831800  0.627800  1.0  -0.1503
  C  C135  1  0.613800  0.869880  0.679900  1.0  0.1813
  C  C136  1  0.440000  0.889030  0.768200  1.0  0.3295
  C  C137  1  0.403500  0.898550  0.853500  1.0  -0.1674
  C  C138  1  0.287300  0.915840  0.870100  1.0  -0.0698
  C  C139  1  0.208900  0.925280  0.798500  1.0  -0.1486
  C  C140  1  0.249400  0.915420  0.713000  1.0  -0.0528
  C  C141  1  0.363800  0.896940  0.696800  1.0  -0.225
  C  C142  1  0.261900  0.925170  0.967400  1.0  0.7159
  C  C143  1  0.089500  0.949010  0.807700  1.0  0.6897
  C  C144  1  0.732500  0.922230  0.982900  1.0  0.6936
  C  C145  1  0.708700  0.899260  0.071600  1.0  -0.0643
  C  C146  1  0.595300  0.878380  0.080100  1.0  -0.1168
  C  C147  1  0.560700  0.859240  0.159600  1.0  0.2961
  C  C148  1  0.638400  0.859620  0.231900  1.0  -0.2046
  C  C149  1  0.749400  0.881440  0.223900  1.0  -0.0781
  C  C150  1  0.786800  0.901810  0.144800  1.0  -0.149
  C  C151  1  0.904400  0.928450  0.147400  1.0  0.6879
  C  C152  1  0.398400  0.829510  0.244000  1.0  0.1864
  C  C153  1  0.326700  0.862670  0.289000  1.0  -0.1139
  C  C154  1  0.283500  0.850140  0.370800  1.0  -0.035
  C  C155  1  0.308300  0.806750  0.410900  1.0  0.0297
  C  C156  1  0.265100  0.794950  0.496700  1.0  -0.1452
  C  C157  1  0.288800  0.752180  0.530800  1.0  -0.0822
  C  C158  1  0.355100  0.719940  0.482600  1.0  -0.0636
  C  C159  1  0.398000  0.729820  0.400200  1.0  -0.148
  C  C160  1  0.375700  0.774220  0.362500  1.0  0.0291
  C  C161  1  0.419900  0.787040  0.277800  1.0  -0.1307
  C  C162  1  0.925300  0.800770  0.044100  1.0  0.1849
  C  C163  1  0.925100  0.763500  0.099200  1.0  -0.1853
  C  C164  1  0.996000  0.763780  0.176300  1.0  0.0976
  C  C165  1  0.065600  0.802700  0.190800  1.0  -0.1996
  C  C166  1  0.291400  0.909530  0.252200  1.0  0.6923
  C  C167  1  0.999700  0.723720  0.238000  1.0  0.0745
  C  C168  1  0.905200  0.692280  0.242700  1.0  -0.1827
  C  C169  1  0.911200  0.657210  0.302800  1.0  0.1868
  C  C170  1  0.095000  0.681200  0.354900  1.0  0.1718
  C  C171  1  0.096200  0.717170  0.295000  1.0  -0.1852
  C  C172  1  0.821900  0.811570  0.406400  1.0  -0.0746
  C  C173  1  0.285700  0.450580  0.791900  1.0  0.7022
  C  C174  1  0.304200  0.405780  0.843800  1.0  -0.1436
  C  C175  1  0.232500  0.398640  0.916900  1.0  -0.0365
  C  C176  1  0.938200  0.338240  0.369800  1.0  0.1786
  C  C177  1  0.163500  0.350660  0.043900  1.0  -0.1619
  C  C178  1  0.241700  0.358650  0.970600  1.0  0.0336
  C  C179  1  0.268600  0.279500  0.074800  1.0  -0.0772
  C  C180  1  0.343400  0.285770  0.003700  1.0  -0.1299
  C  C181  1  0.330600  0.325410  0.949200  1.0  0.0362
  C  C182  1  0.400400  0.331800  0.872200  1.0  -0.1511
  C  C183  1  0.386200  0.369880  0.820100  1.0  0.1808
  C  C184  1  0.560000  0.389030  0.731800  1.0  0.3293
  C  C185  1  0.596500  0.398550  0.646500  1.0  -0.169
  C  C186  1  0.712700  0.415840  0.629900  1.0  -0.0699
  C  C187  1  0.791100  0.425280  0.701500  1.0  -0.1506
  C  C188  1  0.750600  0.415420  0.787000  1.0  -0.0535
  C  C189  1  0.636200  0.396940  0.803200  1.0  -0.2277
  C  C190  1  0.738100  0.425170  0.532600  1.0  0.7159
  C  C191  1  0.910500  0.449010  0.692300  1.0  0.6899
  C  C192  1  0.267500  0.422230  0.517100  1.0  0.6931
  C  C193  1  0.291300  0.399260  0.428400  1.0  -0.0632
  C  C194  1  0.404700  0.378380  0.419900  1.0  -0.1152
  C  C195  1  0.439300  0.359240  0.340400  1.0  0.2956
  C  C196  1  0.361600  0.359620  0.268100  1.0  -0.203
  C  C197  1  0.250600  0.381440  0.276100  1.0  -0.0773
  C  C198  1  0.213200  0.401810  0.355200  1.0  -0.1488
  C  C199  1  0.095600  0.428450  0.352600  1.0  0.6862
  C  C200  1  0.601600  0.329510  0.256000  1.0  0.1848
  C  C201  1  0.673300  0.362670  0.211000  1.0  -0.1132
  C  C202  1  0.716500  0.350140  0.129200  1.0  -0.0345
  C  C203  1  0.691700  0.306750  0.089100  1.0  0.029
  C  C204  1  0.734900  0.294950  0.003300  1.0  -0.1456
  C  C205  1  0.711200  0.252180  0.969200  1.0  -0.084
  C  C206  1  0.644900  0.219940  0.017400  1.0  -0.0649
  C  C207  1  0.602000  0.229820  0.099800  1.0  -0.1473
  C  C208  1  0.624300  0.274220  0.137500  1.0  0.0289
  C  C209  1  0.580100  0.287040  0.222200  1.0  -0.1295
  C  C210  1  0.074700  0.300770  0.455900  1.0  0.1843
  C  C211  1  0.074900  0.263500  0.400800  1.0  -0.186
  C  C212  1  0.004000  0.263780  0.323700  1.0  0.0975
  C  C213  1  0.934400  0.302700  0.309200  1.0  -0.2006
  C  C214  1  0.708600  0.409530  0.247800  1.0  0.6934
  C  C215  1  0.000300  0.223720  0.262000  1.0  0.0745
  C  C216  1  0.094800  0.192280  0.257300  1.0  -0.183
  C  C217  1  0.088800  0.157210  0.197200  1.0  0.1863
  C  C218  1  0.905000  0.181200  0.145100  1.0  0.1723
  C  C219  1  0.903800  0.217170  0.205000  1.0  -0.185
  C  C220  1  0.178100  0.311570  0.093600  1.0  -0.0749
  C  C221  1  0.285700  0.049420  0.291900  1.0  0.702
  C  C222  1  0.304200  0.094220  0.343800  1.0  -0.1439
  C  C223  1  0.232500  0.101360  0.416900  1.0  -0.0361
  C  C224  1  0.938200  0.161760  0.869800  1.0  0.1779
  C  C225  1  0.163500  0.149340  0.543900  1.0  -0.1606
  C  C226  1  0.241700  0.141350  0.470600  1.0  0.0331
  C  C227  1  0.268600  0.220500  0.574800  1.0  -0.0767
  C  C228  1  0.343400  0.214230  0.503700  1.0  -0.1316
  C  C229  1  0.330600  0.174590  0.449200  1.0  0.0361
  C  C230  1  0.400400  0.168200  0.372200  1.0  -0.152
  C  C231  1  0.386200  0.130120  0.320100  1.0  0.1804
  C  C232  1  0.560000  0.110970  0.231800  1.0  0.3285
  C  C233  1  0.596500  0.101450  0.146500  1.0  -0.1682
  C  C234  1  0.712700  0.084160  0.129900  1.0  -0.0691
  C  C235  1  0.791100  0.074720  0.201500  1.0  -0.1507
  C  C236  1  0.750600  0.084580  0.287000  1.0  -0.0541
  C  C237  1  0.636200  0.103060  0.303200  1.0  -0.2282
  C  C238  1  0.738100  0.074830  0.032600  1.0  0.7156
  C  C239  1  0.910500  0.050990  0.192300  1.0  0.6903
  C  C240  1  0.267500  0.077770  0.017100  1.0  0.6934
  C  C241  1  0.291300  0.100740  0.928400  1.0  -0.0635
  C  C242  1  0.404700  0.121620  0.919900  1.0  -0.1151
  C  C243  1  0.439300  0.140760  0.840400  1.0  0.2958
  C  C244  1  0.361600  0.140380  0.768100  1.0  -0.2035
  C  C245  1  0.250600  0.118560  0.776100  1.0  -0.0769
  C  C246  1  0.213200  0.098190  0.855200  1.0  -0.1495
  C  C247  1  0.095600  0.071550  0.852600  1.0  0.6864
  C  C248  1  0.601600  0.170490  0.756000  1.0  0.185
  C  C249  1  0.673300  0.137330  0.711000  1.0  -0.1137
  C  C250  1  0.716500  0.149860  0.629200  1.0  -0.036
  C  C251  1  0.691700  0.193250  0.589100  1.0  0.0291
  C  C252  1  0.734900  0.205050  0.503300  1.0  -0.1476
  C  C253  1  0.711200  0.247820  0.469200  1.0  -0.0842
  C  C254  1  0.644900  0.280060  0.517400  1.0  -0.0653
  C  C255  1  0.602000  0.270180  0.599800  1.0  -0.1471
  C  C256  1  0.624300  0.225780  0.637500  1.0  0.0291
  C  C257  1  0.580100  0.212960  0.722200  1.0  -0.1301
  C  C258  1  0.074700  0.199230  0.955900  1.0  0.1841
  C  C259  1  0.074900  0.236500  0.900800  1.0  -0.1865
  C  C260  1  0.004000  0.236220  0.823700  1.0  0.0973
  C  C261  1  0.934400  0.197300  0.809200  1.0  -0.2005
  C  C262  1  0.708600  0.090470  0.747800  1.0  0.6947
  C  C263  1  0.000300  0.276280  0.762000  1.0  0.0744
  C  C264  1  0.094800  0.307720  0.757300  1.0  -0.183
  C  C265  1  0.088800  0.342790  0.697200  1.0  0.1868
  C  C266  1  0.905000  0.318800  0.645100  1.0  0.1724
  C  C267  1  0.903800  0.282830  0.705000  1.0  -0.1852
  C  C268  1  0.178100  0.188430  0.593600  1.0  -0.0748
  C  C269  1  0.714300  0.549420  0.208100  1.0  0.7035
  C  C270  1  0.695800  0.594220  0.156200  1.0  -0.1429
  C  C271  1  0.767500  0.601360  0.083100  1.0  -0.0376
  C  C272  1  0.061800  0.661760  0.630200  1.0  0.1772
  C  C273  1  0.836500  0.649340  0.956100  1.0  -0.1608
  C  C274  1  0.758300  0.641350  0.029400  1.0  0.0329
  C  C275  1  0.731400  0.720500  0.925200  1.0  -0.0764
  C  C276  1  0.656600  0.714230  0.996300  1.0  -0.1317
  C  C277  1  0.669400  0.674590  0.050800  1.0  0.0371
  C  C278  1  0.599600  0.668200  0.127800  1.0  -0.1511
  C  C279  1  0.613800  0.630120  0.179900  1.0  0.1811
  C  C280  1  0.440000  0.610970  0.268200  1.0  0.3293
  C  C281  1  0.403500  0.601450  0.353500  1.0  -0.1671
  C  C282  1  0.287300  0.584160  0.370100  1.0  -0.0698
  C  C283  1  0.208900  0.574720  0.298500  1.0  -0.1492
  C  C284  1  0.249400  0.584580  0.213000  1.0  -0.0516
  C  C285  1  0.363800  0.603060  0.196800  1.0  -0.2256
  C  C286  1  0.261900  0.574830  0.467400  1.0  0.7163
  C  C287  1  0.089500  0.550990  0.307700  1.0  0.6901
  C  C288  1  0.732500  0.577770  0.482900  1.0  0.6937
  C  C289  1  0.708700  0.600740  0.571600  1.0  -0.0642
  C  C290  1  0.595300  0.621620  0.580100  1.0  -0.1165
  C  C291  1  0.560700  0.640760  0.659600  1.0  0.296
  C  C292  1  0.638400  0.640380  0.731900  1.0  -0.2046
  C  C293  1  0.749400  0.618560  0.723900  1.0  -0.078
  C  C294  1  0.786800  0.598190  0.644800  1.0  -0.1492
  C  C295  1  0.904400  0.571550  0.647400  1.0  0.6875
  C  C296  1  0.398400  0.670490  0.744000  1.0  0.1866
  C  C297  1  0.326700  0.637330  0.789000  1.0  -0.1148
  C  C298  1  0.283500  0.649860  0.870800  1.0  -0.0347
  C  C299  1  0.308300  0.693250  0.910900  1.0  0.0304
  C  C300  1  0.265100  0.705050  0.996700  1.0  -0.1454
  C  C301  1  0.288800  0.747820  0.030800  1.0  -0.0827
  C  C302  1  0.355100  0.780060  0.982600  1.0  -0.0641
  C  C303  1  0.398000  0.770180  0.900200  1.0  -0.1485
  C  C304  1  0.375700  0.725780  0.862500  1.0  0.0292
  C  C305  1  0.419900  0.712960  0.777800  1.0  -0.1307
  C  C306  1  0.925300  0.699230  0.544100  1.0  0.1846
  C  C307  1  0.925100  0.736500  0.599200  1.0  -0.1859
  C  C308  1  0.996000  0.736220  0.676300  1.0  0.0972
  C  C309  1  0.065600  0.697300  0.690800  1.0  -0.1996
  C  C310  1  0.291400  0.590470  0.752200  1.0  0.6942
  C  C311  1  0.999700  0.776280  0.738000  1.0  0.0744
  C  C312  1  0.905200  0.807720  0.742700  1.0  -0.1827
  C  C313  1  0.911200  0.842790  0.802800  1.0  0.1867
  C  C314  1  0.095000  0.818800  0.854900  1.0  0.1721
  C  C315  1  0.096200  0.782830  0.795000  1.0  -0.1852
  C  C316  1  0.821900  0.688430  0.906400  1.0  -0.0748
  N  N317  1  0.993200  0.838140  0.057230  1.0  -0.3139
  N  N318  1  0.004200  0.651690  0.360930  1.0  -0.3166
  N  N319  1  0.006800  0.338140  0.442770  1.0  -0.3134
  N  N320  1  0.995800  0.151690  0.139070  1.0  -0.3168
  N  N321  1  0.006800  0.161860  0.942770  1.0  -0.3131
  N  N322  1  0.995800  0.348310  0.639070  1.0  -0.3166
  N  N323  1  0.993200  0.661860  0.557230  1.0  -0.3146
  N  N324  1  0.004200  0.848310  0.860930  1.0  -0.316
  O  O325  1  0.645700  0.959940  0.770740  1.0  -0.5895
  O  O326  1  0.797200  0.975810  0.678730  1.0  -0.6036
  O  O327  1  0.555610  0.870760  0.761730  1.0  -0.243
  O  O328  1  0.046000  0.967650  0.739220  1.0  -0.6094
  O  O329  1  0.036120  0.950070  0.881640  1.0  -0.6056
  O  O330  1  0.178130  0.903170  0.005630  1.0  -0.5904
  O  O331  1  0.334540  0.952330  0.005220  1.0  -0.6161
  O  O332  1  0.659310  0.953660  0.963270  1.0  -0.6086
  O  O333  1  0.817770  0.908100  0.934390  1.0  -0.5947
  O  O334  1  0.959250  0.938390  0.077180  1.0  -0.5669
  O  O335  1  0.941700  0.938860  0.222710  1.0  -0.5902
  O  O336  1  0.445460  0.839920  0.161230  1.0  -0.2627
  O  O337  1  0.359100  0.929670  0.199700  1.0  -0.5888
  O  O338  1  0.190200  0.923610  0.280670  1.0  -0.6245
  O  O339  1  0.853600  0.009260  0.867720  1.0  -0.8179
  O  O340  1  0.354300  0.459940  0.729260  1.0  -0.5906
  O  O341  1  0.202800  0.475810  0.821270  1.0  -0.6006
  O  O342  1  0.444390  0.370760  0.738270  1.0  -0.2437
  O  O343  1  0.954000  0.467650  0.760780  1.0  -0.6091
  O  O344  1  0.963880  0.450070  0.618360  1.0  -0.6047
  O  O345  1  0.821870  0.403170  0.494370  1.0  -0.5899
  O  O346  1  0.665460  0.452330  0.494780  1.0  -0.616
  O  O347  1  0.340690  0.453660  0.536730  1.0  -0.6076
  O  O348  1  0.182230  0.408100  0.565610  1.0  -0.5942
  O  O349  1  0.040750  0.438390  0.422820  1.0  -0.5666
  O  O350  1  0.058300  0.438860  0.277290  1.0  -0.5917
  O  O351  1  0.554540  0.339920  0.338770  1.0  -0.2633
  O  O352  1  0.640900  0.429670  0.300300  1.0  -0.5902
  O  O353  1  0.809800  0.423610  0.219330  1.0  -0.6233
  O  O354  1  0.146400  0.509260  0.632280  1.0  -0.8116
  O  O355  1  0.354300  0.040060  0.229260  1.0  -0.5911
  O  O356  1  0.202800  0.024190  0.321270  1.0  -0.6012
  O  O357  1  0.444390  0.129240  0.238270  1.0  -0.2431
  O  O358  1  0.954000  0.032350  0.260780  1.0  -0.609
  O  O359  1  0.963880  0.049930  0.118360  1.0  -0.6047
  O  O360  1  0.821870  0.096830  0.994370  1.0  -0.59
  O  O361  1  0.665460  0.047670  0.994780  1.0  -0.6155
  O  O362  1  0.340690  0.046340  0.036730  1.0  -0.6081
  O  O363  1  0.182230  0.091900  0.065610  1.0  -0.5942
  O  O364  1  0.040750  0.061610  0.922820  1.0  -0.5662
  O  O365  1  0.058300  0.061140  0.777290  1.0  -0.5918
  O  O366  1  0.554540  0.160080  0.838770  1.0  -0.2628
  O  O367  1  0.640900  0.070330  0.800300  1.0  -0.5908
  O  O368  1  0.809800  0.076390  0.719330  1.0  -0.6234
  O  O369  1  0.146400  0.990740  0.132280  1.0  -0.8117
  O  O370  1  0.645700  0.540060  0.270740  1.0  -0.5901
  O  O371  1  0.797200  0.524190  0.178730  1.0  -0.6031
  O  O372  1  0.555610  0.629240  0.261730  1.0  -0.242
  O  O373  1  0.046000  0.532350  0.239220  1.0  -0.6088
  O  O374  1  0.036120  0.549930  0.381640  1.0  -0.6052
  O  O375  1  0.178130  0.596830  0.505630  1.0  -0.5906
  O  O376  1  0.334540  0.547670  0.505220  1.0  -0.6147
  O  O377  1  0.659310  0.546340  0.463270  1.0  -0.6091
  O  O378  1  0.817770  0.591900  0.434390  1.0  -0.5949
  O  O379  1  0.959250  0.561610  0.577180  1.0  -0.5669
  O  O380  1  0.941700  0.561140  0.722710  1.0  -0.5899
  O  O381  1  0.445460  0.660080  0.661230  1.0  -0.2624
  O  O382  1  0.359100  0.570330  0.699700  1.0  -0.5896
  O  O383  1  0.190200  0.576390  0.780670  1.0  -0.6244
  O  O384  1  0.853600  0.490740  0.367720  1.0  -0.818
