# generated using pymatgen
data_Ni3H4(C5O4)4
_symmetry_space_group_name_H-M   'P 1'
_cell_length_a   9.54000000
_cell_length_b   19.81200000
_cell_length_c   11.15100000
_cell_angle_alpha   90.00000000
_cell_angle_beta   113.68400000
_cell_angle_gamma   90.00000000
_symmetry_Int_Tables_number   1
_chemical_formula_structural   Ni3H4(C5O4)4
_chemical_formula_sum   'Ni6 H8 C40 O32'
_cell_volume   1930.09728425
_cell_formula_units_Z   2
loop_
 _symmetry_equiv_pos_site_id
 _symmetry_equiv_pos_as_xyz
  1  'x, y, z'
loop_
 _atom_site_type_symbol
 _atom_site_label
 _atom_site_symmetry_multiplicity
 _atom_site_fract_x
 _atom_site_fract_y
 _atom_site_fract_z
 _atom_site_occupancy
 _atom_site_charge
  Ni  Ni1  1  0.000000  0.500000  0.000000  1.0  0.6807
  Ni  Ni2  1  0.500000  0.000000  0.000000  1.0  0.6807
  Ni  Ni3  1  0.250000  0.750000  0.500000  1.0  0.6209
  Ni  Ni4  1  0.750000  0.750000  0.500000  1.0  0.6209
  Ni  Ni5  1  0.750000  0.250000  0.500000  1.0  0.6209
  Ni  Ni6  1  0.250000  0.250000  0.500000  1.0  0.6209
  H  H7  1  0.555800  0.820900  0.877600  1.0  0.1469
  H  H8  1  0.055800  0.320900  0.877600  1.0  0.1469
  H  H9  1  0.444200  0.820900  0.122400  1.0  0.1466
  H  H10  1  0.944200  0.320900  0.122400  1.0  0.1466
  H  H11  1  0.444200  0.179100  0.122400  1.0  0.147
  H  H12  1  0.944200  0.679100  0.122400  1.0  0.147
  H  H13  1  0.555800  0.179100  0.877600  1.0  0.1469
  H  H14  1  0.055800  0.679100  0.877600  1.0  0.1469
  C  C15  1  0.634400  0.792000  0.927300  1.0  -0.0338
  C  C16  1  0.743700  0.816100  0.048000  1.0  -0.0599
  C  C17  1  0.863200  0.771300  0.121000  1.0  -0.0272
  C  C18  1  0.713800  0.883400  0.091600  1.0  0.7663
  C  C19  1  0.002000  0.792200  0.236800  1.0  0.734
  C  C20  1  0.134400  0.292000  0.927300  1.0  -0.0338
  C  C21  1  0.243700  0.316100  0.048000  1.0  -0.0599
  C  C22  1  0.363200  0.271300  0.121000  1.0  -0.0272
  C  C23  1  0.213800  0.383400  0.091600  1.0  0.7663
  C  C24  1  0.502000  0.292200  0.236800  1.0  0.734
  C  C25  1  0.365600  0.792000  0.072700  1.0  -0.0338
  C  C26  1  0.256300  0.816100  0.952000  1.0  -0.06
  C  C27  1  0.136800  0.771300  0.879000  1.0  -0.0289
  C  C28  1  0.286200  0.883400  0.908400  1.0  0.7676
  C  C29  1  0.998000  0.792200  0.763200  1.0  0.7366
  C  C30  1  0.865600  0.292000  0.072700  1.0  -0.0338
  C  C31  1  0.756300  0.316100  0.952000  1.0  -0.06
  C  C32  1  0.636800  0.271300  0.879000  1.0  -0.0289
  C  C33  1  0.786200  0.383400  0.908400  1.0  0.7676
  C  C34  1  0.498000  0.292200  0.763200  1.0  0.7366
  C  C35  1  0.365600  0.208000  0.072700  1.0  -0.0337
  C  C36  1  0.256300  0.183900  0.952000  1.0  -0.0617
  C  C37  1  0.136800  0.228700  0.879000  1.0  -0.0302
  C  C38  1  0.286200  0.116600  0.908400  1.0  0.7659
  C  C39  1  0.998000  0.207800  0.763200  1.0  0.7347
  C  C40  1  0.865600  0.708000  0.072700  1.0  -0.0337
  C  C41  1  0.756300  0.683900  0.952000  1.0  -0.0617
  C  C42  1  0.636800  0.728700  0.879000  1.0  -0.0302
  C  C43  1  0.786200  0.616600  0.908400  1.0  0.7659
  C  C44  1  0.498000  0.707800  0.763200  1.0  0.7347
  C  C45  1  0.634400  0.208000  0.927300  1.0  -0.0335
  C  C46  1  0.743700  0.183900  0.048000  1.0  -0.0612
  C  C47  1  0.863200  0.228700  0.121000  1.0  -0.0271
  C  C48  1  0.713800  0.116600  0.091600  1.0  0.7672
  C  C49  1  0.002000  0.207800  0.236800  1.0  0.7331
  C  C50  1  0.134400  0.708000  0.927300  1.0  -0.0335
  C  C51  1  0.243700  0.683900  0.048000  1.0  -0.0612
  C  C52  1  0.363200  0.728700  0.121000  1.0  -0.0271
  C  C53  1  0.213800  0.616600  0.091600  1.0  0.7672
  C  C54  1  0.502000  0.707800  0.236800  1.0  0.7331
  O  O55  1  0.654900  0.927400  0.006000  1.0  -0.5656
  O  O56  1  0.740700  0.890900  0.209500  1.0  -0.4525
  O  O57  1  0.049700  0.749500  0.331100  1.0  -0.5889
  O  O58  1  0.061400  0.846900  0.236900  1.0  -0.402
  O  O59  1  0.154900  0.427400  0.006000  1.0  -0.5656
  O  O60  1  0.240700  0.390900  0.209500  1.0  -0.4525
  O  O61  1  0.549700  0.249500  0.331100  1.0  -0.5889
  O  O62  1  0.561400  0.346900  0.236900  1.0  -0.402
  O  O63  1  0.345100  0.927400  0.994000  1.0  -0.5669
  O  O64  1  0.259300  0.890900  0.790500  1.0  -0.4501
  O  O65  1  0.950300  0.749500  0.668900  1.0  -0.5892
  O  O66  1  0.938600  0.846900  0.763100  1.0  -0.3997
  O  O67  1  0.845100  0.427400  0.994000  1.0  -0.5669
  O  O68  1  0.759300  0.390900  0.790500  1.0  -0.4501
  O  O69  1  0.450300  0.249500  0.668900  1.0  -0.5892
  O  O70  1  0.438600  0.346900  0.763100  1.0  -0.3997
  O  O71  1  0.345100  0.072600  0.994000  1.0  -0.5658
  O  O72  1  0.259300  0.109100  0.790500  1.0  -0.4483
  O  O73  1  0.950300  0.250500  0.668900  1.0  -0.5899
  O  O74  1  0.938600  0.153100  0.763100  1.0  -0.3992
  O  O75  1  0.845100  0.572600  0.994000  1.0  -0.5658
  O  O76  1  0.759300  0.609100  0.790500  1.0  -0.4483
  O  O77  1  0.450300  0.750500  0.668900  1.0  -0.5899
  O  O78  1  0.438600  0.653100  0.763100  1.0  -0.3992
  O  O79  1  0.654900  0.072600  0.006000  1.0  -0.565
  O  O80  1  0.740700  0.109100  0.209500  1.0  -0.4523
  O  O81  1  0.049700  0.250500  0.331100  1.0  -0.5879
  O  O82  1  0.061400  0.153100  0.236900  1.0  -0.4013
  O  O83  1  0.154900  0.572600  0.006000  1.0  -0.565
  O  O84  1  0.240700  0.609100  0.209500  1.0  -0.4523
  O  O85  1  0.549700  0.750500  0.331100  1.0  -0.5879
  O  O86  1  0.561400  0.653100  0.236900  1.0  -0.4013
