# generated using pymatgen
data_Ca3C6(NO6)2
_symmetry_space_group_name_H-M   'P 1'
_cell_length_a   23.59330000
_cell_length_b   13.84590000
_cell_length_c   6.80100000
_cell_angle_alpha   90.00000000
_cell_angle_beta   95.19520000
_cell_angle_gamma   90.00000000
_symmetry_Int_Tables_number   1
_chemical_formula_structural   Ca3C6(NO6)2
_chemical_formula_sum   'Ca12 C24 N8 O48'
_cell_volume   2212.55917086
_cell_formula_units_Z   4
loop_
 _symmetry_equiv_pos_site_id
 _symmetry_equiv_pos_as_xyz
  1  'x, y, z'
loop_
 _atom_site_type_symbol
 _atom_site_label
 _atom_site_symmetry_multiplicity
 _atom_site_fract_x
 _atom_site_fract_y
 _atom_site_fract_z
 _atom_site_occupancy
 _atom_site_charge
  Ca  Ca1  1  0.541790  0.022350  0.263280  1.0  1.5988
  Ca  Ca2  1  0.751130  0.940450  0.299430  1.0  1.5771
  Ca  Ca3  1  0.672590  0.504420  0.178830  1.0  1.5697
  Ca  Ca4  1  0.958210  0.522350  0.736720  1.0  1.5989
  Ca  Ca5  1  0.748870  0.440450  0.700570  1.0  1.5772
  Ca  Ca6  1  0.827410  0.004420  0.821170  1.0  1.5721
  Ca  Ca7  1  0.458210  0.977650  0.736720  1.0  1.6022
  Ca  Ca8  1  0.248870  0.059550  0.700570  1.0  1.5761
  Ca  Ca9  1  0.327410  0.495580  0.821170  1.0  1.5724
  Ca  Ca10  1  0.041790  0.477650  0.263280  1.0  1.6022
  Ca  Ca11  1  0.251130  0.559550  0.299430  1.0  1.5761
  Ca  Ca12  1  0.172590  0.995580  0.178830  1.0  1.5701
  C  C13  1  0.575970  0.054520  0.766730  1.0  0.7212
  C  C14  1  0.631000  0.109870  0.784880  1.0  -0.0303
  C  C15  1  0.862960  0.041260  0.334260  1.0  0.6731
  C  C16  1  0.912450  0.109260  0.363260  1.0  0.0017
  C  C17  1  0.718680  0.903350  0.781690  1.0  0.6921
  C  C18  1  0.667070  0.839410  0.761620  1.0  -0.0361
  C  C19  1  0.924030  0.554520  0.233270  1.0  0.7219
  C  C20  1  0.869000  0.609870  0.215120  1.0  -0.0277
  C  C21  1  0.637040  0.541260  0.665740  1.0  0.6736
  C  C22  1  0.587550  0.609260  0.636740  1.0  0.0024
  C  C23  1  0.781320  0.403350  0.218310  1.0  0.6943
  C  C24  1  0.832930  0.339410  0.238380  1.0  -0.0367
  C  C25  1  0.424030  0.945480  0.233270  1.0  0.7219
  C  C26  1  0.369000  0.890130  0.215120  1.0  -0.0282
  C  C27  1  0.137040  0.958740  0.665740  1.0  0.6735
  C  C28  1  0.087550  0.890740  0.636740  1.0  0.0016
  C  C29  1  0.281320  0.096650  0.218310  1.0  0.6927
  C  C30  1  0.332930  0.160590  0.238380  1.0  -0.0368
  C  C31  1  0.075970  0.445480  0.766730  1.0  0.7208
  C  C32  1  0.131000  0.390130  0.784880  1.0  -0.0312
  C  C33  1  0.362960  0.458740  0.334260  1.0  0.673
  C  C34  1  0.412450  0.390740  0.363260  1.0  0.0017
  C  C35  1  0.218680  0.596650  0.781690  1.0  0.6963
  C  C36  1  0.167070  0.660590  0.761620  1.0  -0.0363
  N  N37  1  0.662690  0.090370  0.295200  1.0  0.7768
  N  N38  1  0.681390  0.711820  0.229390  1.0  0.7687
  N  N39  1  0.837310  0.590370  0.704800  1.0  0.7767
  N  N40  1  0.818610  0.211820  0.770610  1.0  0.7683
  N  N41  1  0.337310  0.909630  0.704800  1.0  0.7771
  N  N42  1  0.318610  0.288180  0.770610  1.0  0.7684
  N  N43  1  0.162690  0.409630  0.295200  1.0  0.7768
  N  N44  1  0.181390  0.788180  0.229390  1.0  0.7688
  O  O45  1  0.552630  0.033580  0.601140  1.0  -0.7449
  O  O46  1  0.550540  0.037990  0.915420  1.0  -0.7457
  O  O47  1  0.648420  0.999710  0.289900  1.0  -0.6767
  O  O48  1  0.716030  0.114920  0.303500  1.0  -0.609
  O  O49  1  0.623380  0.156310  0.276400  1.0  -0.6297
  O  O50  1  0.633600  0.668290  0.177420  1.0  -0.6187
  O  O51  1  0.681690  0.804030  0.262400  1.0  -0.7093
  O  O52  1  0.729290  0.666030  0.225100  1.0  -0.6215
  O  O53  1  0.836180  0.018350  0.477450  1.0  -0.7351
  O  O54  1  0.841790  0.023220  0.163920  1.0  -0.7622
  O  O55  1  0.740110  0.931620  0.631530  1.0  -0.7219
  O  O56  1  0.738030  0.932850  0.947190  1.0  -0.7438
  O  O57  1  0.947370  0.533580  0.398860  1.0  -0.7437
  O  O58  1  0.949460  0.537990  0.084580  1.0  -0.745
  O  O59  1  0.851580  0.499710  0.710100  1.0  -0.6771
  O  O60  1  0.783970  0.614920  0.696500  1.0  -0.608
  O  O61  1  0.876620  0.656310  0.723600  1.0  -0.6267
  O  O62  1  0.866400  0.168290  0.822580  1.0  -0.6192
  O  O63  1  0.818310  0.304030  0.737600  1.0  -0.7085
  O  O64  1  0.770710  0.166030  0.774900  1.0  -0.6238
  O  O65  1  0.663820  0.518350  0.522550  1.0  -0.7354
  O  O66  1  0.658210  0.523220  0.836080  1.0  -0.7601
  O  O67  1  0.759890  0.431620  0.368470  1.0  -0.7231
  O  O68  1  0.761970  0.432850  0.052810  1.0  -0.7462
  O  O69  1  0.447370  0.966420  0.398860  1.0  -0.7431
  O  O70  1  0.449460  0.962010  0.084580  1.0  -0.7446
  O  O71  1  0.351580  0.000290  0.710100  1.0  -0.6781
  O  O72  1  0.283970  0.885080  0.696500  1.0  -0.6102
  O  O73  1  0.376620  0.843690  0.723600  1.0  -0.6249
  O  O74  1  0.366400  0.331710  0.822580  1.0  -0.6182
  O  O75  1  0.318310  0.195970  0.737600  1.0  -0.7106
  O  O76  1  0.270710  0.333970  0.774900  1.0  -0.6236
  O  O77  1  0.163820  0.981650  0.522550  1.0  -0.7355
  O  O78  1  0.158210  0.976780  0.836080  1.0  -0.7605
  O  O79  1  0.259890  0.068380  0.368470  1.0  -0.7233
  O  O80  1  0.261970  0.067150  0.052810  1.0  -0.7449
  O  O81  1  0.052630  0.466420  0.601140  1.0  -0.7442
  O  O82  1  0.050540  0.462010  0.915420  1.0  -0.7454
  O  O83  1  0.148420  0.500290  0.289900  1.0  -0.6786
  O  O84  1  0.216030  0.385080  0.303500  1.0  -0.6081
  O  O85  1  0.123380  0.343690  0.276400  1.0  -0.6273
  O  O86  1  0.133600  0.831710  0.177420  1.0  -0.6193
  O  O87  1  0.181690  0.695970  0.262400  1.0  -0.7109
  O  O88  1  0.229290  0.833970  0.225100  1.0  -0.6211
  O  O89  1  0.336180  0.481650  0.477450  1.0  -0.7355
  O  O90  1  0.341790  0.476780  0.163920  1.0  -0.7621
  O  O91  1  0.240110  0.568380  0.631530  1.0  -0.7228
  O  O92  1  0.238030  0.567150  0.947190  1.0  -0.7452
