# generated using pymatgen
data_MnP2H22(C3O)8
_symmetry_space_group_name_H-M   'P 1'
_cell_length_a   7.91370000
_cell_length_b   12.73040000
_cell_length_c   27.35700000
_cell_angle_alpha   90.00000000
_cell_angle_beta   90.00000000
_cell_angle_gamma   90.00000000
_symmetry_Int_Tables_number   1
_chemical_formula_structural   MnP2H22(C3O)8
_chemical_formula_sum   'Mn4 P8 H88 C96 O32'
_cell_volume   2756.06910519
_cell_formula_units_Z   4
loop_
 _symmetry_equiv_pos_site_id
 _symmetry_equiv_pos_as_xyz
  1  'x, y, z'
loop_
 _atom_site_type_symbol
 _atom_site_label
 _atom_site_symmetry_multiplicity
 _atom_site_fract_x
 _atom_site_fract_y
 _atom_site_fract_z
 _atom_site_occupancy
 _atom_site_charge
  Mn  Mn1  1  0.344450  0.257530  0.022870  1.0  1.2812
  Mn  Mn2  1  0.155550  0.742470  0.522870  1.0  1.2815
  Mn  Mn3  1  0.655550  0.757530  0.477130  1.0  1.2874
  Mn  Mn4  1  0.844450  0.242470  0.977130  1.0  1.2808
  P  P5  1  0.593600  0.448480  0.967630  1.0  1.5335
  P  P6  1  0.517300  0.628090  0.561030  1.0  1.4666
  P  P7  1  0.906400  0.551520  0.467630  1.0  1.5337
  P  P8  1  0.982700  0.371910  0.061030  1.0  1.4662
  P  P9  1  0.406400  0.948480  0.532370  1.0  1.5332
  P  P10  1  0.482700  0.128090  0.938970  1.0  1.4675
  P  P11  1  0.093600  0.051520  0.032370  1.0  1.5325
  P  P12  1  0.017300  0.871910  0.438970  1.0  1.4676
  H  H13  1  0.130600  0.903100  0.912000  1.0  0.116
  H  H14  1  0.041900  0.012000  0.898100  1.0  0.1213
  H  H15  1  0.965000  0.903700  0.878500  1.0  0.1084
  H  H16  1  0.880300  0.837400  0.753100  1.0  0.1198
  H  H17  1  0.702600  0.822900  0.780200  1.0  0.1078
  H  H18  1  0.873600  0.788300  0.807000  1.0  0.1046
  H  H19  1  0.509000  0.686000  0.831400  1.0  0.0931
  H  H20  1  0.774000  0.700000  0.712000  1.0  0.071
  H  H21  1  0.008000  0.462000  0.883000  1.0  0.0795
  H  H22  1  0.469000  0.921000  0.694000  1.0  0.0653
  H  H23  1  0.274000  0.537000  0.717600  1.0  0.1039
  H  H24  1  0.708000  0.636000  0.776000  1.0  0.0562
  H  H25  1  0.661000  0.610000  0.894000  1.0  0.0958
  H  H26  1  0.364000  0.500000  0.640000  1.0  0.0973
  H  H27  1  0.823000  0.510000  0.813000  1.0  0.1047
  H  H28  1  0.530000  0.807000  0.625000  1.0  0.0927
  H  H29  1  0.122000  0.973000  0.811000  1.0  0.073
  H  H30  1  0.285000  0.971000  0.854000  1.0  0.0608
  H  H31  1  0.256000  0.435000  0.930000  1.0  0.1054
  H  H32  1  0.397000  0.963000  0.766000  1.0  0.1292
  H  H33  1  0.467000  0.470000  0.551000  1.0  0.4689
  H  H34  1  0.739000  0.530000  0.013000  1.0  0.4217
  H  H35  1  0.369400  0.096900  0.412000  1.0  0.1145
  H  H36  1  0.458100  0.988000  0.398100  1.0  0.1218
  H  H37  1  0.535000  0.096300  0.378500  1.0  0.1039
  H  H38  1  0.619700  0.162600  0.253100  1.0  0.1182
  H  H39  1  0.797400  0.177100  0.280200  1.0  0.1086
  H  H40  1  0.626400  0.211700  0.307000  1.0  0.104
  H  H41  1  0.991000  0.314000  0.331400  1.0  0.0938
  H  H42  1  0.726000  0.300000  0.212000  1.0  0.0708
  H  H43  1  0.492000  0.538000  0.383000  1.0  0.08
  H  H44  1  0.031000  0.079000  0.194000  1.0  0.0632
  H  H45  1  0.226000  0.463000  0.217600  1.0  0.104
  H  H46  1  0.792000  0.364000  0.276000  1.0  0.0567
  H  H47  1  0.839000  0.390000  0.394000  1.0  0.0962
  H  H48  1  0.136000  0.500000  0.140000  1.0  0.0965
  H  H49  1  0.677000  0.490000  0.313000  1.0  0.1044
  H  H50  1  0.970000  0.193000  0.125000  1.0  0.0928
  H  H51  1  0.378000  0.027000  0.311000  1.0  0.0722
  H  H52  1  0.215000  0.029000  0.354000  1.0  0.0622
  H  H53  1  0.244000  0.565000  0.430000  1.0  0.1046
  H  H54  1  0.103000  0.037000  0.266000  1.0  0.1239
  H  H55  1  0.033000  0.530000  0.051000  1.0  0.4681
  H  H56  1  0.761000  0.470000  0.513000  1.0  0.4222
  H  H57  1  0.869400  0.403100  0.588000  1.0  0.1145
  H  H58  1  0.958100  0.512000  0.601900  1.0  0.1219
  H  H59  1  0.035000  0.403700  0.621500  1.0  0.1048
  H  H60  1  0.119700  0.337400  0.746900  1.0  0.1188
  H  H61  1  0.297400  0.322900  0.719800  1.0  0.1067
  H  H62  1  0.126400  0.288300  0.693000  1.0  0.105
  H  H63  1  0.491000  0.186000  0.668600  1.0  0.0934
  H  H64  1  0.226000  0.200000  0.788000  1.0  0.0714
  H  H65  1  0.992000  0.962000  0.617000  1.0  0.078
  H  H66  1  0.531000  0.421000  0.806000  1.0  0.0655
  H  H67  1  0.726000  0.037000  0.782400  1.0  0.1037
  H  H68  1  0.292000  0.136000  0.724000  1.0  0.0562
  H  H69  1  0.339000  0.110000  0.606000  1.0  0.0958
  H  H70  1  0.636000  0.000000  0.860000  1.0  0.0984
  H  H71  1  0.177000  0.010000  0.687000  1.0  0.1048
  H  H72  1  0.470000  0.307000  0.875000  1.0  0.0922
  H  H73  1  0.878000  0.473000  0.689000  1.0  0.0725
  H  H74  1  0.715000  0.471000  0.646000  1.0  0.0608
  H  H75  1  0.744000  0.935000  0.570000  1.0  0.1046
  H  H76  1  0.603000  0.463000  0.734000  1.0  0.1261
  H  H77  1  0.533000  0.970000  0.949000  1.0  0.4684
  H  H78  1  0.261000  0.030000  0.487000  1.0  0.421
  H  H79  1  0.630600  0.596900  0.088000  1.0  0.1144
  H  H80  1  0.541900  0.488000  0.101900  1.0  0.1205
  H  H81  1  0.465000  0.596300  0.121500  1.0  0.1053
  H  H82  1  0.380300  0.662600  0.246900  1.0  0.1199
  H  H83  1  0.202600  0.677100  0.219800  1.0  0.1076
  H  H84  1  0.373600  0.711700  0.193000  1.0  0.1051
  H  H85  1  0.009000  0.814000  0.168600  1.0  0.0935
  H  H86  1  0.274000  0.800000  0.288000  1.0  0.0708
  H  H87  1  0.508000  0.038000  0.117000  1.0  0.078
  H  H88  1  0.969000  0.579000  0.306000  1.0  0.0659
  H  H89  1  0.774000  0.963000  0.282400  1.0  0.1039
  H  H90  1  0.208000  0.864000  0.224000  1.0  0.0572
  H  H91  1  0.161000  0.890000  0.106000  1.0  0.0954
  H  H92  1  0.864000  0.000000  0.360000  1.0  0.0973
  H  H93  1  0.323000  0.990000  0.187000  1.0  0.1042
  H  H94  1  0.030000  0.693000  0.375000  1.0  0.0929
  H  H95  1  0.622000  0.527000  0.189000  1.0  0.073
  H  H96  1  0.785000  0.529000  0.146000  1.0  0.06
  H  H97  1  0.756000  0.065000  0.070000  1.0  0.105
  H  H98  1  0.897000  0.537000  0.234000  1.0  0.1237
  H  H99  1  0.967000  0.030000  0.449000  1.0  0.4687
  H  H100  1  0.239000  0.970000  0.987000  1.0  0.4219
  C  C101  1  0.549900  0.588400  0.888900  1.0  -0.0017
  C  C102  1  0.479200  0.748800  0.643200  1.0  0.0219
  C  C103  1  0.203800  0.639000  0.800000  1.0  -0.0819
  C  C104  1  0.364000  0.902100  0.753900  1.0  -0.2216
  C  C105  1  0.957900  0.536100  0.825300  1.0  -0.235
  C  C106  1  0.421200  0.773300  0.690200  1.0  -0.0279
  C  C107  1  0.462300  0.630300  0.851300  1.0  -0.1535
  C  C108  1  0.328600  0.590200  0.699100  1.0  -0.1433
  C  C109  1  0.213700  0.529700  0.873800  1.0  -0.0372
  C  C110  1  0.040100  0.603600  0.791900  1.0  0.237
  C  C111  1  0.309100  0.486100  0.912500  1.0  0.0036
  C  C112  1  0.431400  0.874300  0.709000  1.0  1e-04
  C  C113  1  0.281400  0.719000  0.766900  1.0  -0.0991
  C  C114  1  0.288300  0.821200  0.782400  1.0  0.2364
  C  C115  1  0.342900  0.693200  0.719000  1.0  0.0576
  C  C116  1  0.475500  0.511200  0.920000  1.0  -0.3705
  C  C117  1  0.382900  0.569300  0.652400  1.0  -0.0014
  C  C118  1  0.044000  0.502300  0.865400  1.0  0.0221
  C  C119  1  0.798600  0.683700  0.753700  1.0  0.0867
  C  C120  1  0.180500  0.949200  0.840600  1.0  0.1339
  C  C121  1  0.069500  0.941300  0.886500  1.0  -0.3589
  C  C122  1  0.293600  0.600800  0.840800  1.0  0.0586
  C  C123  1  0.459900  0.650300  0.623500  1.0  -0.4329
  C  C124  1  0.815200  0.792700  0.775400  1.0  -0.3555
  C  C125  1  0.950100  0.411600  0.388900  1.0  0.0057
  C  C126  1  0.020800  0.251200  0.143200  1.0  0.0234
  C  C127  1  0.296200  0.361000  0.300000  1.0  -0.0803
  C  C128  1  0.136000  0.097900  0.253900  1.0  -0.2281
  C  C129  1  0.542100  0.463900  0.325300  1.0  -0.2236
  C  C130  1  0.078800  0.226700  0.190200  1.0  -0.0275
  C  C131  1  0.037700  0.369700  0.351300  1.0  -0.1537
  C  C132  1  0.171400  0.409800  0.199100  1.0  -0.1445
  C  C133  1  0.286300  0.470300  0.373800  1.0  -0.0367
  C  C134  1  0.459900  0.396400  0.291900  1.0  0.2363
  C  C135  1  0.190900  0.513900  0.412500  1.0  0.0045
  C  C136  1  0.068600  0.125700  0.209000  1.0  0.0003
  C  C137  1  0.218600  0.281000  0.266900  1.0  -0.0981
  C  C138  1  0.211700  0.178800  0.282400  1.0  0.2367
  C  C139  1  0.157100  0.306800  0.219000  1.0  0.058
  C  C140  1  0.024500  0.488800  0.420000  1.0  -0.3721
  C  C141  1  0.117100  0.430700  0.152400  1.0  -0.0026
  C  C142  1  0.456000  0.497700  0.365400  1.0  0.0217
  C  C143  1  0.701400  0.316300  0.253700  1.0  0.0867
  C  C144  1  0.319500  0.050800  0.340600  1.0  0.1343
  C  C145  1  0.430500  0.058700  0.386500  1.0  -0.3592
  C  C146  1  0.206400  0.399200  0.340800  1.0  0.0583
  C  C147  1  0.040100  0.349700  0.123500  1.0  -0.433
  C  C148  1  0.684800  0.207300  0.275400  1.0  -0.3562
  C  C149  1  0.450100  0.088400  0.611100  1.0  0.0061
  C  C150  1  0.520800  0.248800  0.856800  1.0  0.0223
  C  C151  1  0.796200  0.139000  0.700000  1.0  -0.0808
  C  C152  1  0.636000  0.402100  0.746100  1.0  -0.2227
  C  C153  1  0.042100  0.036100  0.674700  1.0  -0.223
  C  C154  1  0.578800  0.273300  0.809800  1.0  -0.0263
  C  C155  1  0.537700  0.130300  0.648700  1.0  -0.1542
  C  C156  1  0.671400  0.090200  0.800900  1.0  -0.1441
  C  C157  1  0.786300  0.029700  0.626200  1.0  -0.0377
  C  C158  1  0.959900  0.103600  0.708100  1.0  0.237
  C  C159  1  0.690900  0.986100  0.587500  1.0  0.003
  C  C160  1  0.568600  0.374300  0.791000  1.0  -1e-04
  C  C161  1  0.718600  0.219000  0.733100  1.0  -0.0987
  C  C162  1  0.711700  0.321200  0.717600  1.0  0.237
  C  C163  1  0.657100  0.193200  0.781000  1.0  0.0581
  C  C164  1  0.524500  0.011200  0.580000  1.0  -0.3698
  C  C165  1  0.617100  0.069300  0.847600  1.0  -0.0012
  C  C166  1  0.956000  0.002300  0.634600  1.0  0.0222
  C  C167  1  0.201400  0.183700  0.746300  1.0  0.0863
  C  C168  1  0.819500  0.449200  0.659400  1.0  0.135
  C  C169  1  0.930500  0.441300  0.613500  1.0  -0.3602
  C  C170  1  0.706400  0.100800  0.659200  1.0  0.0592
  C  C171  1  0.540100  0.150300  0.876500  1.0  -0.4325
  C  C172  1  0.184800  0.292700  0.724600  1.0  -0.3558
  C  C173  1  0.049900  0.911600  0.111100  1.0  -0.0013
  C  C174  1  0.979200  0.751200  0.356800  1.0  0.0218
  C  C175  1  0.703800  0.861000  0.200000  1.0  -0.0822
  C  C176  1  0.864000  0.597900  0.246100  1.0  -0.2274
  C  C177  1  0.457900  0.963900  0.174700  1.0  -0.2352
  C  C178  1  0.921200  0.726700  0.309800  1.0  -0.0249
  C  C179  1  0.962300  0.869700  0.148700  1.0  -0.156
  C  C180  1  0.828600  0.909800  0.300900  1.0  -0.1453
  C  C181  1  0.713700  0.970300  0.126200  1.0  -0.0384
  C  C182  1  0.540100  0.896400  0.208100  1.0  0.2364
  C  C183  1  0.809100  0.013900  0.087500  1.0  0.0024
  C  C184  1  0.931400  0.625700  0.291000  1.0  -0.0004
  C  C185  1  0.781400  0.781000  0.233100  1.0  -0.0983
  C  C186  1  0.788300  0.678800  0.217600  1.0  0.2359
  C  C187  1  0.842900  0.806800  0.281000  1.0  0.0582
  C  C188  1  0.975500  0.988800  0.080000  1.0  -0.3682
  C  C189  1  0.882900  0.930700  0.347600  1.0  -0.002
  C  C190  1  0.544000  0.997700  0.134600  1.0  0.0224
  C  C191  1  0.298600  0.816300  0.246300  1.0  0.0875
  C  C192  1  0.680500  0.550800  0.159400  1.0  0.1337
  C  C193  1  0.569500  0.558700  0.113500  1.0  -0.3594
  C  C194  1  0.793600  0.899200  0.159200  1.0  0.0585
  C  C195  1  0.959900  0.849700  0.376500  1.0  -0.4324
  C  C196  1  0.315200  0.707300  0.224600  1.0  -0.3558
  O  O197  1  0.961400  0.634100  0.748760  1.0  -0.2911
  O  O198  1  0.468300  0.398200  0.002180  1.0  -0.8661
  O  O199  1  0.679400  0.546200  0.992940  1.0  -0.7291
  O  O200  1  0.218400  0.841000  0.827010  1.0  -0.2885
  O  O201  1  0.376400  0.655700  0.527030  1.0  -0.8743
  O  O202  1  0.677300  0.686800  0.549420  1.0  -0.8127
  O  O203  1  0.726200  0.377300  0.946560  1.0  -0.8604
  O  O204  1  0.552600  0.506800  0.555920  1.0  -0.6939
  O  O205  1  0.538600  0.365900  0.248760  1.0  -0.2909
  O  O206  1  0.031700  0.601800  0.502180  1.0  -0.8669
  O  O207  1  0.820600  0.453800  0.492940  1.0  -0.7286
  O  O208  1  0.281600  0.159000  0.327010  1.0  -0.2889
  O  O209  1  0.123600  0.344300  0.027030  1.0  -0.8748
  O  O210  1  0.822700  0.313200  0.049420  1.0  -0.812
  O  O211  1  0.773800  0.622700  0.446560  1.0  -0.8588
  O  O212  1  0.947400  0.493200  0.055920  1.0  -0.6936
  O  O213  1  0.038600  0.134100  0.751240  1.0  -0.2898
  O  O214  1  0.531700  0.898200  0.497820  1.0  -0.868
  O  O215  1  0.320600  0.046200  0.507060  1.0  -0.7275
  O  O216  1  0.781600  0.341000  0.672990  1.0  -0.2896
  O  O217  1  0.623600  0.155700  0.972970  1.0  -0.874
  O  O218  1  0.322700  0.186800  0.950580  1.0  -0.8122
  O  O219  1  0.273800  0.877300  0.553440  1.0  -0.8587
  O  O220  1  0.447400  0.006800  0.944080  1.0  -0.6961
  O  O221  1  0.461400  0.865900  0.251240  1.0  -0.2899
  O  O222  1  0.968300  0.101800  0.997820  1.0  -0.866
  O  O223  1  0.179400  0.953800  0.007060  1.0  -0.7277
  O  O224  1  0.718400  0.659000  0.172990  1.0  -0.2884
  O  O225  1  0.876400  0.844300  0.472970  1.0  -0.8748
  O  O226  1  0.177300  0.813200  0.450580  1.0  -0.8124
  O  O227  1  0.226200  0.122700  0.053440  1.0  -0.8592
  O  O228  1  0.052600  0.993200  0.444080  1.0  -0.6906
