# generated using pymatgen
data_Cu4P8H65(C13O4)8
_symmetry_space_group_name_H-M   'P 1'
_cell_length_a   8.21100000
_cell_length_b   13.43080000
_cell_length_c   25.66400000
_cell_angle_alpha   90.00000000
_cell_angle_beta   90.00000000
_cell_angle_gamma   90.00000000
_symmetry_Int_Tables_number   1
_chemical_formula_structural   Cu4P8H65(C13O4)8
_chemical_formula_sum   'Cu4 P8 H65 C104 O32'
_cell_volume   2830.23358840
_cell_formula_units_Z   1
loop_
 _symmetry_equiv_pos_site_id
 _symmetry_equiv_pos_as_xyz
  1  'x, y, z'
loop_
 _atom_site_type_symbol
 _atom_site_label
 _atom_site_symmetry_multiplicity
 _atom_site_fract_x
 _atom_site_fract_y
 _atom_site_fract_z
 _atom_site_occupancy
 _atom_site_charge
  Cu  Cu1  1  0.156380  0.690200  0.997070  1.0  1.0118
  Cu  Cu2  1  0.343620  0.309800  0.497070  1.0  1.0678
  Cu  Cu3  1  0.843620  0.190200  0.502930  1.0  1.097
  Cu  Cu4  1  0.656380  0.809800  0.002930  1.0  1.1392
  P  P5  1  0.865000  0.688090  0.925710  1.0  1.3971
  P  P6  1  0.614500  0.332460  0.580990  1.0  1.451
  P  P7  1  0.635000  0.311910  0.425710  1.0  1.3978
  P  P8  1  0.885500  0.667540  0.080990  1.0  1.4457
  P  P9  1  0.135000  0.188090  0.574290  1.0  1.4083
  P  P10  1  0.385500  0.832460  0.919010  1.0  1.4442
  P  P11  1  0.365000  0.811910  0.074290  1.0  1.3958
  P  P12  1  0.114500  0.167540  0.419010  1.0  1.4433
  H  H13  1  0.784630  0.860680  0.865790  1.0  0.1013
  H  H14  1  0.977100  0.561520  0.841000  1.0  0.1114
  H  H15  1  0.745800  0.974670  0.789470  1.0  0.1067
  H  H16  1  0.746820  0.008370  0.693480  1.0  0.1233
  H  H17  1  0.005520  0.599500  0.742300  1.0  0.0938
  H  H18  1  0.609340  0.928190  0.609040  1.0  0.1053
  H  H19  1  0.766120  0.960390  0.559420  1.0  0.1125
  H  H20  1  0.770070  0.021350  0.624550  1.0  0.125
  H  H21  1  0.661340  0.642970  0.682030  1.0  0.0917
  H  H22  1  0.439070  0.826360  0.668440  1.0  0.0921
  H  H23  1  0.344670  0.715480  0.699790  1.0  0.1074
  H  H24  1  0.287850  0.842910  0.721790  1.0  0.0795
  H  H25  1  0.950310  0.392820  0.566190  1.0  0.0985
  H  H26  1  0.512160  0.496170  0.648070  1.0  0.1004
  H  H27  1  0.446800  0.133080  0.732550  1.0  0.1416
  H  H28  1  0.751260  0.343700  0.929160  1.0  0.2407
  H  H29  1  0.715250  0.139650  0.366010  1.0  0.1017
  H  H30  1  0.522900  0.438480  0.341000  1.0  0.1108
  H  H31  1  0.754200  0.025330  0.289470  1.0  0.1013
  H  H32  1  0.753180  0.991630  0.193480  1.0  0.1168
  H  H33  1  0.493800  0.402350  0.243550  1.0  0.1024
  H  H34  1  0.751850  0.049350  0.058420  1.0  0.1336
  H  H35  1  0.714200  0.976110  0.118820  1.0  0.1071
  H  H36  1  0.888420  0.064610  0.115770  1.0  0.1209
  H  H37  1  0.838660  0.357030  0.182030  1.0  0.093
  H  H38  1  0.150170  0.125530  0.200540  1.0  0.1028
  H  H39  1  0.063010  0.237510  0.168140  1.0  0.0828
  H  H40  1  0.215230  0.252220  0.221340  1.0  0.075
  H  H41  1  0.294750  0.511670  0.073060  1.0  0.1223
  H  H42  1  0.987840  0.503830  0.148070  1.0  0.102
  H  H43  1  0.151360  0.346620  0.097440  1.0  0.1092
  H  H44  1  0.053200  0.866920  0.232550  1.0  0.1129
  H  H45  1  0.748740  0.656300  0.429160  1.0  0.2384
  H  H46  1  0.215370  0.360680  0.634210  1.0  0.1065
  H  H47  1  0.022900  0.061520  0.659000  1.0  0.1092
  H  H48  1  0.254200  0.474670  0.710530  1.0  0.1076
  H  H49  1  0.253180  0.508370  0.806520  1.0  0.1284
  H  H50  1  0.994480  0.099500  0.757700  1.0  0.0948
  H  H51  1  0.317800  0.489300  0.863080  1.0  0.1163
  H  H52  1  0.355450  0.416060  0.923480  1.0  0.1098
  H  H53  1  0.181220  0.504560  0.920430  1.0  0.1195
  H  H54  1  0.338660  0.142970  0.817970  1.0  0.0931
  H  H55  1  0.635440  0.215360  0.807200  1.0  0.0893
  H  H56  1  0.722600  0.327340  0.774790  1.0  0.0823
  H  H57  1  0.570370  0.342050  0.828000  1.0  0.1108
  H  H58  1  0.487840  0.996170  0.851930  1.0  0.1024
  H  H59  1  0.553200  0.633080  0.767450  1.0  0.1728
  H  H60  1  0.248740  0.843700  0.570840  1.0  0.248
  H  H61  1  0.284630  0.639320  0.134210  1.0  0.0998
  H  H62  1  0.477100  0.938480  0.159000  1.0  0.112
  H  H63  1  0.245800  0.525330  0.210530  1.0  0.1033
  H  H64  1  0.246820  0.491630  0.306520  1.0  0.1175
  H  H65  1  0.506200  0.902350  0.256450  1.0  0.0988
  H  H66  1  0.321010  0.488240  0.413700  1.0  0.1221
  H  H67  1  0.164240  0.520440  0.364080  1.0  0.0839
  H  H68  1  0.160290  0.581400  0.429210  1.0  0.1119
  H  H69  1  0.161340  0.857030  0.317970  1.0  0.0963
  H  H70  1  0.775330  0.736530  0.275100  1.0  0.069
  H  H71  1  0.869720  0.625650  0.306440  1.0  0.1019
  H  H72  1  0.926540  0.753080  0.328440  1.0  0.077
  H  H73  1  0.705250  0.011670  0.426940  1.0  0.1259
  H  H74  1  0.012160  0.003830  0.351930  1.0  0.1025
  H  H75  1  0.848650  0.847700  0.402870  1.0  0.1198
  H  H76  1  0.946800  0.366920  0.267450  1.0  0.1661
  H  H77  1  0.251260  0.156300  0.070840  1.0  0.2428
  C  C78  1  0.843300  0.820700  0.783900  1.0  0.0247
  C  C79  1  0.880700  0.711800  0.856800  1.0  -0.3055
  C  C80  1  0.833000  0.801100  0.838200  1.0  -0.0399
  C  C81  1  0.981500  0.692400  0.659500  1.0  -0.0697
  C  C82  1  0.905100  0.765600  0.694800  1.0  -0.0954
  C  C83  1  0.901500  0.744700  0.749400  1.0  0.0412
  C  C84  1  0.940100  0.636600  0.824000  1.0  -0.0273
  C  C85  1  0.894100  0.604700  0.642600  1.0  0.0506
  C  C86  1  0.790300  0.912800  0.762600  1.0  -0.0853
  C  C87  1  0.789500  0.932800  0.708400  1.0  -0.1163
  C  C88  1  0.952000  0.657400  0.769900  1.0  -0.1582
  C  C89  1  0.137200  0.706500  0.642800  1.0  0.2164
  C  C90  1  0.842300  0.857000  0.675500  1.0  0.2353
  C  C91  1  0.742400  0.949300  0.602800  1.0  -0.0915
  C  C92  1  0.728200  0.588000  0.655800  1.0  -0.152
  C  C93  1  0.323000  0.795500  0.686700  1.0  -0.0537
  C  C94  1  0.974200  0.533600  0.609900  1.0  0.0033
  C  C95  1  0.137700  0.548000  0.596100  1.0  0.0176
  C  C96  1  0.887700  0.450000  0.592200  1.0  -0.0224
  C  C97  1  0.646000  0.507000  0.637700  1.0  -0.0123
  C  C98  1  0.729000  0.434800  0.605300  1.0  -0.2829
  C  C99  1  0.219000  0.637500  0.611000  1.0  -0.114
  C  C100  1  0.647200  0.226100  0.664600  1.0  0.0289
  C  C101  1  0.531300  0.172300  0.703900  1.0  -0.0476
  C  C102  1  0.740000  0.426600  0.938000  1.0  -0.3245
  C  C103  1  0.727000  0.522300  0.948200  1.0  0.1553
  C  C104  1  0.656700  0.179300  0.283900  1.0  0.0232
  C  C105  1  0.619300  0.288200  0.356800  1.0  -0.3109
  C  C106  1  0.667000  0.198900  0.338200  1.0  -0.0513
  C  C107  1  0.518500  0.307600  0.159500  1.0  -0.0619
  C  C108  1  0.594900  0.234400  0.194800  1.0  -0.0956
  C  C109  1  0.598500  0.255300  0.249400  1.0  0.06
  C  C110  1  0.559900  0.363400  0.324000  1.0  -0.0292
  C  C111  1  0.605900  0.395300  0.142600  1.0  0.0815
  C  C112  1  0.709700  0.087200  0.262600  1.0  -0.088
  C  C113  1  0.710500  0.067200  0.208400  1.0  -0.1761
  C  C114  1  0.548000  0.342600  0.269900  1.0  -0.1674
  C  C115  1  0.362800  0.293500  0.142800  1.0  0.2277
  C  C116  1  0.657700  0.143000  0.175500  1.0  0.2431
  C  C117  1  0.757600  0.050700  0.102800  1.0  -0.0949
  C  C118  1  0.771800  0.412000  0.155800  1.0  -0.1577
  C  C119  1  0.177000  0.204500  0.186700  1.0  -0.068
  C  C120  1  0.525800  0.466400  0.109900  1.0  0.0028
  C  C121  1  0.362300  0.452000  0.096100  1.0  -0.0989
  C  C122  1  0.612300  0.550000  0.092200  1.0  0.1073
  C  C123  1  0.854000  0.493000  0.137700  1.0  -0.0093
  C  C124  1  0.771000  0.565200  0.105300  1.0  -0.3486
  C  C125  1  0.281000  0.362500  0.111000  1.0  -0.1493
  C  C126  1  0.852800  0.773900  0.164600  1.0  0.001
  C  C127  1  0.968700  0.827700  0.203900  1.0  -0.0897
  C  C128  1  0.760000  0.573400  0.438000  1.0  -0.3323
  C  C129  1  0.773000  0.477700  0.448200  1.0  0.1715
  C  C130  1  0.156700  0.320700  0.716100  1.0  0.0219
  C  C131  1  0.119300  0.211800  0.643200  1.0  -0.2742
  C  C132  1  0.167000  0.301100  0.661800  1.0  -0.0477
  C  C133  1  0.018500  0.192400  0.840500  1.0  -0.0734
  C  C134  1  0.094900  0.265600  0.805200  1.0  -0.0972
  C  C135  1  0.098500  0.244700  0.750600  1.0  0.0407
  C  C136  1  0.059900  0.136600  0.676000  1.0  -0.0234
  C  C137  1  0.105900  0.104700  0.857400  1.0  0.0511
  C  C138  1  0.209700  0.412800  0.737400  1.0  -0.0743
  C  C139  1  0.210500  0.432800  0.791600  1.0  -0.1973
  C  C140  1  0.048000  0.157400  0.730100  1.0  -0.1647
  C  C141  1  0.862800  0.206500  0.857200  1.0  0.2305
  C  C142  1  0.157700  0.357000  0.824500  1.0  0.215
  C  C143  1  0.257600  0.449300  0.897200  1.0  -0.1143
  C  C144  1  0.271800  0.088000  0.844200  1.0  -0.147
  C  C145  1  0.677000  0.295500  0.813300  1.0  -0.0697
  C  C146  1  0.025800  0.033600  0.890100  1.0  -0.0229
  C  C147  1  0.862300  0.048000  0.903900  1.0  -0.002
  C  C148  1  0.112300  0.950000  0.907800  1.0  0.1018
  C  C149  1  0.354000  0.007000  0.862300  1.0  -0.0079
  C  C150  1  0.271000  0.934800  0.894700  1.0  -0.3416
  C  C151  1  0.781000  0.137500  0.889000  1.0  -0.1416
  C  C152  1  0.352800  0.726100  0.835400  1.0  0.0002
  C  C153  1  0.468700  0.672300  0.796100  1.0  -0.0919
  C  C154  1  0.260000  0.926600  0.562000  1.0  -0.3881
  C  C155  1  0.273000  0.022300  0.551800  1.0  0.1666
  C  C156  1  0.343300  0.679300  0.216100  1.0  0.0259
  C  C157  1  0.380700  0.788200  0.143200  1.0  -0.3113
  C  C158  1  0.333000  0.698900  0.161800  1.0  -0.0401
  C  C159  1  0.481500  0.807600  0.340500  1.0  -0.0611
  C  C160  1  0.405100  0.734400  0.305200  1.0  -0.1032
  C  C161  1  0.401500  0.755300  0.250600  1.0  0.0543
  C  C162  1  0.440100  0.863400  0.176000  1.0  -0.0382
  C  C163  1  0.394100  0.895300  0.357400  1.0  0.0813
  C  C164  1  0.290300  0.587200  0.237400  1.0  -0.0832
  C  C165  1  0.289500  0.567200  0.291600  1.0  -0.1945
  C  C166  1  0.452000  0.842600  0.230100  1.0  -0.1512
  C  C167  1  0.637200  0.793500  0.357200  1.0  0.2462
  C  C168  1  0.342300  0.643000  0.324500  1.0  0.2186
  C  C169  1  0.242400  0.550700  0.397200  1.0  -0.1147
  C  C170  1  0.228200  0.912000  0.344200  1.0  -0.1494
  C  C171  1  0.823000  0.704500  0.313300  1.0  -0.0687
  C  C172  1  0.474200  0.966400  0.390100  1.0  0.0019
  C  C173  1  0.637700  0.952000  0.403900  1.0  -0.0952
  C  C174  1  0.387700  0.050000  0.407800  1.0  0.1051
  C  C175  1  0.146000  0.993000  0.362300  1.0  -0.0102
  C  C176  1  0.229000  0.065200  0.394700  1.0  -0.3338
  C  C177  1  0.719000  0.862500  0.389000  1.0  -0.1236
  C  C178  1  0.147200  0.273900  0.335400  1.0  0.0047
  C  C179  1  0.031300  0.327700  0.296100  1.0  -0.0809
  C  C180  1  0.240000  0.073400  0.062000  1.0  -0.3685
  C  C181  1  0.227000  0.977700  0.051800  1.0  0.1686
  O  O182  1  0.018800  0.636900  0.943400  1.0  -0.7836
  O  O183  1  0.206400  0.797500  0.652700  1.0  -0.1971
  O  O184  1  0.848000  0.869100  0.622700  1.0  -0.2239
  O  O185  1  0.714000  0.616900  0.931900  1.0  -0.3684
  O  O186  1  0.730800  0.265000  0.555400  1.0  -0.8339
  O  O187  1  0.539700  0.279500  0.630630  1.0  -0.3606
  O  O188  1  0.473100  0.371200  0.549900  1.0  -0.8158
  O  O189  1  0.823400  0.785100  0.952870  1.0  -0.8227
  O  O190  1  0.481200  0.363100  0.443400  1.0  -0.7841
  O  O191  1  0.293600  0.202500  0.152700  1.0  -0.2104
  O  O192  1  0.652000  0.130900  0.122700  1.0  -0.227
  O  O193  1  0.786000  0.383100  0.431900  1.0  -0.4087
  O  O194  1  0.769200  0.735000  0.055400  1.0  -0.863
  O  O195  1  0.960300  0.720500  0.130630  1.0  -0.3414
  O  O196  1  0.026900  0.628800  0.049900  1.0  -0.8082
  O  O197  1  0.676600  0.214900  0.452870  1.0  -0.8236
  O  O198  1  0.981200  0.136900  0.556600  1.0  -0.7946
  O  O199  1  0.793600  0.297500  0.847300  1.0  -0.1937
  O  O200  1  0.152000  0.369100  0.877300  1.0  -0.2242
  O  O201  1  0.286000  0.116900  0.568100  1.0  -0.3609
  O  O202  1  0.269200  0.765000  0.944600  1.0  -0.853
  O  O203  1  0.460300  0.779500  0.869370  1.0  -0.3321
  O  O204  1  0.526900  0.871200  0.950100  1.0  -0.8009
  O  O205  1  0.176600  0.285100  0.547130  1.0  -0.8117
  O  O206  1  0.518800  0.863100  0.056600  1.0  -0.7906
  O  O207  1  0.706400  0.702500  0.347300  1.0  -0.2361
  O  O208  1  0.348000  0.630900  0.377300  1.0  -0.2295
  O  O209  1  0.214000  0.883100  0.068100  1.0  -0.3638
  O  O210  1  0.230800  0.235000  0.444600  1.0  -0.8519
  O  O211  1  0.039700  0.220500  0.369370  1.0  -0.3514
  O  O212  1  0.973100  0.128800  0.450100  1.0  -0.8024
  O  O213  1  0.323400  0.714900  0.047130  1.0  -0.8258
