# generated using pymatgen
data_CoP2H20(C3O)8
_symmetry_space_group_name_H-M   'P 1'
_cell_length_a   12.34280000
_cell_length_b   14.96300000
_cell_length_c   16.13700000
_cell_angle_alpha   116.58900000
_cell_angle_beta   90.00000000
_cell_angle_gamma   90.00000000
_symmetry_Int_Tables_number   1
_chemical_formula_structural   CoP2H20(C3O)8
_chemical_formula_sum   'Co4 P8 H80 C96 O32'
_cell_volume   2665.07446621
_cell_formula_units_Z   4
loop_
 _symmetry_equiv_pos_site_id
 _symmetry_equiv_pos_as_xyz
  1  'x, y, z'
loop_
 _atom_site_type_symbol
 _atom_site_label
 _atom_site_symmetry_multiplicity
 _atom_site_fract_x
 _atom_site_fract_y
 _atom_site_fract_z
 _atom_site_occupancy
 _atom_site_charge
  Co  Co1  1  0.177570  0.749250  0.025020  1.0  1.0523
  Co  Co2  1  0.548330  0.521420  0.993890  1.0  1.3074
  Co  Co3  1  0.677570  0.250750  0.974980  1.0  1.0508
  Co  Co4  1  0.048330  0.478580  0.006110  1.0  1.3067
  P  P5  1  0.185900  0.640640  0.160280  1.0  1.3875
  P  P6  1  0.391900  0.632370  0.911240  1.0  1.451
  P  P7  1  0.510960  0.430120  0.120700  1.0  1.3338
  P  P8  1  0.247600  0.320090  0.916630  1.0  1.3193
  P  P9  1  0.685900  0.359360  0.839720  1.0  1.3852
  P  P10  1  0.891900  0.367630  0.088760  1.0  1.4452
  P  P11  1  0.010960  0.569880  0.879300  1.0  1.3358
  P  P12  1  0.747600  0.679910  0.083370  1.0  1.3185
  H  H13  1  0.780200  0.568000  0.756300  1.0  0.1151
  H  H14  1  0.874700  0.574900  0.635300  1.0  0.1169
  H  H15  1  0.612600  0.593600  0.845500  1.0  0.111
  H  H16  1  0.337000  0.674600  0.757500  1.0  0.1014
  H  H17  1  0.428300  0.786900  0.392500  1.0  0.0928
  H  H18  1  0.091100  0.832800  0.282000  1.0  0.0933
  H  H19  1  0.430600  0.682000  0.639200  1.0  0.0957
  H  H20  1  0.201200  0.694300  0.626600  1.0  0.1375
  H  H21  1  0.242000  0.612300  0.316400  1.0  0.0924
  H  H22  1  0.788200  0.054000  0.631300  1.0  0.116
  H  H23  1  0.903400  0.516900  0.471100  1.0  0.0481
  H  H24  1  0.958300  0.623600  0.533800  1.0  0.0467
  H  H25  1  0.869500  0.189000  0.752800  1.0  0.1046
  H  H26  1  0.252800  0.621500  0.473400  1.0  0.0953
  H  H27  1  0.030300  0.272700  0.843800  1.0  0.1178
  H  H28  1  0.461200  0.886300  0.548900  1.0  0.1291
  H  H29  1  0.996700  0.741600  0.702600  1.0  0.0327
  H  H30  1  0.988500  0.835600  0.801000  1.0  0.078
  H  H31  1  0.813800  0.783700  0.357300  1.0  0.1199
  H  H32  1  0.686100  0.799800  0.374200  1.0  0.1134
  H  H33  1  0.752000  0.738200  0.417100  1.0  0.1134
  H  H34  1  0.052500  0.916600  0.437600  1.0  0.1003
  H  H35  1  0.633700  0.491000  0.425100  1.0  0.0979
  H  H36  1  0.236500  0.983700  0.675600  1.0  0.1013
  H  H37  1  0.874900  0.567000  0.352200  1.0  0.1217
  H  H38  1  0.001300  0.566700  0.374400  1.0  0.113
  H  H39  1  0.935900  0.670000  0.414100  1.0  0.1197
  H  H40  1  0.562500  0.988500  0.727900  1.0  0.0492
  H  H41  1  0.456500  0.932500  0.672700  1.0  0.0622
  H  H42  1  0.777600  0.948500  0.475100  1.0  0.0561
  H  H43  1  0.718200  0.901800  0.535500  1.0  0.0575
  H  H44  1  0.316800  0.124400  0.786900  1.0  0.1079
  H  H45  1  0.615300  0.397700  0.267700  1.0  0.108
  H  H46  1  0.453800  0.625800  0.252300  1.0  0.1072
  H  H47  1  0.397400  0.932900  0.775100  1.0  0.1304
  H  H48  1  0.495300  0.003900  0.832300  1.0  0.1235
  H  H49  1  0.503500  0.885700  0.796800  1.0  0.1405
  H  H50  1  0.836100  0.799800  0.730200  1.0  0.1309
  H  H51  1  0.886100  0.813400  0.645100  1.0  0.0992
  H  H52  1  0.877000  0.907400  0.745000  1.0  0.1044
  H  H53  1  0.280200  0.432000  0.243700  1.0  0.1152
  H  H54  1  0.374700  0.425100  0.364700  1.0  0.117
  H  H55  1  0.112600  0.406400  0.154500  1.0  0.112
  H  H56  1  0.837000  0.325400  0.242500  1.0  0.1002
  H  H57  1  0.928300  0.213100  0.607500  1.0  0.092
  H  H58  1  0.591100  0.167200  0.718000  1.0  0.0924
  H  H59  1  0.930600  0.318000  0.360800  1.0  0.096
  H  H60  1  0.701200  0.305700  0.373400  1.0  0.1379
  H  H61  1  0.742000  0.387700  0.683600  1.0  0.0927
  H  H62  1  0.288200  0.946000  0.368700  1.0  0.1155
  H  H63  1  0.403400  0.483100  0.528900  1.0  0.0504
  H  H64  1  0.458300  0.376400  0.466200  1.0  0.0472
  H  H65  1  0.369500  0.811000  0.247200  1.0  0.1042
  H  H66  1  0.752800  0.378500  0.526600  1.0  0.0952
  H  H67  1  0.530300  0.727300  0.156200  1.0  0.1167
  H  H68  1  0.961200  0.113700  0.451100  1.0  0.1287
  H  H69  1  0.496700  0.258400  0.297400  1.0  0.039
  H  H70  1  0.488500  0.164400  0.199000  1.0  0.0773
  H  H71  1  0.313800  0.216300  0.642700  1.0  0.12
  H  H72  1  0.186100  0.200200  0.625800  1.0  0.1129
  H  H73  1  0.252000  0.261800  0.582900  1.0  0.1144
  H  H74  1  0.552500  0.083400  0.562400  1.0  0.1001
  H  H75  1  0.133700  0.509000  0.574900  1.0  0.0976
  H  H76  1  0.736500  0.016300  0.324400  1.0  0.1007
  H  H77  1  0.374900  0.433000  0.647800  1.0  0.1214
  H  H78  1  0.501300  0.433300  0.625600  1.0  0.1132
  H  H79  1  0.435900  0.330000  0.585900  1.0  0.1194
  H  H80  1  0.062500  0.011500  0.272100  1.0  0.0501
  H  H81  1  0.956500  0.067500  0.327300  1.0  0.0562
  H  H82  1  0.277600  0.051500  0.524900  1.0  0.0565
  H  H83  1  0.218200  0.098200  0.464500  1.0  0.0572
  H  H84  1  0.816800  0.875600  0.213100  1.0  0.1079
  H  H85  1  0.115300  0.602300  0.732300  1.0  0.1078
  H  H86  1  0.953800  0.374200  0.747700  1.0  0.1071
  H  H87  1  0.897400  0.067100  0.224900  1.0  0.1289
  H  H88  1  0.995300  0.996100  0.167700  1.0  0.1179
  H  H89  1  0.003500  0.114300  0.203200  1.0  0.138
  H  H90  1  0.336100  0.200200  0.269800  1.0  0.1305
  H  H91  1  0.386100  0.186600  0.354900  1.0  0.0993
  H  H92  1  0.377000  0.092600  0.255000  1.0  0.0983
  C  C93  1  0.170600  0.712200  0.283800  1.0  -0.3051
  C  C94  1  0.578200  0.639800  0.665400  1.0  0.0417
  C  C95  1  0.562300  0.621000  0.435900  1.0  0.0468
  C  C96  1  0.463600  0.632700  0.815400  1.0  -0.328
  C  C97  1  0.548500  0.780700  0.568800  1.0  0.2453
  C  C98  1  0.744000  0.587500  0.715100  1.0  -0.0095
  C  C99  1  0.081400  0.041600  0.686700  1.0  0.054
  C  C100  1  0.746100  0.619900  0.582500  1.0  0.2479
  C  C101  1  0.021700  0.130400  0.738700  1.0  0.0112
  C  C102  1  0.182900  0.723600  0.438400  1.0  0.0088
  C  C103  1  0.632200  0.612500  0.728000  1.0  -0.0061
  C  C104  1  0.119700  0.810500  0.622200  1.0  0.2408
  C  C105  1  0.030600  0.956800  0.616700  1.0  -0.064
  C  C106  1  0.799800  0.591400  0.643600  1.0  -0.2242
  C  C107  1  0.924100  0.963100  0.595400  1.0  0.2345
  C  C108  1  0.575300  0.610300  0.802800  1.0  0.0141
  C  C109  1  0.412200  0.659200  0.750900  1.0  -0.0061
  C  C110  1  0.467600  0.760400  0.427100  1.0  -0.0437
  C  C111  1  0.583000  0.683300  0.532100  1.0  -0.0671
  C  C112  1  0.113500  0.805000  0.321800  1.0  0.0009
  C  C113  1  0.467900  0.662900  0.680300  1.0  -0.126
  C  C114  1  0.637300  0.645800  0.593000  1.0  -0.065
  C  C115  1  0.090300  0.859500  0.569500  1.0  -0.0635
  C  C116  1  0.180900  0.723700  0.587600  1.0  -0.2089
  C  C117  1  0.203800  0.674000  0.341400  1.0  -0.0202
  C  C118  1  0.862100  0.050800  0.646100  1.0  -0.2435
  C  C119  1  0.904300  0.588200  0.484500  1.0  0.1616
  C  C120  1  0.504800  0.658800  0.382200  1.0  -0.0083
  C  C121  1  0.911400  0.131100  0.717200  1.0  -0.0385
  C  C122  1  0.121000  0.817000  0.476100  1.0  0.0493
  C  C123  1  0.211300  0.681300  0.497300  1.0  -0.0635
  C  C124  1  0.071700  0.214400  0.808600  1.0  -0.0121
  C  C125  1  0.487800  0.819800  0.519200  1.0  -0.1998
  C  C126  1  0.989700  0.815300  0.733600  1.0  0.183
  C  C127  1  0.755100  0.794600  0.401700  1.0  -0.3623
  C  C128  1  0.090300  0.854800  0.414600  1.0  -0.1517
  C  C129  1  0.599400  0.519700  0.390000  1.0  -0.1226
  C  C130  1  0.194300  0.042200  0.708300  1.0  -0.1193
  C  C131  1  0.931500  0.598900  0.398900  1.0  -0.3736
  C  C132  1  0.515400  0.929800  0.713200  1.0  0.2224
  C  C133  1  0.775900  0.890700  0.489300  1.0  0.1564
  C  C134  1  0.179500  0.212700  0.826200  1.0  -0.3175
  C  C135  1  0.241600  0.124900  0.774600  1.0  -0.0082
  C  C136  1  0.586600  0.463600  0.296900  1.0  1e-04
  C  C137  1  0.491400  0.599200  0.287700  1.0  -0.0185
  C  C138  1  0.530900  0.502400  0.243000  1.0  -0.28
  C  C139  1  0.476000  0.938400  0.782100  1.0  -0.4213
  C  C140  1  0.890600  0.835300  0.712000  1.0  -0.4004
  C  C141  1  0.670600  0.287800  0.716200  1.0  -0.3046
  C  C142  1  0.078200  0.360200  0.334600  1.0  0.0414
  C  C143  1  0.062300  0.379000  0.564100  1.0  0.0466
  C  C144  1  0.963600  0.367300  0.184600  1.0  -0.3291
  C  C145  1  0.048500  0.219300  0.431200  1.0  0.2456
  C  C146  1  0.244000  0.412500  0.284900  1.0  -0.0101
  C  C147  1  0.581400  0.958400  0.313300  1.0  0.0545
  C  C148  1  0.246100  0.380100  0.417500  1.0  0.2478
  C  C149  1  0.521700  0.869600  0.261300  1.0  0.0088
  C  C150  1  0.682900  0.276400  0.561600  1.0  0.0087
  C  C151  1  0.132200  0.387500  0.272000  1.0  -0.0073
  C  C152  1  0.619700  0.189500  0.377800  1.0  0.2409
  C  C153  1  0.530600  0.043200  0.383300  1.0  -0.0643
  C  C154  1  0.299800  0.408600  0.356400  1.0  -0.2242
  C  C155  1  0.424100  0.036900  0.404600  1.0  0.2349
  C  C156  1  0.075300  0.389700  0.197200  1.0  0.0121
  C  C157  1  0.912200  0.340800  0.249100  1.0  -0.0019
  C  C158  1  0.967600  0.239600  0.572900  1.0  -0.0431
  C  C159  1  0.083000  0.316700  0.467900  1.0  -0.0662
  C  C160  1  0.613500  0.195000  0.678200  1.0  0.0003
  C  C161  1  0.967900  0.337100  0.319700  1.0  -0.1273
  C  C162  1  0.137300  0.354200  0.407000  1.0  -0.0647
  C  C163  1  0.590300  0.140500  0.430500  1.0  -0.0632
  C  C164  1  0.680900  0.276300  0.412400  1.0  -0.2083
  C  C165  1  0.703800  0.326000  0.658600  1.0  -0.0192
  C  C166  1  0.362100  0.949200  0.353900  1.0  -0.2423
  C  C167  1  0.404300  0.411800  0.515500  1.0  0.1621
  C  C168  1  0.004800  0.341200  0.617800  1.0  -0.0074
  C  C169  1  0.411400  0.868900  0.282800  1.0  -0.0378
  C  C170  1  0.621000  0.183000  0.523900  1.0  0.0489
  C  C171  1  0.711300  0.318700  0.502700  1.0  -0.062
  C  C172  1  0.571700  0.785600  0.191400  1.0  -0.0108
  C  C173  1  0.987800  0.180200  0.480800  1.0  -0.2075
  C  C174  1  0.489700  0.184700  0.266400  1.0  0.2051
  C  C175  1  0.255100  0.205400  0.598300  1.0  -0.3581
  C  C176  1  0.590300  0.145200  0.585400  1.0  -0.1529
  C  C177  1  0.099400  0.480300  0.610000  1.0  -0.1229
  C  C178  1  0.694300  0.957800  0.291700  1.0  -0.1188
  C  C179  1  0.431500  0.401100  0.601100  1.0  -0.3745
  C  C180  1  0.015400  0.070200  0.286800  1.0  0.2222
  C  C181  1  0.275900  0.109300  0.510700  1.0  0.1564
  C  C182  1  0.679500  0.787300  0.173800  1.0  -0.3156
  C  C183  1  0.741600  0.875100  0.225400  1.0  -0.0087
  C  C184  1  0.086600  0.536400  0.703100  1.0  0.0002
  C  C185  1  0.991400  0.400800  0.712300  1.0  -0.0189
  C  C186  1  0.030900  0.497600  0.757000  1.0  -0.2784
  C  C187  1  0.976000  0.061600  0.217900  1.0  -0.421
  C  C188  1  0.390600  0.164700  0.288000  1.0  -0.3994
  O  O189  1  0.320000  0.722300  0.950300  1.0  -0.7537
  O  O190  1  0.471200  0.624700  0.977200  1.0  -0.7744
  O  O191  1  0.799400  0.631600  0.512900  1.0  -0.2332
  O  O192  1  0.262300  0.552600  0.151500  1.0  -0.5946
  O  O193  1  0.579400  0.839800  0.659900  1.0  -0.2845
  O  O194  1  0.075500  0.596900  0.121100  1.0  -0.7525
  O  O195  1  0.878400  0.878900  0.524400  1.0  -0.2364
  O  O196  1  0.318500  0.532500  0.868700  1.0  -0.5018
  O  O197  1  0.087900  0.852900  0.716300  1.0  -0.3388
  O  O198  1  0.235200  0.703400  0.119600  1.0  -0.7599
  O  O199  1  0.432000  0.343000  0.109600  1.0  -0.5818
  O  O200  1  0.621100  0.389900  0.076100  1.0  -0.7567
  O  O201  1  0.282100  0.290200  0.988900  1.0  -0.5459
  O  O202  1  0.353900  0.337000  0.869400  1.0  -0.5072
  O  O203  1  0.458200  0.496100  0.082300  1.0  -0.7391
  O  O204  1  0.180700  0.410600  0.943500  1.0  -0.7324
  O  O205  1  0.820000  0.277700  0.049700  1.0  -0.7552
  O  O206  1  0.971200  0.375300  0.022800  1.0  -0.7729
  O  O207  1  0.299400  0.368400  0.487100  1.0  -0.2346
  O  O208  1  0.762300  0.447400  0.848500  1.0  -0.594
  O  O209  1  0.079400  0.160200  0.340100  1.0  -0.2832
  O  O210  1  0.575500  0.403100  0.878900  1.0  -0.7523
  O  O211  1  0.378400  0.121100  0.475600  1.0  -0.2363
  O  O212  1  0.818500  0.467500  0.131300  1.0  -0.4997
  O  O213  1  0.587900  0.147100  0.283700  1.0  -0.3414
  O  O214  1  0.735200  0.296600  0.880400  1.0  -0.7623
  O  O215  1  0.932000  0.657000  0.890400  1.0  -0.5794
  O  O216  1  0.121100  0.610100  0.923900  1.0  -0.7565
  O  O217  1  0.782100  0.709800  0.011100  1.0  -0.5456
  O  O218  1  0.853900  0.663000  0.130600  1.0  -0.5003
  O  O219  1  0.958200  0.503900  0.917700  1.0  -0.7478
  O  O220  1  0.680700  0.589400  0.056500  1.0  -0.7325
