# generated using pymatgen
data_NiH4(C3O2)2
_symmetry_space_group_name_H-M   'P 1'
_cell_length_a   6.92900000
_cell_length_b   8.18500000
_cell_length_c   10.44150000
_cell_angle_alpha   108.75100000
_cell_angle_beta   109.37800000
_cell_angle_gamma   90.00000000
_symmetry_Int_Tables_number   1
_chemical_formula_structural   NiH4(C3O2)2
_chemical_formula_sum   'Ni2 H8 C12 O8'
_cell_volume   525.19713522
_cell_formula_units_Z   2
loop_
 _symmetry_equiv_pos_site_id
 _symmetry_equiv_pos_as_xyz
  1  'x, y, z'
loop_
 _atom_site_type_symbol
 _atom_site_label
 _atom_site_symmetry_multiplicity
 _atom_site_fract_x
 _atom_site_fract_y
 _atom_site_fract_z
 _atom_site_occupancy
 _atom_site_charge
  Ni  Ni1  1  0.000000  0.000000  0.500000  1.0  0.9073
  Ni  Ni2  1  0.500000  0.500000  0.500000  1.0  0.9072
  H  H3  1  0.063300  0.011800  0.804800  1.0  0.1244
  H  H4  1  0.820600  0.851700  0.926200  1.0  0.1137
  H  H5  1  0.258500  0.488200  0.195200  1.0  0.1237
  H  H6  1  0.894400  0.648300  0.073800  1.0  0.1132
  H  H7  1  0.936700  0.988200  0.195200  1.0  0.1245
  H  H8  1  0.179400  0.148300  0.073800  1.0  0.1144
  H  H9  1  0.741500  0.511800  0.804800  1.0  0.1239
  H  H10  1  0.105600  0.351700  0.926200  1.0  0.1141
  C  C11  1  0.816300  0.819700  0.663600  1.0  0.7353
  C  C12  1  0.954200  0.940000  0.806600  1.0  -0.2556
  C  C13  1  0.932900  0.941700  0.929200  1.0  -0.0152
  C  C14  1  0.152700  0.680300  0.336400  1.0  0.7407
  C  C15  1  0.147600  0.560000  0.193400  1.0  -0.2559
  C  C16  1  0.003700  0.558300  0.070800  1.0  -0.0149
  C  C17  1  0.183700  0.180300  0.336400  1.0  0.7347
  C  C18  1  0.045800  0.060000  0.193400  1.0  -0.2541
  C  C19  1  0.067100  0.058300  0.070800  1.0  -0.0157
  C  C20  1  0.847300  0.319700  0.663600  1.0  0.7417
  C  C21  1  0.852400  0.440000  0.806600  1.0  -0.2506
  C  C22  1  0.996300  0.441700  0.929200  1.0  -0.0162
  O  O23  1  0.838870  0.828700  0.550340  1.0  -0.5929
  O  O24  1  0.682500  0.713100  0.660600  1.0  -0.5652
  O  O25  1  0.288530  0.671300  0.449660  1.0  -0.5972
  O  O26  1  0.021900  0.786900  0.339400  1.0  -0.5643
  O  O27  1  0.161130  0.171300  0.449660  1.0  -0.5945
  O  O28  1  0.317500  0.286900  0.339400  1.0  -0.5649
  O  O29  1  0.711470  0.328700  0.550340  1.0  -0.5959
  O  O30  1  0.978100  0.213100  0.660600  1.0  -0.5654
