# generated using pymatgen
data_CoH4(C3O2)2
_symmetry_space_group_name_H-M   'P 1'
_cell_length_a   7.03680000
_cell_length_b   8.21600000
_cell_length_c   10.48970000
_cell_angle_alpha   108.85900000
_cell_angle_beta   109.59800000
_cell_angle_gamma   90.00000000
_symmetry_Int_Tables_number   1
_chemical_formula_structural   CoH4(C3O2)2
_chemical_formula_sum   'Co2 H8 C12 O8'
_cell_volume   536.63915693
_cell_formula_units_Z   2
loop_
 _symmetry_equiv_pos_site_id
 _symmetry_equiv_pos_as_xyz
  1  'x, y, z'
loop_
 _atom_site_type_symbol
 _atom_site_label
 _atom_site_symmetry_multiplicity
 _atom_site_fract_x
 _atom_site_fract_y
 _atom_site_fract_z
 _atom_site_occupancy
 _atom_site_charge
  Co  Co1  1  0.000000  0.000000  0.500000  1.0  1.0945
  Co  Co2  1  0.500000  0.500000  0.500000  1.0  1.0945
  H  H3  1  0.056300  0.013000  0.806600  1.0  0.1193
  H  H4  1  0.826000  0.869000  0.926000  1.0  0.1018
  H  H5  1  0.249700  0.487000  0.193400  1.0  0.1212
  H  H6  1  0.900000  0.631000  0.074000  1.0  0.102
  H  H7  1  0.943700  0.987000  0.193400  1.0  0.1194
  H  H8  1  0.174000  0.131000  0.074000  1.0  0.1031
  H  H9  1  0.750300  0.513000  0.806600  1.0  0.119
  H  H10  1  0.100000  0.369000  0.926000  1.0  0.1021
  C  C11  1  0.815670  0.820040  0.664340  1.0  0.7448
  C  C12  1  0.952570  0.939780  0.806740  1.0  -0.2822
  C  C13  1  0.934780  0.942830  0.929760  1.0  -0.0063
  C  C14  1  0.151330  0.679960  0.335660  1.0  0.7522
  C  C15  1  0.145830  0.560220  0.193260  1.0  -0.2828
  C  C16  1  0.005020  0.557170  0.070240  1.0  -0.0047
  C  C17  1  0.184330  0.179960  0.335660  1.0  0.7421
  C  C18  1  0.047430  0.060220  0.193260  1.0  -0.2807
  C  C19  1  0.065220  0.057170  0.070240  1.0  -0.0068
  C  C20  1  0.848670  0.320040  0.664340  1.0  0.7549
  C  C21  1  0.854170  0.439780  0.806740  1.0  -0.2813
  C  C22  1  0.994980  0.442830  0.929760  1.0  -0.0078
  O  O23  1  0.841280  0.827250  0.552220  1.0  -0.6311
  O  O24  1  0.682300  0.716600  0.662180  1.0  -0.597
  O  O25  1  0.289060  0.672750  0.447780  1.0  -0.6351
  O  O26  1  0.020120  0.783400  0.337820  1.0  -0.5962
  O  O27  1  0.158720  0.172750  0.447780  1.0  -0.6328
  O  O28  1  0.317700  0.283400  0.337820  1.0  -0.596
  O  O29  1  0.710940  0.327250  0.552220  1.0  -0.6333
  O  O30  1  0.979880  0.216600  0.662180  1.0  -0.5969
