# generated using pymatgen
data_Co3H40C68(NO3)4
_symmetry_space_group_name_H-M   'P 1'
_cell_length_a   25.93800000
_cell_length_b   18.15800000
_cell_length_c   16.79290000
_cell_angle_alpha   90.00000000
_cell_angle_beta   116.94500000
_cell_angle_gamma   90.00000000
_symmetry_Int_Tables_number   1
_chemical_formula_structural   Co3H40C68(NO3)4
_chemical_formula_sum   'Co12 H160 C272 N16 O48'
_cell_volume   7050.55409561
_cell_formula_units_Z   4
loop_
 _symmetry_equiv_pos_site_id
 _symmetry_equiv_pos_as_xyz
  1  'x, y, z'
loop_
 _atom_site_type_symbol
 _atom_site_label
 _atom_site_symmetry_multiplicity
 _atom_site_fract_x
 _atom_site_fract_y
 _atom_site_fract_z
 _atom_site_occupancy
 _atom_site_charge
  Co  Co1  1  0.370500  0.721230  0.513370  1.0  1.0191
  Co  Co2  1  0.296430  0.768280  0.295570  1.0  1.0242
  Co  Co3  1  0.211860  0.811940  0.068960  1.0  1.0254
  Co  Co4  1  0.870500  0.221230  0.513370  1.0  1.0191
  Co  Co5  1  0.796430  0.268280  0.295570  1.0  1.0242
  Co  Co6  1  0.711860  0.311940  0.068960  1.0  1.0252
  Co  Co7  1  0.370500  0.278770  0.013370  1.0  1.0201
  Co  Co8  1  0.296430  0.231720  0.795570  1.0  1.0241
  Co  Co9  1  0.211860  0.188060  0.568960  1.0  1.0252
  Co  Co10  1  0.870500  0.778770  0.013370  1.0  1.0201
  Co  Co11  1  0.796430  0.731720  0.795570  1.0  1.0241
  Co  Co12  1  0.711860  0.688060  0.568960  1.0  1.025
  H  H13  1  0.364500  0.491400  0.484600  1.0  0.1
  H  H14  1  0.347100  0.366400  0.453400  1.0  0.1121
  H  H15  1  0.267400  0.413600  0.187800  1.0  0.1113
  H  H16  1  0.284200  0.539300  0.220600  1.0  0.1074
  H  H17  1  0.330400  0.124700  0.394800  1.0  0.1069
  H  H18  1  0.316400  0.996800  0.366000  1.0  0.0988
  H  H19  1  0.200000  0.039700  0.109800  1.0  0.1061
  H  H20  1  0.215200  0.165700  0.136000  1.0  0.1055
  H  H21  1  0.540600  0.790800  0.487900  1.0  0.1045
  H  H22  1  0.591500  0.872200  0.443800  1.0  0.1072
  H  H23  1  0.443800  0.988600  0.302300  1.0  0.0941
  H  H24  1  0.391700  0.905000  0.344300  1.0  0.1081
  H  H25  1  0.681400  0.056300  0.342600  1.0  0.1018
  H  H26  1  0.717100  0.132400  0.266800  1.0  0.1096
  H  H27  1  0.562300  0.235500  0.144100  1.0  0.0978
  H  H28  1  0.523600  0.156800  0.215600  1.0  0.1248
  H  H29  1  0.342000  0.768200  0.999300  1.0  0.0948
  H  H30  1  0.417800  0.750400  0.962300  1.0  0.1154
  H  H31  1  0.532900  0.772200  0.226700  1.0  0.1057
  H  H32  1  0.456300  0.789000  0.260500  1.0  0.1025
  H  H33  1  0.581800  0.661100  0.921600  1.0  0.1034
  H  H34  1  0.652100  0.671800  0.870400  1.0  0.1073
  H  H35  1  0.727200  0.838700  0.044900  1.0  0.1089
  H  H36  1  0.655700  0.830700  0.094200  1.0  0.1217
  H  H37  1  0.228800  0.642100  0.065300  1.0  0.0853
  H  H38  1  0.217100  0.548100  0.962300  1.0  0.127
  H  H39  1  0.176500  0.579000  0.809100  1.0  0.1075
  H  H40  1  0.151300  0.701900  0.764500  1.0  0.1307
  H  H41  1  0.135400  0.818300  0.735700  1.0  0.1255
  H  H42  1  0.127400  0.946600  0.715200  1.0  0.1171
  H  H43  1  0.152800  0.022800  0.840700  1.0  0.1102
  H  H44  1  0.184700  0.969300  0.982500  1.0  0.0878
  H  H45  1  0.319200  0.883000  0.459000  1.0  0.0884
  H  H46  1  0.312500  0.992000  0.528300  1.0  0.1294
  H  H47  1  0.353000  0.995400  0.683400  1.0  0.1072
  H  H48  1  0.397400  0.889500  0.767100  1.0  0.135
  H  H49  1  0.433100  0.785500  0.833200  1.0  0.121
  H  H50  1  0.468900  0.668900  0.896000  1.0  0.1124
  H  H51  1  0.458200  0.568700  0.798600  1.0  0.1268
  H  H52  1  0.418800  0.590800  0.645600  1.0  0.0904
  H  H53  1  0.864500  0.991400  0.484600  1.0  0.1
  H  H54  1  0.847100  0.866400  0.453400  1.0  0.1121
  H  H55  1  0.767400  0.913600  0.187800  1.0  0.1113
  H  H56  1  0.784200  0.039300  0.220600  1.0  0.1074
  H  H57  1  0.830400  0.624700  0.394800  1.0  0.1069
  H  H58  1  0.816400  0.496800  0.366000  1.0  0.0988
  H  H59  1  0.700000  0.539700  0.109800  1.0  0.1061
  H  H60  1  0.715200  0.665700  0.136000  1.0  0.1052
  H  H61  1  0.040600  0.290800  0.487900  1.0  0.1045
  H  H62  1  0.091500  0.372200  0.443800  1.0  0.1071
  H  H63  1  0.943800  0.488600  0.302300  1.0  0.0941
  H  H64  1  0.891700  0.405000  0.344300  1.0  0.1081
  H  H65  1  0.181400  0.556300  0.342600  1.0  0.1017
  H  H66  1  0.217100  0.632400  0.266800  1.0  0.1096
  H  H67  1  0.062300  0.735500  0.144100  1.0  0.0978
  H  H68  1  0.023600  0.656800  0.215600  1.0  0.1248
  H  H69  1  0.842000  0.268200  0.999300  1.0  0.0948
  H  H70  1  0.917800  0.250400  0.962300  1.0  0.1154
  H  H71  1  0.032900  0.272200  0.226700  1.0  0.1057
  H  H72  1  0.956300  0.289000  0.260500  1.0  0.1025
  H  H73  1  0.081800  0.161100  0.921600  1.0  0.1034
  H  H74  1  0.152100  0.171800  0.870400  1.0  0.1073
  H  H75  1  0.227200  0.338700  0.044900  1.0  0.1089
  H  H76  1  0.155700  0.330700  0.094200  1.0  0.1217
  H  H77  1  0.728800  0.142100  0.065300  1.0  0.0853
  H  H78  1  0.717100  0.048100  0.962300  1.0  0.127
  H  H79  1  0.676500  0.079000  0.809100  1.0  0.1075
  H  H80  1  0.651300  0.201900  0.764500  1.0  0.1307
  H  H81  1  0.635400  0.318300  0.735700  1.0  0.1255
  H  H82  1  0.627400  0.446600  0.715200  1.0  0.1171
  H  H83  1  0.652800  0.522800  0.840700  1.0  0.111
  H  H84  1  0.684700  0.469300  0.982500  1.0  0.0878
  H  H85  1  0.819200  0.383000  0.459000  1.0  0.0884
  H  H86  1  0.812500  0.492000  0.528300  1.0  0.1294
  H  H87  1  0.853000  0.495400  0.683400  1.0  0.1072
  H  H88  1  0.897400  0.389500  0.767100  1.0  0.135
  H  H89  1  0.933100  0.285500  0.833200  1.0  0.121
  H  H90  1  0.968900  0.168900  0.896000  1.0  0.1124
  H  H91  1  0.958200  0.068700  0.798600  1.0  0.1268
  H  H92  1  0.918800  0.090800  0.645600  1.0  0.0904
  H  H93  1  0.364500  0.508600  0.984600  1.0  0.1
  H  H94  1  0.347100  0.633600  0.953400  1.0  0.1121
  H  H95  1  0.267400  0.586400  0.687800  1.0  0.1112
  H  H96  1  0.284200  0.460700  0.720600  1.0  0.1074
  H  H97  1  0.330400  0.875300  0.894800  1.0  0.1078
  H  H98  1  0.316400  0.003200  0.866000  1.0  0.0986
  H  H99  1  0.200000  0.960300  0.609800  1.0  0.1065
  H  H100  1  0.215200  0.834300  0.636000  1.0  0.1055
  H  H101  1  0.540600  0.209200  0.987900  1.0  0.1039
  H  H102  1  0.591500  0.127800  0.943800  1.0  0.1074
  H  H103  1  0.443800  0.011400  0.802300  1.0  0.0936
  H  H104  1  0.391700  0.095000  0.844300  1.0  0.1079
  H  H105  1  0.681400  0.943700  0.842600  1.0  0.1012
  H  H106  1  0.717100  0.867600  0.766800  1.0  0.1099
  H  H107  1  0.562300  0.764500  0.644100  1.0  0.0971
  H  H108  1  0.523600  0.843200  0.715600  1.0  0.1248
  H  H109  1  0.342000  0.231800  0.499300  1.0  0.0948
  H  H110  1  0.417800  0.249600  0.462300  1.0  0.1155
  H  H111  1  0.532900  0.227800  0.726700  1.0  0.1056
  H  H112  1  0.456300  0.211000  0.760500  1.0  0.1024
  H  H113  1  0.581800  0.338900  0.421600  1.0  0.1034
  H  H114  1  0.652100  0.328200  0.370400  1.0  0.1074
  H  H115  1  0.727200  0.161300  0.544900  1.0  0.1085
  H  H116  1  0.655700  0.169300  0.594200  1.0  0.1215
  H  H117  1  0.228800  0.357900  0.565300  1.0  0.0854
  H  H118  1  0.217100  0.451900  0.462300  1.0  0.1261
  H  H119  1  0.176500  0.421000  0.309100  1.0  0.1077
  H  H120  1  0.151300  0.298100  0.264500  1.0  0.1313
  H  H121  1  0.135400  0.181700  0.235700  1.0  0.1254
  H  H122  1  0.127400  0.053400  0.215200  1.0  0.1173
  H  H123  1  0.152800  0.977200  0.340700  1.0  0.1109
  H  H124  1  0.184700  0.030700  0.482500  1.0  0.0886
  H  H125  1  0.319200  0.117000  0.959000  1.0  0.0879
  H  H126  1  0.312500  0.008000  0.028300  1.0  0.1296
  H  H127  1  0.353000  0.004600  0.183400  1.0  0.1071
  H  H128  1  0.397400  0.110500  0.267100  1.0  0.1339
  H  H129  1  0.433100  0.214500  0.333200  1.0  0.1214
  H  H130  1  0.468900  0.331100  0.396000  1.0  0.1123
  H  H131  1  0.458200  0.431300  0.298600  1.0  0.1275
  H  H132  1  0.418800  0.409200  0.145600  1.0  0.0903
  H  H133  1  0.864500  0.008600  0.984600  1.0  0.1
  H  H134  1  0.847100  0.133600  0.953400  1.0  0.1121
  H  H135  1  0.767400  0.086400  0.687800  1.0  0.1112
  H  H136  1  0.784200  0.960700  0.720600  1.0  0.1074
  H  H137  1  0.830400  0.375300  0.894800  1.0  0.1078
  H  H138  1  0.816400  0.503200  0.866000  1.0  0.0986
  H  H139  1  0.700000  0.460300  0.609800  1.0  0.1065
  H  H140  1  0.715200  0.334300  0.636000  1.0  0.1052
  H  H141  1  0.040600  0.709200  0.987900  1.0  0.1039
  H  H142  1  0.091500  0.627800  0.943800  1.0  0.1074
  H  H143  1  0.943800  0.511400  0.802300  1.0  0.0936
  H  H144  1  0.891700  0.595000  0.844300  1.0  0.1079
  H  H145  1  0.181400  0.443700  0.842600  1.0  0.1012
  H  H146  1  0.217100  0.367600  0.766800  1.0  0.1099
  H  H147  1  0.062300  0.264500  0.644100  1.0  0.0971
  H  H148  1  0.023600  0.343200  0.715600  1.0  0.1248
  H  H149  1  0.842000  0.731800  0.499300  1.0  0.0948
  H  H150  1  0.917800  0.749600  0.462300  1.0  0.1155
  H  H151  1  0.032900  0.727800  0.726700  1.0  0.1056
  H  H152  1  0.956300  0.711000  0.760500  1.0  0.1024
  H  H153  1  0.081800  0.838900  0.421600  1.0  0.1034
  H  H154  1  0.152100  0.828200  0.370400  1.0  0.1074
  H  H155  1  0.227200  0.661300  0.544900  1.0  0.1085
  H  H156  1  0.155700  0.669300  0.594200  1.0  0.1215
  H  H157  1  0.728800  0.857900  0.565300  1.0  0.0854
  H  H158  1  0.717100  0.951900  0.462300  1.0  0.1261
  H  H159  1  0.676500  0.921000  0.309100  1.0  0.1077
  H  H160  1  0.651300  0.798100  0.264500  1.0  0.1313
  H  H161  1  0.635400  0.681700  0.235700  1.0  0.1254
  H  H162  1  0.627400  0.553400  0.215200  1.0  0.1173
  H  H163  1  0.652800  0.477200  0.340700  1.0  0.1117
  H  H164  1  0.684700  0.530700  0.482500  1.0  0.0886
  H  H165  1  0.819200  0.617000  0.959000  1.0  0.0879
  H  H166  1  0.812500  0.508000  0.028300  1.0  0.1296
  H  H167  1  0.853000  0.504600  0.183400  1.0  0.1071
  H  H168  1  0.897400  0.610500  0.267100  1.0  0.1339
  H  H169  1  0.933100  0.714500  0.333200  1.0  0.1214
  H  H170  1  0.968900  0.831100  0.396000  1.0  0.1123
  H  H171  1  0.958200  0.931300  0.298600  1.0  0.1275
  H  H172  1  0.918800  0.909200  0.145600  1.0  0.0903
  C  C173  1  0.339700  0.608800  0.380800  1.0  0.7047
  C  C174  1  0.327200  0.527500  0.357800  1.0  -0.1472
  C  C175  1  0.344600  0.475700  0.424100  1.0  -0.0311
  C  C176  1  0.334200  0.401200  0.406000  1.0  -0.137
  C  C177  1  0.304500  0.377800  0.317400  1.0  -0.0543
  C  C178  1  0.286700  0.429500  0.248200  1.0  -0.0866
  C  C179  1  0.297100  0.504200  0.267600  1.0  -0.0352
  C  C180  1  0.293400  0.300100  0.297100  1.0  0.0876
  C  C181  1  0.285300  0.235600  0.283200  1.0  0.0914
  C  C182  1  0.275200  0.158100  0.267500  1.0  -0.0056
  C  C183  1  0.304800  0.107600  0.336700  1.0  -0.1184
  C  C184  1  0.296200  0.031100  0.319500  1.0  -0.0278
  C  C185  1  0.258000  0.005900  0.233800  1.0  -0.1416
  C  C186  1  0.227300  0.056700  0.167000  1.0  -0.0416
  C  C187  1  0.235900  0.131800  0.182700  1.0  -0.0819
  C  C188  1  0.251400  0.924400  0.214300  1.0  0.6917
  C  C189  1  0.430000  0.790100  0.453000  1.0  0.6496
  C  C190  1  0.461500  0.839500  0.420000  1.0  -0.0876
  C  C191  1  0.521000  0.830800  0.449600  1.0  -0.0732
  C  C192  1  0.551300  0.879200  0.424100  1.0  -0.0836
  C  C193  1  0.522800  0.939400  0.368500  1.0  -0.0721
  C  C194  1  0.463300  0.948100  0.339700  1.0  -0.0876
  C  C195  1  0.432100  0.898600  0.364600  1.0  -0.096
  C  C196  1  0.553200  0.993700  0.343900  1.0  -0.0862
  C  C197  1  0.573800  0.042600  0.319800  1.0  -0.0323
  C  C198  1  0.598700  0.095700  0.283000  1.0  -0.0215
  C  C199  1  0.656600  0.091200  0.300500  1.0  -0.1172
  C  C200  1  0.678200  0.137400  0.256900  1.0  -0.0457
  C  C201  1  0.642300  0.191500  0.198100  1.0  -0.1358
  C  C202  1  0.586000  0.198300  0.183400  1.0  -0.039
  C  C203  1  0.562500  0.151400  0.225400  1.0  -0.1169
  C  C204  1  0.666667  0.240300  0.150800  1.0  0.6687
  C  C205  1  0.341000  0.788600  0.153700  1.0  0.6887
  C  C206  1  0.391600  0.778900  0.133200  1.0  -0.1159
  C  C207  1  0.380800  0.768200  0.045100  1.0  -0.0775
  C  C208  1  0.425800  0.757700  0.022800  1.0  -0.1291
  C  C209  1  0.484000  0.757800  0.091600  1.0  -0.0316
  C  C210  1  0.494300  0.770600  0.180300  1.0  -0.0917
  C  C211  1  0.448800  0.780700  0.200300  1.0  -0.0582
  C  C212  1  0.530200  0.748900  0.067400  1.0  -0.0275
  C  C213  1  0.566300  0.744400  0.040600  1.0  -0.0047
  C  C214  1  0.610300  0.746200  0.010300  1.0  -0.0169
  C  C215  1  0.610700  0.698100  0.945800  1.0  -0.0787
  C  C216  1  0.653100  0.703700  0.916000  1.0  -0.0379
  C  C217  1  0.697100  0.756700  0.954100  1.0  -0.1318
  C  C218  1  0.697400  0.803000  0.019200  1.0  -0.0242
  C  C219  1  0.654600  0.798600  0.048800  1.0  -0.1452
  C  C220  1  0.745500  0.761400  0.927600  1.0  0.6514
  C  C221  1  0.213200  0.653900  0.003600  1.0  0.1543
  C  C222  1  0.206200  0.597400  0.942800  1.0  -0.1237
  C  C223  1  0.182300  0.616000  0.852400  1.0  -0.1102
  C  C224  1  0.167300  0.688400  0.825700  1.0  -0.1415
  C  C225  1  0.176500  0.740900  0.892100  1.0  0.1728
  C  C226  1  0.165800  0.821300  0.871000  1.0  0.1438
  C  C227  1  0.145700  0.850200  0.785400  1.0  -0.1216
  C  C228  1  0.140700  0.925900  0.773200  1.0  -0.1007
  C  C229  1  0.155600  0.970700  0.847200  1.0  -0.1081
  C  C230  1  0.174800  0.938500  0.931900  1.0  0.1641
  C  C231  1  0.334900  0.884500  0.522200  1.0  0.1455
  C  C232  1  0.331100  0.949800  0.562900  1.0  -0.1009
  C  C233  1  0.354700  0.951400  0.654000  1.0  -0.103
  C  C234  1  0.381100  0.889300  0.703800  1.0  -0.1685
  C  C235  1  0.382800  0.825800  0.656700  1.0  0.1801
  C  C236  1  0.408200  0.754600  0.702800  1.0  0.1432
  C  C237  1  0.431400  0.745200  0.796100  1.0  -0.104
  C  C238  1  0.451700  0.676000  0.833200  1.0  -0.1044
  C  C239  1  0.446100  0.616800  0.775700  1.0  -0.1617
  C  C240  1  0.422400  0.630500  0.684700  1.0  0.1325
  C  C241  1  0.839700  0.108800  0.380800  1.0  0.7047
  C  C242  1  0.827200  0.027500  0.357800  1.0  -0.1472
  C  C243  1  0.844600  0.975700  0.424100  1.0  -0.0311
  C  C244  1  0.834200  0.901200  0.406000  1.0  -0.137
  C  C245  1  0.804500  0.877800  0.317400  1.0  -0.0543
  C  C246  1  0.786700  0.929500  0.248200  1.0  -0.0866
  C  C247  1  0.797100  0.004200  0.267600  1.0  -0.0352
  C  C248  1  0.793400  0.800100  0.297100  1.0  0.0876
  C  C249  1  0.785300  0.735600  0.283200  1.0  0.0914
  C  C250  1  0.775200  0.658100  0.267500  1.0  -0.0056
  C  C251  1  0.804800  0.607600  0.336700  1.0  -0.1184
  C  C252  1  0.796200  0.531100  0.319500  1.0  -0.0278
  C  C253  1  0.758000  0.505900  0.233800  1.0  -0.1416
  C  C254  1  0.727300  0.556700  0.167000  1.0  -0.0416
  C  C255  1  0.735900  0.631800  0.182700  1.0  -0.0819
  C  C256  1  0.751400  0.424400  0.214300  1.0  0.6917
  C  C257  1  0.930000  0.290100  0.453000  1.0  0.6496
  C  C258  1  0.961500  0.339500  0.420000  1.0  -0.0876
  C  C259  1  0.021000  0.330800  0.449600  1.0  -0.0732
  C  C260  1  0.051300  0.379200  0.424100  1.0  -0.0836
  C  C261  1  0.022800  0.439400  0.368500  1.0  -0.0721
  C  C262  1  0.963300  0.448100  0.339700  1.0  -0.0876
  C  C263  1  0.932100  0.398600  0.364600  1.0  -0.096
  C  C264  1  0.053200  0.493700  0.343900  1.0  -0.0862
  C  C265  1  0.073800  0.542600  0.319800  1.0  -0.0323
  C  C266  1  0.098700  0.595700  0.283000  1.0  -0.0215
  C  C267  1  0.156600  0.591200  0.300500  1.0  -0.1172
  C  C268  1  0.178200  0.637400  0.256900  1.0  -0.0457
  C  C269  1  0.142300  0.691500  0.198100  1.0  -0.1351
  C  C270  1  0.086000  0.698300  0.183400  1.0  -0.039
  C  C271  1  0.062500  0.651400  0.225400  1.0  -0.1169
  C  C272  1  0.166600  0.740300  0.150800  1.0  0.659
  C  C273  1  0.841000  0.288600  0.153700  1.0  0.6887
  C  C274  1  0.891600  0.278900  0.133200  1.0  -0.1159
  C  C275  1  0.880800  0.268200  0.045100  1.0  -0.0775
  C  C276  1  0.925800  0.257700  0.022800  1.0  -0.1291
  C  C277  1  0.984000  0.257800  0.091600  1.0  -0.0316
  C  C278  1  0.994300  0.270600  0.180300  1.0  -0.0917
  C  C279  1  0.948800  0.280700  0.200300  1.0  -0.0582
  C  C280  1  0.030200  0.248900  0.067400  1.0  -0.0275
  C  C281  1  0.066300  0.244400  0.040600  1.0  -0.0047
  C  C282  1  0.110300  0.246200  0.010300  1.0  -0.0169
  C  C283  1  0.110700  0.198100  0.945800  1.0  -0.0787
  C  C284  1  0.153100  0.203700  0.916000  1.0  -0.0379
  C  C285  1  0.197100  0.256700  0.954100  1.0  -0.1318
  C  C286  1  0.197400  0.303000  0.019200  1.0  -0.0242
  C  C287  1  0.154600  0.298600  0.048800  1.0  -0.1452
  C  C288  1  0.245500  0.261400  0.927600  1.0  0.6514
  C  C289  1  0.713200  0.153900  0.003600  1.0  0.1543
  C  C290  1  0.706200  0.097400  0.942800  1.0  -0.1237
  C  C291  1  0.682300  0.116000  0.852400  1.0  -0.1102
  C  C292  1  0.667300  0.188400  0.825700  1.0  -0.1415
  C  C293  1  0.676500  0.240900  0.892100  1.0  0.1728
  C  C294  1  0.665800  0.321300  0.871000  1.0  0.1438
  C  C295  1  0.645700  0.350200  0.785400  1.0  -0.1216
  C  C296  1  0.640700  0.425900  0.773200  1.0  -0.1007
  C  C297  1  0.655600  0.470700  0.847200  1.0  -0.1081
  C  C298  1  0.674800  0.438500  0.931900  1.0  0.1641
  C  C299  1  0.834900  0.384500  0.522200  1.0  0.1455
  C  C300  1  0.831100  0.449800  0.562900  1.0  -0.1009
  C  C301  1  0.854700  0.451400  0.654000  1.0  -0.103
  C  C302  1  0.881100  0.389300  0.703800  1.0  -0.1685
  C  C303  1  0.882800  0.325800  0.656700  1.0  0.1801
  C  C304  1  0.908200  0.254600  0.702800  1.0  0.1432
  C  C305  1  0.931400  0.245200  0.796100  1.0  -0.104
  C  C306  1  0.951700  0.176000  0.833200  1.0  -0.1044
  C  C307  1  0.946100  0.116800  0.775700  1.0  -0.1617
  C  C308  1  0.922400  0.130500  0.684700  1.0  0.1325
  C  C309  1  0.339700  0.391200  0.880800  1.0  0.7047
  C  C310  1  0.327200  0.472500  0.857800  1.0  -0.1467
  C  C311  1  0.344600  0.524300  0.924100  1.0  -0.0306
  C  C312  1  0.334200  0.598800  0.906000  1.0  -0.1372
  C  C313  1  0.304500  0.622200  0.817400  1.0  -0.053
  C  C314  1  0.286700  0.570500  0.748200  1.0  -0.0869
  C  C315  1  0.297100  0.495800  0.767600  1.0  -0.0352
  C  C316  1  0.293400  0.699900  0.797100  1.0  0.0879
  C  C317  1  0.285300  0.764400  0.783200  1.0  0.0903
  C  C318  1  0.275200  0.841900  0.767500  1.0  -0.0067
  C  C319  1  0.304800  0.892400  0.836700  1.0  -0.1184
  C  C320  1  0.296200  0.968900  0.819500  1.0  -0.0274
  C  C321  1  0.258000  0.994100  0.733800  1.0  -0.1402
  C  C322  1  0.227300  0.943300  0.667000  1.0  -0.0417
  C  C323  1  0.235900  0.868200  0.682700  1.0  -0.0821
  C  C324  1  0.251400  0.075600  0.714300  1.0  0.6919
  C  C325  1  0.430000  0.209900  0.953000  1.0  0.6489
  C  C326  1  0.461500  0.160500  0.920000  1.0  -0.0875
  C  C327  1  0.521000  0.169200  0.949600  1.0  -0.0732
  C  C328  1  0.551300  0.120800  0.924100  1.0  -0.0837
  C  C329  1  0.522800  0.060600  0.868500  1.0  -0.0738
  C  C330  1  0.463300  0.051900  0.839700  1.0  -0.0879
  C  C331  1  0.432100  0.101400  0.864600  1.0  -0.0959
  C  C332  1  0.553200  0.006300  0.843900  1.0  -0.0862
  C  C333  1  0.573800  0.957400  0.819800  1.0  -0.033
  C  C334  1  0.598700  0.904300  0.783000  1.0  -0.0209
  C  C335  1  0.656600  0.908800  0.800500  1.0  -0.1153
  C  C336  1  0.678200  0.862600  0.756900  1.0  -0.0449
  C  C337  1  0.642300  0.808500  0.698100  1.0  -0.1359
  C  C338  1  0.586000  0.801700  0.683400  1.0  -0.0396
  C  C339  1  0.562500  0.848600  0.725400  1.0  -0.1169
  C  C340  1  0.666667  0.759700  0.650800  1.0  0.6689
  C  C341  1  0.341000  0.211400  0.653700  1.0  0.6888
  C  C342  1  0.391600  0.221100  0.633200  1.0  -0.1155
  C  C343  1  0.380800  0.231800  0.545100  1.0  -0.0777
  C  C344  1  0.425800  0.242300  0.522800  1.0  -0.1291
  C  C345  1  0.484000  0.242200  0.591600  1.0  -0.0314
  C  C346  1  0.494300  0.229400  0.680300  1.0  -0.0915
  C  C347  1  0.448800  0.219300  0.700300  1.0  -0.0581
  C  C348  1  0.530200  0.251100  0.567400  1.0  -0.0278
  C  C349  1  0.566300  0.255600  0.540600  1.0  -0.0049
  C  C350  1  0.610300  0.253800  0.510300  1.0  -0.017
  C  C351  1  0.610700  0.301900  0.445800  1.0  -0.0788
  C  C352  1  0.653100  0.296300  0.416000  1.0  -0.0367
  C  C353  1  0.697100  0.243300  0.454100  1.0  -0.1319
  C  C354  1  0.697400  0.197000  0.519200  1.0  -0.0247
  C  C355  1  0.654600  0.201400  0.548800  1.0  -0.1454
  C  C356  1  0.745500  0.238600  0.427600  1.0  0.6512
  C  C357  1  0.213200  0.346100  0.503600  1.0  0.1538
  C  C358  1  0.206200  0.402600  0.442800  1.0  -0.1227
  C  C359  1  0.182300  0.384000  0.352400  1.0  -0.1106
  C  C360  1  0.167300  0.311600  0.325700  1.0  -0.1417
  C  C361  1  0.176500  0.259100  0.392100  1.0  0.1725
  C  C362  1  0.165800  0.178700  0.371000  1.0  0.1434
  C  C363  1  0.145700  0.149800  0.285400  1.0  -0.121
  C  C364  1  0.140700  0.074100  0.273200  1.0  -0.1012
  C  C365  1  0.155600  0.029300  0.347200  1.0  -0.1067
  C  C366  1  0.174800  0.061500  0.431900  1.0  0.1658
  C  C367  1  0.334900  0.115500  0.022200  1.0  0.1459
  C  C368  1  0.331100  0.050200  0.062900  1.0  -0.1017
  C  C369  1  0.354700  0.048600  0.154000  1.0  -0.1027
  C  C370  1  0.381100  0.110700  0.203800  1.0  -0.1684
  C  C371  1  0.382800  0.174200  0.156700  1.0  0.1798
  C  C372  1  0.408200  0.245400  0.202800  1.0  0.1434
  C  C373  1  0.431400  0.254800  0.296100  1.0  -0.1044
  C  C374  1  0.451700  0.324000  0.333200  1.0  -0.1043
  C  C375  1  0.446100  0.383200  0.275700  1.0  -0.1578
  C  C376  1  0.422400  0.369500  0.184700  1.0  0.1325
  C  C377  1  0.839700  0.891200  0.880800  1.0  0.7047
  C  C378  1  0.827200  0.972500  0.857800  1.0  -0.1467
  C  C379  1  0.844600  0.024300  0.924100  1.0  -0.0306
  C  C380  1  0.834200  0.098800  0.906000  1.0  -0.1372
  C  C381  1  0.804500  0.122200  0.817400  1.0  -0.053
  C  C382  1  0.786700  0.070500  0.748200  1.0  -0.0869
  C  C383  1  0.797100  0.995800  0.767600  1.0  -0.0352
  C  C384  1  0.793400  0.199900  0.797100  1.0  0.0879
  C  C385  1  0.785300  0.264400  0.783200  1.0  0.0903
  C  C386  1  0.775200  0.341900  0.767500  1.0  -0.0067
  C  C387  1  0.804800  0.392400  0.836700  1.0  -0.1184
  C  C388  1  0.796200  0.468900  0.819500  1.0  -0.0274
  C  C389  1  0.758000  0.494100  0.733800  1.0  -0.1402
  C  C390  1  0.727300  0.443300  0.667000  1.0  -0.0417
  C  C391  1  0.735900  0.368200  0.682700  1.0  -0.0821
  C  C392  1  0.751400  0.575600  0.714300  1.0  0.6919
  C  C393  1  0.930000  0.709900  0.953000  1.0  0.6489
  C  C394  1  0.961500  0.660500  0.920000  1.0  -0.0875
  C  C395  1  0.021000  0.669200  0.949600  1.0  -0.0732
  C  C396  1  0.051300  0.620800  0.924100  1.0  -0.0837
  C  C397  1  0.022800  0.560600  0.868500  1.0  -0.0738
  C  C398  1  0.963300  0.551900  0.839700  1.0  -0.0879
  C  C399  1  0.932100  0.601400  0.864600  1.0  -0.0959
  C  C400  1  0.053200  0.506300  0.843900  1.0  -0.0862
  C  C401  1  0.073800  0.457400  0.819800  1.0  -0.033
  C  C402  1  0.098700  0.404300  0.783000  1.0  -0.0209
  C  C403  1  0.156600  0.408800  0.800500  1.0  -0.1153
  C  C404  1  0.178200  0.362600  0.756900  1.0  -0.0449
  C  C405  1  0.142300  0.308500  0.698100  1.0  -0.1352
  C  C406  1  0.086000  0.301700  0.683400  1.0  -0.0396
  C  C407  1  0.062500  0.348600  0.725400  1.0  -0.1169
  C  C408  1  0.166600  0.259700  0.650800  1.0  0.6593
  C  C409  1  0.841000  0.711400  0.653700  1.0  0.6888
  C  C410  1  0.891600  0.721100  0.633200  1.0  -0.1155
  C  C411  1  0.880800  0.731800  0.545100  1.0  -0.0777
  C  C412  1  0.925800  0.742300  0.522800  1.0  -0.1291
  C  C413  1  0.984000  0.742200  0.591600  1.0  -0.0314
  C  C414  1  0.994300  0.729400  0.680300  1.0  -0.0915
  C  C415  1  0.948800  0.719300  0.700300  1.0  -0.0581
  C  C416  1  0.030200  0.751100  0.567400  1.0  -0.0278
  C  C417  1  0.066300  0.755600  0.540600  1.0  -0.0049
  C  C418  1  0.110300  0.753800  0.510300  1.0  -0.017
  C  C419  1  0.110700  0.801900  0.445800  1.0  -0.0788
  C  C420  1  0.153100  0.796300  0.416000  1.0  -0.0367
  C  C421  1  0.197100  0.743300  0.454100  1.0  -0.1319
  C  C422  1  0.197400  0.697000  0.519200  1.0  -0.0247
  C  C423  1  0.154600  0.701400  0.548800  1.0  -0.1454
  C  C424  1  0.245500  0.738600  0.427600  1.0  0.6512
  C  C425  1  0.713200  0.846100  0.503600  1.0  0.1538
  C  C426  1  0.706200  0.902600  0.442800  1.0  -0.1227
  C  C427  1  0.682300  0.884000  0.352400  1.0  -0.1106
  C  C428  1  0.667300  0.811600  0.325700  1.0  -0.1417
  C  C429  1  0.676500  0.759100  0.392100  1.0  0.1726
  C  C430  1  0.665800  0.678700  0.371000  1.0  0.1434
  C  C431  1  0.645700  0.649800  0.285400  1.0  -0.121
  C  C432  1  0.640700  0.574100  0.273200  1.0  -0.1012
  C  C433  1  0.655600  0.529300  0.347200  1.0  -0.1067
  C  C434  1  0.674800  0.561500  0.431900  1.0  0.1658
  C  C435  1  0.834900  0.615500  0.022200  1.0  0.1459
  C  C436  1  0.831100  0.550200  0.062900  1.0  -0.1017
  C  C437  1  0.854700  0.548600  0.154000  1.0  -0.1027
  C  C438  1  0.881100  0.610700  0.203800  1.0  -0.1684
  C  C439  1  0.882800  0.674200  0.156700  1.0  0.1798
  C  C440  1  0.908200  0.745400  0.202800  1.0  0.1434
  C  C441  1  0.931400  0.754800  0.296100  1.0  -0.1044
  C  C442  1  0.951700  0.824000  0.333200  1.0  -0.1043
  C  C443  1  0.946100  0.883200  0.275700  1.0  -0.1578
  C  C444  1  0.922400  0.869500  0.184700  1.0  0.1325
  N  N445  1  0.198900  0.723600  0.978500  1.0  -0.3217
  N  N446  1  0.179400  0.865200  0.943100  1.0  -0.3204
  N  N447  1  0.359900  0.823900  0.569100  1.0  -0.296
  N  N448  1  0.404400  0.697900  0.649400  1.0  -0.2724
  N  N449  1  0.698900  0.223600  0.978500  1.0  -0.3217
  N  N450  1  0.679400  0.365200  0.943100  1.0  -0.3204
  N  N451  1  0.859900  0.323900  0.569100  1.0  -0.296
  N  N452  1  0.904400  0.197900  0.649400  1.0  -0.2724
  N  N453  1  0.198900  0.276400  0.478500  1.0  -0.3213
  N  N454  1  0.179400  0.134800  0.443100  1.0  -0.3207
  N  N455  1  0.359900  0.176100  0.069100  1.0  -0.2955
  N  N456  1  0.404400  0.302100  0.149400  1.0  -0.2724
  N  N457  1  0.698900  0.776400  0.478500  1.0  -0.3213
  N  N458  1  0.679400  0.634800  0.443100  1.0  -0.3207
  N  N459  1  0.859900  0.676100  0.069100  1.0  -0.2955
  N  N460  1  0.904400  0.802100  0.149400  1.0  -0.2724
  O  O461  1  0.374500  0.622000  0.460500  1.0  -0.5746
  O  O462  1  0.314300  0.654700  0.318600  1.0  -0.6142
  O  O463  1  0.282800  0.881300  0.277300  1.0  -0.5946
  O  O464  1  0.215800  0.906300  0.136000  1.0  -0.5986
  O  O465  1  0.456300  0.751300  0.522600  1.0  -0.5772
  O  O466  1  0.373800  0.790400  0.414300  1.0  -0.6729
  O  O467  1  0.721500  0.240800  0.176400  1.0  -0.6702
  O  O468  1  0.633900  0.276300  0.082700  1.0  -0.5608
  O  O469  1  0.347100  0.767000  0.228200  1.0  -0.6117
  O  O470  1  0.295500  0.814800  0.091000  1.0  -0.609
  O  O471  1  0.786300  0.804200  0.976200  1.0  -0.5777
  O  O472  1  0.743700  0.722700  0.864700  1.0  -0.6017
  O  O473  1  0.874500  0.122000  0.460500  1.0  -0.5746
  O  O474  1  0.814300  0.154700  0.318600  1.0  -0.6142
  O  O475  1  0.782800  0.381300  0.277300  1.0  -0.5945
  O  O476  1  0.715800  0.406300  0.136000  1.0  -0.5986
  O  O477  1  0.956300  0.251300  0.522600  1.0  -0.5772
  O  O478  1  0.873800  0.290400  0.414300  1.0  -0.6729
  O  O479  1  0.221500  0.740800  0.176400  1.0  -0.6672
  O  O480  1  0.133900  0.776300  0.082700  1.0  -0.5607
  O  O481  1  0.847100  0.267000  0.228200  1.0  -0.6117
  O  O482  1  0.795500  0.314800  0.091000  1.0  -0.609
  O  O483  1  0.286300  0.304200  0.976200  1.0  -0.5777
  O  O484  1  0.243700  0.222700  0.864700  1.0  -0.6017
  O  O485  1  0.374500  0.378000  0.960500  1.0  -0.5744
  O  O486  1  0.314300  0.345300  0.818600  1.0  -0.615
  O  O487  1  0.282800  0.118700  0.777300  1.0  -0.5947
  O  O488  1  0.215800  0.093700  0.636000  1.0  -0.5988
  O  O489  1  0.456300  0.248700  0.022600  1.0  -0.5784
  O  O490  1  0.373800  0.209600  0.914300  1.0  -0.6727
  O  O491  1  0.721500  0.759200  0.676400  1.0  -0.6702
  O  O492  1  0.633900  0.723700  0.582700  1.0  -0.5613
  O  O493  1  0.347100  0.233000  0.728200  1.0  -0.6118
  O  O494  1  0.295500  0.185200  0.591000  1.0  -0.6094
  O  O495  1  0.786300  0.195800  0.476200  1.0  -0.5779
  O  O496  1  0.743700  0.277300  0.364700  1.0  -0.6016
  O  O497  1  0.874500  0.878000  0.960500  1.0  -0.5744
  O  O498  1  0.814300  0.845300  0.818600  1.0  -0.615
  O  O499  1  0.782800  0.618700  0.777300  1.0  -0.5947
  O  O500  1  0.715800  0.593700  0.636000  1.0  -0.5988
  O  O501  1  0.956300  0.748700  0.022600  1.0  -0.5784
  O  O502  1  0.873800  0.709600  0.914300  1.0  -0.6727
  O  O503  1  0.221500  0.259200  0.676400  1.0  -0.6672
  O  O504  1  0.133900  0.223700  0.582700  1.0  -0.5613
  O  O505  1  0.847100  0.733000  0.728200  1.0  -0.6118
  O  O506  1  0.795500  0.685200  0.591000  1.0  -0.6094
  O  O507  1  0.286300  0.695800  0.476200  1.0  -0.5779
  O  O508  1  0.243700  0.777300  0.364700  1.0  -0.6016
