# generated using pymatgen
data_Na2CoH8(C2O)8
_symmetry_space_group_name_H-M   'P 1'
_cell_length_a   9.96600000
_cell_length_b   9.96600000
_cell_length_c   20.47200000
_cell_angle_alpha   90.00000000
_cell_angle_beta   90.00000000
_cell_angle_gamma   90.00000000
_symmetry_Int_Tables_number   1
_chemical_formula_structural   Na2CoH8(C2O)8
_chemical_formula_sum   'Na8 Co4 H32 C64 O32'
_cell_volume   2033.30270563
_cell_formula_units_Z   4
loop_
 _symmetry_equiv_pos_site_id
 _symmetry_equiv_pos_as_xyz
  1  'x, y, z'
loop_
 _atom_site_type_symbol
 _atom_site_label
 _atom_site_symmetry_multiplicity
 _atom_site_fract_x
 _atom_site_fract_y
 _atom_site_fract_z
 _atom_site_occupancy
 _atom_site_charge
  Na  Na1  1  0.942900  0.852900  0.020780  1.0  0.9733
  Na  Na2  1  0.276800  0.799600  0.029660  1.0  0.964
  Na  Na3  1  0.057100  0.147100  0.520780  1.0  0.9732
  Na  Na4  1  0.723200  0.200400  0.529660  1.0  0.9646
  Na  Na5  1  0.147100  0.942900  0.770780  1.0  0.9736
  Na  Na6  1  0.200400  0.276800  0.779660  1.0  0.9664
  Na  Na7  1  0.852900  0.057100  0.270780  1.0  0.9732
  Na  Na8  1  0.799600  0.723200  0.279660  1.0  0.9657
  Co  Co9  1  0.098630  0.784540  0.895620  1.0  1.0277
  Co  Co10  1  0.901370  0.215460  0.395620  1.0  1.0301
  Co  Co11  1  0.215460  0.098630  0.645620  1.0  1.028
  Co  Co12  1  0.784540  0.901370  0.145620  1.0  1.0291
  H  H13  1  0.616100  0.781400  0.904300  1.0  0.1085
  H  H14  1  0.398700  0.759000  0.737800  1.0  0.1029
  H  H15  1  0.597200  0.767600  0.676200  1.0  0.1102
  H  H16  1  0.802000  0.789600  0.728500  1.0  0.0937
  H  H17  1  0.101500  0.323500  0.902000  1.0  0.0546
  H  H18  1  0.115900  0.480200  0.083900  1.0  0.1125
  H  H19  1  0.134500  0.264200  0.127200  1.0  0.106
  H  H20  1  0.142700  0.076400  0.057500  1.0  0.1004
  H  H21  1  0.383900  0.218600  0.404300  1.0  0.1085
  H  H22  1  0.601300  0.241000  0.237800  1.0  0.1037
  H  H23  1  0.402800  0.232400  0.176200  1.0  0.11
  H  H24  1  0.198000  0.210400  0.228500  1.0  0.0945
  H  H25  1  0.898500  0.676500  0.402000  1.0  0.0529
  H  H26  1  0.884100  0.519800  0.583900  1.0  0.1137
  H  H27  1  0.865500  0.735800  0.627200  1.0  0.1058
  H  H28  1  0.857300  0.923600  0.557500  1.0  0.1006
  H  H29  1  0.218600  0.616100  0.654300  1.0  0.1085
  H  H30  1  0.241000  0.398700  0.487800  1.0  0.1033
  H  H31  1  0.232400  0.597200  0.426200  1.0  0.1099
  H  H32  1  0.210400  0.802000  0.478500  1.0  0.0935
  H  H33  1  0.676500  0.101500  0.652000  1.0  0.0541
  H  H34  1  0.519800  0.115900  0.833900  1.0  0.1133
  H  H35  1  0.735800  0.134500  0.877200  1.0  0.1055
  H  H36  1  0.923600  0.142700  0.807500  1.0  0.1008
  H  H37  1  0.781400  0.383900  0.154300  1.0  0.1085
  H  H38  1  0.759000  0.601300  0.987800  1.0  0.104
  H  H39  1  0.767600  0.402800  0.926200  1.0  0.1098
  H  H40  1  0.789600  0.198000  0.978500  1.0  0.0941
  H  H41  1  0.323500  0.898500  0.152000  1.0  0.0541
  H  H42  1  0.480200  0.884100  0.333900  1.0  0.1134
  H  H43  1  0.264200  0.865500  0.377200  1.0  0.1055
  H  H44  1  0.076400  0.857300  0.307500  1.0  0.1003
  C  C45  1  0.729000  0.788300  0.821100  1.0  -0.1614
  C  C46  1  0.612100  0.780400  0.857900  1.0  -0.007
  C  C47  1  0.490600  0.771000  0.826500  1.0  -0.1594
  C  C48  1  0.483200  0.766200  0.759000  1.0  -0.0091
  C  C49  1  0.600900  0.772000  0.722500  1.0  -0.1263
  C  C50  1  0.721900  0.784100  0.753600  1.0  -0.0184
  C  C51  1  0.862100  0.800800  0.855400  1.0  0.6831
  C  C52  1  0.364200  0.770600  0.867100  1.0  0.7452
  C  C53  1  0.123700  0.182500  0.972900  1.0  -0.1833
  C  C54  1  0.109900  0.311000  0.947800  1.0  0.0051
  C  C55  1  0.108300  0.421900  0.989300  1.0  -0.1522
  C  C56  1  0.117500  0.404600  0.055600  1.0  -0.0044
  C  C57  1  0.129200  0.276300  0.081200  1.0  -0.1121
  C  C58  1  0.133400  0.164000  0.039800  1.0  -0.0173
  C  C59  1  0.124800  0.064700  0.927600  1.0  0.745
  C  C60  1  0.095600  0.561100  0.962300  1.0  0.6905
  C  C61  1  0.271000  0.211700  0.321100  1.0  -0.1605
  C  C62  1  0.387900  0.219600  0.357900  1.0  -0.0068
  C  C63  1  0.509400  0.229000  0.326500  1.0  -0.1597
  C  C64  1  0.516800  0.233800  0.259000  1.0  -0.0088
  C  C65  1  0.399100  0.228000  0.222500  1.0  -0.1234
  C  C66  1  0.278100  0.215900  0.253600  1.0  -0.0195
  C  C67  1  0.137900  0.199200  0.355400  1.0  0.6826
  C  C68  1  0.635800  0.229400  0.367100  1.0  0.7449
  C  C69  1  0.876300  0.817500  0.472900  1.0  -0.1839
  C  C70  1  0.890100  0.689000  0.447800  1.0  0.0059
  C  C71  1  0.891700  0.578100  0.489300  1.0  -0.1532
  C  C72  1  0.882500  0.595400  0.555600  1.0  -0.0038
  C  C73  1  0.870800  0.723700  0.581200  1.0  -0.1118
  C  C74  1  0.866600  0.836000  0.539800  1.0  -0.0162
  C  C75  1  0.875200  0.935300  0.427600  1.0  0.7452
  C  C76  1  0.904400  0.438900  0.462300  1.0  0.6916
  C  C77  1  0.211700  0.729000  0.571100  1.0  -0.1645
  C  C78  1  0.219600  0.612100  0.607900  1.0  -0.0064
  C  C79  1  0.229000  0.490600  0.576500  1.0  -0.1553
  C  C80  1  0.233800  0.483200  0.509000  1.0  -0.0081
  C  C81  1  0.228000  0.600900  0.472500  1.0  -0.1254
  C  C82  1  0.215900  0.721900  0.503600  1.0  -0.0207
  C  C83  1  0.199200  0.862100  0.605400  1.0  0.6849
  C  C84  1  0.229400  0.364200  0.617100  1.0  0.7459
  C  C85  1  0.817500  0.123700  0.722900  1.0  -0.1804
  C  C86  1  0.689000  0.109900  0.697800  1.0  -0.0023
  C  C87  1  0.578100  0.108300  0.739300  1.0  -0.1514
  C  C88  1  0.595400  0.117500  0.805600  1.0  -0.0073
  C  C89  1  0.723700  0.129200  0.831200  1.0  -0.1122
  C  C90  1  0.836000  0.133400  0.789800  1.0  -0.0178
  C  C91  1  0.935300  0.124800  0.677600  1.0  0.7407
  C  C92  1  0.438900  0.095600  0.712300  1.0  0.69
  C  C93  1  0.788300  0.271000  0.071100  1.0  -0.1641
  C  C94  1  0.780400  0.387900  0.107900  1.0  -0.0064
  C  C95  1  0.771000  0.509400  0.076500  1.0  -0.1558
  C  C96  1  0.766200  0.516800  0.009000  1.0  -0.0081
  C  C97  1  0.772000  0.399100  0.972500  1.0  -0.126
  C  C98  1  0.784100  0.278100  0.003600  1.0  -0.023
  C  C99  1  0.800800  0.137900  0.105400  1.0  0.6848
  C  C100  1  0.770600  0.635800  0.117100  1.0  0.7456
  C  C101  1  0.182500  0.876300  0.222900  1.0  -0.1803
  C  C102  1  0.311000  0.890100  0.197800  1.0  0.0008
  C  C103  1  0.421900  0.891700  0.239300  1.0  -0.1504
  C  C104  1  0.404600  0.882500  0.305600  1.0  -0.0048
  C  C105  1  0.276300  0.870800  0.331200  1.0  -0.1134
  C  C106  1  0.164000  0.866600  0.289800  1.0  -0.0179
  C  C107  1  0.064700  0.875200  0.177600  1.0  0.7445
  C  C108  1  0.561100  0.904400  0.212300  1.0  0.6905
  O  O109  1  0.870800  0.797800  0.916070  1.0  -0.6649
  O  O110  1  0.967300  0.810900  0.819400  1.0  -0.6732
  O  O111  1  0.367200  0.757900  0.926700  1.0  -0.7128
  O  O112  1  0.254300  0.787300  0.834500  1.0  -0.7076
  O  O113  1  0.134500  0.083500  0.866620  1.0  -0.7303
  O  O114  1  0.115700  0.947900  0.953830  1.0  -0.7973
  O  O115  1  0.088700  0.574900  0.900300  1.0  -0.593
  O  O116  1  0.098400  0.661600  0.998900  1.0  -0.7906
  O  O117  1  0.129200  0.202200  0.416070  1.0  -0.6642
  O  O118  1  0.032700  0.189100  0.319400  1.0  -0.6723
  O  O119  1  0.632800  0.242100  0.426700  1.0  -0.7143
  O  O120  1  0.745700  0.212700  0.334500  1.0  -0.7084
  O  O121  1  0.865500  0.916500  0.366620  1.0  -0.7312
  O  O122  1  0.884300  0.052100  0.453830  1.0  -0.7981
  O  O123  1  0.911300  0.425100  0.400300  1.0  -0.5933
  O  O124  1  0.901600  0.338400  0.498900  1.0  -0.7919
  O  O125  1  0.202200  0.870800  0.666070  1.0  -0.6654
  O  O126  1  0.189100  0.967300  0.569400  1.0  -0.6738
  O  O127  1  0.242100  0.367200  0.676700  1.0  -0.7134
  O  O128  1  0.212700  0.254300  0.584500  1.0  -0.7092
  O  O129  1  0.916500  0.134500  0.616620  1.0  -0.7318
  O  O130  1  0.052100  0.115700  0.703830  1.0  -0.7978
  O  O131  1  0.425100  0.088700  0.650300  1.0  -0.5942
  O  O132  1  0.338400  0.098400  0.748900  1.0  -0.7885
  O  O133  1  0.797800  0.129200  0.166070  1.0  -0.6666
  O  O134  1  0.810900  0.032700  0.069400  1.0  -0.6732
  O  O135  1  0.757900  0.632800  0.176700  1.0  -0.714
  O  O136  1  0.787300  0.745700  0.084500  1.0  -0.7097
  O  O137  1  0.083500  0.865500  0.116620  1.0  -0.7321
  O  O138  1  0.947900  0.884300  0.203830  1.0  -0.7985
  O  O139  1  0.574900  0.911300  0.150300  1.0  -0.5927
  O  O140  1  0.661600  0.901600  0.248900  1.0  -0.7877
