# generated using pymatgen
data_Na2CoH8(C2O)8
_symmetry_space_group_name_H-M   'P 1'
_cell_length_a   10.02920000
_cell_length_b   10.02920000
_cell_length_c   20.80800000
_cell_angle_alpha   90.00000000
_cell_angle_beta   90.00000000
_cell_angle_gamma   90.00000000
_symmetry_Int_Tables_number   1
_chemical_formula_structural   Na2CoH8(C2O)8
_chemical_formula_sum   'Na8 Co4 H32 C64 O32'
_cell_volume   2092.96961373
_cell_formula_units_Z   4
loop_
 _symmetry_equiv_pos_site_id
 _symmetry_equiv_pos_as_xyz
  1  'x, y, z'
loop_
 _atom_site_type_symbol
 _atom_site_label
 _atom_site_symmetry_multiplicity
 _atom_site_fract_x
 _atom_site_fract_y
 _atom_site_fract_z
 _atom_site_occupancy
 _atom_site_charge
  Na  Na1  1  0.957100  0.845600  0.021980  1.0  0.9689
  Na  Na2  1  0.289000  0.829100  0.025000  1.0  0.9714
  Na  Na3  1  0.042900  0.154400  0.521980  1.0  0.9687
  Na  Na4  1  0.711000  0.170900  0.525000  1.0  0.9716
  Na  Na5  1  0.154400  0.957100  0.771980  1.0  0.9688
  Na  Na6  1  0.170900  0.289000  0.775000  1.0  0.9733
  Na  Na7  1  0.845600  0.042900  0.271980  1.0  0.9694
  Na  Na8  1  0.829100  0.711000  0.275000  1.0  0.9722
  Co  Co9  1  0.118430  0.790010  0.894400  1.0  1.0347
  Co  Co10  1  0.881570  0.209990  0.394400  1.0  1.0358
  Co  Co11  1  0.209990  0.118430  0.644400  1.0  1.034
  Co  Co12  1  0.790010  0.881570  0.144400  1.0  1.0346
  H  H13  1  0.627300  0.792200  0.905800  1.0  0.1078
  H  H14  1  0.418300  0.802900  0.739100  1.0  0.1016
  H  H15  1  0.619400  0.817900  0.680900  1.0  0.1127
  H  H16  1  0.821500  0.820800  0.736000  1.0  0.0982
  H  H17  1  0.141200  0.329100  0.904600  1.0  0.0481
  H  H18  1  0.132300  0.477800  0.084600  1.0  0.1112
  H  H19  1  0.135600  0.259900  0.126000  1.0  0.1099
  H  H20  1  0.134100  0.077900  0.056600  1.0  0.0906
  H  H21  1  0.372700  0.207800  0.405800  1.0  0.1074
  H  H22  1  0.581700  0.197100  0.239100  1.0  0.1021
  H  H23  1  0.380600  0.182100  0.180900  1.0  0.1123
  H  H24  1  0.178500  0.179200  0.236000  1.0  0.0982
  H  H25  1  0.858800  0.670900  0.404600  1.0  0.0468
  H  H26  1  0.867700  0.522200  0.584600  1.0  0.1119
  H  H27  1  0.864400  0.740100  0.626000  1.0  0.1104
  H  H28  1  0.865900  0.922100  0.556600  1.0  0.0909
  H  H29  1  0.207800  0.627300  0.655800  1.0  0.1077
  H  H30  1  0.197100  0.418300  0.489100  1.0  0.1017
  H  H31  1  0.182100  0.619400  0.430900  1.0  0.1122
  H  H32  1  0.179200  0.821500  0.486000  1.0  0.0975
  H  H33  1  0.670900  0.141200  0.654600  1.0  0.048
  H  H34  1  0.522200  0.132300  0.834600  1.0  0.1129
  H  H35  1  0.740100  0.135600  0.876000  1.0  0.1094
  H  H36  1  0.922100  0.134100  0.806600  1.0  0.0904
  H  H37  1  0.792200  0.372700  0.155800  1.0  0.1076
  H  H38  1  0.802900  0.581700  0.989100  1.0  0.1015
  H  H39  1  0.817900  0.380600  0.930900  1.0  0.1121
  H  H40  1  0.820800  0.178500  0.986000  1.0  0.0971
  H  H41  1  0.329100  0.858800  0.154600  1.0  0.048
  H  H42  1  0.477800  0.867700  0.334600  1.0  0.1126
  H  H43  1  0.259900  0.864400  0.376000  1.0  0.1096
  H  H44  1  0.077900  0.865900  0.306600  1.0  0.0903
  C  C45  1  0.744200  0.808700  0.825900  1.0  -0.1635
  C  C46  1  0.625200  0.799000  0.860300  1.0  0.0024
  C  C47  1  0.504100  0.799300  0.828400  1.0  -0.1725
  C  C48  1  0.501200  0.804900  0.761200  1.0  -0.0093
  C  C49  1  0.620700  0.813400  0.726500  1.0  -0.1328
  C  C50  1  0.740400  0.815100  0.759400  1.0  -0.0076
  C  C51  1  0.876000  0.808200  0.859600  1.0  0.7059
  C  C52  1  0.377100  0.792600  0.865500  1.0  0.7303
  C  C53  1  0.138100  0.184900  0.973200  1.0  -0.1998
  C  C54  1  0.138300  0.314700  0.949700  1.0  0.0245
  C  C55  1  0.134200  0.423900  0.990900  1.0  -0.1533
  C  C56  1  0.133600  0.403700  0.056200  1.0  -0.0113
  C  C57  1  0.135000  0.273800  0.080800  1.0  -0.11
  C  C58  1  0.135500  0.165800  0.039600  1.0  -0.0191
  C  C59  1  0.134400  0.067200  0.927700  1.0  0.7427
  C  C60  1  0.125900  0.566400  0.966700  1.0  0.7073
  C  C61  1  0.255800  0.191300  0.325900  1.0  -0.1634
  C  C62  1  0.374800  0.201000  0.360300  1.0  0.0026
  C  C63  1  0.495900  0.200700  0.328400  1.0  -0.1726
  C  C64  1  0.498800  0.195100  0.261200  1.0  -0.0119
  C  C65  1  0.379300  0.186600  0.226500  1.0  -0.1321
  C  C66  1  0.259600  0.184900  0.259400  1.0  -0.0069
  C  C67  1  0.124000  0.191800  0.359600  1.0  0.7048
  C  C68  1  0.622900  0.207400  0.365500  1.0  0.7293
  C  C69  1  0.861900  0.815100  0.473200  1.0  -0.2007
  C  C70  1  0.861700  0.685300  0.449700  1.0  0.0249
  C  C71  1  0.865800  0.576100  0.490900  1.0  -0.1556
  C  C72  1  0.866400  0.596300  0.556200  1.0  -0.0117
  C  C73  1  0.865000  0.726200  0.580800  1.0  -0.1106
  C  C74  1  0.864500  0.834200  0.539600  1.0  -0.0192
  C  C75  1  0.865600  0.932800  0.427700  1.0  0.7443
  C  C76  1  0.874100  0.433600  0.466700  1.0  0.7071
  C  C77  1  0.191300  0.744200  0.575900  1.0  -0.1664
  C  C78  1  0.201000  0.625200  0.610300  1.0  0.0064
  C  C79  1  0.200700  0.504100  0.578400  1.0  -0.1724
  C  C80  1  0.195100  0.501200  0.511200  1.0  -0.0068
  C  C81  1  0.186600  0.620700  0.476500  1.0  -0.1316
  C  C82  1  0.184900  0.740400  0.509400  1.0  -0.0045
  C  C83  1  0.191800  0.876000  0.609600  1.0  0.7063
  C  C84  1  0.207400  0.377100  0.615500  1.0  0.7317
  C  C85  1  0.815100  0.138100  0.723200  1.0  -0.1986
  C  C86  1  0.685300  0.138300  0.699700  1.0  0.0212
  C  C87  1  0.576100  0.134200  0.740900  1.0  -0.154
  C  C88  1  0.596300  0.133600  0.806200  1.0  -0.0152
  C  C89  1  0.726200  0.135000  0.830800  1.0  -0.1102
  C  C90  1  0.834200  0.135500  0.789600  1.0  -0.0187
  C  C91  1  0.932800  0.134400  0.677700  1.0  0.7399
  C  C92  1  0.433600  0.125900  0.716700  1.0  0.7023
  C  C93  1  0.808700  0.255800  0.075900  1.0  -0.1652
  C  C94  1  0.799000  0.374800  0.110300  1.0  0.0055
  C  C95  1  0.799300  0.495900  0.078400  1.0  -0.1718
  C  C96  1  0.804900  0.498800  0.011200  1.0  -0.0077
  C  C97  1  0.813400  0.379300  0.976500  1.0  -0.1318
  C  C98  1  0.815100  0.259600  0.009400  1.0  -0.0055
  C  C99  1  0.808200  0.124000  0.109600  1.0  0.7078
  C  C100  1  0.792600  0.622900  0.115500  1.0  0.7334
  C  C101  1  0.184900  0.861900  0.223200  1.0  -0.1989
  C  C102  1  0.314700  0.861700  0.199700  1.0  0.0219
  C  C103  1  0.423900  0.865800  0.240900  1.0  -0.1533
  C  C104  1  0.403700  0.866400  0.306200  1.0  -0.0148
  C  C105  1  0.273800  0.865000  0.330800  1.0  -0.1106
  C  C106  1  0.165800  0.864500  0.289600  1.0  -0.0196
  C  C107  1  0.067200  0.865600  0.177700  1.0  0.7409
  C  C108  1  0.566400  0.874100  0.216700  1.0  0.7036
  O  O109  1  0.882500  0.795100  0.919000  1.0  -0.6798
  O  O110  1  0.981100  0.819600  0.825320  1.0  -0.6782
  O  O111  1  0.376300  0.783100  0.923900  1.0  -0.6982
  O  O112  1  0.267600  0.801500  0.831900  1.0  -0.71
  O  O113  1  0.136200  0.087800  0.868700  1.0  -0.6989
  O  O114  1  0.127800  0.951200  0.954050  1.0  -0.8233
  O  O115  1  0.116500  0.583000  0.906100  1.0  -0.6084
  O  O116  1  0.126400  0.660900  0.004900  1.0  -0.7887
  O  O117  1  0.117500  0.204900  0.419000  1.0  -0.6789
  O  O118  1  0.018900  0.180400  0.325320  1.0  -0.6793
  O  O119  1  0.623700  0.216900  0.423900  1.0  -0.6993
  O  O120  1  0.732400  0.198500  0.331900  1.0  -0.7097
  O  O121  1  0.863800  0.912200  0.368700  1.0  -0.7002
  O  O122  1  0.872200  0.048800  0.454050  1.0  -0.8248
  O  O123  1  0.883500  0.417000  0.406100  1.0  -0.6088
  O  O124  1  0.873600  0.339100  0.504900  1.0  -0.7895
  O  O125  1  0.204900  0.882500  0.669000  1.0  -0.6782
  O  O126  1  0.180400  0.981100  0.575320  1.0  -0.6782
  O  O127  1  0.216900  0.376300  0.673900  1.0  -0.6993
  O  O128  1  0.198500  0.267600  0.581900  1.0  -0.7119
  O  O129  1  0.912200  0.136200  0.618700  1.0  -0.6991
  O  O130  1  0.048800  0.127800  0.704050  1.0  -0.8245
  O  O131  1  0.417000  0.116500  0.656100  1.0  -0.6091
  O  O132  1  0.339100  0.126400  0.754900  1.0  -0.7865
  O  O133  1  0.795100  0.117500  0.169000  1.0  -0.6793
  O  O134  1  0.819600  0.018900  0.075320  1.0  -0.679
  O  O135  1  0.783100  0.623700  0.173900  1.0  -0.6993
  O  O136  1  0.801500  0.732400  0.081900  1.0  -0.711
  O  O137  1  0.087800  0.863800  0.118700  1.0  -0.6986
  O  O138  1  0.951200  0.872200  0.204050  1.0  -0.825
  O  O139  1  0.583000  0.883500  0.156100  1.0  -0.6082
  O  O140  1  0.660900  0.873600  0.254900  1.0  -0.7845
