# generated using pymatgen
data_Na2CoH8(C2O)8
_symmetry_space_group_name_H-M   'P 1'
_cell_length_a   10.89600000
_cell_length_b   13.90100000
_cell_length_c   14.25560000
_cell_angle_alpha   90.00000000
_cell_angle_beta   90.00000000
_cell_angle_gamma   109.49000000
_symmetry_Int_Tables_number   1
_chemical_formula_structural   Na2CoH8(C2O)8
_chemical_formula_sum   'Na8 Co4 H32 C64 O32'
_cell_volume   2035.50430283
_cell_formula_units_Z   4
loop_
 _symmetry_equiv_pos_site_id
 _symmetry_equiv_pos_as_xyz
  1  'x, y, z'
loop_
 _atom_site_type_symbol
 _atom_site_label
 _atom_site_symmetry_multiplicity
 _atom_site_fract_x
 _atom_site_fract_y
 _atom_site_fract_z
 _atom_site_occupancy
 _atom_site_charge
  Na  Na1  1  0.494010  0.834240  0.331260  1.0  0.971
  Na  Na2  1  0.005990  0.665760  0.831260  1.0  0.9722
  Na  Na3  1  0.505990  0.165760  0.668740  1.0  0.9723
  Na  Na4  1  0.994010  0.334240  0.168740  1.0  0.9721
  Na  Na5  1  0.500000  0.000000  0.500000  1.0  0.9762
  Na  Na6  1  0.000000  0.500000  0.000000  1.0  0.9762
  Na  Na7  1  0.000000  0.000000  0.500000  1.0  0.959
  Na  Na8  1  0.500000  0.500000  0.000000  1.0  0.959
  Co  Co9  1  0.239250  0.998320  0.605690  1.0  1.0427
  Co  Co10  1  0.260750  0.501680  0.105690  1.0  1.0413
  Co  Co11  1  0.760750  0.001680  0.394310  1.0  1.0392
  Co  Co12  1  0.739250  0.498320  0.894310  1.0  1.0415
  H  H13  1  0.229700  0.719700  0.336800  1.0  0.0591
  H  H14  1  0.860500  0.546200  0.271900  1.0  0.1041
  H  H15  1  0.782400  0.628800  0.387800  1.0  0.1066
  H  H16  1  0.926500  0.760900  0.474700  1.0  0.1011
  H  H17  1  0.241800  0.249100  0.343000  1.0  0.105
  H  H18  1  0.591900  0.428400  0.243100  1.0  0.1065
  H  H19  1  0.696800  0.355000  0.349300  1.0  0.1065
  H  H20  1  0.576000  0.228200  0.452700  1.0  0.1021
  H  H21  1  0.270300  0.780300  0.836800  1.0  0.0586
  H  H22  1  0.639500  0.953800  0.771900  1.0  0.1046
  H  H23  1  0.717600  0.871200  0.887800  1.0  0.1073
  H  H24  1  0.573500  0.739100  0.974700  1.0  0.1014
  H  H25  1  0.258200  0.250900  0.843000  1.0  0.1048
  H  H26  1  0.908100  0.071600  0.743100  1.0  0.1062
  H  H27  1  0.803200  0.145000  0.849300  1.0  0.1059
  H  H28  1  0.924000  0.271800  0.952700  1.0  0.1019
  H  H29  1  0.770300  0.280300  0.663200  1.0  0.0588
  H  H30  1  0.139500  0.453800  0.728100  1.0  0.1043
  H  H31  1  0.217600  0.371200  0.612200  1.0  0.1076
  H  H32  1  0.073500  0.239100  0.525300  1.0  0.1016
  H  H33  1  0.758200  0.750900  0.657000  1.0  0.1049
  H  H34  1  0.408100  0.571600  0.756900  1.0  0.1061
  H  H35  1  0.303200  0.645000  0.650700  1.0  0.106
  H  H36  1  0.424000  0.771800  0.547300  1.0  0.1022
  H  H37  1  0.729700  0.219700  0.163200  1.0  0.0591
  H  H38  1  0.360500  0.046200  0.228100  1.0  0.1038
  H  H39  1  0.282400  0.128800  0.112200  1.0  0.1069
  H  H40  1  0.426500  0.260900  0.025300  1.0  0.1014
  H  H41  1  0.741800  0.749100  0.157000  1.0  0.1052
  H  H42  1  0.091900  0.928400  0.256900  1.0  0.1063
  H  H43  1  0.196800  0.855000  0.150700  1.0  0.1063
  H  H44  1  0.076000  0.728200  0.047300  1.0  0.1022
  C  C45  1  0.092300  0.753000  0.413900  1.0  -0.1813
  C  C46  1  0.138600  0.701700  0.346600  1.0  0.0076
  C  C47  1  0.053200  0.624400  0.293500  1.0  -0.1669
  C  C48  1  0.919700  0.598300  0.308500  1.0  -0.022
  C  C49  1  0.873400  0.648100  0.376700  1.0  -0.1259
  C  C50  1  0.958900  0.726000  0.428800  1.0  -0.0109
  C  C51  1  0.186100  0.841000  0.467100  1.0  0.7306
  C  C52  1  0.100200  0.571700  0.216300  1.0  0.6988
  C  C53  1  0.396900  0.225700  0.406700  1.0  -0.1779
  C  C54  1  0.334200  0.270300  0.344100  1.0  0.003
  C  C55  1  0.406400  0.346000  0.283000  1.0  -0.1661
  C  C56  1  0.542100  0.377100  0.285100  1.0  -0.0158
  C  C57  1  0.604300  0.333333  0.348000  1.0  -0.1152
  C  C58  1  0.532800  0.257800  0.409300  1.0  -0.0187
  C  C59  1  0.316000  0.143600  0.471000  1.0  0.7427
  C  C60  1  0.339900  0.396100  0.217400  1.0  0.7096
  C  C61  1  0.407700  0.747000  0.913900  1.0  -0.1806
  C  C62  1  0.361400  0.798300  0.846600  1.0  0.0069
  C  C63  1  0.446800  0.875600  0.793500  1.0  -0.1663
  C  C64  1  0.580300  0.901700  0.808500  1.0  -0.0225
  C  C65  1  0.626600  0.851900  0.876700  1.0  -0.1244
  C  C66  1  0.541100  0.774000  0.928800  1.0  -0.0108
  C  C67  1  0.313900  0.659000  0.967100  1.0  0.7294
  C  C68  1  0.399800  0.928300  0.716300  1.0  0.6995
  C  C69  1  0.103100  0.274300  0.906700  1.0  -0.179
  C  C70  1  0.165800  0.229700  0.844100  1.0  0.0045
  C  C71  1  0.093600  0.154000  0.783000  1.0  -0.1662
  C  C72  1  0.957900  0.122900  0.785100  1.0  -0.0162
  C  C73  1  0.895700  0.166700  0.848000  1.0  -0.1169
  C  C74  1  0.967200  0.242200  0.909300  1.0  -0.0181
  C  C75  1  0.184000  0.356400  0.971000  1.0  0.7435
  C  C76  1  0.160100  0.103900  0.717400  1.0  0.709
  C  C77  1  0.907700  0.247000  0.586100  1.0  -0.181
  C  C78  1  0.861400  0.298300  0.653400  1.0  0.0077
  C  C79  1  0.946800  0.375600  0.706500  1.0  -0.1674
  C  C80  1  0.080300  0.401700  0.691500  1.0  -0.0216
  C  C81  1  0.126600  0.351900  0.623300  1.0  -0.1249
  C  C82  1  0.041100  0.274000  0.571200  1.0  -0.0123
  C  C83  1  0.813900  0.159000  0.532900  1.0  0.7291
  C  C84  1  0.899800  0.428300  0.783700  1.0  0.6986
  C  C85  1  0.603100  0.774300  0.593300  1.0  -0.1779
  C  C86  1  0.665800  0.729700  0.655900  1.0  0.0049
  C  C87  1  0.593600  0.654000  0.717000  1.0  -0.1668
  C  C88  1  0.457900  0.622900  0.714900  1.0  -0.0161
  C  C89  1  0.395700  0.666667  0.652000  1.0  -0.1175
  C  C90  1  0.467200  0.742200  0.590700  1.0  -0.0193
  C  C91  1  0.684000  0.856400  0.529000  1.0  0.7434
  C  C92  1  0.660100  0.603900  0.782600  1.0  0.7083
  C  C93  1  0.592300  0.253000  0.086100  1.0  -0.179
  C  C94  1  0.638600  0.201700  0.153400  1.0  0.0091
  C  C95  1  0.553200  0.124400  0.206500  1.0  -0.1674
  C  C96  1  0.419700  0.098300  0.191500  1.0  -0.0214
  C  C97  1  0.373400  0.148100  0.123300  1.0  -0.1258
  C  C98  1  0.458900  0.226000  0.071200  1.0  -0.0127
  C  C99  1  0.686100  0.341000  0.032900  1.0  0.7303
  C  C100  1  0.600200  0.071700  0.283700  1.0  0.6989
  C  C101  1  0.896900  0.725700  0.093300  1.0  -0.1792
  C  C102  1  0.834200  0.770300  0.155900  1.0  0.0027
  C  C103  1  0.906400  0.846000  0.217000  1.0  -0.1665
  C  C104  1  0.042100  0.877100  0.214900  1.0  -0.0155
  C  C105  1  0.104300  0.833300  0.152000  1.0  -0.1167
  C  C106  1  0.032800  0.757800  0.090700  1.0  -0.0201
  C  C107  1  0.816000  0.643600  0.029000  1.0  0.7425
  C  C108  1  0.839900  0.896100  0.282600  1.0  0.709
  O  O109  1  0.305500  0.861730  0.457150  1.0  -0.7027
  O  O110  1  0.132700  0.889000  0.521730  1.0  -0.6953
  O  O111  1  0.222300  0.593100  0.205850  1.0  -0.6122
  O  O112  1  0.019500  0.509000  0.165640  1.0  -0.7824
  O  O113  1  0.196600  0.115300  0.467500  1.0  -0.6548
  O  O114  1  0.377400  0.104480  0.529990  1.0  -0.8549
  O  O115  1  0.218400  0.374800  0.219150  1.0  -0.6977
  O  O116  1  0.410000  0.463500  0.161060  1.0  -0.6605
  O  O117  1  0.194500  0.638270  0.957150  1.0  -0.703
  O  O118  1  0.367300  0.611000  0.021730  1.0  -0.6948
  O  O119  1  0.277700  0.906900  0.705850  1.0  -0.6134
  O  O120  1  0.480500  0.991000  0.665640  1.0  -0.7798
  O  O121  1  0.303400  0.384700  0.967500  1.0  -0.6541
  O  O122  1  0.122600  0.395520  0.029990  1.0  -0.8535
  O  O123  1  0.281600  0.125200  0.719150  1.0  -0.699
  O  O124  1  0.090000  0.036500  0.661060  1.0  -0.6626
  O  O125  1  0.694500  0.138270  0.542850  1.0  -0.7036
  O  O126  1  0.867300  0.111000  0.478270  1.0  -0.6956
  O  O127  1  0.777700  0.406900  0.794150  1.0  -0.6139
  O  O128  1  0.980500  0.491000  0.834360  1.0  -0.7811
  O  O129  1  0.803400  0.884700  0.532500  1.0  -0.6541
  O  O130  1  0.622600  0.895520  0.470010  1.0  -0.8534
  O  O131  1  0.781600  0.625200  0.780850  1.0  -0.6988
  O  O132  1  0.590000  0.536500  0.838940  1.0  -0.6618
  O  O133  1  0.805500  0.361730  0.042850  1.0  -0.7029
  O  O134  1  0.632700  0.389000  0.978270  1.0  -0.6958
  O  O135  1  0.722300  0.093100  0.294150  1.0  -0.6116
  O  O136  1  0.519500  0.009000  0.334360  1.0  -0.783
  O  O137  1  0.696600  0.615300  0.032500  1.0  -0.6545
  O  O138  1  0.877400  0.604480  0.970010  1.0  -0.855
  O  O139  1  0.718400  0.874800  0.280850  1.0  -0.6986
  O  O140  1  0.910000  0.963500  0.338940  1.0  -0.662
