# generated using pymatgen
data_CdH10C12(NO)4
_symmetry_space_group_name_H-M   'P 1'
_cell_length_a   17.46820000
_cell_length_b   17.46820000
_cell_length_c   17.46820000
_cell_angle_alpha   97.47010000
_cell_angle_beta   115.78500000
_cell_angle_gamma   115.78500000
_symmetry_Int_Tables_number   1
_chemical_formula_structural   CdH10C12(NO)4
_chemical_formula_sum   'Cd8 H80 C96 N32 O32'
_cell_volume   3972.54564656
_cell_formula_units_Z   8
loop_
 _symmetry_equiv_pos_site_id
 _symmetry_equiv_pos_as_xyz
  1  'x, y, z'
loop_
 _atom_site_type_symbol
 _atom_site_label
 _atom_site_symmetry_multiplicity
 _atom_site_fract_x
 _atom_site_fract_y
 _atom_site_fract_z
 _atom_site_occupancy
 _atom_site_charge
  Cd  Cd1  1  0.455210  0.049390  0.163420  1.0  0.9575
  Cd  Cd2  1  0.955210  0.791790  0.405820  1.0  0.9619
  Cd  Cd3  1  0.044790  0.208210  0.594180  1.0  0.9606
  Cd  Cd4  1  0.544790  0.950610  0.836580  1.0  0.9559
  Cd  Cd5  1  0.114030  0.163420  0.208210  1.0  0.9603
  Cd  Cd6  1  0.614030  0.405820  0.950610  1.0  0.9568
  Cd  Cd7  1  0.385970  0.594180  0.049390  1.0  0.9566
  Cd  Cd8  1  0.885970  0.836580  0.791790  1.0  0.9598
  H  H9  1  0.649000  0.034100  0.325100  1.0  0.1082
  H  H10  1  0.453000  0.884800  0.065200  1.0  0.0797
  H  H11  1  0.755200  0.947400  0.368400  1.0  0.093
  H  H12  1  0.694300  0.820800  0.209700  1.0  0.116
  H  H13  1  0.594000  0.284100  0.284500  1.0  0.1131
  H  H14  1  0.614600  0.160500  0.100700  1.0  0.0856
  H  H15  1  0.708400  0.462200  0.309800  1.0  0.1063
  H  H16  1  0.814000  0.486600  0.227200  1.0  0.137
  H  H17  1  0.560100  0.828900  0.122400  1.0  0.2882
  H  H18  1  0.715000  0.321900  0.142100  1.0  0.2954
  H  H19  1  0.149000  0.823900  0.614900  1.0  0.1047
  H  H20  1  0.953000  0.887800  0.568200  1.0  0.08
  H  H21  1  0.255200  0.886800  0.807800  1.0  0.0923
  H  H22  1  0.194300  0.984600  0.873500  1.0  0.1144
  H  H23  1  0.094000  0.809500  0.309900  1.0  0.1102
  H  H24  1  0.114600  0.013900  0.454100  1.0  0.0847
  H  H25  1  0.208400  0.898600  0.246200  1.0  0.1043
  H  H26  1  0.314000  0.086800  0.327400  1.0  0.1347
  H  H27  1  0.060100  0.937700  0.731200  1.0  0.2884
  H  H28  1  0.215000  0.072900  0.393100  1.0  0.2947
  H  H29  1  0.851000  0.176100  0.385100  1.0  0.1034
  H  H30  1  0.047000  0.112200  0.431800  1.0  0.0806
  H  H31  1  0.744800  0.113200  0.192200  1.0  0.0929
  H  H32  1  0.805700  0.015400  0.126500  1.0  0.1148
  H  H33  1  0.906000  0.190500  0.690100  1.0  0.1122
  H  H34  1  0.885400  0.986100  0.545900  1.0  0.0855
  H  H35  1  0.791600  0.101400  0.753800  1.0  0.1056
  H  H36  1  0.686000  0.913200  0.672600  1.0  0.1355
  H  H37  1  0.939900  0.062300  0.268800  1.0  0.2887
  H  H38  1  0.785000  0.927100  0.606900  1.0  0.2948
  H  H39  1  0.351000  0.965900  0.674900  1.0  0.1037
  H  H40  1  0.547000  0.115200  0.934800  1.0  0.0796
  H  H41  1  0.244800  0.052600  0.631600  1.0  0.0928
  H  H42  1  0.305700  0.179200  0.790300  1.0  0.1153
  H  H43  1  0.406000  0.715900  0.715500  1.0  0.1098
  H  H44  1  0.385400  0.839500  0.899300  1.0  0.0874
  H  H45  1  0.291600  0.537800  0.690200  1.0  0.1062
  H  H46  1  0.186000  0.513400  0.772800  1.0  0.1374
  H  H47  1  0.439900  0.171100  0.877600  1.0  0.288
  H  H48  1  0.285000  0.678100  0.857900  1.0  0.2982
  H  H49  1  0.291000  0.325100  0.176100  1.0  0.105
  H  H50  1  0.180400  0.065200  0.112200  1.0  0.08
  H  H51  1  0.421000  0.368400  0.113200  1.0  0.0928
  H  H52  1  0.388900  0.209700  0.015400  1.0  0.1166
  H  H53  1  0.000400  0.284500  0.190500  1.0  0.112
  H  H54  1  0.940200  0.100700  0.986100  1.0  0.0859
  H  H55  1  0.847600  0.309800  0.101400  1.0  0.1048
  H  H56  1  0.740600  0.227200  0.913200  1.0  0.1371
  H  H57  1  0.293500  0.122400  0.062300  1.0  0.289
  H  H58  1  0.820200  0.142100  0.927100  1.0  0.2981
  H  H59  1  0.791000  0.614900  0.965900  1.0  0.1068
  H  H60  1  0.680400  0.568200  0.115200  1.0  0.0798
  H  H61  1  0.921000  0.807800  0.052600  1.0  0.0927
  H  H62  1  0.888900  0.873500  0.179200  1.0  0.1149
  H  H63  1  0.500400  0.309900  0.715900  1.0  0.1101
  H  H64  1  0.440200  0.454100  0.839500  1.0  0.0856
  H  H65  1  0.347600  0.246200  0.537800  1.0  0.1056
  H  H66  1  0.240600  0.327400  0.513400  1.0  0.1348
  H  H67  1  0.793500  0.731200  0.171100  1.0  0.2876
  H  H68  1  0.320200  0.393100  0.678100  1.0  0.2994
  H  H69  1  0.209000  0.385100  0.034100  1.0  0.1012
  H  H70  1  0.319600  0.431800  0.884800  1.0  0.0797
  H  H71  1  0.079000  0.192200  0.947400  1.0  0.0928
  H  H72  1  0.111100  0.126500  0.820800  1.0  0.1167
  H  H73  1  0.499600  0.690100  0.284100  1.0  0.1108
  H  H74  1  0.559800  0.545900  0.160500  1.0  0.0852
  H  H75  1  0.652400  0.753800  0.462200  1.0  0.1058
  H  H76  1  0.759400  0.672600  0.486600  1.0  0.1341
  H  H77  1  0.206500  0.268800  0.828900  1.0  0.2874
  H  H78  1  0.679800  0.606900  0.321900  1.0  0.295
  H  H79  1  0.709000  0.674900  0.823900  1.0  0.1104
  H  H80  1  0.819600  0.934800  0.887800  1.0  0.08
  H  H81  1  0.579000  0.631600  0.886800  1.0  0.0937
  H  H82  1  0.611100  0.790300  0.984600  1.0  0.114
  H  H83  1  0.999600  0.715500  0.809500  1.0  0.1116
  H  H84  1  0.059800  0.899300  0.013900  1.0  0.0851
  H  H85  1  0.152400  0.690200  0.898600  1.0  0.1046
  H  H86  1  0.259400  0.772800  0.086800  1.0  0.1364
  H  H87  1  0.706500  0.877600  0.937700  1.0  0.2873
  H  H88  1  0.179800  0.857900  0.072900  1.0  0.295
  C  C89  1  0.632800  0.924800  0.247200  1.0  0.0754
  C  C90  1  0.612600  0.987800  0.267200  1.0  -0.0144
  C  C91  1  0.506300  0.907800  0.126300  1.0  0.257
  C  C92  1  0.714800  0.912600  0.305000  1.0  -0.0405
  C  C93  1  0.734900  0.856000  0.272900  1.0  -0.2676
  C  C94  1  0.817300  0.845400  0.331100  1.0  0.6919
  C  C95  1  0.672600  0.341600  0.229400  1.0  0.0774
  C  C96  1  0.612000  0.274400  0.243000  1.0  0.0165
  C  C97  1  0.622700  0.206100  0.143200  1.0  0.2309
  C  C98  1  0.726100  0.440700  0.272800  1.0  -0.0447
  C  C99  1  0.797000  0.504900  0.266500  1.0  -0.2637
  C  C100  1  0.850800  0.605600  0.320400  1.0  0.6797
  C  C101  1  0.132800  0.885600  0.708000  1.0  0.075
  C  C102  1  0.112600  0.845400  0.624800  1.0  -0.0159
  C  C103  1  0.006300  0.880000  0.598500  1.0  0.2578
  C  C104  1  0.214800  0.909800  0.802200  1.0  -0.0445
  C  C105  1  0.234900  0.962000  0.878900  1.0  -0.2692
  C  C106  1  0.317300  0.986200  0.971900  1.0  0.6915
  C  C107  1  0.172600  0.943200  0.331000  1.0  0.0831
  C  C108  1  0.112000  0.869000  0.337600  1.0  0.0132
  C  C109  1  0.122700  0.979500  0.416600  1.0  0.2353
  C  C110  1  0.226100  0.953300  0.285400  1.0  -0.046
  C  C111  1  0.297000  0.030500  0.292100  1.0  -0.2681
  C  C112  1  0.350800  0.030400  0.245200  1.0  0.6781
  C  C113  1  0.867200  0.114400  0.292000  1.0  0.0682
  C  C114  1  0.887400  0.154600  0.375200  1.0  -0.0169
  C  C115  1  0.993700  0.120000  0.401500  1.0  0.2591
  C  C116  1  0.785200  0.090200  0.197800  1.0  -0.0438
  C  C117  1  0.765100  0.038000  0.121100  1.0  -0.2825
  C  C118  1  0.682700  0.013800  0.028100  1.0  0.6916
  C  C119  1  0.827400  0.056800  0.669000  1.0  0.0794
  C  C120  1  0.888000  0.131000  0.662400  1.0  0.0084
  C  C121  1  0.877300  0.020500  0.583400  1.0  0.2327
  C  C122  1  0.773900  0.046700  0.714600  1.0  -0.0469
  C  C123  1  0.703000  0.969500  0.707900  1.0  -0.275
  C  C124  1  0.649200  0.969600  0.754800  1.0  0.6769
  C  C125  1  0.367200  0.075200  0.752800  1.0  0.066
  C  C126  1  0.387400  0.012200  0.732800  1.0  -0.0141
  C  C127  1  0.493700  0.092200  0.873700  1.0  0.2579
  C  C128  1  0.285200  0.087400  0.695000  1.0  -0.0439
  C  C129  1  0.265100  0.144000  0.727100  1.0  -0.2791
  C  C130  1  0.182700  0.154600  0.668900  1.0  0.6906
  C  C131  1  0.327400  0.658400  0.770600  1.0  0.0768
  C  C132  1  0.388000  0.725600  0.757000  1.0  0.0199
  C  C133  1  0.377300  0.793900  0.856800  1.0  0.2327
  C  C134  1  0.273900  0.559300  0.727200  1.0  -0.0466
  C  C135  1  0.203000  0.495100  0.733500  1.0  -0.2726
  C  C136  1  0.149200  0.394400  0.679600  1.0  0.6779
  C  C137  1  0.322400  0.247200  0.114400  1.0  0.0763
  C  C138  1  0.279400  0.267200  0.154600  1.0  -0.0165
  C  C139  1  0.218500  0.126300  0.120000  1.0  0.2603
  C  C140  1  0.392400  0.305000  0.090200  1.0  -0.043
  C  C141  1  0.416900  0.272900  0.038000  1.0  -0.2704
  C  C142  1  0.485700  0.331100  0.013800  1.0  0.6949
  C  C143  1  0.887800  0.229400  0.056800  1.0  0.0793
  C  C144  1  0.968600  0.243000  0.131000  1.0  0.0105
  C  C145  1  0.937100  0.143200  0.020500  1.0  0.2333
  C  C146  1  0.832100  0.272800  0.046700  1.0  -0.0494
  C  C147  1  0.761600  0.266500  0.969500  1.0  -0.2715
  C  C148  1  0.714800  0.320400  0.969600  1.0  0.6767
  C  C149  1  0.822400  0.708000  0.075200  1.0  0.0733
  C  C150  1  0.779400  0.624800  0.012200  1.0  -0.0151
  C  C151  1  0.718500  0.598500  0.092200  1.0  0.2613
  C  C152  1  0.892400  0.802200  0.087400  1.0  -0.0438
  C  C153  1  0.916900  0.878900  0.144000  1.0  -0.2654
  C  C154  1  0.985700  0.971900  0.154600  1.0  0.6947
  C  C155  1  0.387800  0.331000  0.658400  1.0  0.0765
  C  C156  1  0.468600  0.337600  0.725600  1.0  0.013
  C  C157  1  0.437100  0.416600  0.793900  1.0  0.234
  C  C158  1  0.332100  0.285400  0.559300  1.0  -0.0473
  C  C159  1  0.261600  0.292100  0.495100  1.0  -0.2787
  C  C160  1  0.214800  0.245200  0.394400  1.0  0.6871
  C  C161  1  0.177600  0.292000  0.924800  1.0  0.0754
  C  C162  1  0.220600  0.375200  0.987800  1.0  -0.0172
  C  C163  1  0.281500  0.401500  0.907800  1.0  0.2593
  C  C164  1  0.107600  0.197800  0.912600  1.0  -0.0434
  C  C165  1  0.083100  0.121100  0.856000  1.0  -0.2838
  C  C166  1  0.014300  0.028100  0.845400  1.0  0.694
  C  C167  1  0.612200  0.669000  0.341600  1.0  0.0783
  C  C168  1  0.531400  0.662400  0.274400  1.0  0.0109
  C  C169  1  0.562900  0.583400  0.206100  1.0  0.2344
  C  C170  1  0.667900  0.714600  0.440700  1.0  -0.0466
  C  C171  1  0.738400  0.707900  0.504900  1.0  -0.2671
  C  C172  1  0.785200  0.754800  0.605600  1.0  0.6851
  C  C173  1  0.677600  0.752800  0.885600  1.0  0.0681
  C  C174  1  0.720600  0.732800  0.845400  1.0  -0.0139
  C  C175  1  0.781500  0.873700  0.880000  1.0  0.2599
  C  C176  1  0.607600  0.695000  0.909800  1.0  -0.0478
  C  C177  1  0.583100  0.727100  0.962000  1.0  -0.2661
  C  C178  1  0.514300  0.668900  0.986200  1.0  0.6961
  C  C179  1  0.112200  0.770600  0.943200  1.0  0.0816
  C  C180  1  0.031400  0.757000  0.869000  1.0  0.0124
  C  C181  1  0.062900  0.856800  0.979500  1.0  0.233
  C  C182  1  0.167900  0.727200  0.953300  1.0  -0.0483
  C  C183  1  0.238400  0.733500  0.030500  1.0  -0.2645
  C  C184  1  0.285200  0.679600  0.030400  1.0  0.6774
  N  N185  1  0.565000  0.873900  0.155500  1.0  -0.2329
  N  N186  1  0.531100  0.973500  0.190000  1.0  -0.3807
  N  N187  1  0.680100  0.296600  0.164500  1.0  -0.2356
  N  N188  1  0.579500  0.189600  0.188900  1.0  -0.4065
  N  N189  1  0.065000  0.909500  0.691100  1.0  -0.2308
  N  N190  1  0.031100  0.841100  0.557600  1.0  -0.3802
  N  N191  1  0.180100  0.015600  0.383500  1.0  -0.2371
  N  N192  1  0.079500  0.890600  0.389900  1.0  -0.402
  N  N193  1  0.935000  0.090500  0.308900  1.0  -0.2315
  N  N194  1  0.968900  0.158900  0.442400  1.0  -0.3815
  N  N195  1  0.819900  0.984400  0.616500  1.0  -0.2375
  N  N196  1  0.920500  0.109400  0.610100  1.0  -0.4013
  N  N197  1  0.435000  0.126100  0.844500  1.0  -0.2319
  N  N198  1  0.468900  0.026500  0.810000  1.0  -0.3823
  N  N199  1  0.319900  0.703400  0.835500  1.0  -0.236
  N  N200  1  0.420500  0.810400  0.811100  1.0  -0.4052
  N  N201  1  0.281600  0.155500  0.090500  1.0  -0.2317
  N  N202  1  0.216500  0.190000  0.158900  1.0  -0.38
  N  N203  1  0.867900  0.164500  0.984400  1.0  -0.2361
  N  N204  1  0.999300  0.188900  0.109400  1.0  -0.4031
  N  N205  1  0.781600  0.691100  0.126100  1.0  -0.2297
  N  N206  1  0.716500  0.557600  0.026500  1.0  -0.3802
  N  N207  1  0.367900  0.383500  0.703400  1.0  -0.2367
  N  N208  1  0.499300  0.389900  0.810400  1.0  -0.404
  N  N209  1  0.218400  0.308900  0.873900  1.0  -0.2311
  N  N210  1  0.283500  0.442400  0.973500  1.0  -0.3815
  N  N211  1  0.632100  0.616500  0.296600  1.0  -0.2385
  N  N212  1  0.500700  0.610100  0.189600  1.0  -0.4034
  N  N213  1  0.718400  0.844500  0.909500  1.0  -0.2316
  N  N214  1  0.783500  0.810000  0.841100  1.0  -0.3807
  N  N215  1  0.132100  0.835500  0.015600  1.0  -0.2355
  N  N216  1  0.000700  0.811100  0.890600  1.0  -0.3978
  O  O217  1  0.929400  0.660400  0.322400  1.0  -0.6165
  O  O218  1  0.820600  0.632800  0.364400  1.0  -0.6312
  O  O219  1  0.832200  0.794800  0.289200  1.0  -0.6335
  O  O220  1  0.869100  0.882400  0.415900  1.0  -0.6218
  O  O221  1  0.429400  0.107000  0.269000  1.0  -0.6192
  O  O222  1  0.320600  0.956200  0.187800  1.0  -0.6324
  O  O223  1  0.332200  0.043000  0.037400  1.0  -0.6328
  O  O224  1  0.369100  0.953200  0.986700  1.0  -0.6214
  O  O225  1  0.570600  0.893000  0.731000  1.0  -0.6181
  O  O226  1  0.679400  0.043800  0.812200  1.0  -0.6309
  O  O227  1  0.667800  0.957000  0.962600  1.0  -0.6345
  O  O228  1  0.630900  0.046800  0.013300  1.0  -0.6215
  O  O229  1  0.070600  0.339600  0.677600  1.0  -0.6154
  O  O230  1  0.179400  0.367200  0.635600  1.0  -0.6315
  O  O231  1  0.167800  0.205200  0.710800  1.0  -0.633
  O  O232  1  0.130900  0.117600  0.584100  1.0  -0.6228
  O  O233  1  0.662000  0.322400  0.893000  1.0  -0.617
  O  O234  1  0.731600  0.364400  0.043800  1.0  -0.6317
  O  O235  1  0.494400  0.289200  0.957000  1.0  -0.6312
  O  O236  1  0.533500  0.415900  0.046800  1.0  -0.6199
  O  O237  1  0.162000  0.269000  0.339600  1.0  -0.6165
  O  O238  1  0.231600  0.187800  0.367200  1.0  -0.6293
  O  O239  1  0.994400  0.037400  0.205200  1.0  -0.6324
  O  O240  1  0.033500  0.986700  0.117600  1.0  -0.6225
  O  O241  1  0.838000  0.731000  0.660400  1.0  -0.6161
  O  O242  1  0.768400  0.812200  0.632800  1.0  -0.6305
  O  O243  1  0.005600  0.962600  0.794800  1.0  -0.6331
  O  O244  1  0.966500  0.013300  0.882400  1.0  -0.6223
  O  O245  1  0.338000  0.677600  0.107000  1.0  -0.6199
  O  O246  1  0.268400  0.635600  0.956200  1.0  -0.6331
  O  O247  1  0.505600  0.710800  0.043000  1.0  -0.633
  O  O248  1  0.466500  0.584100  0.953200  1.0  -0.6205
