# generated using pymatgen
data_Cd5H6C20(NO2)8
_symmetry_space_group_name_H-M   'P 1'
_cell_length_a   10.61860000
_cell_length_b   15.77950000
_cell_length_c   14.16200000
_cell_angle_alpha   90.00000000
_cell_angle_beta   130.43000000
_cell_angle_gamma   90.00000000
_symmetry_Int_Tables_number   1
_chemical_formula_structural   Cd5H6C20(NO2)8
_chemical_formula_sum   'Cd10 H12 C40 N16 O32'
_cell_volume   1806.27225769
_cell_formula_units_Z   2
loop_
 _symmetry_equiv_pos_site_id
 _symmetry_equiv_pos_as_xyz
  1  'x, y, z'
loop_
 _atom_site_type_symbol
 _atom_site_label
 _atom_site_symmetry_multiplicity
 _atom_site_fract_x
 _atom_site_fract_y
 _atom_site_fract_z
 _atom_site_occupancy
 _atom_site_charge
  Cd  Cd1  1  0.406410  0.456570  0.570490  1.0  1.0103
  Cd  Cd2  1  0.420360  0.543150  0.843550  1.0  0.9952
  Cd  Cd3  1  0.593590  0.956570  0.929510  1.0  1.0103
  Cd  Cd4  1  0.579640  0.043150  0.656450  1.0  0.9954
  Cd  Cd5  1  0.593590  0.543430  0.429510  1.0  1.01
  Cd  Cd6  1  0.579640  0.456850  0.156450  1.0  0.9953
  Cd  Cd7  1  0.406410  0.043430  0.070490  1.0  1.0101
  Cd  Cd8  1  0.420360  0.956850  0.343550  1.0  0.9952
  Cd  Cd9  1  0.000000  0.500000  0.000000  1.0  1.1934
  Cd  Cd10  1  0.000000  0.000000  0.500000  1.0  1.1934
  H  H11  1  0.991400  0.421900  0.443400  1.0  0.0719
  H  H12  1  0.452000  0.241700  0.506200  1.0  0.0716
  H  H13  1  0.623400  0.240700  0.950500  1.0  0.359
  H  H14  1  0.008600  0.921900  0.056600  1.0  0.0732
  H  H15  1  0.548000  0.741700  0.993800  1.0  0.072
  H  H16  1  0.376600  0.740700  0.549500  1.0  0.3607
  H  H17  1  0.008600  0.578100  0.556600  1.0  0.0721
  H  H18  1  0.548000  0.758300  0.493800  1.0  0.0717
  H  H19  1  0.376600  0.759300  0.049500  1.0  0.363
  H  H20  1  0.991400  0.078100  0.943400  1.0  0.071
  H  H21  1  0.452000  0.258300  0.006200  1.0  0.0713
  H  H22  1  0.623400  0.259300  0.450500  1.0  0.3619
  C  C23  1  0.994100  0.444500  0.384100  1.0  0.3471
  C  C24  1  0.085900  0.489700  0.296200  1.0  -0.0011
  C  C25  1  0.913800  0.494300  0.212000  1.0  -0.0102
  C  C26  1  0.215700  0.511500  0.290300  1.0  0.7146
  C  C27  1  0.784200  0.524100  0.081600  1.0  0.7212
  C  C28  1  0.480600  0.246300  0.583500  1.0  0.3427
  C  C29  1  0.524000  0.298800  0.741800  1.0  -0.0063
  C  C30  1  0.559300  0.212600  0.761500  1.0  -0.0026
  C  C31  1  0.525900  0.363200  0.817800  1.0  0.7088
  C  C32  1  0.613200  0.157800  0.863700  1.0  0.6856
  C  C33  1  0.005900  0.944500  0.115900  1.0  0.3465
  C  C34  1  0.914100  0.989700  0.203800  1.0  -0.0026
  C  C35  1  0.086200  0.994300  0.288000  1.0  -0.0116
  C  C36  1  0.784300  0.011500  0.209700  1.0  0.7171
  C  C37  1  0.215800  0.024100  0.418400  1.0  0.7223
  C  C38  1  0.519400  0.746300  0.916500  1.0  0.3419
  C  C39  1  0.476000  0.798800  0.758200  1.0  -0.0061
  C  C40  1  0.440700  0.712600  0.738500  1.0  -0.0022
  C  C41  1  0.474100  0.863200  0.682200  1.0  0.7083
  C  C42  1  0.386800  0.657800  0.636300  1.0  0.6839
  C  C43  1  0.005900  0.555500  0.615900  1.0  0.3466
  C  C44  1  0.914100  0.510300  0.703800  1.0  -0.0024
  C  C45  1  0.086200  0.505700  0.788000  1.0  -0.0116
  C  C46  1  0.784300  0.488500  0.709700  1.0  0.717
  C  C47  1  0.215800  0.475900  0.918400  1.0  0.7173
  C  C48  1  0.519400  0.753700  0.416500  1.0  0.3419
  C  C49  1  0.476000  0.701200  0.258200  1.0  -0.0063
  C  C50  1  0.440700  0.787400  0.238500  1.0  -0.0019
  C  C51  1  0.474100  0.636800  0.182200  1.0  0.7081
  C  C52  1  0.386800  0.842200  0.136300  1.0  0.6841
  C  C53  1  0.994100  0.055500  0.884100  1.0  0.3464
  C  C54  1  0.085900  0.010300  0.796200  1.0  -0.0012
  C  C55  1  0.913800  0.005700  0.712000  1.0  -0.0106
  C  C56  1  0.215700  0.988500  0.790300  1.0  0.7144
  C  C57  1  0.784200  0.975900  0.581600  1.0  0.7158
  C  C58  1  0.480600  0.253700  0.083500  1.0  0.3427
  C  C59  1  0.524000  0.201200  0.241800  1.0  -0.0065
  C  C60  1  0.559300  0.287400  0.261500  1.0  -0.0026
  C  C61  1  0.525900  0.136800  0.317800  1.0  0.7086
  C  C62  1  0.613200  0.342200  0.363700  1.0  0.6859
  N  N63  1  0.134100  0.458300  0.405600  1.0  -0.4201
  N  N64  1  0.858600  0.465600  0.271000  1.0  -0.4071
  N  N65  1  0.472700  0.319100  0.627800  1.0  -0.4354
  N  N66  1  0.533500  0.180800  0.661200  1.0  -0.4201
  N  N67  1  0.865900  0.958300  0.094400  1.0  -0.4202
  N  N68  1  0.141400  0.965600  0.229000  1.0  -0.4093
  N  N69  1  0.527300  0.819100  0.872200  1.0  -0.4351
  N  N70  1  0.466500  0.680800  0.838800  1.0  -0.4198
  N  N71  1  0.865900  0.541700  0.594400  1.0  -0.4202
  N  N72  1  0.141400  0.534400  0.729000  1.0  -0.4097
  N  N73  1  0.527300  0.680900  0.372200  1.0  -0.436
  N  N74  1  0.466500  0.819200  0.338800  1.0  -0.4191
  N  N75  1  0.134100  0.041700  0.905600  1.0  -0.4209
  N  N76  1  0.858600  0.034400  0.771000  1.0  -0.4071
  N  N77  1  0.472700  0.180900  0.127800  1.0  -0.4357
  N  N78  1  0.533500  0.319200  0.161200  1.0  -0.4194
  O  O79  1  0.184900  0.541800  0.195900  1.0  -0.6443
  O  O80  1  0.362700  0.497200  0.388500  1.0  -0.6312
  O  O81  1  0.814000  0.539600  0.012000  1.0  -0.6397
  O  O82  1  0.643600  0.533100  0.048300  1.0  -0.6376
  O  O83  1  0.464500  0.434400  0.766600  1.0  -0.6304
  O  O84  1  0.581900  0.344600  0.924900  1.0  -0.5889
  O  O85  1  0.641000  0.189600  0.960100  1.0  -0.4955
  O  O86  1  0.628600  0.081000  0.855900  1.0  -0.6523
  O  O87  1  0.815100  0.041800  0.304100  1.0  -0.6443
  O  O88  1  0.637300  0.997200  0.111500  1.0  -0.6305
  O  O89  1  0.186000  0.039600  0.488000  1.0  -0.6403
  O  O90  1  0.356400  0.033100  0.451700  1.0  -0.6391
  O  O91  1  0.535500  0.934400  0.733400  1.0  -0.6301
  O  O92  1  0.418100  0.844600  0.575100  1.0  -0.5904
  O  O93  1  0.359000  0.689600  0.539900  1.0  -0.4948
  O  O94  1  0.371400  0.581000  0.644100  1.0  -0.6515
  O  O95  1  0.815100  0.458200  0.804100  1.0  -0.6434
  O  O96  1  0.637300  0.502800  0.611500  1.0  -0.6296
  O  O97  1  0.186000  0.460400  0.988000  1.0  -0.639
  O  O98  1  0.356400  0.466900  0.951700  1.0  -0.6389
  O  O99  1  0.535500  0.565600  0.233400  1.0  -0.63
  O  O100  1  0.418100  0.655400  0.075100  1.0  -0.5897
  O  O101  1  0.359000  0.810400  0.039900  1.0  -0.4926
  O  O102  1  0.371400  0.919000  0.144100  1.0  -0.6519
  O  O103  1  0.184900  0.958200  0.695900  1.0  -0.6445
  O  O104  1  0.362700  0.002800  0.888500  1.0  -0.6304
  O  O105  1  0.814000  0.960400  0.512000  1.0  -0.6404
  O  O106  1  0.643600  0.966900  0.548300  1.0  -0.6376
  O  O107  1  0.464500  0.065600  0.266600  1.0  -0.6306
  O  O108  1  0.581900  0.155400  0.424900  1.0  -0.5889
  O  O109  1  0.641000  0.310400  0.460100  1.0  -0.4948
  O  O110  1  0.628600  0.419000  0.355900  1.0  -0.6528
