# generated using pymatgen
data_Zn3H12C22(N3O4)2
_symmetry_space_group_name_H-M   'P 1'
_cell_length_a   10.30080000
_cell_length_b   13.32460000
_cell_length_c   20.46200000
_cell_angle_alpha   90.00000000
_cell_angle_beta   90.00000000
_cell_angle_gamma   90.00000000
_symmetry_Int_Tables_number   1
_chemical_formula_structural   Zn3H12C22(N3O4)2
_chemical_formula_sum   'Zn12 H48 C88 N24 O32'
_cell_volume   2808.49215993
_cell_formula_units_Z   4
loop_
 _symmetry_equiv_pos_site_id
 _symmetry_equiv_pos_as_xyz
  1  'x, y, z'
loop_
 _atom_site_type_symbol
 _atom_site_label
 _atom_site_symmetry_multiplicity
 _atom_site_fract_x
 _atom_site_fract_y
 _atom_site_fract_z
 _atom_site_occupancy
 _atom_site_charge
  Zn  Zn1  1  0.435290  0.889730  0.293830  1.0  0.9192
  Zn  Zn2  1  0.064710  0.610270  0.293830  1.0  0.9184
  Zn  Zn3  1  0.564710  0.389730  0.206170  1.0  0.9153
  Zn  Zn4  1  0.935290  0.110270  0.206170  1.0  0.9156
  Zn  Zn5  1  0.564710  0.110270  0.706170  1.0  0.9167
  Zn  Zn6  1  0.935290  0.389730  0.706170  1.0  0.9175
  Zn  Zn7  1  0.435290  0.610270  0.793830  1.0  0.9173
  Zn  Zn8  1  0.064710  0.889730  0.793830  1.0  0.917
  Zn  Zn9  1  0.750000  0.750000  0.075000  1.0  1.0522
  Zn  Zn10  1  0.250000  0.250000  0.425000  1.0  1.0528
  Zn  Zn11  1  0.250000  0.250000  0.925000  1.0  1.0528
  Zn  Zn12  1  0.750000  0.750000  0.575000  1.0  1.0522
  H  H13  1  0.573000  0.539400  0.347000  1.0  0.0893
  H  H14  1  0.562900  0.456200  0.451500  1.0  0.1056
  H  H15  1  0.682300  0.059900  0.305100  1.0  0.0804
  H  H16  1  0.404900  0.684700  0.493900  1.0  0.1039
  H  H17  1  0.541600  0.679000  0.281500  1.0  0.0918
  H  H18  1  0.356200  0.812900  0.426500  1.0  0.078
  H  H19  1  0.927000  0.960600  0.347000  1.0  0.0892
  H  H20  1  0.937100  0.043800  0.451500  1.0  0.105
  H  H21  1  0.817700  0.440100  0.305100  1.0  0.0801
  H  H22  1  0.095100  0.815300  0.493900  1.0  0.1041
  H  H23  1  0.958400  0.821000  0.281500  1.0  0.0913
  H  H24  1  0.143800  0.687100  0.426500  1.0  0.0782
  H  H25  1  0.427000  0.039400  0.153000  1.0  0.0893
  H  H26  1  0.437100  0.956200  0.048500  1.0  0.1044
  H  H27  1  0.317700  0.559900  0.194900  1.0  0.0788
  H  H28  1  0.595100  0.184700  0.006100  1.0  0.1046
  H  H29  1  0.458400  0.179000  0.218500  1.0  0.0911
  H  H30  1  0.643800  0.312900  0.073500  1.0  0.0784
  H  H31  1  0.073000  0.460600  0.153000  1.0  0.0892
  H  H32  1  0.062900  0.543800  0.048500  1.0  0.105
  H  H33  1  0.182300  0.940100  0.194900  1.0  0.0793
  H  H34  1  0.904900  0.315300  0.006100  1.0  0.1042
  H  H35  1  0.041600  0.321000  0.218500  1.0  0.0912
  H  H36  1  0.856200  0.187100  0.073500  1.0  0.0781
  H  H37  1  0.427000  0.460600  0.653000  1.0  0.089
  H  H38  1  0.437100  0.543800  0.548500  1.0  0.1045
  H  H39  1  0.317700  0.940100  0.694900  1.0  0.0789
  H  H40  1  0.595100  0.315300  0.506100  1.0  0.1045
  H  H41  1  0.458400  0.321000  0.718500  1.0  0.0912
  H  H42  1  0.643800  0.187100  0.573500  1.0  0.0783
  H  H43  1  0.073000  0.039400  0.653000  1.0  0.0891
  H  H44  1  0.062900  0.956200  0.548500  1.0  0.1055
  H  H45  1  0.182300  0.559900  0.694900  1.0  0.0792
  H  H46  1  0.904900  0.184700  0.506100  1.0  0.1046
  H  H47  1  0.041600  0.179000  0.718500  1.0  0.0913
  H  H48  1  0.856200  0.312900  0.573500  1.0  0.0782
  H  H49  1  0.573000  0.960600  0.847000  1.0  0.0894
  H  H50  1  0.562900  0.043800  0.951500  1.0  0.1054
  H  H51  1  0.682300  0.440100  0.805100  1.0  0.0806
  H  H52  1  0.404900  0.815300  0.993900  1.0  0.1037
  H  H53  1  0.541600  0.821000  0.781500  1.0  0.0915
  H  H54  1  0.356200  0.687100  0.926500  1.0  0.078
  H  H55  1  0.927000  0.539400  0.847000  1.0  0.0892
  H  H56  1  0.937100  0.456200  0.951500  1.0  0.1043
  H  H57  1  0.817700  0.059900  0.805100  1.0  0.08
  H  H58  1  0.095100  0.684700  0.993900  1.0  0.1042
  H  H59  1  0.958400  0.679000  0.781500  1.0  0.0916
  H  H60  1  0.143800  0.812900  0.926500  1.0  0.0783
  C  C61  1  0.640100  0.905100  0.200400  1.0  0.0719
  C  C62  1  0.493500  0.596500  0.427600  1.0  0.0406
  C  C63  1  0.532700  0.596000  0.364100  1.0  -0.1254
  C  C64  1  0.516000  0.508100  0.470900  1.0  -0.1079
  C  C65  1  0.826700  0.953800  0.118300  1.0  0.6258
  C  C66  1  0.687000  0.018700  0.268500  1.0  0.2639
  C  C67  1  0.554700  0.824700  0.174800  1.0  0.6524
  C  C68  1  0.430500  0.681700  0.450400  1.0  -0.1306
  C  C69  1  0.512800  0.679500  0.324500  1.0  0.1361
  C  C70  1  0.405700  0.759700  0.410800  1.0  0.136
  C  C71  1  0.749000  0.957900  0.179200  1.0  0.0575
  C  C72  1  0.859900  0.594900  0.200400  1.0  0.0721
  C  C73  1  0.006500  0.903500  0.427600  1.0  0.039
  C  C74  1  0.967300  0.904000  0.364100  1.0  -0.1236
  C  C75  1  0.984000  0.991900  0.470900  1.0  -0.108
  C  C76  1  0.673300  0.546200  0.118300  1.0  0.6258
  C  C77  1  0.813000  0.481300  0.268500  1.0  0.2643
  C  C78  1  0.945300  0.675300  0.174800  1.0  0.6555
  C  C79  1  0.069500  0.818300  0.450400  1.0  -0.1319
  C  C80  1  0.987200  0.820500  0.324500  1.0  0.1357
  C  C81  1  0.094300  0.740300  0.410800  1.0  0.1361
  C  C82  1  0.751000  0.542100  0.179200  1.0  0.0575
  C  C83  1  0.359900  0.405100  0.299600  1.0  0.0718
  C  C84  1  0.506500  0.096500  0.072400  1.0  0.0396
  C  C85  1  0.467300  0.096000  0.135900  1.0  -0.124
  C  C86  1  0.484000  0.008100  0.029100  1.0  -0.1093
  C  C87  1  0.173300  0.453800  0.381700  1.0  0.6237
  C  C88  1  0.313000  0.518700  0.231500  1.0  0.2643
  C  C89  1  0.445300  0.324700  0.325200  1.0  0.6551
  C  C90  1  0.569500  0.181700  0.049600  1.0  -0.1315
  C  C91  1  0.487200  0.179500  0.175500  1.0  0.1369
  C  C92  1  0.594300  0.259700  0.089200  1.0  0.1376
  C  C93  1  0.251000  0.457900  0.320800  1.0  0.057
  C  C94  1  0.140100  0.094900  0.299600  1.0  0.0721
  C  C95  1  0.993500  0.403500  0.072400  1.0  0.0412
  C  C96  1  0.032700  0.404000  0.135900  1.0  -0.1248
  C  C97  1  0.016000  0.491900  0.029100  1.0  -0.1089
  C  C98  1  0.326700  0.046200  0.381700  1.0  0.6243
  C  C99  1  0.187000  0.981300  0.231500  1.0  0.2641
  C  C100  1  0.054700  0.175300  0.325200  1.0  0.6522
  C  C101  1  0.930500  0.318300  0.049600  1.0  -0.1309
  C  C102  1  0.012800  0.320500  0.175500  1.0  0.1373
  C  C103  1  0.905700  0.240300  0.089200  1.0  0.1361
  C  C104  1  0.249000  0.042100  0.320800  1.0  0.0576
  C  C105  1  0.359900  0.094900  0.799600  1.0  0.072
  C  C106  1  0.506500  0.403500  0.572400  1.0  0.0397
  C  C107  1  0.467300  0.404000  0.635900  1.0  -0.1237
  C  C108  1  0.484000  0.491900  0.529100  1.0  -0.1063
  C  C109  1  0.173300  0.046200  0.881700  1.0  0.6228
  C  C110  1  0.313000  0.981300  0.731500  1.0  0.2641
  C  C111  1  0.445300  0.175300  0.825200  1.0  0.6556
  C  C112  1  0.569500  0.318300  0.549600  1.0  -0.1311
  C  C113  1  0.487200  0.320500  0.675500  1.0  0.1369
  C  C114  1  0.594300  0.240300  0.589200  1.0  0.136
  C  C115  1  0.251000  0.042100  0.820800  1.0  0.0573
  C  C116  1  0.140100  0.405100  0.799600  1.0  0.0719
  C  C117  1  0.993500  0.096500  0.572400  1.0  0.0413
  C  C118  1  0.032700  0.096000  0.635900  1.0  -0.1252
  C  C119  1  0.016000  0.008100  0.529100  1.0  -0.1063
  C  C120  1  0.326700  0.453800  0.881700  1.0  0.6251
  C  C121  1  0.187000  0.518700  0.731500  1.0  0.2642
  C  C122  1  0.054700  0.324700  0.825200  1.0  0.6527
  C  C123  1  0.930500  0.181700  0.549600  1.0  -0.1316
  C  C124  1  0.012800  0.179500  0.675500  1.0  0.1374
  C  C125  1  0.905700  0.259700  0.589200  1.0  0.1377
  C  C126  1  0.249000  0.457900  0.820800  1.0  0.0577
  C  C127  1  0.640100  0.594900  0.700400  1.0  0.0722
  C  C128  1  0.493500  0.903500  0.927600  1.0  0.0398
  C  C129  1  0.532700  0.904000  0.864100  1.0  -0.1252
  C  C130  1  0.516000  0.991900  0.970900  1.0  -0.1056
  C  C131  1  0.826700  0.546200  0.618300  1.0  0.6253
  C  C132  1  0.687000  0.481300  0.768500  1.0  0.2641
  C  C133  1  0.554700  0.675300  0.674800  1.0  0.6524
  C  C134  1  0.430500  0.818300  0.950400  1.0  -0.131
  C  C135  1  0.512800  0.820500  0.824500  1.0  0.1357
  C  C136  1  0.405700  0.740300  0.910800  1.0  0.1356
  C  C137  1  0.749000  0.542100  0.679200  1.0  0.058
  C  C138  1  0.859900  0.905100  0.700400  1.0  0.0718
  C  C139  1  0.006500  0.596500  0.927600  1.0  0.0396
  C  C140  1  0.967300  0.596000  0.864100  1.0  -0.124
  C  C141  1  0.984000  0.508100  0.970900  1.0  -0.1063
  C  C142  1  0.673300  0.953800  0.618300  1.0  0.6264
  C  C143  1  0.813000  0.018700  0.768500  1.0  0.2642
  C  C144  1  0.945300  0.824700  0.674800  1.0  0.6545
  C  C145  1  0.069500  0.681700  0.950400  1.0  -0.1314
  C  C146  1  0.987200  0.679500  0.824500  1.0  0.1361
  C  C147  1  0.094300  0.759700  0.910800  1.0  0.1365
  C  C148  1  0.751000  0.957900  0.679200  1.0  0.0566
  N  N149  1  0.603500  0.945400  0.256300  1.0  -0.3643
  N  N150  1  0.779800  0.027800  0.222800  1.0  -0.4538
  N  N151  1  0.450200  0.763200  0.349300  1.0  -0.3724
  N  N152  1  0.896500  0.554600  0.256300  1.0  -0.3635
  N  N153  1  0.720200  0.472200  0.222800  1.0  -0.4537
  N  N154  1  0.049800  0.736800  0.349300  1.0  -0.3712
  N  N155  1  0.396500  0.445400  0.243700  1.0  -0.3621
  N  N156  1  0.220200  0.527800  0.277200  1.0  -0.4542
  N  N157  1  0.549800  0.263200  0.150700  1.0  -0.3726
  N  N158  1  0.103500  0.054600  0.243700  1.0  -0.3602
  N  N159  1  0.279800  0.972200  0.277200  1.0  -0.4522
  N  N160  1  0.950200  0.236800  0.150700  1.0  -0.3711
  N  N161  1  0.396500  0.054600  0.743700  1.0  -0.361
  N  N162  1  0.220200  0.972200  0.777200  1.0  -0.4536
  N  N163  1  0.549800  0.236800  0.650700  1.0  -0.3711
  N  N164  1  0.103500  0.445400  0.743700  1.0  -0.3615
  N  N165  1  0.279800  0.527800  0.777200  1.0  -0.4536
  N  N166  1  0.950200  0.263200  0.650700  1.0  -0.3728
  N  N167  1  0.603500  0.554600  0.756300  1.0  -0.3643
  N  N168  1  0.779800  0.472200  0.722800  1.0  -0.4522
  N  N169  1  0.450200  0.736800  0.849300  1.0  -0.3712
  N  N170  1  0.896500  0.945400  0.756300  1.0  -0.3634
  N  N171  1  0.720200  0.027800  0.722800  1.0  -0.4544
  N  N172  1  0.049800  0.763200  0.849300  1.0  -0.3721
  O  O173  1  0.450100  0.809600  0.202600  1.0  -0.5818
  O  O174  1  0.804100  0.897000  0.072600  1.0  -0.6128
  O  O175  1  0.923900  0.018100  0.121300  1.0  -0.5983
  O  O176  1  0.584100  0.778600  0.121800  1.0  -0.6318
  O  O177  1  0.049900  0.690400  0.202600  1.0  -0.5832
  O  O178  1  0.695900  0.603000  0.072600  1.0  -0.6122
  O  O179  1  0.576100  0.481900  0.121300  1.0  -0.5972
  O  O180  1  0.915900  0.721400  0.121800  1.0  -0.6323
  O  O181  1  0.549900  0.309600  0.297400  1.0  -0.5817
  O  O182  1  0.195900  0.397000  0.427400  1.0  -0.6128
  O  O183  1  0.076100  0.518100  0.378700  1.0  -0.5969
  O  O184  1  0.415900  0.278600  0.378200  1.0  -0.6333
  O  O185  1  0.950100  0.190400  0.297400  1.0  -0.5824
  O  O186  1  0.304100  0.103000  0.427400  1.0  -0.6124
  O  O187  1  0.423900  0.981900  0.378700  1.0  -0.5994
  O  O188  1  0.084100  0.221400  0.378200  1.0  -0.6336
  O  O189  1  0.549900  0.190400  0.797400  1.0  -0.5832
  O  O190  1  0.195900  0.103000  0.927400  1.0  -0.6129
  O  O191  1  0.076100  0.981900  0.878700  1.0  -0.5978
  O  O192  1  0.415900  0.221400  0.878200  1.0  -0.6337
  O  O193  1  0.950100  0.309600  0.797400  1.0  -0.5812
  O  O194  1  0.304100  0.397000  0.927400  1.0  -0.6124
  O  O195  1  0.423900  0.518100  0.878700  1.0  -0.5984
  O  O196  1  0.084100  0.278600  0.878200  1.0  -0.6328
  O  O197  1  0.450100  0.690400  0.702600  1.0  -0.5823
  O  O198  1  0.804100  0.603000  0.572600  1.0  -0.6121
  O  O199  1  0.923900  0.481900  0.621300  1.0  -0.5998
  O  O200  1  0.584100  0.721400  0.621800  1.0  -0.6319
  O  O201  1  0.049900  0.809600  0.702600  1.0  -0.5819
  O  O202  1  0.695900  0.897000  0.572600  1.0  -0.6133
  O  O203  1  0.576100  0.018100  0.621300  1.0  -0.5956
  O  O204  1  0.915900  0.778600  0.621800  1.0  -0.6323
