# generated using pymatgen
data_Cu2H(C2N3)3
_symmetry_space_group_name_H-M   'P 1'
_cell_length_a   24.25800000
_cell_length_b   9.48770000
_cell_length_c   16.47300000
_cell_angle_alpha   90.00000000
_cell_angle_beta   118.79000000
_cell_angle_gamma   90.00000000
_symmetry_Int_Tables_number   1
_chemical_formula_structural   Cu2H(C2N3)3
_chemical_formula_sum   'Cu16 H8 C48 N72'
_cell_volume   3322.66394167
_cell_formula_units_Z   8
loop_
 _symmetry_equiv_pos_site_id
 _symmetry_equiv_pos_as_xyz
  1  'x, y, z'
loop_
 _atom_site_type_symbol
 _atom_site_label
 _atom_site_symmetry_multiplicity
 _atom_site_fract_x
 _atom_site_fract_y
 _atom_site_fract_z
 _atom_site_occupancy
 _atom_site_charge
  Cu  Cu1  1  0.042720  0.176620  0.038820  1.0  0.5367
  Cu  Cu2  1  0.042550  0.384830  0.377850  1.0  0.5628
  Cu  Cu3  1  0.542720  0.676620  0.038820  1.0  0.5367
  Cu  Cu4  1  0.542550  0.884830  0.377850  1.0  0.5628
  Cu  Cu5  1  0.957280  0.176620  0.461180  1.0  0.5378
  Cu  Cu6  1  0.957450  0.384830  0.122150  1.0  0.5629
  Cu  Cu7  1  0.457280  0.676620  0.461180  1.0  0.5378
  Cu  Cu8  1  0.457450  0.884830  0.122150  1.0  0.5629
  Cu  Cu9  1  0.957280  0.823380  0.961180  1.0  0.5382
  Cu  Cu10  1  0.957450  0.615170  0.622150  1.0  0.5622
  Cu  Cu11  1  0.457280  0.323380  0.961180  1.0  0.5382
  Cu  Cu12  1  0.457450  0.115170  0.622150  1.0  0.5622
  Cu  Cu13  1  0.042720  0.823380  0.538820  1.0  0.5368
  Cu  Cu14  1  0.042550  0.615170  0.877850  1.0  0.5619
  Cu  Cu15  1  0.542720  0.323380  0.538820  1.0  0.5368
  Cu  Cu16  1  0.542550  0.115170  0.877850  1.0  0.5619
  H  H17  1  0.251400  0.339000  0.370900  1.0  0.1264
  H  H18  1  0.751400  0.839000  0.370900  1.0  0.1264
  H  H19  1  0.748600  0.339000  0.129100  1.0  0.1276
  H  H20  1  0.248600  0.839000  0.129100  1.0  0.1276
  H  H21  1  0.748600  0.661000  0.629100  1.0  0.1275
  H  H22  1  0.248600  0.161000  0.629100  1.0  0.1275
  H  H23  1  0.251400  0.661000  0.870900  1.0  0.1265
  H  H24  1  0.751400  0.161000  0.870900  1.0  0.1265
  C  C25  1  0.250900  0.302800  0.423000  1.0  -0.0648
  C  C26  1  0.193700  0.256600  0.414700  1.0  -0.0825
  C  C27  1  0.192800  0.203100  0.493800  1.0  -0.0534
  C  C28  1  0.136700  0.145000  0.493400  1.0  0.3435
  C  C29  1  0.137900  0.260800  0.321600  1.0  0.3316
  C  C30  1  0.043600  0.331900  0.963700  1.0  -0.015
  C  C31  1  0.750900  0.802800  0.423000  1.0  -0.0648
  C  C32  1  0.693700  0.756600  0.414700  1.0  -0.0825
  C  C33  1  0.692800  0.703100  0.493800  1.0  -0.0534
  C  C34  1  0.636700  0.645000  0.493400  1.0  0.3435
  C  C35  1  0.637900  0.760800  0.321600  1.0  0.3316
  C  C36  1  0.543600  0.831900  0.963700  1.0  -0.015
  C  C37  1  0.749100  0.302800  0.077000  1.0  -0.0666
  C  C38  1  0.806300  0.256600  0.085300  1.0  -0.0806
  C  C39  1  0.807200  0.203100  0.006200  1.0  -0.0532
  C  C40  1  0.863300  0.145000  0.006600  1.0  0.3445
  C  C41  1  0.862100  0.260800  0.178400  1.0  0.331
  C  C42  1  0.956400  0.331900  0.536300  1.0  -0.0148
  C  C43  1  0.249100  0.802800  0.077000  1.0  -0.0666
  C  C44  1  0.306300  0.756600  0.085300  1.0  -0.0806
  C  C45  1  0.307200  0.703100  0.006200  1.0  -0.0532
  C  C46  1  0.363300  0.645000  0.006600  1.0  0.3445
  C  C47  1  0.362100  0.760800  0.178400  1.0  0.331
  C  C48  1  0.456400  0.831900  0.536300  1.0  -0.0148
  C  C49  1  0.749100  0.697200  0.577000  1.0  -0.0663
  C  C50  1  0.806300  0.743400  0.585300  1.0  -0.0805
  C  C51  1  0.807200  0.796900  0.506200  1.0  -0.0533
  C  C52  1  0.863300  0.855000  0.506600  1.0  0.3444
  C  C53  1  0.862100  0.739200  0.678400  1.0  0.331
  C  C54  1  0.956400  0.668100  0.036300  1.0  -0.0171
  C  C55  1  0.249100  0.197200  0.577000  1.0  -0.0663
  C  C56  1  0.306300  0.243400  0.585300  1.0  -0.0805
  C  C57  1  0.307200  0.296900  0.506200  1.0  -0.0533
  C  C58  1  0.363300  0.355000  0.506600  1.0  0.3444
  C  C59  1  0.362100  0.239200  0.678400  1.0  0.331
  C  C60  1  0.456400  0.168100  0.036300  1.0  -0.0171
  C  C61  1  0.250900  0.697200  0.923000  1.0  -0.0648
  C  C62  1  0.193700  0.743400  0.914700  1.0  -0.0825
  C  C63  1  0.192800  0.796900  0.993800  1.0  -0.0527
  C  C64  1  0.136700  0.855000  0.993400  1.0  0.3432
  C  C65  1  0.137900  0.739200  0.821600  1.0  0.3317
  C  C66  1  0.043600  0.668100  0.463700  1.0  -0.0165
  C  C67  1  0.750900  0.197200  0.923000  1.0  -0.0648
  C  C68  1  0.693700  0.243400  0.914700  1.0  -0.0825
  C  C69  1  0.692800  0.296900  0.993800  1.0  -0.0527
  C  C70  1  0.636700  0.355000  0.993400  1.0  0.3432
  C  C71  1  0.637900  0.239200  0.821600  1.0  0.3317
  C  C72  1  0.543600  0.168100  0.463700  1.0  -0.0165
  N  N73  1  0.137030  0.018600  0.530000  1.0  -0.3173
  N  N74  1  0.079270  0.006600  0.521600  1.0  0.0115
  N  N75  1  0.046330  0.119800  0.482900  1.0  -0.0335
  N  N76  1  0.081490  0.210000  0.464000  1.0  -0.3076
  N  N77  1  0.082640  0.318300  0.298800  1.0  -0.2704
  N  N78  1  0.048160  0.301500  0.206900  1.0  -0.0729
  N  N79  1  0.082060  0.236600  0.176400  1.0  -0.017
  N  N80  1  0.139920  0.210900  0.247600  1.0  -0.3083
  N  N81  1  0.044000  0.434500  0.928800  1.0  -0.3708
  N  N82  1  0.637030  0.518600  0.530000  1.0  -0.3173
  N  N83  1  0.579270  0.506600  0.521600  1.0  0.0115
  N  N84  1  0.546330  0.619800  0.482900  1.0  -0.0335
  N  N85  1  0.581490  0.710000  0.464000  1.0  -0.3076
  N  N86  1  0.582640  0.818300  0.298800  1.0  -0.2704
  N  N87  1  0.548160  0.801500  0.206900  1.0  -0.0729
  N  N88  1  0.582060  0.736600  0.176400  1.0  -0.017
  N  N89  1  0.639920  0.710900  0.247600  1.0  -0.3083
  N  N90  1  0.544000  0.934500  0.928800  1.0  -0.3708
  N  N91  1  0.862970  0.018600  0.970000  1.0  -0.317
  N  N92  1  0.920730  0.006600  0.978400  1.0  0.0123
  N  N93  1  0.953670  0.119800  0.017100  1.0  -0.034
  N  N94  1  0.918510  0.210000  0.036000  1.0  -0.3078
  N  N95  1  0.917360  0.318300  0.201200  1.0  -0.27
  N  N96  1  0.951840  0.301500  0.293100  1.0  -0.0723
  N  N97  1  0.917940  0.236600  0.323600  1.0  -0.018
  N  N98  1  0.860080  0.210900  0.252400  1.0  -0.3104
  N  N99  1  0.956000  0.434500  0.571200  1.0  -0.3718
  N  N100  1  0.362970  0.518600  0.970000  1.0  -0.317
  N  N101  1  0.420730  0.506600  0.978400  1.0  0.0123
  N  N102  1  0.453670  0.619800  0.017100  1.0  -0.034
  N  N103  1  0.418510  0.710000  0.036000  1.0  -0.3078
  N  N104  1  0.417360  0.818300  0.201200  1.0  -0.27
  N  N105  1  0.451840  0.801500  0.293100  1.0  -0.0723
  N  N106  1  0.417940  0.736600  0.323600  1.0  -0.018
  N  N107  1  0.360080  0.710900  0.252400  1.0  -0.3104
  N  N108  1  0.456000  0.934500  0.571200  1.0  -0.3718
  N  N109  1  0.862970  0.981400  0.470000  1.0  -0.3155
  N  N110  1  0.920730  0.993400  0.478400  1.0  0.0117
  N  N111  1  0.953670  0.880200  0.517100  1.0  -0.0344
  N  N112  1  0.918510  0.790000  0.536000  1.0  -0.3066
  N  N113  1  0.917360  0.681700  0.701200  1.0  -0.2695
  N  N114  1  0.951840  0.698500  0.793100  1.0  -0.0726
  N  N115  1  0.917940  0.763400  0.823600  1.0  -0.0184
  N  N116  1  0.860080  0.789100  0.752400  1.0  -0.3117
  N  N117  1  0.956000  0.565500  0.071200  1.0  -0.3695
  N  N118  1  0.362970  0.481400  0.470000  1.0  -0.3155
  N  N119  1  0.420730  0.493400  0.478400  1.0  0.0117
  N  N120  1  0.453670  0.380200  0.517100  1.0  -0.0344
  N  N121  1  0.418510  0.290000  0.536000  1.0  -0.3066
  N  N122  1  0.417360  0.181700  0.701200  1.0  -0.2695
  N  N123  1  0.451840  0.198500  0.793100  1.0  -0.0726
  N  N124  1  0.417940  0.263400  0.823600  1.0  -0.0184
  N  N125  1  0.360080  0.289100  0.752400  1.0  -0.3117
  N  N126  1  0.456000  0.065500  0.071200  1.0  -0.3695
  N  N127  1  0.137030  0.981400  0.030000  1.0  -0.3144
  N  N128  1  0.079270  0.993400  0.021600  1.0  0.0109
  N  N129  1  0.046330  0.880200  0.982900  1.0  -0.0336
  N  N130  1  0.081490  0.790000  0.964000  1.0  -0.3067
  N  N131  1  0.082640  0.681700  0.798800  1.0  -0.2703
  N  N132  1  0.048160  0.698500  0.706900  1.0  -0.0737
  N  N133  1  0.082060  0.763400  0.676400  1.0  -0.0165
  N  N134  1  0.139920  0.789100  0.747600  1.0  -0.3091
  N  N135  1  0.044000  0.565500  0.428800  1.0  -0.3683
  N  N136  1  0.637030  0.481400  0.030000  1.0  -0.3144
  N  N137  1  0.579270  0.493400  0.021600  1.0  0.0109
  N  N138  1  0.546330  0.380200  0.982900  1.0  -0.0336
  N  N139  1  0.581490  0.290000  0.964000  1.0  -0.3067
  N  N140  1  0.582640  0.181700  0.798800  1.0  -0.2703
  N  N141  1  0.548160  0.198500  0.706900  1.0  -0.0737
  N  N142  1  0.582060  0.263400  0.676400  1.0  -0.0165
  N  N143  1  0.639920  0.289100  0.747600  1.0  -0.3091
  N  N144  1  0.544000  0.065500  0.428800  1.0  -0.3683
