# generated using pymatgen
data_Cu2H(C2N3)3
_symmetry_space_group_name_H-M   'P 1'
_cell_length_a   24.32100000
_cell_length_b   9.40980000
_cell_length_c   16.62800000
_cell_angle_alpha   90.00000000
_cell_angle_beta   119.24000000
_cell_angle_gamma   90.00000000
_symmetry_Int_Tables_number   1
_chemical_formula_structural   Cu2H(C2N3)3
_chemical_formula_sum   'Cu16 H8 C48 N72'
_cell_volume   3320.53242239
_cell_formula_units_Z   8
loop_
 _symmetry_equiv_pos_site_id
 _symmetry_equiv_pos_as_xyz
  1  'x, y, z'
loop_
 _atom_site_type_symbol
 _atom_site_label
 _atom_site_symmetry_multiplicity
 _atom_site_fract_x
 _atom_site_fract_y
 _atom_site_fract_z
 _atom_site_occupancy
 _atom_site_charge
  Cu  Cu1  1  0.042730  0.823570  0.041150  1.0  0.527
  Cu  Cu2  1  0.957230  0.614300  0.122540  1.0  0.5793
  Cu  Cu3  1  0.542730  0.323570  0.041150  1.0  0.527
  Cu  Cu4  1  0.457230  0.114300  0.122540  1.0  0.5793
  Cu  Cu5  1  0.957270  0.823570  0.458850  1.0  0.5279
  Cu  Cu6  1  0.042770  0.614300  0.377460  1.0  0.5792
  Cu  Cu7  1  0.457270  0.323570  0.458850  1.0  0.5279
  Cu  Cu8  1  0.542770  0.114300  0.377460  1.0  0.5792
  Cu  Cu9  1  0.957270  0.176430  0.958850  1.0  0.5274
  Cu  Cu10  1  0.042770  0.385700  0.877460  1.0  0.5803
  Cu  Cu11  1  0.457270  0.676430  0.958850  1.0  0.5274
  Cu  Cu12  1  0.542770  0.885700  0.877460  1.0  0.5803
  Cu  Cu13  1  0.042730  0.176430  0.541150  1.0  0.5266
  Cu  Cu14  1  0.957230  0.385700  0.622540  1.0  0.5803
  Cu  Cu15  1  0.542730  0.676430  0.541150  1.0  0.5266
  Cu  Cu16  1  0.457230  0.885700  0.622540  1.0  0.5803
  H  H17  1  0.749100  0.659300  0.128100  1.0  0.1288
  H  H18  1  0.249100  0.159300  0.128100  1.0  0.1288
  H  H19  1  0.250900  0.659300  0.371900  1.0  0.1279
  H  H20  1  0.750900  0.159300  0.371900  1.0  0.1279
  H  H21  1  0.250900  0.340700  0.871900  1.0  0.1278
  H  H22  1  0.750900  0.840700  0.871900  1.0  0.1278
  H  H23  1  0.749100  0.340700  0.628100  1.0  0.1287
  H  H24  1  0.249100  0.840700  0.628100  1.0  0.1287
  C  C25  1  0.749300  0.696400  0.076400  1.0  -0.0721
  C  C26  1  0.806400  0.743800  0.084500  1.0  -0.074
  C  C27  1  0.806800  0.797000  0.006100  1.0  -0.0613
  C  C28  1  0.862800  0.855700  0.006000  1.0  0.3457
  C  C29  1  0.862300  0.740100  0.177600  1.0  0.3255
  C  C30  1  0.045200  0.668300  0.967400  1.0  -0.0159
  C  C31  1  0.249300  0.196400  0.076400  1.0  -0.0721
  C  C32  1  0.306400  0.243800  0.084500  1.0  -0.074
  C  C33  1  0.306800  0.297000  0.006100  1.0  -0.0613
  C  C34  1  0.362800  0.355700  0.006000  1.0  0.3457
  C  C35  1  0.362300  0.240100  0.177600  1.0  0.3255
  C  C36  1  0.545200  0.168300  0.967400  1.0  -0.0159
  C  C37  1  0.250700  0.696400  0.423600  1.0  -0.0707
  C  C38  1  0.193600  0.743800  0.415500  1.0  -0.0757
  C  C39  1  0.193200  0.797000  0.493900  1.0  -0.0606
  C  C40  1  0.137200  0.855700  0.494000  1.0  0.3455
  C  C41  1  0.137700  0.740100  0.322400  1.0  0.3252
  C  C42  1  0.954800  0.668300  0.532600  1.0  -0.0162
  C  C43  1  0.750700  0.196400  0.423600  1.0  -0.0707
  C  C44  1  0.693600  0.243800  0.415500  1.0  -0.0757
  C  C45  1  0.693200  0.297000  0.493900  1.0  -0.0606
  C  C46  1  0.637200  0.355700  0.494000  1.0  0.3455
  C  C47  1  0.637700  0.240100  0.322400  1.0  0.3252
  C  C48  1  0.454800  0.168300  0.532600  1.0  -0.0162
  C  C49  1  0.250700  0.303600  0.923600  1.0  -0.0707
  C  C50  1  0.193600  0.256200  0.915500  1.0  -0.0756
  C  C51  1  0.193200  0.203000  0.993900  1.0  -0.0611
  C  C52  1  0.137200  0.144300  0.994000  1.0  0.3457
  C  C53  1  0.137700  0.259900  0.822400  1.0  0.3251
  C  C54  1  0.954800  0.331700  0.032600  1.0  -0.013
  C  C55  1  0.750700  0.803600  0.923600  1.0  -0.0707
  C  C56  1  0.693600  0.756200  0.915500  1.0  -0.0756
  C  C57  1  0.693200  0.703000  0.993900  1.0  -0.0611
  C  C58  1  0.637200  0.644300  0.994000  1.0  0.3457
  C  C59  1  0.637700  0.759900  0.822400  1.0  0.3251
  C  C60  1  0.454800  0.831700  0.032600  1.0  -0.013
  C  C61  1  0.749300  0.303600  0.576400  1.0  -0.0725
  C  C62  1  0.806400  0.256200  0.584500  1.0  -0.0739
  C  C63  1  0.806800  0.203000  0.506100  1.0  -0.0611
  C  C64  1  0.862800  0.144300  0.506000  1.0  0.3457
  C  C65  1  0.862300  0.259900  0.677600  1.0  0.3255
  C  C66  1  0.045200  0.331700  0.467400  1.0  -0.0132
  C  C67  1  0.249300  0.803600  0.576400  1.0  -0.0725
  C  C68  1  0.306400  0.756200  0.584500  1.0  -0.0739
  C  C69  1  0.306800  0.703000  0.506100  1.0  -0.0611
  C  C70  1  0.362800  0.644300  0.506000  1.0  0.3457
  C  C71  1  0.362300  0.759900  0.677600  1.0  0.3255
  C  C72  1  0.545200  0.831700  0.467400  1.0  -0.0132
  N  N73  1  0.918240  0.790700  0.037300  1.0  -0.3125
  N  N74  1  0.953580  0.880300  0.017200  1.0  -0.0614
  N  N75  1  0.920150  0.992700  0.976400  1.0  0.0133
  N  N76  1  0.862400  0.981500  0.967500  1.0  -0.3248
  N  N77  1  0.860500  0.790700  0.251100  1.0  -0.3102
  N  N78  1  0.918000  0.763800  0.322200  1.0  -0.0216
  N  N79  1  0.952110  0.697400  0.292600  1.0  -0.0321
  N  N80  1  0.917690  0.681200  0.200900  1.0  -0.2741
  N  N81  1  0.044900  0.566100  0.930600  1.0  -0.3635
  N  N82  1  0.418240  0.290700  0.037300  1.0  -0.3125
  N  N83  1  0.453580  0.380300  0.017200  1.0  -0.0614
  N  N84  1  0.420150  0.492700  0.976400  1.0  0.0133
  N  N85  1  0.362400  0.481500  0.967500  1.0  -0.3248
  N  N86  1  0.360500  0.290700  0.251100  1.0  -0.3102
  N  N87  1  0.418000  0.263800  0.322200  1.0  -0.0216
  N  N88  1  0.452110  0.197400  0.292600  1.0  -0.0321
  N  N89  1  0.417690  0.181200  0.200900  1.0  -0.2741
  N  N90  1  0.544900  0.066100  0.930600  1.0  -0.3635
  N  N91  1  0.081760  0.790700  0.462700  1.0  -0.3118
  N  N92  1  0.046420  0.880300  0.482800  1.0  -0.0605
  N  N93  1  0.079850  0.992700  0.523600  1.0  0.0125
  N  N94  1  0.137600  0.981500  0.532500  1.0  -0.3236
  N  N95  1  0.139500  0.790700  0.248900  1.0  -0.3079
  N  N96  1  0.082000  0.763800  0.177800  1.0  -0.0194
  N  N97  1  0.047890  0.697400  0.207400  1.0  -0.0326
  N  N98  1  0.082310  0.681200  0.299100  1.0  -0.2746
  N  N99  1  0.955100  0.566100  0.569400  1.0  -0.3642
  N  N100  1  0.581760  0.290700  0.462700  1.0  -0.3118
  N  N101  1  0.546420  0.380300  0.482800  1.0  -0.0605
  N  N102  1  0.579850  0.492700  0.523600  1.0  0.0125
  N  N103  1  0.637600  0.481500  0.532500  1.0  -0.3236
  N  N104  1  0.639500  0.290700  0.248900  1.0  -0.3079
  N  N105  1  0.582000  0.263800  0.177800  1.0  -0.0194
  N  N106  1  0.547890  0.197400  0.207400  1.0  -0.0326
  N  N107  1  0.582310  0.181200  0.299100  1.0  -0.2746
  N  N108  1  0.455100  0.066100  0.569400  1.0  -0.3642
  N  N109  1  0.081760  0.209300  0.962700  1.0  -0.3123
  N  N110  1  0.046420  0.119700  0.982800  1.0  -0.0607
  N  N111  1  0.079850  0.007300  0.023600  1.0  0.0154
  N  N112  1  0.137600  0.018500  0.032500  1.0  -0.3242
  N  N113  1  0.139500  0.209300  0.748900  1.0  -0.3073
  N  N114  1  0.082000  0.236200  0.677800  1.0  -0.0199
  N  N115  1  0.047890  0.302600  0.707400  1.0  -0.0319
  N  N116  1  0.082310  0.318800  0.799100  1.0  -0.2744
  N  N117  1  0.955100  0.433900  0.069400  1.0  -0.3672
  N  N118  1  0.581760  0.709300  0.962700  1.0  -0.3123
  N  N119  1  0.546420  0.619700  0.982800  1.0  -0.0607
  N  N120  1  0.579850  0.507300  0.023600  1.0  0.0154
  N  N121  1  0.637600  0.518500  0.032500  1.0  -0.3242
  N  N122  1  0.639500  0.709300  0.748900  1.0  -0.3073
  N  N123  1  0.582000  0.736200  0.677800  1.0  -0.0199
  N  N124  1  0.547890  0.802600  0.707400  1.0  -0.0319
  N  N125  1  0.582310  0.818800  0.799100  1.0  -0.2744
  N  N126  1  0.455100  0.933900  0.069400  1.0  -0.3672
  N  N127  1  0.918240  0.209300  0.537300  1.0  -0.3129
  N  N128  1  0.953580  0.119700  0.517200  1.0  -0.0612
  N  N129  1  0.920150  0.007300  0.476400  1.0  0.0158
  N  N130  1  0.862400  0.018500  0.467500  1.0  -0.3238
  N  N131  1  0.860500  0.209300  0.751100  1.0  -0.309
  N  N132  1  0.918000  0.236200  0.822200  1.0  -0.0211
  N  N133  1  0.952110  0.302600  0.792600  1.0  -0.0323
  N  N134  1  0.917690  0.318800  0.700900  1.0  -0.2747
  N  N135  1  0.044900  0.433900  0.430600  1.0  -0.3666
  N  N136  1  0.418240  0.709300  0.537300  1.0  -0.3129
  N  N137  1  0.453580  0.619700  0.517200  1.0  -0.0612
  N  N138  1  0.420150  0.507300  0.476400  1.0  0.0158
  N  N139  1  0.362400  0.518500  0.467500  1.0  -0.3238
  N  N140  1  0.360500  0.709300  0.751100  1.0  -0.309
  N  N141  1  0.418000  0.736200  0.822200  1.0  -0.0211
  N  N142  1  0.452110  0.802600  0.792600  1.0  -0.0323
  N  N143  1  0.417690  0.818800  0.700900  1.0  -0.2747
  N  N144  1  0.544900  0.933900  0.430600  1.0  -0.3666
