# generated using pymatgen
data_Cu2H(C2N3)3
_symmetry_space_group_name_H-M   'P 1'
_cell_length_a   24.33800000
_cell_length_b   9.48770000
_cell_length_c   16.50200000
_cell_angle_alpha   90.00000000
_cell_angle_beta   119.89000000
_cell_angle_gamma   90.00000000
_symmetry_Int_Tables_number   1
_chemical_formula_structural   Cu2H(C2N3)3
_chemical_formula_sum   'Cu16 H8 C48 N72'
_cell_volume   3303.64493856
_cell_formula_units_Z   8
loop_
 _symmetry_equiv_pos_site_id
 _symmetry_equiv_pos_as_xyz
  1  'x, y, z'
loop_
 _atom_site_type_symbol
 _atom_site_label
 _atom_site_symmetry_multiplicity
 _atom_site_fract_x
 _atom_site_fract_y
 _atom_site_fract_z
 _atom_site_occupancy
 _atom_site_charge
  Cu  Cu1  1  0.042720  0.823610  0.039630  1.0  0.5303
  Cu  Cu2  1  0.957200  0.614930  0.122250  1.0  0.5569
  Cu  Cu3  1  0.542720  0.323610  0.039630  1.0  0.5303
  Cu  Cu4  1  0.457200  0.114930  0.122250  1.0  0.5569
  Cu  Cu5  1  0.957280  0.823610  0.460370  1.0  0.532
  Cu  Cu6  1  0.042800  0.614930  0.377750  1.0  0.5571
  Cu  Cu7  1  0.457280  0.323610  0.460370  1.0  0.532
  Cu  Cu8  1  0.542800  0.114930  0.377750  1.0  0.5571
  Cu  Cu9  1  0.957280  0.176390  0.960370  1.0  0.5317
  Cu  Cu10  1  0.042800  0.385070  0.877750  1.0  0.5591
  Cu  Cu11  1  0.457280  0.676390  0.960370  1.0  0.5317
  Cu  Cu12  1  0.542800  0.885070  0.877750  1.0  0.5591
  Cu  Cu13  1  0.042720  0.176390  0.539630  1.0  0.5302
  Cu  Cu14  1  0.957200  0.385070  0.622250  1.0  0.5589
  Cu  Cu15  1  0.542720  0.676390  0.539630  1.0  0.5302
  Cu  Cu16  1  0.457200  0.885070  0.622250  1.0  0.5589
  H  H17  1  0.749200  0.662500  0.129600  1.0  0.1263
  H  H18  1  0.249200  0.162500  0.129600  1.0  0.1263
  H  H19  1  0.250800  0.662500  0.370400  1.0  0.1257
  H  H20  1  0.750800  0.162500  0.370400  1.0  0.1257
  H  H21  1  0.250800  0.337500  0.870400  1.0  0.1258
  H  H22  1  0.750800  0.837500  0.870400  1.0  0.1258
  H  H23  1  0.749200  0.337500  0.629600  1.0  0.1264
  H  H24  1  0.249200  0.837500  0.629600  1.0  0.1264
  C  C25  1  0.043750  0.668600  0.964140  1.0  -0.0074
  C  C26  1  0.749180  0.697900  0.077080  1.0  -0.0748
  C  C27  1  0.806030  0.743800  0.084910  1.0  -0.0737
  C  C28  1  0.807150  0.796300  0.006810  1.0  -0.0898
  C  C29  1  0.863300  0.855500  0.007060  1.0  0.3404
  C  C30  1  0.861850  0.740100  0.178760  1.0  0.3395
  C  C31  1  0.543750  0.168600  0.964140  1.0  -0.0074
  C  C32  1  0.249180  0.197900  0.077080  1.0  -0.0748
  C  C33  1  0.306030  0.243800  0.084910  1.0  -0.0737
  C  C34  1  0.307150  0.296300  0.006810  1.0  -0.0898
  C  C35  1  0.363300  0.355500  0.007060  1.0  0.3404
  C  C36  1  0.361850  0.240100  0.178760  1.0  0.3395
  C  C37  1  0.956250  0.668600  0.535860  1.0  -0.008
  C  C38  1  0.250820  0.697900  0.422920  1.0  -0.0733
  C  C39  1  0.193970  0.743800  0.415090  1.0  -0.0752
  C  C40  1  0.192850  0.796300  0.493190  1.0  -0.09
  C  C41  1  0.136700  0.855500  0.492940  1.0  0.3412
  C  C42  1  0.138150  0.740100  0.321240  1.0  0.3404
  C  C43  1  0.456250  0.168600  0.535860  1.0  -0.008
  C  C44  1  0.750820  0.197900  0.422920  1.0  -0.0733
  C  C45  1  0.693970  0.243800  0.415090  1.0  -0.0752
  C  C46  1  0.692850  0.296300  0.493190  1.0  -0.09
  C  C47  1  0.636700  0.355500  0.492940  1.0  0.3412
  C  C48  1  0.638150  0.240100  0.321240  1.0  0.3404
  C  C49  1  0.956250  0.331400  0.035860  1.0  -0.0058
  C  C50  1  0.250820  0.302100  0.922920  1.0  -0.0735
  C  C51  1  0.193970  0.256200  0.915090  1.0  -0.0751
  C  C52  1  0.192850  0.203700  0.993190  1.0  -0.0904
  C  C53  1  0.136700  0.144500  0.992940  1.0  0.3413
  C  C54  1  0.138150  0.259900  0.821240  1.0  0.3404
  C  C55  1  0.456250  0.831400  0.035860  1.0  -0.0058
  C  C56  1  0.750820  0.802100  0.922920  1.0  -0.0735
  C  C57  1  0.693970  0.756200  0.915090  1.0  -0.0751
  C  C58  1  0.692850  0.703700  0.993190  1.0  -0.0904
  C  C59  1  0.636700  0.644500  0.992940  1.0  0.3413
  C  C60  1  0.638150  0.759900  0.821240  1.0  0.3404
  C  C61  1  0.043750  0.331400  0.464140  1.0  -0.0062
  C  C62  1  0.749180  0.302100  0.577080  1.0  -0.0754
  C  C63  1  0.806030  0.256200  0.584910  1.0  -0.0738
  C  C64  1  0.807150  0.203700  0.506810  1.0  -0.0897
  C  C65  1  0.863300  0.144500  0.507060  1.0  0.3403
  C  C66  1  0.861850  0.259900  0.678760  1.0  0.3396
  C  C67  1  0.543750  0.831400  0.464140  1.0  -0.0062
  C  C68  1  0.249180  0.802100  0.577080  1.0  -0.0754
  C  C69  1  0.306030  0.756200  0.584910  1.0  -0.0738
  C  C70  1  0.307150  0.703700  0.506810  1.0  -0.0897
  C  C71  1  0.363300  0.644500  0.507060  1.0  0.3403
  C  C72  1  0.361850  0.759900  0.678760  1.0  0.3396
  N  N73  1  0.863060  0.982300  0.970630  1.0  -0.3213
  N  N74  1  0.920870  0.993500  0.978450  1.0  -0.0119
  N  N75  1  0.953590  0.878900  0.016900  1.0  -0.0543
  N  N76  1  0.918010  0.789700  0.036130  1.0  -0.2934
  N  N77  1  0.917640  0.682200  0.200980  1.0  -0.2983
  N  N78  1  0.951870  0.698900  0.292790  1.0  -0.0054
  N  N79  1  0.917790  0.764500  0.323420  1.0  0.017
  N  N80  1  0.860000  0.791300  0.252170  1.0  -0.3187
  N  N81  1  0.044570  0.566600  0.929330  1.0  -0.3652
  N  N82  1  0.363060  0.482300  0.970630  1.0  -0.3213
  N  N83  1  0.420870  0.493500  0.978450  1.0  -0.0119
  N  N84  1  0.453590  0.378900  0.016900  1.0  -0.0543
  N  N85  1  0.418010  0.289700  0.036130  1.0  -0.2934
  N  N86  1  0.417640  0.182200  0.200980  1.0  -0.2983
  N  N87  1  0.451870  0.198900  0.292790  1.0  -0.0054
  N  N88  1  0.417790  0.264500  0.323420  1.0  0.017
  N  N89  1  0.360000  0.291300  0.252170  1.0  -0.3187
  N  N90  1  0.544570  0.066600  0.929330  1.0  -0.3652
  N  N91  1  0.136940  0.982300  0.529370  1.0  -0.3194
  N  N92  1  0.079130  0.993500  0.521550  1.0  -0.0119
  N  N93  1  0.046410  0.878900  0.483100  1.0  -0.0547
  N  N94  1  0.081990  0.789700  0.463870  1.0  -0.2934
  N  N95  1  0.082360  0.682200  0.299020  1.0  -0.2987
  N  N96  1  0.048130  0.698900  0.207210  1.0  -0.0063
  N  N97  1  0.082210  0.764500  0.176580  1.0  0.0191
  N  N98  1  0.140000  0.791300  0.247830  1.0  -0.3156
  N  N99  1  0.955430  0.566600  0.570670  1.0  -0.3666
  N  N100  1  0.636940  0.482300  0.529370  1.0  -0.3194
  N  N101  1  0.579130  0.493500  0.521550  1.0  -0.0119
  N  N102  1  0.546410  0.378900  0.483100  1.0  -0.0547
  N  N103  1  0.581990  0.289700  0.463870  1.0  -0.2934
  N  N104  1  0.582360  0.182200  0.299020  1.0  -0.2987
  N  N105  1  0.548130  0.198900  0.207210  1.0  -0.0063
  N  N106  1  0.582210  0.264500  0.176580  1.0  0.0191
  N  N107  1  0.640000  0.291300  0.247830  1.0  -0.3156
  N  N108  1  0.455430  0.066600  0.570670  1.0  -0.3666
  N  N109  1  0.136940  0.017700  0.029370  1.0  -0.321
  N  N110  1  0.079130  0.006500  0.021550  1.0  -0.0101
  N  N111  1  0.046410  0.121100  0.983100  1.0  -0.0547
  N  N112  1  0.081990  0.210300  0.963870  1.0  -0.2948
  N  N113  1  0.082360  0.317800  0.799020  1.0  -0.2981
  N  N114  1  0.048130  0.301100  0.707210  1.0  -0.0052
  N  N115  1  0.082210  0.235500  0.676580  1.0  0.0187
  N  N116  1  0.140000  0.208700  0.747830  1.0  -0.315
  N  N117  1  0.955430  0.433400  0.070670  1.0  -0.3691
  N  N118  1  0.636940  0.517700  0.029370  1.0  -0.321
  N  N119  1  0.579130  0.506500  0.021550  1.0  -0.0101
  N  N120  1  0.546410  0.621100  0.983100  1.0  -0.0547
  N  N121  1  0.581990  0.710300  0.963870  1.0  -0.2948
  N  N122  1  0.582360  0.817800  0.799020  1.0  -0.2981
  N  N123  1  0.548130  0.801100  0.707210  1.0  -0.0052
  N  N124  1  0.582210  0.735500  0.676580  1.0  0.0187
  N  N125  1  0.640000  0.708700  0.747830  1.0  -0.315
  N  N126  1  0.455430  0.933400  0.070670  1.0  -0.3691
  N  N127  1  0.863060  0.017700  0.470630  1.0  -0.3216
  N  N128  1  0.920870  0.006500  0.478450  1.0  -0.0098
  N  N129  1  0.953590  0.121100  0.516900  1.0  -0.054
  N  N130  1  0.918010  0.210300  0.536130  1.0  -0.2948
  N  N131  1  0.917640  0.317800  0.700980  1.0  -0.2992
  N  N132  1  0.951870  0.301100  0.792790  1.0  -0.0052
  N  N133  1  0.917790  0.235500  0.823420  1.0  0.0175
  N  N134  1  0.860000  0.208700  0.752170  1.0  -0.3176
  N  N135  1  0.044570  0.433400  0.429330  1.0  -0.3684
  N  N136  1  0.363060  0.517700  0.470630  1.0  -0.3216
  N  N137  1  0.420870  0.506500  0.478450  1.0  -0.0098
  N  N138  1  0.453590  0.621100  0.516900  1.0  -0.054
  N  N139  1  0.418010  0.710300  0.536130  1.0  -0.2948
  N  N140  1  0.417640  0.817800  0.700980  1.0  -0.2992
  N  N141  1  0.451870  0.801100  0.792790  1.0  -0.0052
  N  N142  1  0.417790  0.735500  0.823420  1.0  0.0175
  N  N143  1  0.360000  0.708700  0.752170  1.0  -0.3176
  N  N144  1  0.544570  0.933400  0.429330  1.0  -0.3684
