# generated using pymatgen
data_Cu2H(C2N3)3
_symmetry_space_group_name_H-M   'P 1'
_cell_length_a   24.22500000
_cell_length_b   9.62540000
_cell_length_c   16.37000000
_cell_angle_alpha   90.00000000
_cell_angle_beta   118.54000000
_cell_angle_gamma   90.00000000
_symmetry_Int_Tables_number   1
_chemical_formula_structural   Cu2H(C2N3)3
_chemical_formula_sum   'Cu16 H8 C48 N72'
_cell_volume   3353.24278055
_cell_formula_units_Z   8
loop_
 _symmetry_equiv_pos_site_id
 _symmetry_equiv_pos_as_xyz
  1  'x, y, z'
loop_
 _atom_site_type_symbol
 _atom_site_label
 _atom_site_symmetry_multiplicity
 _atom_site_fract_x
 _atom_site_fract_y
 _atom_site_fract_z
 _atom_site_occupancy
 _atom_site_charge
  Cu  Cu1  1  0.041770  0.380010  0.377930  1.0  0.5081
  Cu  Cu2  1  0.041780  0.180030  0.033910  1.0  0.4614
  Cu  Cu3  1  0.541770  0.880010  0.377930  1.0  0.5081
  Cu  Cu4  1  0.541780  0.680030  0.033910  1.0  0.4614
  Cu  Cu5  1  0.958230  0.380010  0.122070  1.0  0.5077
  Cu  Cu6  1  0.958220  0.180030  0.466090  1.0  0.4623
  Cu  Cu7  1  0.458230  0.880010  0.122070  1.0  0.5077
  Cu  Cu8  1  0.458220  0.680030  0.466090  1.0  0.4623
  Cu  Cu9  1  0.958230  0.619990  0.622070  1.0  0.5062
  Cu  Cu10  1  0.958220  0.819970  0.966090  1.0  0.4635
  Cu  Cu11  1  0.458230  0.119990  0.622070  1.0  0.5062
  Cu  Cu12  1  0.458220  0.319970  0.966090  1.0  0.4635
  Cu  Cu13  1  0.041770  0.619990  0.877930  1.0  0.5064
  Cu  Cu14  1  0.041780  0.819970  0.533910  1.0  0.4619
  Cu  Cu15  1  0.541770  0.119990  0.877930  1.0  0.5064
  Cu  Cu16  1  0.541780  0.319970  0.533910  1.0  0.4619
  H  H17  1  0.252100  0.336600  0.370100  1.0  0.129
  H  H18  1  0.752100  0.836600  0.370100  1.0  0.129
  H  H19  1  0.747900  0.336600  0.129900  1.0  0.1293
  H  H20  1  0.247900  0.836600  0.129900  1.0  0.1293
  H  H21  1  0.747900  0.663400  0.629900  1.0  0.1295
  H  H22  1  0.247900  0.163400  0.629900  1.0  0.1295
  H  H23  1  0.252100  0.663400  0.870100  1.0  0.1293
  H  H24  1  0.752100  0.163400  0.870100  1.0  0.1293
  C  C25  1  0.251300  0.301800  0.422600  1.0  -0.0712
  C  C26  1  0.194600  0.254400  0.414300  1.0  -0.0626
  C  C27  1  0.192800  0.201000  0.492800  1.0  -0.0503
  C  C28  1  0.136300  0.141700  0.491400  1.0  0.3408
  C  C29  1  0.138900  0.258100  0.320100  1.0  0.3395
  C  C30  1  0.039400  0.336100  0.957900  1.0  -0.0117
  C  C31  1  0.751300  0.801800  0.422600  1.0  -0.0712
  C  C32  1  0.694600  0.754400  0.414300  1.0  -0.0626
  C  C33  1  0.692800  0.701000  0.492800  1.0  -0.0503
  C  C34  1  0.636300  0.641700  0.491400  1.0  0.3408
  C  C35  1  0.638900  0.758100  0.320100  1.0  0.3395
  C  C36  1  0.539400  0.836100  0.957900  1.0  -0.0117
  C  C37  1  0.748700  0.301800  0.077400  1.0  -0.0723
  C  C38  1  0.805400  0.254400  0.085700  1.0  -0.0619
  C  C39  1  0.807200  0.201000  0.007200  1.0  -0.0487
  C  C40  1  0.863700  0.141700  0.008600  1.0  0.3408
  C  C41  1  0.861100  0.258100  0.179900  1.0  0.3378
  C  C42  1  0.960600  0.336100  0.542100  1.0  -0.0113
  C  C43  1  0.248700  0.801800  0.077400  1.0  -0.0723
  C  C44  1  0.305400  0.754400  0.085700  1.0  -0.0619
  C  C45  1  0.307200  0.701000  0.007200  1.0  -0.0487
  C  C46  1  0.363700  0.641700  0.008600  1.0  0.3408
  C  C47  1  0.361100  0.758100  0.179900  1.0  0.3378
  C  C48  1  0.460600  0.836100  0.542100  1.0  -0.0113
  C  C49  1  0.748700  0.698200  0.577400  1.0  -0.0716
  C  C50  1  0.805400  0.745600  0.585700  1.0  -0.0619
  C  C51  1  0.807200  0.799000  0.507200  1.0  -0.049
  C  C52  1  0.863700  0.858300  0.508600  1.0  0.3404
  C  C53  1  0.861100  0.741900  0.679900  1.0  0.3387
  C  C54  1  0.960600  0.663900  0.042100  1.0  -0.0135
  C  C55  1  0.248700  0.198200  0.577400  1.0  -0.0716
  C  C56  1  0.305400  0.245600  0.585700  1.0  -0.0619
  C  C57  1  0.307200  0.299000  0.507200  1.0  -0.049
  C  C58  1  0.363700  0.358300  0.508600  1.0  0.3404
  C  C59  1  0.361100  0.241900  0.679900  1.0  0.3387
  C  C60  1  0.460600  0.163900  0.042100  1.0  -0.0135
  C  C61  1  0.251300  0.698200  0.922600  1.0  -0.0711
  C  C62  1  0.194600  0.745600  0.914300  1.0  -0.0626
  C  C63  1  0.192800  0.799000  0.992800  1.0  -0.05
  C  C64  1  0.136300  0.858300  0.991400  1.0  0.34
  C  C65  1  0.138900  0.741900  0.820100  1.0  0.3385
  C  C66  1  0.039400  0.663900  0.457900  1.0  -0.0132
  C  C67  1  0.751300  0.198200  0.922600  1.0  -0.0711
  C  C68  1  0.694600  0.245600  0.914300  1.0  -0.0626
  C  C69  1  0.692800  0.299000  0.992800  1.0  -0.05
  C  C70  1  0.636300  0.358300  0.991400  1.0  0.34
  C  C71  1  0.638900  0.241900  0.820100  1.0  0.3385
  C  C72  1  0.539400  0.163900  0.457900  1.0  -0.0132
  N  N73  1  0.136370  0.015500  0.525500  1.0  -0.3134
  N  N74  1  0.078390  0.002700  0.517400  1.0  0.0279
  N  N75  1  0.045870  0.116100  0.480800  1.0  -0.0196
  N  N76  1  0.081050  0.206200  0.463200  1.0  -0.2909
  N  N77  1  0.140960  0.214200  0.244000  1.0  -0.2953
  N  N78  1  0.083220  0.237500  0.174400  1.0  -0.0167
  N  N79  1  0.048430  0.295600  0.206200  1.0  -0.0116
  N  N80  1  0.082350  0.309900  0.298700  1.0  -0.277
  N  N81  1  0.040600  0.438800  0.925100  1.0  -0.3824
  N  N82  1  0.636370  0.515500  0.525500  1.0  -0.3134
  N  N83  1  0.578390  0.502700  0.517400  1.0  0.0279
  N  N84  1  0.545870  0.616100  0.480800  1.0  -0.0196
  N  N85  1  0.581050  0.706200  0.463200  1.0  -0.2909
  N  N86  1  0.640960  0.714200  0.244000  1.0  -0.2953
  N  N87  1  0.583220  0.737500  0.174400  1.0  -0.0167
  N  N88  1  0.548430  0.795600  0.206200  1.0  -0.0116
  N  N89  1  0.582350  0.809900  0.298700  1.0  -0.277
  N  N90  1  0.540600  0.938800  0.925100  1.0  -0.3824
  N  N91  1  0.863630  0.015500  0.974500  1.0  -0.3124
  N  N92  1  0.921610  0.002700  0.982600  1.0  0.0279
  N  N93  1  0.954130  0.116100  0.019200  1.0  -0.0184
  N  N94  1  0.918950  0.206200  0.036800  1.0  -0.3005
  N  N95  1  0.859040  0.214200  0.256000  1.0  -0.3016
  N  N96  1  0.916780  0.237500  0.325600  1.0  -0.0164
  N  N97  1  0.951570  0.295600  0.293800  1.0  -0.0119
  N  N98  1  0.917650  0.309900  0.201300  1.0  -0.277
  N  N99  1  0.959400  0.438800  0.574900  1.0  -0.3818
  N  N100  1  0.363630  0.515500  0.974500  1.0  -0.3124
  N  N101  1  0.421610  0.502700  0.982600  1.0  0.0279
  N  N102  1  0.454130  0.616100  0.019200  1.0  -0.0184
  N  N103  1  0.418950  0.706200  0.036800  1.0  -0.2994
  N  N104  1  0.359040  0.714200  0.256000  1.0  -0.3016
  N  N105  1  0.416780  0.737500  0.325600  1.0  -0.0164
  N  N106  1  0.451570  0.795600  0.293800  1.0  -0.0119
  N  N107  1  0.417650  0.809900  0.201300  1.0  -0.277
  N  N108  1  0.459400  0.938800  0.574900  1.0  -0.3818
  N  N109  1  0.863630  0.984500  0.474500  1.0  -0.3132
  N  N110  1  0.921610  0.997300  0.482600  1.0  0.026
  N  N111  1  0.954130  0.883900  0.519200  1.0  -0.0188
  N  N112  1  0.918950  0.793800  0.536800  1.0  -0.2928
  N  N113  1  0.859040  0.785800  0.756000  1.0  -0.2992
  N  N114  1  0.916780  0.762500  0.825600  1.0  -0.0162
  N  N115  1  0.951570  0.704400  0.793800  1.0  -0.0117
  N  N116  1  0.917650  0.690100  0.701300  1.0  -0.2771
  N  N117  1  0.959400  0.561200  0.074900  1.0  -0.3799
  N  N118  1  0.363630  0.484500  0.474500  1.0  -0.3132
  N  N119  1  0.421610  0.497300  0.482600  1.0  0.026
  N  N120  1  0.454130  0.383900  0.519200  1.0  -0.0188
  N  N121  1  0.418950  0.293800  0.536800  1.0  -0.2897
  N  N122  1  0.359040  0.285800  0.756000  1.0  -0.2992
  N  N123  1  0.416780  0.262500  0.825600  1.0  -0.0165
  N  N124  1  0.451570  0.204400  0.793800  1.0  -0.0117
  N  N125  1  0.417650  0.190100  0.701300  1.0  -0.2771
  N  N126  1  0.459400  0.061200  0.074900  1.0  -0.3799
  N  N127  1  0.136370  0.984500  0.025500  1.0  -0.3124
  N  N128  1  0.078390  0.997300  0.017400  1.0  0.0263
  N  N129  1  0.045870  0.883900  0.980800  1.0  -0.0196
  N  N130  1  0.081050  0.793800  0.963200  1.0  -0.2907
  N  N131  1  0.140960  0.785800  0.744000  1.0  -0.296
  N  N132  1  0.083220  0.762500  0.674400  1.0  -0.0148
  N  N133  1  0.048430  0.704400  0.706200  1.0  -0.0119
  N  N134  1  0.082350  0.690100  0.798700  1.0  -0.2773
  N  N135  1  0.040600  0.561200  0.425100  1.0  -0.3789
  N  N136  1  0.636370  0.484500  0.025500  1.0  -0.3124
  N  N137  1  0.578390  0.497300  0.017400  1.0  0.0263
  N  N138  1  0.545870  0.383900  0.980800  1.0  -0.0196
  N  N139  1  0.581050  0.293800  0.963200  1.0  -0.2907
  N  N140  1  0.640960  0.285800  0.744000  1.0  -0.296
  N  N141  1  0.583220  0.262500  0.674400  1.0  -0.0158
  N  N142  1  0.548430  0.204400  0.706200  1.0  -0.0119
  N  N143  1  0.582350  0.190100  0.798700  1.0  -0.2773
  N  N144  1  0.540600  0.061200  0.425100  1.0  -0.3789
