# generated using pymatgen
data_Cu2H(C2N3)3
_symmetry_space_group_name_H-M   'P 1'
_cell_length_a   24.34900000
_cell_length_b   9.23340000
_cell_length_c   16.95900000
_cell_angle_alpha   90.00000000
_cell_angle_beta   119.41000000
_cell_angle_gamma   90.00000000
_symmetry_Int_Tables_number   1
_chemical_formula_structural   Cu2H(C2N3)3
_chemical_formula_sum   'Cu16 H8 C48 N72'
_cell_volume   3321.42960512
_cell_formula_units_Z   8
loop_
 _symmetry_equiv_pos_site_id
 _symmetry_equiv_pos_as_xyz
  1  'x, y, z'
loop_
 _atom_site_type_symbol
 _atom_site_label
 _atom_site_symmetry_multiplicity
 _atom_site_fract_x
 _atom_site_fract_y
 _atom_site_fract_z
 _atom_site_occupancy
 _atom_site_charge
  Cu  Cu1  1  0.153360  0.670620  0.323350  1.0  0.4492
  Cu  Cu2  1  0.148000  0.896510  0.648490  1.0  0.608
  Cu  Cu3  1  0.063100  0.685690  0.727440  1.0  0.5417
  Cu  Cu4  1  0.063790  0.879420  0.397090  1.0  0.6927
  Cu  Cu5  1  0.653360  0.170620  0.323350  1.0  0.4492
  Cu  Cu6  1  0.648000  0.396510  0.648490  1.0  0.608
  Cu  Cu7  1  0.563100  0.185690  0.727440  1.0  0.5417
  Cu  Cu8  1  0.563790  0.379420  0.397090  1.0  0.6927
  Cu  Cu9  1  0.153360  0.329380  0.823350  1.0  0.4503
  Cu  Cu10  1  0.148000  0.103490  0.148490  1.0  0.6082
  Cu  Cu11  1  0.063100  0.314310  0.227440  1.0  0.5425
  Cu  Cu12  1  0.063790  0.120580  0.897090  1.0  0.6914
  Cu  Cu13  1  0.653360  0.829380  0.823350  1.0  0.4503
  Cu  Cu14  1  0.648000  0.603490  0.148490  1.0  0.6082
  Cu  Cu15  1  0.563100  0.814310  0.227440  1.0  0.5426
  Cu  Cu16  1  0.563790  0.620580  0.897090  1.0  0.6914
  H  H17  1  0.358300  0.850400  0.649900  1.0  0.1172
  H  H18  1  0.356000  0.688700  0.903900  1.0  0.1317
  H  H19  1  0.858300  0.350400  0.649900  1.0  0.1172
  H  H20  1  0.856000  0.188700  0.903900  1.0  0.1317
  H  H21  1  0.358300  0.149600  0.149900  1.0  0.1171
  H  H22  1  0.356000  0.311300  0.403900  1.0  0.1314
  H  H23  1  0.858300  0.649600  0.149900  1.0  0.1171
  H  H24  1  0.856000  0.811300  0.403900  1.0  0.1314
  C  C25  1  0.246300  0.770700  0.599300  1.0  0.3209
  C  C26  1  0.301800  0.771400  0.692600  1.0  -0.0806
  C  C27  1  0.358100  0.815800  0.701200  1.0  -0.0799
  C  C28  1  0.414400  0.812400  0.781300  1.0  -0.0836
  C  C29  1  0.414500  0.759400  0.859300  1.0  -0.0973
  C  C30  1  0.356700  0.718300  0.852000  1.0  -0.0694
  C  C31  1  0.299700  0.720200  0.769100  1.0  -0.075
  C  C32  1  0.244800  0.661000  0.773100  1.0  0.3579
  C  C33  1  0.470800  0.751200  0.951600  1.0  0.3498
  C  C34  1  0.470900  0.867700  0.782400  1.0  0.3288
  C  C35  1  0.057000  0.053800  0.336200  1.0  -0.0314
  C  C36  1  0.151300  0.077600  0.702300  1.0  -0.0413
  C  C37  1  0.746300  0.270700  0.599300  1.0  0.3209
  C  C38  1  0.801800  0.271400  0.692600  1.0  -0.0806
  C  C39  1  0.858100  0.315800  0.701200  1.0  -0.0799
  C  C40  1  0.914400  0.312400  0.781300  1.0  -0.0836
  C  C41  1  0.914500  0.259400  0.859300  1.0  -0.0973
  C  C42  1  0.856700  0.218300  0.852000  1.0  -0.0694
  C  C43  1  0.799700  0.220200  0.769100  1.0  -0.075
  C  C44  1  0.744800  0.161000  0.773100  1.0  0.3579
  C  C45  1  0.970800  0.251200  0.951600  1.0  0.3498
  C  C46  1  0.970900  0.367700  0.782400  1.0  0.3288
  C  C47  1  0.557000  0.553800  0.336200  1.0  -0.0314
  C  C48  1  0.651300  0.577600  0.702300  1.0  -0.0413
  C  C49  1  0.246300  0.229300  0.099300  1.0  0.321
  C  C50  1  0.301800  0.228600  0.192600  1.0  -0.0807
  C  C51  1  0.358100  0.184200  0.201200  1.0  -0.0794
  C  C52  1  0.414400  0.187600  0.281300  1.0  -0.0832
  C  C53  1  0.414500  0.240600  0.359300  1.0  -0.0972
  C  C54  1  0.356700  0.281700  0.352000  1.0  -0.0699
  C  C55  1  0.299700  0.279800  0.269100  1.0  -0.0747
  C  C56  1  0.244800  0.339000  0.273100  1.0  0.3571
  C  C57  1  0.470800  0.248800  0.451600  1.0  0.3497
  C  C58  1  0.470900  0.132300  0.282400  1.0  0.3285
  C  C59  1  0.057000  0.946200  0.836200  1.0  -0.0321
  C  C60  1  0.151300  0.922400  0.202300  1.0  -0.0423
  C  C61  1  0.746300  0.729300  0.099300  1.0  0.321
  C  C62  1  0.801800  0.728600  0.192600  1.0  -0.0807
  C  C63  1  0.858100  0.684200  0.201200  1.0  -0.0794
  C  C64  1  0.914400  0.687600  0.281300  1.0  -0.0832
  C  C65  1  0.914500  0.740600  0.359300  1.0  -0.0972
  C  C66  1  0.856700  0.781700  0.352000  1.0  -0.0699
  C  C67  1  0.799700  0.779800  0.269100  1.0  -0.0747
  C  C68  1  0.744800  0.839000  0.273100  1.0  0.3571
  C  C69  1  0.970800  0.748800  0.451600  1.0  0.3497
  C  C70  1  0.970900  0.632300  0.282400  1.0  0.3285
  C  C71  1  0.557000  0.446200  0.836200  1.0  -0.0321
  C  C72  1  0.651300  0.422400  0.202300  1.0  -0.0423
  N  N73  1  0.192600  0.738700  0.457900  1.0  -0.0405
  N  N74  1  0.249300  0.716300  0.528900  1.0  -0.2763
  N  N75  1  0.189500  0.827000  0.573500  1.0  -0.2394
  N  N76  1  0.155800  0.806500  0.483700  1.0  -0.1084
  N  N77  1  0.187200  0.718900  0.734300  1.0  -0.3264
  N  N78  1  0.154500  0.629800  0.759500  1.0  -0.0102
  N  N79  1  0.190200  0.522500  0.808500  1.0  -0.0765
  N  N80  1  0.249000  0.539700  0.819700  1.0  -0.3281
  N  N81  1  0.468900  0.804500  0.023200  1.0  -0.3176
  N  N82  1  0.525800  0.766400  0.093300  1.0  0.0205
  N  N83  1  0.558100  0.691700  0.064500  1.0  -0.021
  N  N84  1  0.524100  0.679100  0.973200  1.0  -0.34
  N  N85  1  0.528200  0.804200  0.819400  1.0  -0.2626
  N  N86  1  0.563600  0.890000  0.799300  1.0  -0.0679
  N  N87  1  0.527800  0.000300  0.750400  1.0  0.0162
  N  N88  1  0.470500  0.988600  0.739300  1.0  -0.2739
  N  N89  1  0.057200  0.155300  0.296800  1.0  -0.3147
  N  N90  1  0.152300  0.179000  0.742500  1.0  -0.3742
  N  N91  1  0.692600  0.238700  0.457900  1.0  -0.0405
  N  N92  1  0.749300  0.216300  0.528900  1.0  -0.2763
  N  N93  1  0.689500  0.327000  0.573500  1.0  -0.2394
  N  N94  1  0.655800  0.306500  0.483700  1.0  -0.1084
  N  N95  1  0.687200  0.218900  0.734300  1.0  -0.3264
  N  N96  1  0.654500  0.129800  0.759500  1.0  -0.0102
  N  N97  1  0.690200  0.022500  0.808500  1.0  -0.0784
  N  N98  1  0.749000  0.039700  0.819700  1.0  -0.3281
  N  N99  1  0.968900  0.304500  0.023200  1.0  -0.3176
  N  N100  1  0.025800  0.266400  0.093300  1.0  0.0205
  N  N101  1  0.058100  0.191700  0.064500  1.0  -0.021
  N  N102  1  0.024100  0.179100  0.973200  1.0  -0.34
  N  N103  1  0.028200  0.304200  0.819400  1.0  -0.2626
  N  N104  1  0.063600  0.390000  0.799300  1.0  -0.0679
  N  N105  1  0.027800  0.500300  0.750400  1.0  0.0162
  N  N106  1  0.970500  0.488600  0.739300  1.0  -0.2739
  N  N107  1  0.557200  0.655300  0.296800  1.0  -0.3147
  N  N108  1  0.652300  0.679000  0.742500  1.0  -0.3742
  N  N109  1  0.192600  0.261300  0.957900  1.0  -0.0398
  N  N110  1  0.249300  0.283700  0.028900  1.0  -0.277
  N  N111  1  0.189500  0.173000  0.073500  1.0  -0.2406
  N  N112  1  0.155800  0.193500  0.983700  1.0  -0.1084
  N  N113  1  0.187200  0.281100  0.234300  1.0  -0.3266
  N  N114  1  0.154500  0.370200  0.259500  1.0  -0.0097
  N  N115  1  0.190200  0.477500  0.308500  1.0  -0.0767
  N  N116  1  0.249000  0.460300  0.319700  1.0  -0.3277
  N  N117  1  0.468900  0.195500  0.523200  1.0  -0.3169
  N  N118  1  0.525800  0.233600  0.593300  1.0  0.0207
  N  N119  1  0.558100  0.308300  0.564500  1.0  -0.0209
  N  N120  1  0.524100  0.320900  0.473200  1.0  -0.339
  N  N121  1  0.528200  0.195800  0.319400  1.0  -0.2635
  N  N122  1  0.563600  0.110000  0.299300  1.0  -0.0677
  N  N123  1  0.527800  0.999700  0.250400  1.0  0.0169
  N  N124  1  0.470500  0.011400  0.239300  1.0  -0.2733
  N  N125  1  0.057200  0.844700  0.796800  1.0  -0.3108
  N  N126  1  0.152300  0.821000  0.242500  1.0  -0.3723
  N  N127  1  0.692600  0.761300  0.957900  1.0  -0.0398
  N  N128  1  0.749300  0.783700  0.028900  1.0  -0.277
  N  N129  1  0.689500  0.673000  0.073500  1.0  -0.2406
  N  N130  1  0.655800  0.693500  0.983700  1.0  -0.1084
  N  N131  1  0.687200  0.781100  0.234300  1.0  -0.3266
  N  N132  1  0.654500  0.870200  0.259500  1.0  -0.0097
  N  N133  1  0.690200  0.977500  0.308500  1.0  -0.0794
  N  N134  1  0.749000  0.960300  0.319700  1.0  -0.3277
  N  N135  1  0.968900  0.695500  0.523200  1.0  -0.3169
  N  N136  1  0.025800  0.733600  0.593300  1.0  0.0207
  N  N137  1  0.058100  0.808300  0.564500  1.0  -0.0209
  N  N138  1  0.024100  0.820900  0.473200  1.0  -0.339
  N  N139  1  0.028200  0.695800  0.319400  1.0  -0.2635
  N  N140  1  0.063600  0.610000  0.299300  1.0  -0.0677
  N  N141  1  0.027800  0.499700  0.250400  1.0  0.0169
  N  N142  1  0.970500  0.511400  0.239300  1.0  -0.2733
  N  N143  1  0.557200  0.344700  0.796800  1.0  -0.3108
  N  N144  1  0.652300  0.321000  0.242500  1.0  -0.3723
