# generated using pymatgen
data_Cu2H5C6N3O5
_symmetry_space_group_name_H-M   'P 1'
_cell_length_a   8.10500000
_cell_length_b   16.96900000
_cell_length_c   17.66600000
_cell_angle_alpha   90.00000000
_cell_angle_beta   102.49500000
_cell_angle_gamma   90.00000000
_symmetry_Int_Tables_number   1
_chemical_formula_structural   Cu2H5C6N3O5
_chemical_formula_sum   'Cu16 H40 C48 N24 O40'
_cell_volume   2372.12411419
_cell_formula_units_Z   8
loop_
 _symmetry_equiv_pos_site_id
 _symmetry_equiv_pos_as_xyz
  1  'x, y, z'
loop_
 _atom_site_type_symbol
 _atom_site_label
 _atom_site_symmetry_multiplicity
 _atom_site_fract_x
 _atom_site_fract_y
 _atom_site_fract_z
 _atom_site_occupancy
 _atom_site_charge
  Cu  Cu1  1  0.005770  0.704290  0.287830  1.0  0.7922
  Cu  Cu2  1  0.205350  0.602670  0.170020  1.0  0.9521
  Cu  Cu3  1  0.535580  0.667370  0.972930  1.0  0.8478
  Cu  Cu4  1  0.407620  0.580830  0.797560  1.0  0.8601
  Cu  Cu5  1  0.994230  0.204290  0.212170  1.0  0.7924
  Cu  Cu6  1  0.794650  0.102670  0.329980  1.0  0.9516
  Cu  Cu7  1  0.464420  0.167370  0.527070  1.0  0.8481
  Cu  Cu8  1  0.592380  0.080830  0.702440  1.0  0.8598
  Cu  Cu9  1  0.994230  0.295710  0.712170  1.0  0.7923
  Cu  Cu10  1  0.794650  0.397330  0.829980  1.0  0.952
  Cu  Cu11  1  0.464420  0.332630  0.027070  1.0  0.8464
  Cu  Cu12  1  0.592380  0.419170  0.202440  1.0  0.8602
  Cu  Cu13  1  0.005770  0.795710  0.787830  1.0  0.7921
  Cu  Cu14  1  0.205350  0.897330  0.670020  1.0  0.9522
  Cu  Cu15  1  0.535580  0.832630  0.472930  1.0  0.8464
  Cu  Cu16  1  0.407620  0.919170  0.297560  1.0  0.8597
  H  H17  1  0.926100  0.636700  0.013900  1.0  0.1014
  H  H18  1  0.650000  0.722800  0.152900  1.0  0.1074
  H  H19  1  0.718400  0.845500  0.227300  1.0  0.1052
  H  H20  1  0.834600  0.730900  0.423900  1.0  0.1181
  H  H21  1  0.447800  0.681400  0.313400  1.0  0.1067
  H  H22  1  0.298100  0.542300  0.358100  1.0  0.1536
  H  H23  1  0.488400  0.569100  0.393300  1.0  0.1453
  H  H24  1  0.308900  0.499100  0.942900  1.0  0.1111
  H  H25  1  0.087300  0.619100  0.888500  1.0  0.1327
  H  H26  1  0.032100  0.539200  0.923300  1.0  0.1061
  H  H27  1  0.073900  0.136700  0.486100  1.0  0.1021
  H  H28  1  0.350000  0.222800  0.347100  1.0  0.1077
  H  H29  1  0.281600  0.345500  0.272700  1.0  0.1038
  H  H30  1  0.165400  0.230900  0.076100  1.0  0.1178
  H  H31  1  0.552200  0.181400  0.186600  1.0  0.1064
  H  H32  1  0.701900  0.042300  0.141900  1.0  0.1528
  H  H33  1  0.511600  0.069100  0.106700  1.0  0.1462
  H  H34  1  0.691100  0.999100  0.557100  1.0  0.1113
  H  H35  1  0.912700  0.119100  0.611500  1.0  0.1325
  H  H36  1  0.967900  0.039200  0.576700  1.0  0.1049
  H  H37  1  0.073900  0.363300  0.986100  1.0  0.1021
  H  H38  1  0.350000  0.277200  0.847100  1.0  0.1074
  H  H39  1  0.281600  0.154500  0.772700  1.0  0.1039
  H  H40  1  0.165400  0.269100  0.576100  1.0  0.1183
  H  H41  1  0.552200  0.318600  0.686600  1.0  0.1069
  H  H42  1  0.701900  0.457700  0.641900  1.0  0.1533
  H  H43  1  0.511600  0.430900  0.606700  1.0  0.1464
  H  H44  1  0.691100  0.500900  0.057100  1.0  0.111
  H  H45  1  0.912700  0.380900  0.111500  1.0  0.1331
  H  H46  1  0.967900  0.460800  0.076700  1.0  0.1047
  H  H47  1  0.926100  0.863300  0.513900  1.0  0.1016
  H  H48  1  0.650000  0.777200  0.652900  1.0  0.1076
  H  H49  1  0.718400  0.654500  0.727300  1.0  0.1054
  H  H50  1  0.834600  0.769100  0.923900  1.0  0.1178
  H  H51  1  0.447800  0.818600  0.813400  1.0  0.1071
  H  H52  1  0.298100  0.957700  0.858100  1.0  0.1535
  H  H53  1  0.488400  0.930900  0.893300  1.0  0.145
  H  H54  1  0.308900  0.000900  0.442900  1.0  0.1107
  H  H55  1  0.087300  0.880900  0.388500  1.0  0.1328
  H  H56  1  0.032100  0.960800  0.423300  1.0  0.1058
  C  C57  1  0.891500  0.655700  0.058600  1.0  0.1844
  C  C58  1  0.742100  0.702100  0.133800  1.0  0.2405
  C  C59  1  0.720100  0.827500  0.278300  1.0  0.2405
  C  C60  1  0.782400  0.765900  0.383900  1.0  0.2137
  C  C61  1  0.304700  0.697800  0.397400  1.0  0.7056
  C  C62  1  0.348200  0.654300  0.326800  1.0  0.1256
  C  C63  1  0.396500  0.570400  0.346200  1.0  -0.3021
  C  C64  1  0.454100  0.527600  0.282000  1.0  0.7491
  C  C65  1  0.288400  0.587200  0.023700  1.0  0.6885
  C  C66  1  0.271100  0.555300  0.941200  1.0  0.0828
  C  C67  1  0.113500  0.562200  0.895000  1.0  -0.303
  C  C68  1  0.079600  0.524800  0.813700  1.0  0.7406
  C  C69  1  0.108500  0.155700  0.441400  1.0  0.184
  C  C70  1  0.257900  0.202100  0.366200  1.0  0.241
  C  C71  1  0.279900  0.327500  0.221700  1.0  0.2411
  C  C72  1  0.217600  0.265900  0.116100  1.0  0.2147
  C  C73  1  0.695300  0.197800  0.102600  1.0  0.7039
  C  C74  1  0.651800  0.154300  0.173200  1.0  0.1246
  C  C75  1  0.603500  0.070400  0.153800  1.0  -0.2996
  C  C76  1  0.545900  0.027600  0.218000  1.0  0.7515
  C  C77  1  0.711600  0.087200  0.476300  1.0  0.6877
  C  C78  1  0.728900  0.055300  0.558800  1.0  0.0815
  C  C79  1  0.886500  0.062200  0.605000  1.0  -0.3023
  C  C80  1  0.920400  0.024800  0.686300  1.0  0.744
  C  C81  1  0.108500  0.344300  0.941400  1.0  0.1845
  C  C82  1  0.257900  0.297900  0.866200  1.0  0.24
  C  C83  1  0.279900  0.172500  0.721700  1.0  0.2412
  C  C84  1  0.217600  0.234100  0.616100  1.0  0.2149
  C  C85  1  0.695300  0.302200  0.602600  1.0  0.7032
  C  C86  1  0.651800  0.345700  0.673200  1.0  0.1248
  C  C87  1  0.603500  0.429600  0.653800  1.0  -0.2998
  C  C88  1  0.545900  0.472400  0.718000  1.0  0.7514
  C  C89  1  0.711600  0.412800  0.976300  1.0  0.6878
  C  C90  1  0.728900  0.444700  0.058800  1.0  0.0817
  C  C91  1  0.886500  0.437800  0.105000  1.0  -0.3023
  C  C92  1  0.920400  0.475200  0.186300  1.0  0.744
  C  C93  1  0.891500  0.844300  0.558600  1.0  0.1837
  C  C94  1  0.742100  0.797900  0.633800  1.0  0.241
  C  C95  1  0.720100  0.672500  0.778300  1.0  0.2409
  C  C96  1  0.782400  0.734100  0.883900  1.0  0.214
  C  C97  1  0.304700  0.802200  0.897400  1.0  0.7059
  C  C98  1  0.348200  0.845700  0.826800  1.0  0.1253
  C  C99  1  0.396500  0.929600  0.846200  1.0  -0.3028
  C  C100  1  0.454100  0.972400  0.782000  1.0  0.749
  C  C101  1  0.288400  0.912800  0.523700  1.0  0.6883
  C  C102  1  0.271100  0.944700  0.441200  1.0  0.0831
  C  C103  1  0.113500  0.937800  0.395000  1.0  -0.3033
  C  C104  1  0.079600  0.975200  0.313700  1.0  0.741
  N  N105  1  0.658000  0.813900  0.389800  1.0  -0.2329
  N  N106  1  0.618000  0.854000  0.320600  1.0  -0.2224
  N  N107  1  0.827800  0.772000  0.314600  1.0  -0.4194
  N  N108  1  0.895000  0.687600  0.177800  1.0  -0.2144
  N  N109  1  0.989700  0.658300  0.129100  1.0  -0.2683
  N  N110  1  0.734800  0.683700  0.058900  1.0  -0.3995
  N  N111  1  0.342000  0.313900  0.110200  1.0  -0.2339
  N  N112  1  0.382000  0.354000  0.179400  1.0  -0.2226
  N  N113  1  0.172200  0.272000  0.185400  1.0  -0.4174
  N  N114  1  0.105000  0.187600  0.322200  1.0  -0.2146
  N  N115  1  0.010300  0.158300  0.370900  1.0  -0.2667
  N  N116  1  0.265200  0.183700  0.441100  1.0  -0.3986
  N  N117  1  0.342000  0.186100  0.610200  1.0  -0.234
  N  N118  1  0.382000  0.146000  0.679400  1.0  -0.222
  N  N119  1  0.172200  0.228000  0.685400  1.0  -0.4173
  N  N120  1  0.105000  0.312400  0.822200  1.0  -0.2149
  N  N121  1  0.010300  0.341700  0.870900  1.0  -0.2673
  N  N122  1  0.265200  0.316300  0.941100  1.0  -0.3961
  N  N123  1  0.658000  0.686100  0.889800  1.0  -0.233
  N  N124  1  0.618000  0.646000  0.820600  1.0  -0.2237
  N  N125  1  0.827800  0.728000  0.814600  1.0  -0.4187
  N  N126  1  0.895000  0.812400  0.677800  1.0  -0.2137
  N  N127  1  0.989700  0.841700  0.629100  1.0  -0.2689
  N  N128  1  0.734800  0.816300  0.558900  1.0  -0.3967
  O  O129  1  0.155700  0.723400  0.389700  1.0  -0.5708
  O  O130  1  0.418700  0.706500  0.456700  1.0  -0.6467
  O  O131  1  0.209900  0.662300  0.262600  1.0  -0.6818
  O  O132  1  0.417600  0.551200  0.211800  1.0  -0.5977
  O  O133  1  0.537000  0.463700  0.299400  1.0  -0.5859
  O  O134  1  0.194700  0.557800  0.065600  1.0  -0.569
  O  O135  1  0.401200  0.637800  0.047200  1.0  -0.5585
  O  O136  1  0.382400  0.605900  0.901100  1.0  -0.8208
  O  O137  1  0.197900  0.520800  0.777300  1.0  -0.6049
  O  O138  1  0.937300  0.504400  0.785700  1.0  -0.6157
  O  O139  1  0.844300  0.223400  0.110300  1.0  -0.5691
  O  O140  1  0.581300  0.206500  0.043300  1.0  -0.6445
  O  O141  1  0.790100  0.162300  0.237400  1.0  -0.6812
  O  O142  1  0.582400  0.051200  0.288200  1.0  -0.5996
  O  O143  1  0.463000  0.963700  0.200600  1.0  -0.5875
  O  O144  1  0.805300  0.057800  0.434400  1.0  -0.5676
  O  O145  1  0.598800  0.137800  0.452800  1.0  -0.5587
  O  O146  1  0.617600  0.105900  0.598900  1.0  -0.8206
  O  O147  1  0.802100  0.020800  0.722700  1.0  -0.6055
  O  O148  1  0.062700  0.004400  0.714300  1.0  -0.6177
  O  O149  1  0.844300  0.276600  0.610300  1.0  -0.5698
  O  O150  1  0.581300  0.293500  0.543300  1.0  -0.6459
  O  O151  1  0.790100  0.337700  0.737400  1.0  -0.6814
  O  O152  1  0.582400  0.448800  0.788200  1.0  -0.5993
  O  O153  1  0.463000  0.536300  0.700600  1.0  -0.5895
  O  O154  1  0.805300  0.442200  0.934400  1.0  -0.5664
  O  O155  1  0.598800  0.362200  0.952800  1.0  -0.5592
  O  O156  1  0.617600  0.394100  0.098900  1.0  -0.8197
  O  O157  1  0.802100  0.479200  0.222700  1.0  -0.6054
  O  O158  1  0.062700  0.495600  0.214300  1.0  -0.6178
  O  O159  1  0.155700  0.776600  0.889700  1.0  -0.5712
  O  O160  1  0.418700  0.793500  0.956700  1.0  -0.6473
  O  O161  1  0.209900  0.837700  0.762600  1.0  -0.6828
  O  O162  1  0.417600  0.948800  0.711800  1.0  -0.5984
  O  O163  1  0.537000  0.036300  0.799400  1.0  -0.5858
  O  O164  1  0.194700  0.942200  0.565600  1.0  -0.5677
  O  O165  1  0.401200  0.862200  0.547200  1.0  -0.5583
  O  O166  1  0.382400  0.894100  0.401100  1.0  -0.8208
  O  O167  1  0.197900  0.979200  0.277300  1.0  -0.6053
  O  O168  1  0.937300  0.995600  0.285700  1.0  -0.616
