# generated using pymatgen
data_Mn3W6C6(S4N3)2
_symmetry_space_group_name_H-M   'P 1'
_cell_length_a   13.25010000
_cell_length_b   13.25010000
_cell_length_c   18.49890000
_cell_angle_alpha   92.55590000
_cell_angle_beta   92.55590000
_cell_angle_gamma   112.73200000
_symmetry_Int_Tables_number   1
_chemical_formula_structural   Mn3W6C6(S4N3)2
_chemical_formula_sum   'Mn6 W12 C12 S16 N12'
_cell_volume   2985.75957397
_cell_formula_units_Z   2
loop_
 _symmetry_equiv_pos_site_id
 _symmetry_equiv_pos_as_xyz
  1  'x, y, z'
loop_
 _atom_site_type_symbol
 _atom_site_label
 _atom_site_symmetry_multiplicity
 _atom_site_fract_x
 _atom_site_fract_y
 _atom_site_fract_z
 _atom_site_occupancy
 _atom_site_charge
  Mn  Mn1  1  0.787570  0.706990  0.303040  1.0  1.0273
  Mn  Mn2  1  0.293010  0.212430  0.196960  1.0  1.0273
  Mn  Mn3  1  0.212430  0.293010  0.696960  1.0  1.0271
  Mn  Mn4  1  0.706990  0.787570  0.803040  1.0  1.0273
  Mn  Mn5  1  0.500000  0.000000  0.000000  1.0  1.0
  Mn  Mn6  1  0.000000  0.500000  0.500000  1.0  1.0
  W  W7  1  0.965090  0.550470  0.089180  1.0  0.1248
  W  W8  1  0.079310  0.430350  0.050980  1.0  0.1141
  W  W9  1  0.128510  0.628890  0.001200  1.0  0.1126
  W  W10  1  0.449530  0.034910  0.410820  1.0  0.1243
  W  W11  1  0.569650  0.920690  0.449020  1.0  0.1136
  W  W12  1  0.371110  0.871490  0.498800  1.0  0.1137
  W  W13  1  0.034910  0.449530  0.910820  1.0  0.1231
  W  W14  1  0.920690  0.569650  0.949020  1.0  0.1146
  W  W15  1  0.871490  0.371110  0.998800  1.0  0.1136
  W  W16  1  0.550470  0.965090  0.589180  1.0  0.1241
  W  W17  1  0.430350  0.079310  0.550980  1.0  0.1151
  W  W18  1  0.628890  0.128510  0.501200  1.0  0.1126
  C  C19  1  0.917900  0.611300  0.187900  1.0  0.1638
  C  C20  1  0.170000  0.347400  0.104100  1.0  0.1936
  C  C21  1  0.276500  0.776300  0.003100  1.0  0.2063
  C  C22  1  0.388700  0.082100  0.312100  1.0  0.1607
  C  C23  1  0.652600  0.830000  0.395900  1.0  0.1939
  C  C24  1  0.223700  0.723500  0.496900  1.0  0.2071
  C  C25  1  0.082100  0.388700  0.812100  1.0  0.1607
  C  C26  1  0.830000  0.652600  0.895900  1.0  0.1929
  C  C27  1  0.723500  0.223700  0.996900  1.0  0.2069
  C  C28  1  0.611300  0.917900  0.687900  1.0  0.1625
  C  C29  1  0.347400  0.170000  0.604100  1.0  0.1943
  C  C30  1  0.776300  0.276500  0.503100  1.0  0.2065
  S  S31  1  0.158700  0.600300  0.129970  1.0  -0.1913
  S  S32  1  0.222780  0.508420  0.965910  1.0  -0.2187
  S  S33  1  0.922680  0.364320  0.127670  1.0  -0.1789
  S  S34  1  0.013550  0.729050  0.035230  1.0  -0.1563
  S  S35  1  0.399700  0.841300  0.370030  1.0  -0.1927
  S  S36  1  0.491580  0.777220  0.534090  1.0  -0.219
  S  S37  1  0.635680  0.077320  0.372330  1.0  -0.1781
  S  S38  1  0.270950  0.986450  0.464770  1.0  -0.155
  S  S39  1  0.841300  0.399700  0.870030  1.0  -0.1919
  S  S40  1  0.777220  0.491580  0.034090  1.0  -0.2189
  S  S41  1  0.077320  0.635680  0.872330  1.0  -0.179
  S  S42  1  0.986450  0.270950  0.964770  1.0  -0.1565
  S  S43  1  0.600300  0.158700  0.629970  1.0  -0.1935
  S  S44  1  0.508420  0.222780  0.465910  1.0  -0.2201
  S  S45  1  0.364320  0.922680  0.627670  1.0  -0.1779
  S  S46  1  0.729050  0.013550  0.535230  1.0  -0.1562
  N  N47  1  0.882100  0.642300  0.235700  1.0  -0.5695
  N  N48  1  0.219400  0.302200  0.133800  1.0  -0.5979
  N  N49  1  0.354500  0.854300  0.005900  1.0  -0.5312
  N  N50  1  0.357700  0.117900  0.264300  1.0  -0.5694
  N  N51  1  0.697800  0.780600  0.366200  1.0  -0.5986
  N  N52  1  0.145700  0.645500  0.494100  1.0  -0.5248
  N  N53  1  0.117900  0.357700  0.764300  1.0  -0.5703
  N  N54  1  0.780600  0.697800  0.866200  1.0  -0.5969
  N  N55  1  0.645500  0.145700  0.994100  1.0  -0.5249
  N  N56  1  0.642300  0.882100  0.735700  1.0  -0.5704
  N  N57  1  0.302200  0.219400  0.633800  1.0  -0.5957
  N  N58  1  0.854300  0.354500  0.505900  1.0  -0.5307
