# generated using pymatgen
data_Fe3W6C6(S4N3)2
_symmetry_space_group_name_H-M   'P 1'
_cell_length_a   13.18880000
_cell_length_b   13.18880000
_cell_length_c   18.28600000
_cell_angle_alpha   92.73210000
_cell_angle_beta   92.73210000
_cell_angle_gamma   112.78100000
_symmetry_Int_Tables_number   1
_chemical_formula_structural   Fe3W6C6(S4N3)2
_chemical_formula_sum   'Fe6 W12 C12 S16 N12'
_cell_volume   2921.72949698
_cell_formula_units_Z   2
loop_
 _symmetry_equiv_pos_site_id
 _symmetry_equiv_pos_as_xyz
  1  'x, y, z'
loop_
 _atom_site_type_symbol
 _atom_site_label
 _atom_site_symmetry_multiplicity
 _atom_site_fract_x
 _atom_site_fract_y
 _atom_site_fract_z
 _atom_site_occupancy
 _atom_site_charge
  Fe  Fe1  1  0.215210  0.295330  0.695980  1.0  0.792
  Fe  Fe2  1  0.704670  0.784790  0.804020  1.0  0.7919
  Fe  Fe3  1  0.784790  0.704670  0.304020  1.0  0.792
  Fe  Fe4  1  0.295330  0.215210  0.195980  1.0  0.7918
  Fe  Fe5  1  0.500000  0.000000  0.000000  1.0  0.8243
  Fe  Fe6  1  0.000000  0.500000  0.500000  1.0  0.8226
  W  W7  1  0.037800  0.450660  0.910310  1.0  0.1548
  W  W8  1  0.918510  0.567310  0.947590  1.0  0.13
  W  W9  1  0.127400  0.631840  0.002140  1.0  0.12
  W  W10  1  0.549340  0.962200  0.589690  1.0  0.1551
  W  W11  1  0.432690  0.081490  0.552410  1.0  0.1302
  W  W12  1  0.368160  0.872600  0.497860  1.0  0.1213
  W  W13  1  0.962200  0.549340  0.089690  1.0  0.156
  W  W14  1  0.081490  0.432690  0.052410  1.0  0.1292
  W  W15  1  0.872600  0.368160  0.997860  1.0  0.1212
  W  W16  1  0.450660  0.037800  0.410310  1.0  0.1558
  W  W17  1  0.567310  0.918510  0.447590  1.0  0.1284
  W  W18  1  0.631840  0.127400  0.502140  1.0  0.1203
  C  C19  1  0.089400  0.390600  0.811500  1.0  0.1666
  C  C20  1  0.826100  0.648900  0.892200  1.0  0.2138
  C  C21  1  0.272200  0.783200  0.004700  1.0  0.2196
  C  C22  1  0.609400  0.910600  0.688500  1.0  0.1701
  C  C23  1  0.351100  0.173900  0.607800  1.0  0.2141
  C  C24  1  0.216800  0.727800  0.495300  1.0  0.2205
  C  C25  1  0.910600  0.609400  0.188500  1.0  0.1701
  C  C26  1  0.173900  0.351100  0.107800  1.0  0.2128
  C  C27  1  0.727800  0.216800  0.995300  1.0  0.2207
  C  C28  1  0.390600  0.089400  0.311500  1.0  0.1662
  C  C29  1  0.648900  0.826100  0.392200  1.0  0.2125
  C  C30  1  0.783200  0.272200  0.504700  1.0  0.2189
  S  S31  1  0.076100  0.636500  0.871400  1.0  -0.1799
  S  S32  1  0.842200  0.396000  0.867500  1.0  -0.1422
  S  S33  1  0.225900  0.515100  0.968100  1.0  -0.1385
  S  S34  1  0.008030  0.727570  0.035200  1.0  -0.1577
  S  S35  1  0.363500  0.923900  0.628600  1.0  -0.1778
  S  S36  1  0.604000  0.157800  0.632500  1.0  -0.1434
  S  S37  1  0.484900  0.774100  0.531900  1.0  -0.1395
  S  S38  1  0.272430  0.991970  0.464800  1.0  -0.1557
  S  S39  1  0.923900  0.363500  0.128600  1.0  -0.1795
  S  S40  1  0.157800  0.604000  0.132500  1.0  -0.1421
  S  S41  1  0.774100  0.484900  0.031900  1.0  -0.1378
  S  S42  1  0.991970  0.272430  0.964800  1.0  -0.1579
  S  S43  1  0.636500  0.076100  0.371400  1.0  -0.1785
  S  S44  1  0.396000  0.842200  0.367500  1.0  -0.143
  S  S45  1  0.515100  0.225900  0.468100  1.0  -0.1384
  S  S46  1  0.727570  0.008030  0.535200  1.0  -0.1568
  N  N47  1  0.122100  0.357700  0.762100  1.0  -0.5221
  N  N48  1  0.773500  0.689700  0.864400  1.0  -0.5275
  N  N49  1  0.351600  0.862800  0.005500  1.0  -0.5454
  N  N50  1  0.642300  0.877900  0.737900  1.0  -0.5211
  N  N51  1  0.310300  0.226500  0.635600  1.0  -0.529
  N  N52  1  0.137200  0.648400  0.494500  1.0  -0.5417
  N  N53  1  0.877900  0.642300  0.237900  1.0  -0.5216
  N  N54  1  0.226500  0.310300  0.135600  1.0  -0.5282
  N  N55  1  0.648400  0.137200  0.994500  1.0  -0.5419
  N  N56  1  0.357700  0.122100  0.262100  1.0  -0.5221
  N  N57  1  0.689700  0.773500  0.364400  1.0  -0.5288
  N  N58  1  0.862800  0.351600  0.505500  1.0  -0.5448
