# generated using pymatgen
data_Co3W6C6(S4N3)2
_symmetry_space_group_name_H-M   'P 1'
_cell_length_a   13.11200000
_cell_length_b   13.11200000
_cell_length_c   18.03000000
_cell_angle_alpha   92.68580000
_cell_angle_beta   92.68580000
_cell_angle_gamma   113.13600000
_symmetry_Int_Tables_number   1
_chemical_formula_structural   Co3W6C6(S4N3)2
_chemical_formula_sum   'Co6 W12 C12 S16 N12'
_cell_volume   2840.16891281
_cell_formula_units_Z   2
loop_
 _symmetry_equiv_pos_site_id
 _symmetry_equiv_pos_as_xyz
  1  'x, y, z'
loop_
 _atom_site_type_symbol
 _atom_site_label
 _atom_site_symmetry_multiplicity
 _atom_site_fract_x
 _atom_site_fract_y
 _atom_site_fract_z
 _atom_site_occupancy
 _atom_site_charge
  Co  Co1  1  0.795510  0.715290  0.694400  1.0  0.7609
  Co  Co2  1  0.284710  0.204490  0.805600  1.0  0.7602
  Co  Co3  1  0.204490  0.284710  0.305600  1.0  0.7603
  Co  Co4  1  0.715290  0.795510  0.194400  1.0  0.7606
  Co  Co5  1  0.500000  0.000000  0.000000  1.0  0.7787
  Co  Co6  1  0.000000  0.500000  0.500000  1.0  0.7787
  W  W7  1  0.951880  0.538640  0.908750  1.0  0.1367
  W  W8  1  0.067070  0.417330  0.947550  1.0  0.1291
  W  W9  1  0.133400  0.627380  0.002020  1.0  0.1264
  W  W10  1  0.461360  0.048120  0.591250  1.0  0.1372
  W  W11  1  0.582670  0.932930  0.552450  1.0  0.1302
  W  W12  1  0.372620  0.866600  0.497980  1.0  0.1281
  W  W13  1  0.048120  0.461360  0.091250  1.0  0.1357
  W  W14  1  0.932930  0.582670  0.052450  1.0  0.1314
  W  W15  1  0.866600  0.372620  0.997980  1.0  0.1283
  W  W16  1  0.538640  0.951880  0.408750  1.0  0.135
  W  W17  1  0.417330  0.067070  0.447550  1.0  0.1308
  W  W18  1  0.627380  0.133400  0.502020  1.0  0.1262
  C  C19  1  0.895100  0.593300  0.809200  1.0  0.091
  C  C20  1  0.143000  0.321800  0.892400  1.0  0.1912
  C  C21  1  0.282400  0.772200  0.006900  1.0  0.1868
  C  C22  1  0.406700  0.104900  0.690800  1.0  0.0916
  C  C23  1  0.678200  0.857000  0.607600  1.0  0.1904
  C  C24  1  0.227800  0.717600  0.493100  1.0  0.1882
  C  C25  1  0.104900  0.406700  0.190800  1.0  0.0923
  C  C26  1  0.857000  0.678200  0.107600  1.0  0.1905
  C  C27  1  0.717600  0.227800  0.993100  1.0  0.1883
  C  C28  1  0.593300  0.895100  0.309200  1.0  0.0908
  C  C29  1  0.321800  0.143000  0.392400  1.0  0.191
  C  C30  1  0.772200  0.282400  0.506900  1.0  0.1867
  S  S31  1  0.139600  0.576600  0.869600  1.0  -0.1419
  S  S32  1  0.018400  0.729000  0.966500  1.0  -0.1328
  S  S33  1  0.895600  0.342400  0.865500  1.0  -0.1276
  S  S34  1  0.228200  0.507200  0.036400  1.0  -0.1436
  S  S35  1  0.423400  0.860400  0.630400  1.0  -0.1433
  S  S36  1  0.271000  0.981600  0.533500  1.0  -0.1312
  S  S37  1  0.657600  0.104400  0.634500  1.0  -0.127
  S  S38  1  0.492800  0.771800  0.463600  1.0  -0.1449
  S  S39  1  0.860400  0.423400  0.130400  1.0  -0.1416
  S  S40  1  0.981600  0.271000  0.033500  1.0  -0.133
  S  S41  1  0.104400  0.657600  0.134500  1.0  -0.1275
  S  S42  1  0.771800  0.492800  0.963600  1.0  -0.1432
  S  S43  1  0.576600  0.139600  0.369600  1.0  -0.1436
  S  S44  1  0.729000  0.018400  0.466500  1.0  -0.132
  S  S45  1  0.342400  0.895600  0.365500  1.0  -0.1283
  S  S46  1  0.507200  0.228200  0.536400  1.0  -0.1452
  N  N47  1  0.859100  0.624100  0.760100  1.0  -0.4638
  N  N48  1  0.188200  0.271200  0.863500  1.0  -0.5086
  N  N49  1  0.364100  0.848300  0.003100  1.0  -0.4957
  N  N50  1  0.375900  0.140900  0.739900  1.0  -0.4624
  N  N51  1  0.728800  0.811800  0.636500  1.0  -0.5085
  N  N52  1  0.151700  0.635900  0.496900  1.0  -0.4953
  N  N53  1  0.140900  0.375900  0.239900  1.0  -0.4608
  N  N54  1  0.811800  0.728800  0.136500  1.0  -0.5077
  N  N55  1  0.635900  0.151700  0.996900  1.0  -0.4938
  N  N56  1  0.624100  0.859100  0.260100  1.0  -0.463
  N  N57  1  0.271200  0.188200  0.363500  1.0  -0.5078
  N  N58  1  0.848300  0.364100  0.503100  1.0  -0.4991
