# generated using pymatgen
data_ZnW3C3S4N3
_symmetry_space_group_name_H-M   'P 1'
_cell_length_a   11.03550000
_cell_length_b   15.69300000
_cell_length_c   16.91400000
_cell_angle_alpha   90.00000000
_cell_angle_beta   90.00000000
_cell_angle_gamma   90.00000000
_symmetry_Int_Tables_number   1
_chemical_formula_structural   ZnW3C3S4N3
_chemical_formula_sum   'Zn4 W12 C12 S16 N12'
_cell_volume   2929.16823677
_cell_formula_units_Z   4
loop_
 _symmetry_equiv_pos_site_id
 _symmetry_equiv_pos_as_xyz
  1  'x, y, z'
loop_
 _atom_site_type_symbol
 _atom_site_label
 _atom_site_symmetry_multiplicity
 _atom_site_fract_x
 _atom_site_fract_y
 _atom_site_fract_z
 _atom_site_occupancy
 _atom_site_charge
  Zn  Zn1  1  0.500000  0.835400  0.282300  1.0  1.041
  Zn  Zn2  1  0.500000  0.164600  0.717700  1.0  1.0408
  Zn  Zn3  1  0.000000  0.664600  0.782300  1.0  1.0411
  Zn  Zn4  1  0.000000  0.335400  0.217700  1.0  1.0407
  W  W5  1  0.621220  0.449930  0.063590  1.0  0.1172
  W  W6  1  0.621220  0.550070  0.936410  1.0  0.1172
  W  W7  1  0.878780  0.050070  0.563590  1.0  0.1188
  W  W8  1  0.878780  0.949930  0.436410  1.0  0.1179
  W  W9  1  0.378780  0.550070  0.936410  1.0  0.1186
  W  W10  1  0.378780  0.449930  0.063590  1.0  0.1184
  W  W11  1  0.121220  0.949930  0.436410  1.0  0.1167
  W  W12  1  0.121220  0.050070  0.563590  1.0  0.1174
  W  W13  1  0.500000  0.597320  0.066080  1.0  0.1069
  W  W14  1  0.500000  0.402680  0.933920  1.0  0.1064
  W  W15  1  0.000000  0.902680  0.566080  1.0  0.1078
  W  W16  1  0.000000  0.097320  0.433920  1.0  0.1059
  C  C17  1  0.769000  0.397300  0.131600  1.0  0.1967
  C  C18  1  0.769000  0.602700  0.868400  1.0  0.1962
  C  C19  1  0.731000  0.102700  0.631600  1.0  0.1961
  C  C20  1  0.731000  0.897300  0.368400  1.0  0.1957
  C  C21  1  0.231000  0.602700  0.868400  1.0  0.1955
  C  C22  1  0.231000  0.397300  0.131600  1.0  0.1957
  C  C23  1  0.269000  0.897300  0.368400  1.0  0.196
  C  C24  1  0.269000  0.102700  0.631600  1.0  0.1968
  C  C25  1  0.500000  0.700000  0.140000  1.0  0.1821
  C  C26  1  0.500000  0.300000  0.860000  1.0  0.1817
  C  C27  1  0.000000  0.800000  0.640000  1.0  0.1828
  C  C28  1  0.000000  0.200000  0.360000  1.0  0.1807
  S  S29  1  0.721700  0.590500  0.061200  1.0  -0.123
  S  S30  1  0.721700  0.409500  0.938800  1.0  -0.1231
  S  S31  1  0.778300  0.909500  0.561200  1.0  -0.1224
  S  S32  1  0.778300  0.090500  0.438800  1.0  -0.1235
  S  S33  1  0.278300  0.409500  0.938800  1.0  -0.1231
  S  S34  1  0.278300  0.590500  0.061200  1.0  -0.1233
  S  S35  1  0.221700  0.090500  0.438800  1.0  -0.123
  S  S36  1  0.221700  0.909500  0.561200  1.0  -0.1227
  S  S37  1  0.500000  0.681000  0.942900  1.0  -0.1135
  S  S38  1  0.500000  0.497300  0.176900  1.0  -0.1134
  S  S39  1  0.500000  0.319000  0.057100  1.0  -0.1141
  S  S40  1  0.500000  0.502700  0.823100  1.0  -0.1133
  S  S41  1  0.000000  0.819000  0.442900  1.0  -0.1144
  S  S42  1  0.000000  0.002700  0.676900  1.0  -0.1197
  S  S43  1  0.000000  0.181000  0.557100  1.0  -0.1134
  S  S44  1  0.000000  0.997300  0.323100  1.0  -0.1201
  N  N45  1  0.846200  0.372100  0.171700  1.0  -0.4772
  N  N46  1  0.846200  0.627900  0.828300  1.0  -0.4767
  N  N47  1  0.653800  0.127900  0.671700  1.0  -0.4772
  N  N48  1  0.653800  0.872100  0.328300  1.0  -0.4772
  N  N49  1  0.153800  0.627900  0.828300  1.0  -0.477
  N  N50  1  0.153800  0.372100  0.171700  1.0  -0.4775
  N  N51  1  0.346200  0.872100  0.328300  1.0  -0.4771
  N  N52  1  0.346200  0.127900  0.671700  1.0  -0.4769
  N  N53  1  0.500000  0.758000  0.192000  1.0  -0.5258
  N  N54  1  0.500000  0.242000  0.808000  1.0  -0.5272
  N  N55  1  0.000000  0.742000  0.692000  1.0  -0.5256
  N  N56  1  0.000000  0.258000  0.308000  1.0  -0.5273
