# generated using pymatgen
data_Ag3H24(C5N6)4
_symmetry_space_group_name_H-M   'P 1'
_cell_length_a   10.68500000
_cell_length_b   11.82100000
_cell_length_c   36.62500000
_cell_angle_alpha   90.00000000
_cell_angle_beta   90.00000000
_cell_angle_gamma   90.00000000
_symmetry_Int_Tables_number   1
_chemical_formula_structural   Ag3H24(C5N6)4
_chemical_formula_sum   'Ag12 H96 C80 N96'
_cell_volume   4626.00797562
_cell_formula_units_Z   4
loop_
 _symmetry_equiv_pos_site_id
 _symmetry_equiv_pos_as_xyz
  1  'x, y, z'
loop_
 _atom_site_type_symbol
 _atom_site_label
 _atom_site_symmetry_multiplicity
 _atom_site_fract_x
 _atom_site_fract_y
 _atom_site_fract_z
 _atom_site_occupancy
 _atom_site_charge
  Ag  Ag1  1  0.403180  0.439740  0.709890  1.0  0.3783
  Ag  Ag2  1  0.360500  0.861990  0.556540  1.0  0.4021
  Ag  Ag3  1  0.394050  0.329450  0.359670  1.0  0.3756
  Ag  Ag4  1  0.894050  0.170550  0.640330  1.0  0.3757
  Ag  Ag5  1  0.903180  0.060260  0.290110  1.0  0.3775
  Ag  Ag6  1  0.860500  0.638010  0.443460  1.0  0.4023
  Ag  Ag7  1  0.105950  0.670550  0.859670  1.0  0.3758
  Ag  Ag8  1  0.096820  0.560260  0.209890  1.0  0.378
  Ag  Ag9  1  0.139500  0.138010  0.056540  1.0  0.402
  Ag  Ag10  1  0.596820  0.939740  0.790110  1.0  0.3773
  Ag  Ag11  1  0.639500  0.361990  0.943460  1.0  0.4022
  Ag  Ag12  1  0.605950  0.829450  0.140330  1.0  0.3756
  H  H13  1  0.591360  0.321460  0.562840  1.0  0.0824
  H  H14  1  0.729090  0.288360  0.570920  1.0  0.1102
  H  H15  1  0.716700  0.339240  0.693010  1.0  0.0654
  H  H16  1  0.457530  0.385890  0.619760  1.0  0.0661
  H  H17  1  0.665230  0.910570  0.584440  1.0  0.0586
  H  H18  1  0.439750  0.150750  0.553000  1.0  0.052
  H  H19  1  0.075840  0.629680  0.673710  1.0  0.109
  H  H20  1  0.191930  0.600430  0.697330  1.0  0.1176
  H  H21  1  0.196920  0.223930  0.674250  1.0  0.051
  H  H22  1  0.947560  0.453540  0.651540  1.0  0.0687
  H  H23  1  0.481810  0.649950  0.608120  1.0  0.0517
  H  H24  1  0.135180  0.746280  0.615820  1.0  0.0678
  H  H25  1  0.328000  0.736440  0.257120  1.0  0.1142
  H  H26  1  0.320330  0.770860  0.297930  1.0  0.113
  H  H27  1  0.933570  0.819410  0.226260  1.0  0.0448
  H  H28  1  0.129610  0.894320  0.312840  1.0  0.0741
  H  H29  1  0.272190  0.363350  0.272300  1.0  0.0689
  H  H30  1  0.344660  0.603220  0.341820  1.0  0.0597
  H  H31  1  0.579550  0.438830  0.504490  1.0  0.0957
  H  H32  1  0.714220  0.478020  0.494960  1.0  0.1017
  H  H33  1  0.666100  0.488640  0.372600  1.0  0.048
  H  H34  1  0.424100  0.407830  0.447020  1.0  0.0695
  H  H35  1  0.638020  0.857090  0.497600  1.0  0.0487
  H  H36  1  0.433310  0.599780  0.528090  1.0  0.0609
  H  H37  1  0.828000  0.763560  0.742880  1.0  0.1134
  H  H38  1  0.820330  0.729140  0.702070  1.0  0.1133
  H  H39  1  0.433570  0.680590  0.773740  1.0  0.0444
  H  H40  1  0.629610  0.605680  0.687160  1.0  0.0733
  H  H41  1  0.772190  0.136650  0.727700  1.0  0.0695
  H  H42  1  0.844660  0.896780  0.658180  1.0  0.0602
  H  H43  1  0.079550  0.061170  0.495510  1.0  0.0955
  H  H44  1  0.214220  0.021980  0.505040  1.0  0.1027
  H  H45  1  0.166100  0.011360  0.627400  1.0  0.0479
  H  H46  1  0.924100  0.092170  0.552980  1.0  0.0694
  H  H47  1  0.138020  0.642910  0.502400  1.0  0.0485
  H  H48  1  0.933310  0.900220  0.471910  1.0  0.0605
  H  H49  1  0.091360  0.178540  0.437160  1.0  0.0824
  H  H50  1  0.229090  0.211640  0.429080  1.0  0.1107
  H  H51  1  0.216700  0.160760  0.306990  1.0  0.0653
  H  H52  1  0.957530  0.114110  0.380240  1.0  0.0668
  H  H53  1  0.165230  0.589430  0.415560  1.0  0.0598
  H  H54  1  0.939750  0.349250  0.447000  1.0  0.0521
  H  H55  1  0.575840  0.870320  0.326290  1.0  0.1095
  H  H56  1  0.691930  0.899570  0.302670  1.0  0.1173
  H  H57  1  0.696920  0.276070  0.325750  1.0  0.0515
  H  H58  1  0.447560  0.046460  0.348460  1.0  0.0689
  H  H59  1  0.981810  0.850050  0.391880  1.0  0.0515
  H  H60  1  0.635180  0.753720  0.384180  1.0  0.068
  H  H61  1  0.172000  0.263560  0.757120  1.0  0.1134
  H  H62  1  0.179670  0.229140  0.797930  1.0  0.1143
  H  H63  1  0.566430  0.180590  0.726260  1.0  0.045
  H  H64  1  0.370390  0.105680  0.812840  1.0  0.0748
  H  H65  1  0.227810  0.636650  0.772300  1.0  0.07
  H  H66  1  0.155340  0.396780  0.841820  1.0  0.0603
  H  H67  1  0.920450  0.561170  0.004490  1.0  0.0948
  H  H68  1  0.785780  0.521980  0.994960  1.0  0.1058
  H  H69  1  0.833900  0.511360  0.872600  1.0  0.0472
  H  H70  1  0.075900  0.592170  0.947020  1.0  0.0693
  H  H71  1  0.861980  0.142910  0.997600  1.0  0.0481
  H  H72  1  0.066690  0.400220  0.028090  1.0  0.0605
  H  H73  1  0.908640  0.678540  0.062840  1.0  0.0814
  H  H74  1  0.770910  0.711640  0.070920  1.0  0.1131
  H  H75  1  0.783300  0.660760  0.193010  1.0  0.0667
  H  H76  1  0.042470  0.614110  0.119760  1.0  0.0662
  H  H77  1  0.834770  0.089430  0.084440  1.0  0.0599
  H  H78  1  0.060250  0.849250  0.053000  1.0  0.0514
  H  H79  1  0.424160  0.370320  0.173710  1.0  0.1095
  H  H80  1  0.308070  0.399570  0.197330  1.0  0.1178
  H  H81  1  0.303080  0.776070  0.174250  1.0  0.0509
  H  H82  1  0.552440  0.546460  0.151540  1.0  0.068
  H  H83  1  0.018190  0.350050  0.108120  1.0  0.0517
  H  H84  1  0.364820  0.253720  0.115820  1.0  0.0668
  H  H85  1  0.408640  0.821460  0.937160  1.0  0.0817
  H  H86  1  0.270910  0.788360  0.929080  1.0  0.1126
  H  H87  1  0.283300  0.839240  0.806990  1.0  0.067
  H  H88  1  0.542470  0.885890  0.880240  1.0  0.0668
  H  H89  1  0.334770  0.410570  0.915560  1.0  0.0585
  H  H90  1  0.560250  0.650750  0.947000  1.0  0.0519
  H  H91  1  0.924160  0.129680  0.826290  1.0  0.1101
  H  H92  1  0.808070  0.100430  0.802670  1.0  0.1172
  H  H93  1  0.803080  0.723930  0.825750  1.0  0.05
  H  H94  1  0.052440  0.953540  0.848460  1.0  0.0687
  H  H95  1  0.518190  0.149950  0.891880  1.0  0.0521
  H  H96  1  0.864820  0.246280  0.884180  1.0  0.0671
  H  H97  1  0.672000  0.236440  0.242880  1.0  0.1136
  H  H98  1  0.679670  0.270860  0.202070  1.0  0.1138
  H  H99  1  0.066430  0.319410  0.273740  1.0  0.0448
  H  H100  1  0.870390  0.394320  0.187160  1.0  0.073
  H  H101  1  0.727810  0.863350  0.227700  1.0  0.0704
  H  H102  1  0.655340  0.103220  0.158180  1.0  0.0606
  H  H103  1  0.420450  0.938830  0.995510  1.0  0.0955
  H  H104  1  0.285780  0.978020  0.005040  1.0  0.1062
  H  H105  1  0.333900  0.988640  0.127400  1.0  0.0476
  H  H106  1  0.575900  0.907830  0.052980  1.0  0.0691
  H  H107  1  0.361980  0.357090  0.002400  1.0  0.0494
  H  H108  1  0.566690  0.099780  0.971910  1.0  0.0609
  C  C109  1  0.644800  0.278100  0.578200  1.0  -0.0333
  C  C110  1  0.672900  0.338900  0.670300  1.0  0.2125
  C  C111  1  0.533200  0.364700  0.631600  1.0  0.1076
  C  C112  1  0.631500  0.983800  0.579700  1.0  0.2128
  C  C113  1  0.509000  0.109900  0.562600  1.0  0.1147
  C  C114  1  0.153400  0.587800  0.673800  1.0  -0.0232
  C  C115  1  0.158900  0.295400  0.670700  1.0  0.2132
  C  C116  1  0.023700  0.416900  0.658300  1.0  0.0741
  C  C117  1  0.398000  0.657300  0.616500  1.0  0.2398
  C  C118  1  0.212900  0.709600  0.619900  1.0  0.0677
  C  C119  1  0.281500  0.728500  0.279300  1.0  -0.0517
  C  C120  1  0.998200  0.818100  0.244100  1.0  0.206
  C  C121  1  0.101400  0.860100  0.290600  1.0  0.0474
  C  C122  1  0.280900  0.437100  0.282500  1.0  0.1563
  C  C123  1  0.319800  0.563500  0.320400  1.0  0.0819
  C  C124  1  0.626600  0.491300  0.489600  1.0  -0.0332
  C  C125  1  0.630500  0.475200  0.395900  1.0  0.2143
  C  C126  1  0.497800  0.431900  0.434700  1.0  0.071
  C  C127  1  0.607900  0.782300  0.500600  1.0  0.2371
  C  C128  1  0.497000  0.645500  0.517500  1.0  0.1032
  C  C129  1  0.781500  0.771500  0.720700  1.0  -0.0513
  C  C130  1  0.498200  0.681900  0.755900  1.0  0.2059
  C  C131  1  0.601400  0.639900  0.709400  1.0  0.048
  C  C132  1  0.780900  0.062900  0.717500  1.0  0.1551
  C  C133  1  0.819800  0.936500  0.679600  1.0  0.0821
  C  C134  1  0.126600  0.008700  0.510400  1.0  -0.0324
  C  C135  1  0.130500  0.024800  0.604100  1.0  0.2144
  C  C136  1  0.997800  0.068100  0.565300  1.0  0.0709
  C  C137  1  0.107900  0.717700  0.499400  1.0  0.2366
  C  C138  1  0.997000  0.854500  0.482500  1.0  0.1031
  C  C139  1  0.144800  0.221900  0.421800  1.0  -0.0341
  C  C140  1  0.172900  0.161100  0.329700  1.0  0.2117
  C  C141  1  0.033200  0.135300  0.368400  1.0  0.1077
  C  C142  1  0.131500  0.516200  0.420300  1.0  0.2131
  C  C143  1  0.009000  0.390100  0.437400  1.0  0.1133
  C  C144  1  0.653400  0.912200  0.326200  1.0  -0.0216
  C  C145  1  0.658900  0.204600  0.329300  1.0  0.2124
  C  C146  1  0.523700  0.083100  0.341700  1.0  0.074
  C  C147  1  0.898000  0.842700  0.383500  1.0  0.2404
  C  C148  1  0.712900  0.790400  0.380100  1.0  0.0679
  C  C149  1  0.218500  0.271500  0.779300  1.0  -0.0496
  C  C150  1  0.501800  0.181900  0.744100  1.0  0.2058
  C  C151  1  0.398600  0.139900  0.790600  1.0  0.0461
  C  C152  1  0.219100  0.562900  0.782500  1.0  0.1565
  C  C153  1  0.180200  0.436500  0.820400  1.0  0.0815
  C  C154  1  0.873400  0.508700  0.989600  1.0  -0.0314
  C  C155  1  0.869500  0.524800  0.895900  1.0  0.2149
  C  C156  1  0.002200  0.568100  0.934700  1.0  0.0705
  C  C157  1  0.892100  0.217700  0.000600  1.0  0.237
  C  C158  1  0.003000  0.354500  0.017500  1.0  0.1042
  C  C159  1  0.855200  0.721900  0.078200  1.0  -0.0322
  C  C160  1  0.827100  0.661100  0.170300  1.0  0.2134
  C  C161  1  0.966800  0.635300  0.131600  1.0  0.1093
  C  C162  1  0.868500  0.016200  0.079700  1.0  0.2126
  C  C163  1  0.991000  0.890100  0.062600  1.0  0.1166
  C  C164  1  0.346600  0.412200  0.173800  1.0  -0.0245
  C  C165  1  0.341100  0.704600  0.170700  1.0  0.2118
  C  C166  1  0.476300  0.583100  0.158300  1.0  0.0751
  C  C167  1  0.102000  0.342700  0.116500  1.0  0.2403
  C  C168  1  0.287100  0.290400  0.119900  1.0  0.0685
  C  C169  1  0.355200  0.778100  0.921800  1.0  -0.0346
  C  C170  1  0.327100  0.838900  0.829700  1.0  0.2121
  C  C171  1  0.466800  0.864700  0.868400  1.0  0.1085
  C  C172  1  0.368500  0.483800  0.920300  1.0  0.2122
  C  C173  1  0.491000  0.609900  0.937400  1.0  0.1158
  C  C174  1  0.846600  0.087800  0.826200  1.0  -0.0236
  C  C175  1  0.841100  0.795400  0.829300  1.0  0.2129
  C  C176  1  0.976300  0.916900  0.841700  1.0  0.0757
  C  C177  1  0.602000  0.157300  0.883500  1.0  0.2403
  C  C178  1  0.787100  0.209600  0.880100  1.0  0.0672
  C  C179  1  0.718500  0.228500  0.220700  1.0  -0.0502
  C  C180  1  0.001800  0.318100  0.255900  1.0  0.2058
  C  C181  1  0.898600  0.360100  0.209400  1.0  0.0485
  C  C182  1  0.719100  0.937100  0.217500  1.0  0.1572
  C  C183  1  0.680200  0.063500  0.179600  1.0  0.0823
  C  C184  1  0.373400  0.991300  0.010400  1.0  -0.0306
  C  C185  1  0.369500  0.975200  0.104100  1.0  0.2139
  C  C186  1  0.502200  0.931900  0.065300  1.0  0.0703
  C  C187  1  0.392100  0.282300  0.999400  1.0  0.2363
  C  C188  1  0.503000  0.145500  0.982500  1.0  0.1039
  N  N189  1  0.629900  0.314500  0.615500  1.0  0.1531
  N  N190  1  0.722400  0.297700  0.640800  1.0  -0.3806
  N  N191  1  0.556300  0.381700  0.666900  1.0  -0.4705
  N  N192  1  0.612000  0.157900  0.574700  1.0  0.1758
  N  N193  1  0.692400  0.077400  0.586500  1.0  -0.3772
  N  N194  1  0.511800  0.999700  0.565200  1.0  -0.4483
  N  N195  1  0.127300  0.468800  0.669500  1.0  0.1545
  N  N196  1  0.216300  0.391100  0.678000  1.0  -0.3604
  N  N197  1  0.041500  0.307600  0.658000  1.0  -0.4158
  N  N198  1  0.234500  0.632100  0.645600  1.0  0.1675
  N  N199  1  0.356200  0.596700  0.643400  1.0  -0.3917
  N  N200  1  0.317300  0.727500  0.601500  1.0  -0.3868
  N  N201  1  0.157600  0.773300  0.273300  1.0  0.1732
  N  N202  1  0.090700  0.746800  0.242900  1.0  -0.3866
  N  N203  1  0.001800  0.890400  0.272600  1.0  -0.4045
  N  N204  1  0.281500  0.610500  0.289500  1.0  0.1531
  N  N205  1  0.256500  0.529800  0.263800  1.0  -0.3877
  N  N206  1  0.319100  0.453700  0.317700  1.0  -0.4236
  N  N207  1  0.602600  0.470500  0.451400  1.0  0.1364
  N  N208  1  0.689700  0.497800  0.425800  1.0  -0.3951
  N  N209  1  0.513400  0.431600  0.400300  1.0  -0.4181
  N  N210  1  0.594200  0.604500  0.498700  1.0  0.14
  N  N211  1  0.665300  0.692800  0.487000  1.0  -0.3813
  N  N212  1  0.501900  0.756400  0.519200  1.0  -0.412
  N  N213  1  0.657600  0.726700  0.726700  1.0  0.1737
  N  N214  1  0.590700  0.753200  0.757100  1.0  -0.3894
  N  N215  1  0.501800  0.609600  0.727400  1.0  -0.404
  N  N216  1  0.781500  0.889500  0.710500  1.0  0.1536
  N  N217  1  0.756500  0.970200  0.736200  1.0  -0.389
  N  N218  1  0.819100  0.046300  0.682300  1.0  -0.425
  N  N219  1  0.102600  0.029500  0.548600  1.0  0.1368
  N  N220  1  0.189700  0.002200  0.574200  1.0  -0.3948
  N  N221  1  0.013400  0.068400  0.599700  1.0  -0.419
  N  N222  1  0.094200  0.895500  0.501300  1.0  0.1407
  N  N223  1  0.165300  0.807200  0.513000  1.0  -0.3793
  N  N224  1  0.001900  0.743600  0.480800  1.0  -0.4118
  N  N225  1  0.129900  0.185500  0.384500  1.0  0.1539
  N  N226  1  0.222400  0.202300  0.359200  1.0  -0.3807
  N  N227  1  0.056300  0.118300  0.333100  1.0  -0.4689
  N  N228  1  0.112000  0.342100  0.425300  1.0  0.1767
  N  N229  1  0.192400  0.422600  0.413500  1.0  -0.3773
  N  N230  1  0.011800  0.500300  0.434800  1.0  -0.4483
  N  N231  1  0.627300  0.031200  0.330500  1.0  0.1546
  N  N232  1  0.716300  0.108900  0.322000  1.0  -0.3598
  N  N233  1  0.541500  0.192400  0.342000  1.0  -0.4163
  N  N234  1  0.734500  0.867900  0.354400  1.0  0.1682
  N  N235  1  0.856200  0.903300  0.356600  1.0  -0.3927
  N  N236  1  0.817300  0.772500  0.398500  1.0  -0.3883
  N  N237  1  0.342400  0.226700  0.773300  1.0  0.1737
  N  N238  1  0.409300  0.253200  0.742900  1.0  -0.3865
  N  N239  1  0.498200  0.109600  0.772600  1.0  -0.4035
  N  N240  1  0.218500  0.389500  0.789500  1.0  0.1526
  N  N241  1  0.243500  0.470200  0.763800  1.0  -0.3868
  N  N242  1  0.180900  0.546300  0.817700  1.0  -0.425
  N  N243  1  0.897400  0.529500  0.951400  1.0  0.1372
  N  N244  1  0.810300  0.502200  0.925800  1.0  -0.3987
  N  N245  1  0.986600  0.568400  0.900300  1.0  -0.4181
  N  N246  1  0.905800  0.395500  0.998700  1.0  0.1393
  N  N247  1  0.834700  0.307200  0.987000  1.0  -0.3757
  N  N248  1  0.998100  0.243600  0.019200  1.0  -0.4115
  N  N249  1  0.870100  0.685500  0.115500  1.0  0.1534
  N  N250  1  0.777600  0.702300  0.140800  1.0  -0.3788
  N  N251  1  0.943700  0.618300  0.166900  1.0  -0.4703
  N  N252  1  0.888000  0.842100  0.074700  1.0  0.1757
  N  N253  1  0.807600  0.922600  0.086500  1.0  -0.3753
  N  N254  1  0.988200  0.000300  0.065200  1.0  -0.448
  N  N255  1  0.372700  0.531200  0.169500  1.0  0.1547
  N  N256  1  0.283700  0.608900  0.178000  1.0  -0.3579
  N  N257  1  0.458500  0.692400  0.158000  1.0  -0.415
  N  N258  1  0.265500  0.367900  0.145600  1.0  0.1683
  N  N259  1  0.143800  0.403300  0.143400  1.0  -0.3911
  N  N260  1  0.182700  0.272500  0.101500  1.0  -0.3862
  N  N261  1  0.370100  0.814500  0.884500  1.0  0.1532
  N  N262  1  0.277600  0.797700  0.859200  1.0  -0.3799
  N  N263  1  0.443700  0.881700  0.833100  1.0  -0.4691
  N  N264  1  0.388000  0.657900  0.925300  1.0  0.176
  N  N265  1  0.307600  0.577400  0.913500  1.0  -0.3754
  N  N266  1  0.488200  0.499700  0.934800  1.0  -0.4462
  N  N267  1  0.872700  0.968800  0.830500  1.0  0.1548
  N  N268  1  0.783700  0.891100  0.822000  1.0  -0.3575
  N  N269  1  0.958500  0.807600  0.842000  1.0  -0.4153
  N  N270  1  0.765500  0.132100  0.854400  1.0  0.1681
  N  N271  1  0.643800  0.096700  0.856600  1.0  -0.391
  N  N272  1  0.682700  0.227500  0.898500  1.0  -0.3888
  N  N273  1  0.842400  0.273300  0.226700  1.0  0.1738
  N  N274  1  0.909300  0.246800  0.257100  1.0  -0.3878
  N  N275  1  0.998200  0.390400  0.227400  1.0  -0.4033
  N  N276  1  0.718500  0.110500  0.210500  1.0  0.1531
  N  N277  1  0.743500  0.029800  0.236200  1.0  -0.3895
  N  N278  1  0.680900  0.953700  0.182300  1.0  -0.4242
  N  N279  1  0.397400  0.970500  0.048600  1.0  0.1363
  N  N280  1  0.310300  0.997800  0.074200  1.0  -0.3996
  N  N281  1  0.486600  0.931600  0.099700  1.0  -0.4185
  N  N282  1  0.405800  0.104500  0.001300  1.0  0.1402
  N  N283  1  0.334700  0.192800  0.013000  1.0  -0.3764
  N  N284  1  0.498100  0.256400  0.980800  1.0  -0.4123
