# generated using pymatgen
data_Fe4P4N(O8F)2
_symmetry_space_group_name_H-M   'P 1'
_cell_length_a   9.90450000
_cell_length_b   12.30110000
_cell_length_c   17.32200000
_cell_angle_alpha   90.00000000
_cell_angle_beta   103.70100000
_cell_angle_gamma   90.00000000
_symmetry_Int_Tables_number   1
_chemical_formula_structural   Fe4P4N(O8F)2
_chemical_formula_sum   'Fe16 P16 N4 O64 F8'
_cell_volume   2050.39462423
_cell_formula_units_Z   4
loop_
 _symmetry_equiv_pos_site_id
 _symmetry_equiv_pos_as_xyz
  1  'x, y, z'
loop_
 _atom_site_type_symbol
 _atom_site_label
 _atom_site_symmetry_multiplicity
 _atom_site_fract_x
 _atom_site_fract_y
 _atom_site_fract_z
 _atom_site_occupancy
 _atom_site_charge
  Fe  Fe1  1  0.755600  0.577300  0.221300  1.0  1.5902
  Fe  Fe2  1  0.562500  0.525800  0.370800  1.0  1.4872
  Fe  Fe3  1  0.867500  0.352600  0.924700  1.0  1.4696
  Fe  Fe4  1  0.030900  0.389600  0.290700  1.0  1.4197
  Fe  Fe5  1  0.744400  0.077300  0.278700  1.0  1.5893
  Fe  Fe6  1  0.937500  0.025800  0.129200  1.0  1.4858
  Fe  Fe7  1  0.632500  0.852600  0.575300  1.0  1.4677
  Fe  Fe8  1  0.469100  0.889600  0.209300  1.0  1.4205
  Fe  Fe9  1  0.244400  0.422700  0.778700  1.0  1.5894
  Fe  Fe10  1  0.437500  0.474200  0.629200  1.0  1.482
  Fe  Fe11  1  0.132500  0.647400  0.075300  1.0  1.4701
  Fe  Fe12  1  0.969100  0.610400  0.709300  1.0  1.4212
  Fe  Fe13  1  0.255600  0.922700  0.721300  1.0  1.5905
  Fe  Fe14  1  0.062500  0.974200  0.870800  1.0  1.4836
  Fe  Fe15  1  0.367500  0.147400  0.424700  1.0  1.4718
  Fe  Fe16  1  0.530900  0.110400  0.790700  1.0  1.4203
  P  P17  1  0.300100  0.414200  0.440600  1.0  1.6136
  P  P18  1  0.779300  0.844900  0.204200  1.0  1.7917
  P  P19  1  0.437800  0.624600  0.192000  1.0  1.8167
  P  P20  1  0.914300  0.457700  0.106200  1.0  1.8386
  P  P21  1  0.199900  0.914200  0.059400  1.0  1.6138
  P  P22  1  0.720700  0.344900  0.295800  1.0  1.7904
  P  P23  1  0.062200  0.124600  0.308000  1.0  1.8191
  P  P24  1  0.585700  0.957700  0.393800  1.0  1.8375
  P  P25  1  0.699900  0.585800  0.559400  1.0  1.6105
  P  P26  1  0.220700  0.155100  0.795800  1.0  1.7932
  P  P27  1  0.562200  0.375400  0.808000  1.0  1.8187
  P  P28  1  0.085700  0.542300  0.893800  1.0  1.8376
  P  P29  1  0.800100  0.085800  0.940600  1.0  1.6132
  P  P30  1  0.279300  0.655100  0.704200  1.0  1.7942
  P  P31  1  0.937800  0.875400  0.692000  1.0  1.8166
  P  P32  1  0.414300  0.042300  0.606200  1.0  1.8386
  N  N33  1  0.627100  0.603700  0.603700  1.0  -0.4303
  N  N34  1  0.872900  0.103700  0.896300  1.0  -0.4296
  N  N35  1  0.372900  0.396300  0.396300  1.0  -0.4299
  N  N36  1  0.127100  0.896300  0.103700  1.0  -0.4304
  O  O37  1  0.571200  0.617200  0.162500  1.0  -0.67
  O  O38  1  0.827200  0.729000  0.231600  1.0  -0.6833
  O  O39  1  0.810700  0.546500  0.119600  1.0  -0.6833
  O  O40  1  0.809400  0.923200  0.275500  1.0  -0.7069
  O  O41  1  0.400700  0.460800  0.395800  1.0  -0.6809
  O  O42  1  0.316000  0.470600  0.520800  1.0  -0.7707
  O  O43  1  0.864200  0.879700  0.143800  1.0  -0.7165
  O  O44  1  0.443500  0.547100  0.262100  1.0  -0.7499
  O  O45  1  0.853600  0.399400  0.028800  1.0  -0.7146
  O  O46  1  0.328500  0.292700  0.455300  1.0  -0.838
  O  O47  1  0.051700  0.512300  0.102900  1.0  -0.8117
  O  O48  1  0.317300  0.589000  0.122400  1.0  -0.6818
  O  O49  1  0.408200  0.740000  0.215600  1.0  -0.7749
  O  O50  1  0.150600  0.430100  0.393000  1.0  -0.756
  O  O51  1  0.624100  0.848000  0.163300  1.0  -0.7051
  O  O52  1  0.942500  0.375300  0.174100  1.0  -0.7359
  O  O53  1  0.928800  0.117200  0.337500  1.0  -0.6703
  O  O54  1  0.672800  0.229000  0.268400  1.0  -0.684
  O  O55  1  0.689300  0.046500  0.380400  1.0  -0.6827
  O  O56  1  0.690600  0.423200  0.224500  1.0  -0.7071
  O  O57  1  0.099300  0.960800  0.104200  1.0  -0.6804
  O  O58  1  0.184000  0.970600  0.979200  1.0  -0.7705
  O  O59  1  0.635800  0.379700  0.356200  1.0  -0.7168
  O  O60  1  0.056500  0.047100  0.237900  1.0  -0.7505
  O  O61  1  0.646400  0.899400  0.471200  1.0  -0.7143
  O  O62  1  0.171500  0.792700  0.044700  1.0  -0.8362
  O  O63  1  0.448300  0.012300  0.397100  1.0  -0.8113
  O  O64  1  0.182700  0.089000  0.377600  1.0  -0.6803
  O  O65  1  0.091800  0.240000  0.284400  1.0  -0.7707
  O  O66  1  0.349400  0.930100  0.107000  1.0  -0.7627
  O  O67  1  0.875900  0.348000  0.336700  1.0  -0.7045
  O  O68  1  0.557500  0.875300  0.325900  1.0  -0.736
  O  O69  1  0.428800  0.382800  0.837500  1.0  -0.6706
  O  O70  1  0.172800  0.271000  0.768400  1.0  -0.6842
  O  O71  1  0.189300  0.453500  0.880400  1.0  -0.6838
  O  O72  1  0.190600  0.076800  0.724500  1.0  -0.7069
  O  O73  1  0.599300  0.539200  0.604200  1.0  -0.68
  O  O74  1  0.684000  0.529400  0.479200  1.0  -0.7703
  O  O75  1  0.135800  0.120300  0.856200  1.0  -0.716
  O  O76  1  0.556500  0.452900  0.737900  1.0  -0.7514
  O  O77  1  0.146400  0.600600  0.971200  1.0  -0.7138
  O  O78  1  0.671500  0.707300  0.544700  1.0  -0.837
  O  O79  1  0.948300  0.487700  0.897100  1.0  -0.8112
  O  O80  1  0.682700  0.411000  0.877600  1.0  -0.6794
  O  O81  1  0.591800  0.260000  0.784400  1.0  -0.771
  O  O82  1  0.849400  0.569900  0.607000  1.0  -0.7613
  O  O83  1  0.375900  0.152000  0.836700  1.0  -0.7046
  O  O84  1  0.057500  0.624700  0.825900  1.0  -0.7367
  O  O85  1  0.071200  0.882800  0.662500  1.0  -0.6704
  O  O86  1  0.327200  0.771000  0.731600  1.0  -0.6837
  O  O87  1  0.310700  0.953500  0.619600  1.0  -0.6845
  O  O88  1  0.309400  0.576800  0.775500  1.0  -0.7073
  O  O89  1  0.900700  0.039200  0.895800  1.0  -0.6797
  O  O90  1  0.816000  0.029400  0.020800  1.0  -0.7699
  O  O91  1  0.364200  0.620300  0.643800  1.0  -0.7159
  O  O92  1  0.943500  0.952900  0.762100  1.0  -0.7509
  O  O93  1  0.353600  0.100600  0.528800  1.0  -0.7141
  O  O94  1  0.828500  0.207300  0.955300  1.0  -0.8395
  O  O95  1  0.551700  0.987700  0.602900  1.0  -0.8117
  O  O96  1  0.817300  0.911000  0.622400  1.0  -0.6808
  O  O97  1  0.908200  0.760000  0.715600  1.0  -0.7743
  O  O98  1  0.650600  0.069900  0.893000  1.0  -0.7547
  O  O99  1  0.124100  0.652000  0.663300  1.0  -0.7052
  O  O100  1  0.442500  0.124700  0.674100  1.0  -0.7364
  F  F101  1  0.714500  0.593800  0.328000  1.0  -0.4655
  F  F102  1  0.949600  0.538600  0.278800  1.0  -0.4479
  F  F103  1  0.785500  0.093800  0.172000  1.0  -0.467
  F  F104  1  0.550400  0.038600  0.221200  1.0  -0.4506
  F  F105  1  0.285500  0.406200  0.672000  1.0  -0.4684
  F  F106  1  0.050400  0.461400  0.721200  1.0  -0.4511
  F  F107  1  0.214500  0.906200  0.828000  1.0  -0.4669
  F  F108  1  0.449600  0.961400  0.778800  1.0  -0.4499
