# generated using pymatgen
data_ZnH6C11N3O4
_symmetry_space_group_name_H-M   'P 1'
_cell_length_a   10.08480000
_cell_length_b   19.36800000
_cell_length_c   16.21100000
_cell_angle_alpha   114.70100000
_cell_angle_beta   90.00000000
_cell_angle_gamma   90.00000000
_symmetry_Int_Tables_number   1
_chemical_formula_structural   ZnH6C11N3O4
_chemical_formula_sum   'Zn8 H48 C88 N24 O32'
_cell_volume   2876.65133495
_cell_formula_units_Z   8
loop_
 _symmetry_equiv_pos_site_id
 _symmetry_equiv_pos_as_xyz
  1  'x, y, z'
loop_
 _atom_site_type_symbol
 _atom_site_label
 _atom_site_symmetry_multiplicity
 _atom_site_fract_x
 _atom_site_fract_y
 _atom_site_fract_z
 _atom_site_occupancy
 _atom_site_charge
  Zn  Zn1  1  0.028080  0.546840  0.681540  1.0  0.9871
  Zn  Zn2  1  0.020000  0.990100  0.336090  1.0  0.9918
  Zn  Zn3  1  0.528080  0.453160  0.818460  1.0  0.9869
  Zn  Zn4  1  0.520000  0.009900  0.163910  1.0  0.9931
  Zn  Zn5  1  0.971920  0.453160  0.318460  1.0  0.9854
  Zn  Zn6  1  0.980000  0.009900  0.663910  1.0  0.9922
  Zn  Zn7  1  0.471920  0.546840  0.181540  1.0  0.9859
  Zn  Zn8  1  0.480000  0.990100  0.836090  1.0  0.9909
  H  H9  1  0.295800  0.966800  0.540100  1.0  0.1049
  H  H10  1  0.974900  0.645100  0.588700  1.0  0.0922
  H  H11  1  0.726800  0.583400  0.733400  1.0  0.0926
  H  H12  1  0.619500  0.773700  0.331300  1.0  0.121
  H  H13  1  0.977200  0.871000  0.412100  1.0  0.0922
  H  H14  1  0.588400  0.699200  0.596100  1.0  0.1067
  H  H15  1  0.552800  0.641800  0.695400  1.0  0.1231
  H  H16  1  0.761200  0.929100  0.248700  1.0  0.0828
  H  H17  1  0.592300  0.849300  0.249800  1.0  0.1348
  H  H18  1  0.592700  0.779700  0.564700  1.0  0.334
  H  H19  1  0.597800  0.820900  0.502700  1.0  0.3289
  H  H20  1  0.168200  0.570000  0.972300  1.0  0.1162
  H  H21  1  0.795800  0.033200  0.959900  1.0  0.1051
  H  H22  1  0.474900  0.354900  0.911300  1.0  0.0916
  H  H23  1  0.226800  0.416600  0.766600  1.0  0.0921
  H  H24  1  0.119500  0.226300  0.168700  1.0  0.1216
  H  H25  1  0.477200  0.129000  0.087900  1.0  0.0926
  H  H26  1  0.088400  0.300800  0.903900  1.0  0.107
  H  H27  1  0.052800  0.358200  0.804600  1.0  0.1234
  H  H28  1  0.261200  0.070900  0.251300  1.0  0.0838
  H  H29  1  0.092300  0.150700  0.250200  1.0  0.1349
  H  H30  1  0.092700  0.220300  0.935300  1.0  0.3326
  H  H31  1  0.097800  0.179100  0.997300  1.0  0.3302
  H  H32  1  0.668200  0.430000  0.527700  1.0  0.1164
  H  H33  1  0.704200  0.033200  0.459900  1.0  0.1055
  H  H34  1  0.025100  0.354900  0.411300  1.0  0.0921
  H  H35  1  0.273200  0.416600  0.266600  1.0  0.0917
  H  H36  1  0.380500  0.226300  0.668700  1.0  0.1216
  H  H37  1  0.022800  0.129000  0.587900  1.0  0.0926
  H  H38  1  0.411600  0.300800  0.403900  1.0  0.1072
  H  H39  1  0.447200  0.358200  0.304600  1.0  0.1218
  H  H40  1  0.238800  0.070900  0.751300  1.0  0.0833
  H  H41  1  0.407700  0.150700  0.750200  1.0  0.135
  H  H42  1  0.407300  0.220300  0.435300  1.0  0.3333
  H  H43  1  0.402200  0.179100  0.497300  1.0  0.3303
  H  H44  1  0.831800  0.430000  0.027700  1.0  0.1165
  H  H45  1  0.204200  0.966800  0.040100  1.0  0.1048
  H  H46  1  0.525100  0.645100  0.088700  1.0  0.0924
  H  H47  1  0.773200  0.583400  0.233400  1.0  0.0921
  H  H48  1  0.880500  0.773700  0.831300  1.0  0.1215
  H  H49  1  0.522800  0.871000  0.912100  1.0  0.0922
  H  H50  1  0.911600  0.699200  0.096100  1.0  0.1068
  H  H51  1  0.947200  0.641800  0.195400  1.0  0.1216
  H  H52  1  0.738800  0.929100  0.748700  1.0  0.0832
  H  H53  1  0.907700  0.849300  0.749800  1.0  0.1351
  H  H54  1  0.907300  0.779700  0.064700  1.0  0.3343
  H  H55  1  0.902200  0.820900  0.002700  1.0  0.329
  H  H56  1  0.331800  0.570000  0.472300  1.0  0.1162
  C  C57  1  0.379000  0.980300  0.523600  1.0  -0.0655
  C  C58  1  0.385500  0.000500  0.451300  1.0  -0.0817
  C  C59  1  0.973400  0.564900  0.867200  1.0  0.6896
  C  C60  1  0.887200  0.643400  0.609100  1.0  0.1562
  C  C61  1  0.259600  0.007400  0.406300  1.0  0.6639
  C  C62  1  0.786100  0.676800  0.580100  1.0  -0.0656
  C  C63  1  0.742700  0.608200  0.694700  1.0  0.1703
  C  C64  1  0.802900  0.814500  0.379200  1.0  -0.0635
  C  C65  1  0.687200  0.807900  0.331300  1.0  -0.0236
  C  C66  1  0.832200  0.766400  0.425600  1.0  0.1969
  C  C67  1  0.898000  0.865900  0.378300  1.0  0.1621
  C  C68  1  0.660000  0.676200  0.613300  1.0  -0.0209
  C  C69  1  0.638800  0.641900  0.671500  1.0  -0.1493
  C  C70  1  0.822300  0.705700  0.513400  1.0  0.1996
  C  C71  1  0.771600  0.900500  0.283700  1.0  0.1738
  C  C72  1  0.671500  0.852400  0.282900  1.0  -0.1577
  C  C73  1  0.980300  0.531100  0.936400  1.0  -0.0724
  C  C74  1  0.877900  0.490200  0.954700  1.0  -0.1201
  C  C75  1  0.744000  0.480400  0.908900  1.0  0.6325
  C  C76  1  0.507300  0.020700  0.426800  1.0  -0.0878
  C  C77  1  0.525800  0.039200  0.345600  1.0  0.67
  C  C78  1  0.099900  0.541100  0.983100  1.0  -0.0724
  C  C79  1  0.879000  0.019700  0.976400  1.0  -0.0662
  C  C80  1  0.885500  0.999500  0.048700  1.0  -0.0789
  C  C81  1  0.473400  0.435100  0.632800  1.0  0.6901
  C  C82  1  0.387200  0.356600  0.890900  1.0  0.1567
  C  C83  1  0.759600  0.992600  0.093700  1.0  0.6642
  C  C84  1  0.286100  0.323200  0.919900  1.0  -0.0664
  C  C85  1  0.242700  0.391800  0.805300  1.0  0.17
  C  C86  1  0.302900  0.185500  0.120800  1.0  -0.0636
  C  C87  1  0.187200  0.192100  0.168700  1.0  -0.0233
  C  C88  1  0.332200  0.233600  0.074400  1.0  0.1971
  C  C89  1  0.398000  0.134100  0.121700  1.0  0.1614
  C  C90  1  0.160000  0.323800  0.886700  1.0  -0.0214
  C  C91  1  0.138800  0.358100  0.828500  1.0  -0.1493
  C  C92  1  0.322300  0.294300  0.986600  1.0  0.1992
  C  C93  1  0.271600  0.099500  0.216300  1.0  0.1732
  C  C94  1  0.171500  0.147600  0.217100  1.0  -0.1568
  C  C95  1  0.480300  0.468900  0.563600  1.0  -0.0727
  C  C96  1  0.377900  0.509800  0.545300  1.0  -0.1197
  C  C97  1  0.244000  0.519600  0.591100  1.0  0.6322
  C  C98  1  0.007300  0.979300  0.073200  1.0  -0.087
  C  C99  1  0.025800  0.960800  0.154400  1.0  0.6697
  C  C100  1  0.599900  0.458900  0.516900  1.0  -0.0724
  C  C101  1  0.621000  0.019700  0.476400  1.0  -0.0664
  C  C102  1  0.614500  0.999500  0.548700  1.0  -0.0751
  C  C103  1  0.026600  0.435100  0.132800  1.0  0.6898
  C  C104  1  0.112800  0.356600  0.390900  1.0  0.1573
  C  C105  1  0.740400  0.992600  0.593700  1.0  0.6671
  C  C106  1  0.213900  0.323200  0.419900  1.0  -0.0643
  C  C107  1  0.257300  0.391800  0.305300  1.0  0.1695
  C  C108  1  0.197100  0.185500  0.620800  1.0  -0.0641
  C  C109  1  0.312800  0.192100  0.668700  1.0  -0.0215
  C  C110  1  0.167800  0.233600  0.574400  1.0  0.1971
  C  C111  1  0.102000  0.134100  0.621700  1.0  0.1606
  C  C112  1  0.340000  0.323800  0.386700  1.0  -0.022
  C  C113  1  0.361200  0.358100  0.328500  1.0  -0.1484
  C  C114  1  0.177700  0.294300  0.486600  1.0  0.2001
  C  C115  1  0.228400  0.099500  0.716300  1.0  0.1732
  C  C116  1  0.328500  0.147600  0.717100  1.0  -0.1568
  C  C117  1  0.019700  0.468900  0.063600  1.0  -0.0733
  C  C118  1  0.122100  0.509800  0.045300  1.0  -0.1193
  C  C119  1  0.256000  0.519600  0.091100  1.0  0.6341
  C  C120  1  0.492700  0.979300  0.573200  1.0  -0.0875
  C  C121  1  0.474200  0.960800  0.654400  1.0  0.6722
  C  C122  1  0.900100  0.458900  0.016900  1.0  -0.0725
  C  C123  1  0.121000  0.980300  0.023600  1.0  -0.0667
  C  C124  1  0.114500  0.000500  0.951300  1.0  -0.0769
  C  C125  1  0.526600  0.564900  0.367200  1.0  0.6892
  C  C126  1  0.612800  0.643400  0.109100  1.0  0.1575
  C  C127  1  0.240400  0.007400  0.906300  1.0  0.6664
  C  C128  1  0.713900  0.676800  0.080100  1.0  -0.0639
  C  C129  1  0.757300  0.608200  0.194700  1.0  0.1698
  C  C130  1  0.697100  0.814500  0.879200  1.0  -0.0638
  C  C131  1  0.812800  0.807900  0.831300  1.0  -0.0218
  C  C132  1  0.667800  0.766400  0.925600  1.0  0.1971
  C  C133  1  0.602000  0.865900  0.878300  1.0  0.1605
  C  C134  1  0.840000  0.676200  0.113300  1.0  -0.0214
  C  C135  1  0.861200  0.641900  0.171500  1.0  -0.1492
  C  C136  1  0.677700  0.705700  0.013400  1.0  0.2004
  C  C137  1  0.728400  0.900500  0.783700  1.0  0.1739
  C  C138  1  0.828500  0.852400  0.782900  1.0  -0.1576
  C  C139  1  0.519700  0.531100  0.436400  1.0  -0.0731
  C  C140  1  0.622100  0.490200  0.454700  1.0  -0.1189
  C  C141  1  0.756000  0.480400  0.408900  1.0  0.6342
  C  C142  1  0.992700  0.020700  0.926800  1.0  -0.0883
  C  C143  1  0.974200  0.039200  0.845600  1.0  0.6726
  C  C144  1  0.400100  0.541100  0.483100  1.0  -0.0739
  N  N145  1  0.866700  0.609000  0.664300  1.0  -0.3401
  N  N146  1  0.883200  0.909100  0.331600  1.0  -0.3637
  N  N147  1  0.939900  0.724300  0.411700  1.0  -0.2724
  N  N148  1  0.934000  0.687100  0.466300  1.0  -0.257
  N  N149  1  0.755300  0.755300  0.488600  1.0  0.1513
  N  N150  1  0.633600  0.789500  0.522800  1.0  -0.5962
  N  N151  1  0.366700  0.391000  0.835700  1.0  -0.3373
  N  N152  1  0.383200  0.090900  0.168400  1.0  -0.3628
  N  N153  1  0.439900  0.275700  0.088300  1.0  -0.2732
  N  N154  1  0.434000  0.312900  0.033700  1.0  -0.2567
  N  N155  1  0.255300  0.244700  0.011400  1.0  0.1512
  N  N156  1  0.133600  0.210500  0.977200  1.0  -0.5959
  N  N157  1  0.133300  0.391000  0.335700  1.0  -0.3496
  N  N158  1  0.116800  0.090900  0.668400  1.0  -0.3657
  N  N159  1  0.060100  0.275700  0.588300  1.0  -0.2619
  N  N160  1  0.066000  0.312900  0.533700  1.0  -0.2544
  N  N161  1  0.244700  0.244700  0.511400  1.0  0.152
  N  N162  1  0.366400  0.210500  0.477200  1.0  -0.5977
  N  N163  1  0.633300  0.609000  0.164300  1.0  -0.3556
  N  N164  1  0.616800  0.909100  0.831600  1.0  -0.3648
  N  N165  1  0.560100  0.724300  0.911700  1.0  -0.2632
  N  N166  1  0.566000  0.687100  0.966300  1.0  -0.2573
  N  N167  1  0.744700  0.755300  0.988600  1.0  0.1521
  N  N168  1  0.866400  0.789500  0.022800  1.0  -0.5977
  O  O169  1  0.989900  0.518300  0.785300  1.0  -0.6019
  O  O170  1  0.242400  0.061700  0.385500  1.0  -0.599
  O  O171  1  0.967200  0.634800  0.896000  1.0  -0.6099
  O  O172  1  0.168700  0.958800  0.392300  1.0  -0.6065
  O  O173  1  0.722000  0.505900  0.851500  1.0  -0.5537
  O  O174  1  0.655300  0.444100  0.930300  1.0  -0.6164
  O  O175  1  0.490100  0.988000  0.269800  1.0  -0.6199
  O  O176  1  0.576200  0.098600  0.353900  1.0  -0.5634
  O  O177  1  0.489900  0.481700  0.714700  1.0  -0.6033
  O  O178  1  0.742400  0.938300  0.114500  1.0  -0.5997
  O  O179  1  0.467200  0.365200  0.604000  1.0  -0.6112
  O  O180  1  0.668700  0.041200  0.107700  1.0  -0.6062
  O  O181  1  0.222000  0.494100  0.648500  1.0  -0.5539
  O  O182  1  0.155300  0.555900  0.569700  1.0  -0.6159
  O  O183  1  0.990100  0.012000  0.230200  1.0  -0.6202
  O  O184  1  0.076200  0.901400  0.146100  1.0  -0.5641
  O  O185  1  0.010100  0.481700  0.214700  1.0  -0.6034
  O  O186  1  0.757600  0.938300  0.614500  1.0  -0.5998
  O  O187  1  0.032800  0.365200  0.104000  1.0  -0.6089
  O  O188  1  0.831300  0.041200  0.607700  1.0  -0.6068
  O  O189  1  0.278000  0.494100  0.148500  1.0  -0.5539
  O  O190  1  0.344700  0.555900  0.069700  1.0  -0.6169
  O  O191  1  0.509900  0.012000  0.730200  1.0  -0.6201
  O  O192  1  0.423800  0.901400  0.646100  1.0  -0.5604
  O  O193  1  0.510100  0.518300  0.285300  1.0  -0.6019
  O  O194  1  0.257600  0.061700  0.885500  1.0  -0.5979
  O  O195  1  0.532800  0.634800  0.396000  1.0  -0.6101
  O  O196  1  0.331300  0.958800  0.892300  1.0  -0.6069
  O  O197  1  0.778000  0.505900  0.351500  1.0  -0.5536
  O  O198  1  0.844700  0.444100  0.430300  1.0  -0.617
  O  O199  1  0.009900  0.988000  0.769800  1.0  -0.6198
  O  O200  1  0.923800  0.098600  0.853900  1.0  -0.5613
