# generated using pymatgen
data_Zn3H6C20Cl5O11
_symmetry_space_group_name_H-M   'P 1'
_cell_length_a   12.34160000
_cell_length_b   20.72460000
_cell_length_c   23.23060000
_cell_angle_alpha   113.60300000
_cell_angle_beta   105.40500000
_cell_angle_gamma   90.00000000
_symmetry_Int_Tables_number   1
_chemical_formula_structural   Zn3H6C20Cl5O11
_chemical_formula_sum   'Zn12 H24 C80 Cl20 O44'
_cell_volume   5210.91986197
_cell_formula_units_Z   4
loop_
 _symmetry_equiv_pos_site_id
 _symmetry_equiv_pos_as_xyz
  1  'x, y, z'
loop_
 _atom_site_type_symbol
 _atom_site_label
 _atom_site_symmetry_multiplicity
 _atom_site_fract_x
 _atom_site_fract_y
 _atom_site_fract_z
 _atom_site_occupancy
 _atom_site_charge
  Zn  Zn1  1  0.259220  0.806510  0.770260  1.0  1.1386
  Zn  Zn2  1  0.008850  0.859990  0.745340  1.0  1.0691
  Zn  Zn3  1  0.653310  0.184750  0.675460  1.0  1.1249
  Zn  Zn4  1  0.488960  0.693490  0.229740  1.0  1.1328
  Zn  Zn5  1  0.263510  0.640010  0.254660  1.0  1.0679
  Zn  Zn6  1  0.977850  0.315250  0.324540  1.0  1.126
  Zn  Zn7  1  0.740780  0.193490  0.229740  1.0  1.134
  Zn  Zn8  1  0.991150  0.140010  0.254660  1.0  1.0672
  Zn  Zn9  1  0.346690  0.815250  0.324540  1.0  1.1248
  Zn  Zn10  1  0.511040  0.306510  0.770260  1.0  1.1307
  Zn  Zn11  1  0.736490  0.359990  0.745340  1.0  1.0674
  Zn  Zn12  1  0.022150  0.684750  0.675460  1.0  1.1231
  H  H13  1  0.409200  0.957500  0.775800  1.0  0.1247
  H  H14  1  0.254700  0.130100  0.710000  1.0  0.0969
  H  H15  1  0.041800  0.676900  0.506200  1.0  0.0999
  H  H16  1  0.311500  0.809900  0.485200  1.0  0.0966
  H  H17  1  0.939100  0.977300  0.076400  1.0  0.1134
  H  H18  1  0.076500  0.776200  0.792400  1.0  0.3163
  H  H19  1  0.633400  0.542500  0.224200  1.0  0.1251
  H  H20  1  0.544700  0.369900  0.290000  1.0  0.1
  H  H21  1  0.535600  0.823100  0.493800  1.0  0.1002
  H  H22  1  0.826300  0.690100  0.514800  1.0  0.0967
  H  H23  1  0.862700  0.522700  0.923600  1.0  0.1125
  H  H24  1  0.284100  0.723800  0.207600  1.0  0.3143
  H  H25  1  0.590800  0.042500  0.224200  1.0  0.1246
  H  H26  1  0.745300  0.869900  0.290000  1.0  0.0967
  H  H27  1  0.958200  0.323100  0.493800  1.0  0.1004
  H  H28  1  0.688500  0.190100  0.514800  1.0  0.0959
  H  H29  1  0.060900  0.022700  0.923600  1.0  0.1143
  H  H30  1  0.923500  0.223800  0.207600  1.0  0.3152
  H  H31  1  0.366600  0.457500  0.775800  1.0  0.1259
  H  H32  1  0.455300  0.630100  0.710000  1.0  0.0986
  H  H33  1  0.464400  0.176900  0.506200  1.0  0.0999
  H  H34  1  0.173700  0.309900  0.485200  1.0  0.0971
  H  H35  1  0.137300  0.477300  0.076400  1.0  0.1118
  H  H36  1  0.715900  0.276200  0.792400  1.0  0.3161
  C  C37  1  0.193300  0.944800  0.760000  1.0  0.7148
  C  C38  1  0.263400  0.996800  0.749200  1.0  -0.1696
  C  C39  1  0.377600  0.992300  0.762400  1.0  -0.1102
  C  C40  1  0.446300  0.041700  0.755400  1.0  0.1229
  C  C41  1  0.402030  0.093200  0.735460  1.0  -0.0727
  C  C42  1  0.286900  0.095200  0.723000  1.0  -0.0302
  C  C43  1  0.220200  0.049500  0.728800  1.0  0.0381
  C  C44  1  0.474450  0.148200  0.728900  1.0  0.7019
  C  C45  1  0.209100  0.724500  0.370000  1.0  0.694
  C  C46  1  0.190100  0.731600  0.434400  1.0  0.0352
  C  C47  1  0.111900  0.690700  0.442000  1.0  0.0735
  C  C48  1  0.102100  0.702300  0.503600  1.0  -0.0515
  C  C49  1  0.174300  0.747700  0.558200  1.0  0.0271
  C  C50  1  0.260000  0.784600  0.549600  1.0  0.0593
  C  C51  1  0.260000  0.778900  0.488400  1.0  -0.0136
  C  C52  1  0.164400  0.749800  0.620000  1.0  0.6931
  C  C53  1  0.989300  0.888100  0.870400  1.0  0.6992
  C  C54  1  0.992180  0.945500  0.937560  1.0  -0.0732
  C  C55  1  0.965200  0.987100  0.046000  1.0  -0.0581
  C  C56  1  0.958800  0.932100  0.985600  1.0  0.0046
  C  C57  1  0.433300  0.555200  0.240000  1.0  0.7106
  C  C58  1  0.514200  0.503200  0.250800  1.0  -0.1711
  C  C59  1  0.615200  0.507700  0.237600  1.0  -0.1132
  C  C60  1  0.690900  0.458300  0.244600  1.0  0.1225
  C  C61  1  0.666570  0.406800  0.264540  1.0  -0.071
  C  C62  1  0.563900  0.404800  0.277000  1.0  -0.0302
  C  C63  1  0.491400  0.450500  0.271200  1.0  0.0392
  C  C64  1  0.745550  0.351800  0.271100  1.0  0.7017
  C  C65  1  0.839100  0.775500  0.630000  1.0  0.6931
  C  C66  1  0.755700  0.768400  0.565600  1.0  0.0346
  C  C67  1  0.669900  0.809300  0.558000  1.0  0.0747
  C  C68  1  0.598500  0.797700  0.496400  1.0  -0.0533
  C  C69  1  0.616100  0.752300  0.441800  1.0  0.0275
  C  C70  1  0.710400  0.715400  0.450400  1.0  0.0599
  C  C71  1  0.771600  0.721100  0.511600  1.0  -0.0127
  C  C72  1  0.544400  0.750200  0.380000  1.0  0.6967
  C  C73  1  0.118900  0.611900  0.129600  1.0  0.7005
  C  C74  1  0.054620  0.554500  0.062440  1.0  -0.0728
  C  C75  1  0.919200  0.512900  0.954000  1.0  -0.0568
  C  C76  1  0.973200  0.567900  0.014400  1.0  0.0019
  C  C77  1  0.806700  0.055200  0.240000  1.0  0.7132
  C  C78  1  0.736600  0.003200  0.250800  1.0  -0.1681
  C  C79  1  0.622400  0.007700  0.237600  1.0  -0.1133
  C  C80  1  0.553700  0.958300  0.244600  1.0  0.1226
  C  C81  1  0.597970  0.906800  0.264540  1.0  -0.0719
  C  C82  1  0.713100  0.904800  0.277000  1.0  -0.0285
  C  C83  1  0.779800  0.950500  0.271200  1.0  0.0388
  C  C84  1  0.525550  0.851800  0.271100  1.0  0.7026
  C  C85  1  0.790900  0.275500  0.630000  1.0  0.6947
  C  C86  1  0.809900  0.268400  0.565600  1.0  0.0361
  C  C87  1  0.888100  0.309300  0.558000  1.0  0.073
  C  C88  1  0.897900  0.297700  0.496400  1.0  -0.0524
  C  C89  1  0.825700  0.252300  0.441800  1.0  0.0264
  C  C90  1  0.740000  0.215400  0.450400  1.0  0.0646
  C  C91  1  0.740000  0.221100  0.511600  1.0  -0.0128
  C  C92  1  0.835600  0.250200  0.380000  1.0  0.6942
  C  C93  1  0.010700  0.111900  0.129600  1.0  0.6994
  C  C94  1  0.007820  0.054500  0.062440  1.0  -0.0745
  C  C95  1  0.034800  0.012900  0.954000  1.0  -0.057
  C  C96  1  0.041200  0.067900  0.014400  1.0  0.0006
  C  C97  1  0.566700  0.444800  0.760000  1.0  0.7115
  C  C98  1  0.485800  0.496800  0.749200  1.0  -0.1702
  C  C99  1  0.384800  0.492300  0.762400  1.0  -0.1115
  C  C100  1  0.309100  0.541700  0.755400  1.0  0.1229
  C  C101  1  0.333430  0.593200  0.735460  1.0  -0.073
  C  C102  1  0.436100  0.595200  0.723000  1.0  -0.031
  C  C103  1  0.508600  0.549500  0.728800  1.0  0.0385
  C  C104  1  0.254450  0.648200  0.728900  1.0  0.7013
  C  C105  1  0.160900  0.224500  0.370000  1.0  0.6941
  C  C106  1  0.244300  0.231600  0.434400  1.0  0.0363
  C  C107  1  0.330100  0.190700  0.442000  1.0  0.0736
  C  C108  1  0.401500  0.202300  0.503600  1.0  -0.0519
  C  C109  1  0.383900  0.247700  0.558200  1.0  0.0287
  C  C110  1  0.289600  0.284600  0.549600  1.0  0.0633
  C  C111  1  0.228400  0.278900  0.488400  1.0  -0.0132
  C  C112  1  0.455600  0.249800  0.620000  1.0  0.6954
  C  C113  1  0.881100  0.388100  0.870400  1.0  0.7005
  C  C114  1  0.945380  0.445500  0.937560  1.0  -0.0747
  C  C115  1  0.080800  0.487100  0.046000  1.0  -0.0556
  C  C116  1  0.026800  0.432100  0.985600  1.0  0.0042
  Cl  Cl117  1  0.588100  0.031100  0.770000  1.0  -0.078
  Cl  Cl118  1  0.081200  0.067000  0.722600  1.0  -0.117
  Cl  Cl119  1  0.983850  0.646300  0.368900  1.0  -0.2109
  Cl  Cl120  1  0.320700  0.877100  0.620600  1.0  -0.2112
  Cl  Cl121  1  0.900730  0.848220  0.971260  1.0  -0.1308
  Cl  Cl122  1  0.818100  0.468900  0.230000  1.0  -0.0817
  Cl  Cl123  1  0.358600  0.433000  0.277400  1.0  -0.1181
  Cl  Cl124  1  0.614950  0.853700  0.631100  1.0  -0.2113
  Cl  Cl125  1  0.700100  0.622900  0.379400  1.0  -0.2128
  Cl  Cl126  1  0.929470  0.651780  0.028740  1.0  -0.1296
  Cl  Cl127  1  0.411900  0.968900  0.230000  1.0  -0.0759
  Cl  Cl128  1  0.918800  0.933000  0.277400  1.0  -0.1214
  Cl  Cl129  1  0.016150  0.353700  0.631100  1.0  -0.2104
  Cl  Cl130  1  0.679300  0.122900  0.379400  1.0  -0.2109
  Cl  Cl131  1  0.099270  0.151780  0.028740  1.0  -0.1297
  Cl  Cl132  1  0.181900  0.531100  0.770000  1.0  -0.0772
  Cl  Cl133  1  0.641400  0.567000  0.722600  1.0  -0.1201
  Cl  Cl134  1  0.385050  0.146300  0.368900  1.0  -0.2117
  Cl  Cl135  1  0.299900  0.377100  0.620600  1.0  -0.2104
  Cl  Cl136  1  0.070530  0.348220  0.971260  1.0  -0.1314
  O  O137  1  0.243270  0.916600  0.796140  1.0  -0.636
  O  O138  1  0.088930  0.929200  0.728460  1.0  -0.5664
  O  O139  1  0.453390  0.208400  0.756380  1.0  -0.5601
  O  O140  1  0.549010  0.129300  0.701020  1.0  -0.5961
  O  O141  1  0.199320  0.660300  0.327440  1.0  -0.5729
  O  O142  1  0.228320  0.778800  0.362840  1.0  -0.641
  O  O143  1  0.232720  0.791300  0.674040  1.0  -0.6189
  O  O144  1  0.082900  0.706700  0.614600  1.0  -0.6031
  O  O145  1  0.006810  0.828400  0.863620  1.0  -0.446
  O  O146  1  0.972690  0.912700  0.828180  1.0  -0.565
  O  O147  1  0.085770  0.780100  0.752740  1.0  -0.9062
  O  O148  1  0.447130  0.583400  0.203860  1.0  -0.6339
  O  O149  1  0.360470  0.570800  0.271540  1.0  -0.564
  O  O150  1  0.697010  0.291600  0.243620  1.0  -0.5636
  O  O151  1  0.847990  0.370700  0.298980  1.0  -0.5975
  O  O152  1  0.871880  0.839700  0.672560  1.0  -0.574
  O  O153  1  0.865480  0.721200  0.637160  1.0  -0.6418
  O  O154  1  0.558680  0.708700  0.325960  1.0  -0.6171
  O  O155  1  0.468300  0.793300  0.385400  1.0  -0.6036
  O  O156  1  0.143190  0.671600  0.136380  1.0  -0.4471
  O  O157  1  0.144510  0.587300  0.171820  1.0  -0.5617
  O  O158  1  0.333030  0.719900  0.247260  1.0  -0.9062
  O  O159  1  0.756730  0.083400  0.203860  1.0  -0.6368
  O  O160  1  0.911070  0.070800  0.271540  1.0  -0.5659
  O  O161  1  0.546610  0.791600  0.243620  1.0  -0.56
  O  O162  1  0.450990  0.870700  0.298980  1.0  -0.5955
  O  O163  1  0.800680  0.339700  0.672560  1.0  -0.5725
  O  O164  1  0.771680  0.221200  0.637160  1.0  -0.6426
  O  O165  1  0.767280  0.208700  0.325960  1.0  -0.6165
  O  O166  1  0.917100  0.293300  0.385400  1.0  -0.6042
  O  O167  1  0.993190  0.171600  0.136380  1.0  -0.4455
  O  O168  1  0.027310  0.087300  0.171820  1.0  -0.5636
  O  O169  1  0.914230  0.219900  0.247260  1.0  -0.9048
  O  O170  1  0.552870  0.416600  0.796140  1.0  -0.6368
  O  O171  1  0.639530  0.429200  0.728460  1.0  -0.5655
  O  O172  1  0.302990  0.708400  0.756380  1.0  -0.5625
  O  O173  1  0.152010  0.629300  0.701020  1.0  -0.5961
  O  O174  1  0.128120  0.160300  0.327440  1.0  -0.5747
  O  O175  1  0.134520  0.278800  0.362840  1.0  -0.6414
  O  O176  1  0.441320  0.291300  0.674040  1.0  -0.6164
  O  O177  1  0.531700  0.206700  0.614600  1.0  -0.6021
  O  O178  1  0.856810  0.328400  0.863620  1.0  -0.4476
  O  O179  1  0.855490  0.412700  0.828180  1.0  -0.5619
  O  O180  1  0.666970  0.280100  0.752740  1.0  -0.9074
