# generated using pymatgen
data_CoH8(C3N)4
_symmetry_space_group_name_H-M   'P 1'
_cell_length_a   12.45800000
_cell_length_b   17.31450000
_cell_length_c   17.31450000
_cell_angle_alpha   82.56370000
_cell_angle_beta   68.91480000
_cell_angle_gamma   68.91480000
_symmetry_Int_Tables_number   1
_chemical_formula_structural   CoH8(C3N)4
_chemical_formula_sum   'Co8 H64 C96 N32'
_cell_volume   3251.43298040
_cell_formula_units_Z   8
loop_
 _symmetry_equiv_pos_site_id
 _symmetry_equiv_pos_as_xyz
  1  'x, y, z'
loop_
 _atom_site_type_symbol
 _atom_site_label
 _atom_site_symmetry_multiplicity
 _atom_site_fract_x
 _atom_site_fract_y
 _atom_site_fract_z
 _atom_site_occupancy
 _atom_site_charge
  Co  Co1  1  0.161590  0.176820  0.750000  1.0  0.6335
  Co  Co2  1  0.588410  0.323180  0.750000  1.0  0.632
  Co  Co3  1  0.411590  0.250000  0.676820  1.0  0.6339
  Co  Co4  1  0.838410  0.250000  0.823180  1.0  0.6325
  Co  Co5  1  0.838410  0.823180  0.250000  1.0  0.632
  Co  Co6  1  0.411590  0.676820  0.250000  1.0  0.6335
  Co  Co7  1  0.588410  0.750000  0.323180  1.0  0.6325
  Co  Co8  1  0.161590  0.750000  0.176820  1.0  0.6339
  H  H9  1  0.181200  0.016900  0.661500  1.0  0.0984
  H  H10  1  0.821000  0.105700  0.738100  1.0  0.0919
  H  H11  1  0.806400  0.015900  0.659900  1.0  0.0967
  H  H12  1  0.359600  0.483100  0.838500  1.0  0.0999
  H  H13  1  0.164800  0.394300  0.761900  1.0  0.0915
  H  H14  1  0.982200  0.484100  0.840100  1.0  0.0983
  H  H15  1  0.342700  0.338500  0.516900  1.0  0.1057
  H  H16  1  0.059100  0.261900  0.605700  1.0  0.091
  H  H17  1  0.966300  0.340100  0.515900  1.0  0.0981
  H  H18  1  0.698100  0.161500  0.983100  1.0  0.1075
  H  H19  1  0.426700  0.238100  0.894300  1.0  0.0915
  H  H20  1  0.322300  0.159900  0.984100  1.0  0.0979
  H  H21  1  0.640400  0.161500  0.516900  1.0  0.1019
  H  H22  1  0.835200  0.238100  0.605700  1.0  0.0914
  H  H23  1  0.017800  0.159900  0.515900  1.0  0.0978
  H  H24  1  0.818800  0.338500  0.983100  1.0  0.0991
  H  H25  1  0.179000  0.261900  0.894300  1.0  0.0924
  H  H26  1  0.193600  0.340100  0.984100  1.0  0.0985
  H  H27  1  0.301900  0.016900  0.838500  1.0  0.1084
  H  H28  1  0.573300  0.105700  0.761900  1.0  0.0927
  H  H29  1  0.677700  0.015900  0.840100  1.0  0.0971
  H  H30  1  0.657300  0.483100  0.661500  1.0  0.107
  H  H31  1  0.940900  0.394300  0.738100  1.0  0.0913
  H  H32  1  0.033700  0.484100  0.659900  1.0  0.098
  H  H33  1  0.818800  0.983100  0.338500  1.0  0.0998
  H  H34  1  0.179000  0.894300  0.261900  1.0  0.0927
  H  H35  1  0.193600  0.984100  0.340100  1.0  0.0975
  H  H36  1  0.640400  0.516900  0.161500  1.0  0.0998
  H  H37  1  0.835200  0.605700  0.238100  1.0  0.0913
  H  H38  1  0.017800  0.515900  0.159900  1.0  0.0981
  H  H39  1  0.657300  0.661500  0.483100  1.0  0.1073
  H  H40  1  0.940900  0.738100  0.394300  1.0  0.0922
  H  H41  1  0.033700  0.659900  0.484100  1.0  0.098
  H  H42  1  0.301900  0.838500  0.016900  1.0  0.1084
  H  H43  1  0.573300  0.761900  0.105700  1.0  0.0917
  H  H44  1  0.677700  0.840100  0.015900  1.0  0.098
  H  H45  1  0.359600  0.838500  0.483100  1.0  0.1021
  H  H46  1  0.164800  0.761900  0.394300  1.0  0.0913
  H  H47  1  0.982200  0.840100  0.484100  1.0  0.0977
  H  H48  1  0.181200  0.661500  0.016900  1.0  0.0983
  H  H49  1  0.821000  0.738100  0.105700  1.0  0.0913
  H  H50  1  0.806400  0.659900  0.015900  1.0  0.0988
  H  H51  1  0.698100  0.983100  0.161500  1.0  0.1074
  H  H52  1  0.426700  0.894300  0.238100  1.0  0.092
  H  H53  1  0.322300  0.984100  0.159900  1.0  0.0969
  H  H54  1  0.342700  0.516900  0.338500  1.0  0.1046
  H  H55  1  0.059100  0.605700  0.261900  1.0  0.0912
  H  H56  1  0.966300  0.515900  0.340100  1.0  0.098
  H  H57  1  0.151200  0.952900  0.547100  1.0  0.0959
  H  H58  1  0.798100  0.927000  0.573000  1.0  0.106
  H  H59  1  0.151200  0.547100  0.952900  1.0  0.0932
  H  H60  1  0.798100  0.573000  0.927000  1.0  0.1062
  H  H61  1  0.198300  0.452900  0.452900  1.0  0.0916
  H  H62  1  0.871100  0.427000  0.427000  1.0  0.1109
  H  H63  1  0.604100  0.047100  0.047100  1.0  0.0957
  H  H64  1  0.225100  0.073000  0.073000  1.0  0.1102
  H  H65  1  0.848800  0.047100  0.452900  1.0  0.0922
  H  H66  1  0.201900  0.073000  0.427000  1.0  0.106
  H  H67  1  0.848800  0.452900  0.047100  1.0  0.0914
  H  H68  1  0.201900  0.427000  0.073000  1.0  0.1057
  H  H69  1  0.395900  0.952900  0.952900  1.0  0.0907
  H  H70  1  0.774900  0.927000  0.927000  1.0  0.1103
  H  H71  1  0.801700  0.547100  0.547100  1.0  0.0914
  H  H72  1  0.128900  0.573000  0.573000  1.0  0.1111
  C  C73  1  0.100100  0.049300  0.687100  1.0  0.0385
  C  C74  1  0.999500  0.034400  0.682000  1.0  -0.1499
  C  C75  1  0.902600  0.097400  0.729000  1.0  0.038
  C  C76  1  0.989800  0.984500  0.621500  1.0  0.1598
  C  C77  1  0.878600  0.981600  0.623400  1.0  -0.1717
  C  C78  1  0.336500  0.450700  0.812900  1.0  0.0373
  C  C79  1  0.215900  0.465600  0.818000  1.0  -0.1503
  C  C80  1  0.229000  0.402600  0.771000  1.0  0.039
  C  C81  1  0.095800  0.515500  0.878500  1.0  0.1534
  C  C82  1  0.983600  0.518400  0.876600  1.0  -0.1626
  C  C83  1  0.287200  0.312900  0.549300  1.0  0.0395
  C  C84  1  0.181500  0.318000  0.534400  1.0  -0.1527
  C  C85  1  0.131600  0.271000  0.597400  1.0  0.0355
  C  C86  1  0.111300  0.378500  0.484500  1.0  0.1551
  C  C87  1  0.002000  0.376600  0.481600  1.0  -0.1743
  C  C88  1  0.649400  0.187100  0.950700  1.0  0.0405
  C  C89  1  0.533900  0.182000  0.965600  1.0  -0.1514
  C  C90  1  0.500000  0.229000  0.902600  1.0  0.0379
  C  C91  1  0.474300  0.121500  0.015500  1.0  0.1582
  C  C92  1  0.360200  0.123400  0.018400  1.0  -0.1764
  C  C93  1  0.663500  0.187100  0.549300  1.0  0.042
  C  C94  1  0.784100  0.182000  0.534400  1.0  -0.152
  C  C95  1  0.771000  0.229000  0.597400  1.0  0.0372
  C  C96  1  0.904200  0.121500  0.484500  1.0  0.1598
  C  C97  1  0.016400  0.123400  0.481600  1.0  -0.1668
  C  C98  1  0.899900  0.312900  0.950700  1.0  0.0401
  C  C99  1  0.000500  0.318000  0.965600  1.0  -0.1517
  C  C100  1  0.097400  0.271000  0.902600  1.0  0.0355
  C  C101  1  0.010200  0.378500  0.015500  1.0  0.1552
  C  C102  1  0.121400  0.376600  0.018400  1.0  -0.1755
  C  C103  1  0.350600  0.049300  0.812900  1.0  0.0391
  C  C104  1  0.466100  0.034400  0.818000  1.0  -0.152
  C  C105  1  0.500000  0.097400  0.771000  1.0  0.038
  C  C106  1  0.525700  0.984500  0.878500  1.0  0.1581
  C  C107  1  0.639800  0.981600  0.876600  1.0  -0.1705
  C  C108  1  0.712800  0.450700  0.687100  1.0  0.0385
  C  C109  1  0.818500  0.465600  0.682000  1.0  -0.1502
  C  C110  1  0.868400  0.402600  0.729000  1.0  0.0397
  C  C111  1  0.888700  0.515500  0.621500  1.0  0.1537
  C  C112  1  0.998000  0.518400  0.623400  1.0  -0.1718
  C  C113  1  0.899900  0.950700  0.312900  1.0  0.0383
  C  C114  1  0.000500  0.965600  0.318000  1.0  -0.1511
  C  C115  1  0.097400  0.902600  0.271000  1.0  0.0382
  C  C116  1  0.010200  0.015500  0.378500  1.0  0.1576
  C  C117  1  0.121400  0.018400  0.376600  1.0  -0.1712
  C  C118  1  0.663500  0.549300  0.187100  1.0  0.04
  C  C119  1  0.784100  0.534400  0.182000  1.0  -0.15
  C  C120  1  0.771000  0.597400  0.229000  1.0  0.0397
  C  C121  1  0.904200  0.484500  0.121500  1.0  0.154
  C  C122  1  0.016400  0.481600  0.123400  1.0  -0.1658
  C  C123  1  0.712800  0.687100  0.450700  1.0  0.0401
  C  C124  1  0.818500  0.682000  0.465600  1.0  -0.1525
  C  C125  1  0.868400  0.729000  0.402600  1.0  0.0361
  C  C126  1  0.888700  0.621500  0.515500  1.0  0.1562
  C  C127  1  0.998000  0.623400  0.518400  1.0  -0.1765
  C  C128  1  0.350600  0.812900  0.049300  1.0  0.0419
  C  C129  1  0.466100  0.818000  0.034400  1.0  -0.1515
  C  C130  1  0.500000  0.771000  0.097400  1.0  0.0368
  C  C131  1  0.525700  0.878500  0.984500  1.0  0.1583
  C  C132  1  0.639800  0.876600  0.981600  1.0  -0.1743
  C  C133  1  0.336500  0.812900  0.450700  1.0  0.0403
  C  C134  1  0.215900  0.818000  0.465600  1.0  -0.1506
  C  C135  1  0.229000  0.771000  0.402600  1.0  0.0376
  C  C136  1  0.095800  0.878500  0.515500  1.0  0.159
  C  C137  1  0.983600  0.876600  0.518400  1.0  -0.1695
  C  C138  1  0.100100  0.687100  0.049300  1.0  0.0398
  C  C139  1  0.999500  0.682000  0.034400  1.0  -0.1531
  C  C140  1  0.902600  0.729000  0.097400  1.0  0.0354
  C  C141  1  0.989800  0.621500  0.984500  1.0  0.156
  C  C142  1  0.878600  0.623400  0.981600  1.0  -0.1753
  C  C143  1  0.649400  0.950700  0.187100  1.0  0.0361
  C  C144  1  0.533900  0.965600  0.182000  1.0  -0.1504
  C  C145  1  0.500000  0.902600  0.229000  1.0  0.0377
  C  C146  1  0.474300  0.015500  0.121500  1.0  0.1607
  C  C147  1  0.360200  0.018400  0.123400  1.0  -0.1727
  C  C148  1  0.287200  0.549300  0.312900  1.0  0.0398
  C  C149  1  0.181500  0.534400  0.318000  1.0  -0.1511
  C  C150  1  0.131600  0.597400  0.271000  1.0  0.0388
  C  C151  1  0.111300  0.484500  0.378500  1.0  0.1541
  C  C152  1  0.002000  0.481600  0.376600  1.0  -0.171
  C  C153  1  0.104700  0.921100  0.578900  1.0  -0.3056
  C  C154  1  0.873000  0.928100  0.571900  1.0  -0.0019
  C  C155  1  0.104700  0.578900  0.921100  1.0  -0.297
  C  C156  1  0.873000  0.571900  0.928100  1.0  -0.002
  C  C157  1  0.183600  0.421100  0.421100  1.0  -0.2864
  C  C158  1  0.944900  0.428100  0.428100  1.0  -0.0051
  C  C159  1  0.525800  0.078900  0.078900  1.0  -0.3234
  C  C160  1  0.301100  0.071900  0.071900  1.0  -0.0175
  C  C161  1  0.895300  0.078900  0.421100  1.0  -0.3004
  C  C162  1  0.127000  0.071900  0.428100  1.0  -0.0022
  C  C163  1  0.895300  0.421100  0.078900  1.0  -0.3117
  C  C164  1  0.127000  0.428100  0.071900  1.0  0.0006
  C  C165  1  0.474200  0.921100  0.921100  1.0  -0.3121
  C  C166  1  0.698900  0.928100  0.928100  1.0  -0.018
  C  C167  1  0.816400  0.578900  0.578900  1.0  -0.3159
  C  C168  1  0.055100  0.571900  0.571900  1.0  -0.003
  N  N169  1  0.064800  0.115800  0.733200  1.0  -0.2174
  N  N170  1  0.940900  0.145400  0.760000  1.0  -0.2454
  N  N171  1  0.413800  0.384200  0.766800  1.0  -0.2199
  N  N172  1  0.346300  0.354600  0.740000  1.0  -0.2452
  N  N173  1  0.298000  0.266800  0.615800  1.0  -0.22
  N  N174  1  0.200900  0.240000  0.645400  1.0  -0.2469
  N  N175  1  0.680600  0.233200  0.884200  1.0  -0.2201
  N  N176  1  0.586300  0.260000  0.854600  1.0  -0.2449
  N  N177  1  0.586200  0.233200  0.615800  1.0  -0.22
  N  N178  1  0.653700  0.260000  0.645400  1.0  -0.2453
  N  N179  1  0.935200  0.266800  0.884200  1.0  -0.2185
  N  N180  1  0.059100  0.240000  0.854600  1.0  -0.247
  N  N181  1  0.319400  0.115800  0.766800  1.0  -0.2171
  N  N182  1  0.413700  0.145400  0.740000  1.0  -0.2454
  N  N183  1  0.702000  0.384200  0.733200  1.0  -0.2198
  N  N184  1  0.799100  0.354600  0.760000  1.0  -0.244
  N  N185  1  0.935200  0.884200  0.266800  1.0  -0.2181
  N  N186  1  0.059100  0.854600  0.240000  1.0  -0.2469
  N  N187  1  0.586200  0.615800  0.233200  1.0  -0.2187
  N  N188  1  0.653700  0.645400  0.260000  1.0  -0.2441
  N  N189  1  0.702000  0.733200  0.384200  1.0  -0.2186
  N  N190  1  0.799100  0.760000  0.354600  1.0  -0.2456
  N  N191  1  0.319400  0.766800  0.115800  1.0  -0.2207
  N  N192  1  0.413700  0.740000  0.145400  1.0  -0.2478
  N  N193  1  0.413800  0.766800  0.384200  1.0  -0.2187
  N  N194  1  0.346300  0.740000  0.354600  1.0  -0.2466
  N  N195  1  0.064800  0.733200  0.115800  1.0  -0.2198
  N  N196  1  0.940900  0.760000  0.145400  1.0  -0.2449
  N  N197  1  0.680600  0.884200  0.233200  1.0  -0.2178
  N  N198  1  0.586300  0.854600  0.260000  1.0  -0.2451
  N  N199  1  0.298000  0.615800  0.266800  1.0  -0.2198
  N  N200  1  0.200900  0.645400  0.240000  1.0  -0.244
