# generated using pymatgen
data_CrH4C8O5
_symmetry_space_group_name_H-M   'P 1'
_cell_length_a   16.42760000
_cell_length_b   13.61080000
_cell_length_c   6.86300000
_cell_angle_alpha   90.00000000
_cell_angle_beta   90.00000000
_cell_angle_gamma   90.00000000
_symmetry_Int_Tables_number   1
_chemical_formula_structural   CrH4C8O5
_chemical_formula_sum   'Cr4 H16 C32 O20'
_cell_volume   1534.51723596
_cell_formula_units_Z   4
loop_
 _symmetry_equiv_pos_site_id
 _symmetry_equiv_pos_as_xyz
  1  'x, y, z'
loop_
 _atom_site_type_symbol
 _atom_site_label
 _atom_site_symmetry_multiplicity
 _atom_site_fract_x
 _atom_site_fract_y
 _atom_site_fract_z
 _atom_site_occupancy
 _atom_site_charge
  Cr  Cr1  1  0.250000  0.750000  0.250000  1.0  1.3696
  Cr  Cr2  1  0.250000  0.750000  0.750000  1.0  1.3696
  Cr  Cr3  1  0.750000  0.250000  0.750000  1.0  1.3696
  Cr  Cr4  1  0.750000  0.250000  0.250000  1.0  1.3696
  H  H5  1  0.063420  0.934040  0.682970  1.0  0.1196
  H  H6  1  0.563420  0.434040  0.182970  1.0  0.1196
  H  H7  1  0.436580  0.934040  0.317030  1.0  0.12
  H  H8  1  0.936580  0.434040  0.817030  1.0  0.12
  H  H9  1  0.563420  0.065960  0.317030  1.0  0.1196
  H  H10  1  0.063420  0.565960  0.817030  1.0  0.1196
  H  H11  1  0.936580  0.065960  0.682970  1.0  0.1201
  H  H12  1  0.436580  0.565960  0.182970  1.0  0.1201
  H  H13  1  0.936580  0.065960  0.317030  1.0  0.1199
  H  H14  1  0.436580  0.565960  0.817030  1.0  0.1199
  H  H15  1  0.563420  0.065960  0.682970  1.0  0.1194
  H  H16  1  0.063420  0.565960  0.182970  1.0  0.1194
  H  H17  1  0.436580  0.934040  0.682970  1.0  0.1203
  H  H18  1  0.936580  0.434040  0.182970  1.0  0.1203
  H  H19  1  0.063420  0.934040  0.317030  1.0  0.1197
  H  H20  1  0.563420  0.434040  0.817030  1.0  0.1197
  C  C21  1  0.037330  0.971020  0.822400  1.0  0.0911
  C  C22  1  0.537330  0.471020  0.322400  1.0  0.0911
  C  C23  1  0.462670  0.971020  0.177600  1.0  0.092
  C  C24  1  0.962670  0.471020  0.677600  1.0  0.092
  C  C25  1  0.537330  0.028980  0.177600  1.0  0.0908
  C  C26  1  0.037330  0.528980  0.677600  1.0  0.0908
  C  C27  1  0.962670  0.028980  0.822400  1.0  0.0931
  C  C28  1  0.462670  0.528980  0.322400  1.0  0.0931
  C  C29  1  0.962670  0.028980  0.177600  1.0  0.0924
  C  C30  1  0.462670  0.528980  0.677600  1.0  0.0924
  C  C31  1  0.537330  0.028980  0.822400  1.0  0.091
  C  C32  1  0.037330  0.528980  0.322400  1.0  0.091
  C  C33  1  0.462670  0.971020  0.822400  1.0  0.0931
  C  C34  1  0.962670  0.471020  0.322400  1.0  0.0931
  C  C35  1  0.037330  0.971020  0.177600  1.0  0.0906
  C  C36  1  0.537330  0.471020  0.677600  1.0  0.0906
  C  C37  1  0.068310  0.947030  0.000000  1.0  0.0836
  C  C38  1  0.127600  0.869790  0.000000  1.0  0.4666
  C  C39  1  0.568310  0.447030  0.500000  1.0  0.0836
  C  C40  1  0.627600  0.369790  0.500000  1.0  0.4666
  C  C41  1  0.431690  0.947030  0.000000  1.0  0.0837
  C  C42  1  0.372400  0.869790  0.000000  1.0  0.4636
  C  C43  1  0.931690  0.447030  0.500000  1.0  0.0837
  C  C44  1  0.872400  0.369790  0.500000  1.0  0.4636
  C  C45  1  0.568310  0.052970  0.000000  1.0  0.0838
  C  C46  1  0.627600  0.130210  0.000000  1.0  0.4673
  C  C47  1  0.068310  0.552970  0.500000  1.0  0.0838
  C  C48  1  0.127600  0.630210  0.500000  1.0  0.4673
  C  C49  1  0.931690  0.052970  0.000000  1.0  0.0839
  C  C50  1  0.872400  0.130210  0.000000  1.0  0.4647
  C  C51  1  0.431690  0.552970  0.500000  1.0  0.0839
  C  C52  1  0.372400  0.630210  0.500000  1.0  0.4647
  O  O53  1  0.164790  0.839930  0.128790  1.0  -0.6069
  O  O54  1  0.664790  0.339930  0.628790  1.0  -0.6069
  O  O55  1  0.335210  0.839930  0.871210  1.0  -0.6041
  O  O56  1  0.835210  0.339930  0.371210  1.0  -0.6042
  O  O57  1  0.664790  0.160070  0.871210  1.0  -0.6064
  O  O58  1  0.164790  0.660070  0.371210  1.0  -0.6064
  O  O59  1  0.835210  0.160070  0.128790  1.0  -0.6058
  O  O60  1  0.335210  0.660070  0.628790  1.0  -0.6058
  O  O61  1  0.835210  0.160070  0.871210  1.0  -0.6045
  O  O62  1  0.335210  0.660070  0.371210  1.0  -0.6045
  O  O63  1  0.664790  0.160070  0.128790  1.0  -0.6069
  O  O64  1  0.164790  0.660070  0.628790  1.0  -0.607
  O  O65  1  0.335210  0.839930  0.128790  1.0  -0.6056
  O  O66  1  0.835210  0.339930  0.628790  1.0  -0.6056
  O  O67  1  0.164790  0.839930  0.871210  1.0  -0.6065
  O  O68  1  0.664790  0.339930  0.371210  1.0  -0.6065
  O  O69  1  0.250000  0.724570  0.000000  1.0  -0.8886
  O  O70  1  0.750000  0.224570  0.500000  1.0  -0.8886
  O  O71  1  0.750000  0.275430  0.000000  1.0  -0.8936
  O  O72  1  0.250000  0.775430  0.500000  1.0  -0.8936
