# generated using pymatgen
data_MnH8C13NO5
_symmetry_space_group_name_H-M   'P 1'
_cell_length_a   12.69920000
_cell_length_b   12.69920000
_cell_length_c   13.37810000
_cell_angle_alpha   63.53250000
_cell_angle_beta   63.53250000
_cell_angle_gamma   88.39750000
_symmetry_Int_Tables_number   1
_chemical_formula_structural   MnH8C13NO5
_chemical_formula_sum   'Mn4 H32 C52 N4 O20'
_cell_volume   1689.25270863
_cell_formula_units_Z   4
loop_
 _symmetry_equiv_pos_site_id
 _symmetry_equiv_pos_as_xyz
  1  'x, y, z'
loop_
 _atom_site_type_symbol
 _atom_site_label
 _atom_site_symmetry_multiplicity
 _atom_site_fract_x
 _atom_site_fract_y
 _atom_site_fract_z
 _atom_site_occupancy
 _atom_site_charge
  Mn  Mn1  1  0.500000  0.000000  0.000000  1.0  1.1857
  Mn  Mn2  1  0.000000  0.500000  0.500000  1.0  1.1857
  Mn  Mn3  1  0.305160  0.694840  0.250000  1.0  1.1287
  Mn  Mn4  1  0.694840  0.305160  0.750000  1.0  1.1279
  H  H5  1  0.748500  0.836500  0.770300  1.0  0.0898
  H  H6  1  0.856100  0.728300  0.674600  1.0  0.0667
  H  H7  1  0.651300  0.421300  0.993100  1.0  0.0987
  H  H8  1  0.546400  0.529600  0.090700  1.0  0.104
  H  H9  1  0.237700  0.804700  0.006300  1.0  0.1267
  H  H10  1  0.087500  0.859300  0.954700  1.0  0.1256
  H  H11  1  0.046500  0.090100  0.091200  1.0  0.1256
  H  H12  1  0.201100  0.035300  0.134500  1.0  0.12
  H  H13  1  0.163500  0.251500  0.729700  1.0  0.0899
  H  H14  1  0.271700  0.143900  0.825400  1.0  0.066
  H  H15  1  0.578700  0.348700  0.506900  1.0  0.0998
  H  H16  1  0.470400  0.453600  0.409300  1.0  0.104
  H  H17  1  0.195300  0.762300  0.493700  1.0  0.1268
  H  H18  1  0.140700  0.912500  0.545300  1.0  0.1248
  H  H19  1  0.909900  0.953500  0.408800  1.0  0.1248
  H  H20  1  0.964700  0.798900  0.365500  1.0  0.1207
  H  H21  1  0.251500  0.163500  0.229700  1.0  0.0892
  H  H22  1  0.143900  0.271700  0.325400  1.0  0.0665
  H  H23  1  0.348700  0.578700  0.006900  1.0  0.0992
  H  H24  1  0.453600  0.470400  0.909300  1.0  0.1039
  H  H25  1  0.762300  0.195300  0.993700  1.0  0.1269
  H  H26  1  0.912500  0.140700  0.045300  1.0  0.1255
  H  H27  1  0.953500  0.909900  0.908800  1.0  0.1259
  H  H28  1  0.798900  0.964700  0.865500  1.0  0.1201
  H  H29  1  0.836500  0.748500  0.270300  1.0  0.0901
  H  H30  1  0.728300  0.856100  0.174600  1.0  0.0659
  H  H31  1  0.421300  0.651300  0.493100  1.0  0.1007
  H  H32  1  0.529600  0.546400  0.590700  1.0  0.1038
  H  H33  1  0.804700  0.237700  0.506300  1.0  0.1274
  H  H34  1  0.859300  0.087500  0.454700  1.0  0.1246
  H  H35  1  0.090100  0.046500  0.591200  1.0  0.1255
  H  H36  1  0.035300  0.201100  0.634500  1.0  0.1211
  C  C37  1  0.559470  0.764330  0.001100  1.0  0.6903
  C  C38  1  0.634650  0.694950  0.939500  1.0  -0.1281
  C  C39  1  0.728400  0.752800  0.815500  1.0  -0.0539
  C  C40  1  0.792800  0.688000  0.757800  1.0  -0.0454
  C  C41  1  0.763510  0.563090  0.823100  1.0  -0.1309
  C  C42  1  0.671000  0.505000  0.947900  1.0  -0.0516
  C  C43  1  0.607530  0.569870  0.006300  1.0  -0.0433
  C  C44  1  0.826280  0.493120  0.756100  1.0  0.7022
  C  C45  1  0.198400  0.862400  0.023300  1.0  -0.0104
  C  C46  1  0.108500  0.895300  0.992400  1.0  -0.1427
  C  C47  1  0.048410  0.981590  0.016700  1.0  0.041
  C  C48  1  0.084600  0.032600  0.072500  1.0  -0.1463
  C  C49  1  0.175900  0.998500  0.100000  1.0  -0.0267
  C  C50  1  0.235670  0.440530  0.498900  1.0  0.6907
  C  C51  1  0.305050  0.365350  0.560500  1.0  -0.1291
  C  C52  1  0.247200  0.271600  0.684500  1.0  -0.0533
  C  C53  1  0.312000  0.207200  0.742200  1.0  -0.0457
  C  C54  1  0.436910  0.236490  0.676900  1.0  -0.1315
  C  C55  1  0.495000  0.329000  0.552100  1.0  -0.053
  C  C56  1  0.430130  0.392470  0.493700  1.0  -0.0461
  C  C57  1  0.506880  0.173720  0.743900  1.0  0.7034
  C  C58  1  0.137600  0.801600  0.476700  1.0  -0.0071
  C  C59  1  0.104700  0.891500  0.507600  1.0  -0.1399
  C  C60  1  0.018410  0.951590  0.483300  1.0  0.0404
  C  C61  1  0.967400  0.915400  0.427500  1.0  -0.1431
  C  C62  1  0.001500  0.824100  0.400000  1.0  -0.0271
  C  C63  1  0.440530  0.235670  0.998900  1.0  0.6904
  C  C64  1  0.365350  0.305050  0.060500  1.0  -0.1285
  C  C65  1  0.271600  0.247200  0.184500  1.0  -0.0545
  C  C66  1  0.207200  0.312000  0.242200  1.0  -0.0449
  C  C67  1  0.236490  0.436910  0.176900  1.0  -0.1309
  C  C68  1  0.329000  0.495000  0.052100  1.0  -0.053
  C  C69  1  0.392470  0.430130  0.993700  1.0  -0.0445
  C  C70  1  0.173720  0.506880  0.243900  1.0  0.7022
  C  C71  1  0.801600  0.137600  0.976700  1.0  -0.0116
  C  C72  1  0.891500  0.104700  0.007600  1.0  -0.143
  C  C73  1  0.951590  0.018410  0.983300  1.0  0.0409
  C  C74  1  0.915400  0.967400  0.927500  1.0  -0.1436
  C  C75  1  0.824100  0.001500  0.900000  1.0  -0.0271
  C  C76  1  0.764330  0.559470  0.501100  1.0  0.6906
  C  C77  1  0.694950  0.634650  0.439500  1.0  -0.128
  C  C78  1  0.752800  0.728400  0.315500  1.0  -0.0521
  C  C79  1  0.688000  0.792800  0.257800  1.0  -0.0446
  C  C80  1  0.563090  0.763510  0.323100  1.0  -0.132
  C  C81  1  0.505000  0.671000  0.447900  1.0  -0.0529
  C  C82  1  0.569870  0.607530  0.506300  1.0  -0.0459
  C  C83  1  0.493120  0.826280  0.256100  1.0  0.7022
  C  C84  1  0.862400  0.198400  0.523300  1.0  -0.0058
  C  C85  1  0.895300  0.108500  0.492400  1.0  -0.1397
  C  C86  1  0.981590  0.048410  0.516700  1.0  0.0406
  C  C87  1  0.032600  0.084600  0.572500  1.0  -0.1399
  C  C88  1  0.998500  0.175900  0.600000  1.0  -0.0267
  N  N89  1  0.229360  0.913120  0.077800  1.0  0.3443
  N  N90  1  0.086880  0.770640  0.422200  1.0  0.3456
  N  N91  1  0.770640  0.086880  0.922200  1.0  0.3462
  N  N92  1  0.913120  0.229360  0.577800  1.0  0.3448
  O  O93  1  0.479790  0.703010  0.115600  1.0  -0.6052
  O  O94  1  0.582300  0.876340  0.934600  1.0  -0.6069
  O  O95  1  0.782350  0.381850  0.813800  1.0  -0.623
  O  O96  1  0.916630  0.549410  0.647900  1.0  -0.6077
  O  O97  1  0.315510  0.879470  0.109600  1.0  -0.5745
  O  O98  1  0.296990  0.520210  0.384400  1.0  -0.6034
  O  O99  1  0.123660  0.417700  0.565400  1.0  -0.6058
  O  O100  1  0.618150  0.217650  0.686200  1.0  -0.6216
  O  O101  1  0.450590  0.083370  0.852100  1.0  -0.6086
  O  O102  1  0.120530  0.684490  0.390400  1.0  -0.5768
  O  O103  1  0.520210  0.296990  0.884400  1.0  -0.6054
  O  O104  1  0.417700  0.123660  0.065400  1.0  -0.6067
  O  O105  1  0.217650  0.618150  0.186200  1.0  -0.6233
  O  O106  1  0.083370  0.450590  0.352100  1.0  -0.6084
  O  O107  1  0.684490  0.120530  0.890400  1.0  -0.5766
  O  O108  1  0.703010  0.479790  0.615600  1.0  -0.604
  O  O109  1  0.876340  0.582300  0.434600  1.0  -0.6064
  O  O110  1  0.381850  0.782350  0.313800  1.0  -0.621
  O  O111  1  0.549410  0.916630  0.147900  1.0  -0.6082
  O  O112  1  0.879470  0.315510  0.609600  1.0  -0.5759
