# generated using pymatgen
data_MnH4(C2O)4
_symmetry_space_group_name_H-M   'P 1'
_cell_length_a   10.19780000
_cell_length_b   13.50200000
_cell_length_c   17.70700000
_cell_angle_alpha   90.00000000
_cell_angle_beta   90.00000000
_cell_angle_gamma   90.00000000
_symmetry_Int_Tables_number   1
_chemical_formula_structural   MnH4(C2O)4
_chemical_formula_sum   'Mn8 H32 C64 O32'
_cell_volume   2438.08914699
_cell_formula_units_Z   8
loop_
 _symmetry_equiv_pos_site_id
 _symmetry_equiv_pos_as_xyz
  1  'x, y, z'
loop_
 _atom_site_type_symbol
 _atom_site_label
 _atom_site_symmetry_multiplicity
 _atom_site_fract_x
 _atom_site_fract_y
 _atom_site_fract_z
 _atom_site_occupancy
 _atom_site_charge
  Mn  Mn1  1  0.925470  0.153270  0.483400  1.0  1.2264
  Mn  Mn2  1  0.081190  0.389190  0.467630  1.0  1.1319
  Mn  Mn3  1  0.425470  0.846730  0.016600  1.0  1.2255
  Mn  Mn4  1  0.581190  0.610810  0.032370  1.0  1.1322
  Mn  Mn5  1  0.074530  0.846730  0.516600  1.0  1.2238
  Mn  Mn6  1  0.918810  0.610810  0.532370  1.0  1.1338
  Mn  Mn7  1  0.574530  0.153270  0.983400  1.0  1.2243
  Mn  Mn8  1  0.418810  0.389190  0.967630  1.0  1.1331
  H  H9  1  0.807800  0.487900  0.285500  1.0  0.113
  H  H10  1  0.698600  0.506300  0.173100  1.0  0.1026
  H  H11  1  0.624700  0.212400  0.167800  1.0  0.1009
  H  H12  1  0.723800  0.197700  0.286400  1.0  0.1037
  H  H13  1  0.795800  0.696100  0.240500  1.0  0.1019
  H  H14  1  0.882400  0.770100  0.348200  1.0  0.1015
  H  H15  1  0.771000  0.036400  0.269700  1.0  0.0984
  H  H16  1  0.683700  0.961600  0.163100  1.0  0.0992
  H  H17  1  0.307800  0.512100  0.214500  1.0  0.1129
  H  H18  1  0.198600  0.493700  0.326900  1.0  0.1021
  H  H19  1  0.124700  0.787600  0.332200  1.0  0.101
  H  H20  1  0.223800  0.802300  0.213600  1.0  0.1031
  H  H21  1  0.295800  0.303900  0.259500  1.0  0.1018
  H  H22  1  0.382400  0.229900  0.151800  1.0  0.1012
  H  H23  1  0.271000  0.963600  0.230300  1.0  0.0987
  H  H24  1  0.183700  0.038400  0.336900  1.0  0.0996
  H  H25  1  0.192200  0.512100  0.714500  1.0  0.1128
  H  H26  1  0.301400  0.493700  0.826900  1.0  0.1022
  H  H27  1  0.375300  0.787600  0.832200  1.0  0.101
  H  H28  1  0.276200  0.802300  0.713600  1.0  0.103
  H  H29  1  0.204200  0.303900  0.759500  1.0  0.102
  H  H30  1  0.117600  0.229900  0.651800  1.0  0.1014
  H  H31  1  0.229000  0.963600  0.730300  1.0  0.0987
  H  H32  1  0.316300  0.038400  0.836900  1.0  0.0995
  H  H33  1  0.692200  0.487900  0.785500  1.0  0.1129
  H  H34  1  0.801400  0.506300  0.673100  1.0  0.1025
  H  H35  1  0.875300  0.212400  0.667800  1.0  0.1008
  H  H36  1  0.776200  0.197700  0.786400  1.0  0.1037
  H  H37  1  0.704200  0.696100  0.740500  1.0  0.1022
  H  H38  1  0.617600  0.770100  0.848200  1.0  0.1012
  H  H39  1  0.729000  0.036400  0.769700  1.0  0.0984
  H  H40  1  0.816300  0.961600  0.663100  1.0  0.099
  C  C41  1  0.851100  0.328300  0.369300  1.0  0.7141
  C  C42  1  0.777900  0.339800  0.295900  1.0  -0.0937
  C  C43  1  0.770000  0.433200  0.262100  1.0  -0.0675
  C  C44  1  0.706600  0.443800  0.194700  1.0  -0.0341
  C  C45  1  0.653200  0.360400  0.157600  1.0  -0.1585
  C  C46  1  0.660100  0.267700  0.191500  1.0  -0.0408
  C  C47  1  0.721500  0.258800  0.262300  1.0  -0.0536
  C  C48  1  0.676400  0.770700  0.121900  1.0  0.7182
  C  C49  1  0.731900  0.820500  0.190800  1.0  -0.1183
  C  C50  1  0.790800  0.764500  0.246200  1.0  -0.0486
  C  C51  1  0.843500  0.809000  0.311100  1.0  -0.0733
  C  C52  1  0.837300  0.912400  0.319800  1.0  -0.1229
  C  C53  1  0.776700  0.968100  0.264200  1.0  -0.0599
  C  C54  1  0.724100  0.923100  0.200000  1.0  -0.0539
  C  C55  1  0.897400  0.961000  0.389300  1.0  0.7483
  C  C56  1  0.588600  0.372400  0.082900  1.0  0.7155
  C  C57  1  0.351100  0.671700  0.130700  1.0  0.7148
  C  C58  1  0.277900  0.660200  0.204100  1.0  -0.0935
  C  C59  1  0.270000  0.566800  0.237900  1.0  -0.067
  C  C60  1  0.206600  0.556200  0.305300  1.0  -0.0342
  C  C61  1  0.153200  0.639600  0.342400  1.0  -0.1608
  C  C62  1  0.160100  0.732300  0.308500  1.0  -0.0413
  C  C63  1  0.221500  0.741200  0.237700  1.0  -0.0536
  C  C64  1  0.176400  0.229300  0.378100  1.0  0.7183
  C  C65  1  0.231900  0.179500  0.309200  1.0  -0.1172
  C  C66  1  0.290800  0.235500  0.253800  1.0  -0.0483
  C  C67  1  0.343500  0.191000  0.188900  1.0  -0.0743
  C  C68  1  0.337300  0.087600  0.180200  1.0  -0.1218
  C  C69  1  0.276700  0.031900  0.235800  1.0  -0.0592
  C  C70  1  0.224100  0.076900  0.300000  1.0  -0.0546
  C  C71  1  0.397400  0.039000  0.110700  1.0  0.7481
  C  C72  1  0.088600  0.627600  0.417100  1.0  0.7158
  C  C73  1  0.148900  0.671700  0.630700  1.0  0.7153
  C  C74  1  0.222100  0.660200  0.704100  1.0  -0.0934
  C  C75  1  0.230000  0.566800  0.737900  1.0  -0.0669
  C  C76  1  0.293400  0.556200  0.805300  1.0  -0.0346
  C  C77  1  0.346800  0.639600  0.842400  1.0  -0.1606
  C  C78  1  0.339900  0.732300  0.808500  1.0  -0.0398
  C  C79  1  0.278500  0.741200  0.737700  1.0  -0.0532
  C  C80  1  0.323600  0.229300  0.878100  1.0  0.7184
  C  C81  1  0.268100  0.179500  0.809200  1.0  -0.1183
  C  C82  1  0.209200  0.235500  0.753800  1.0  -0.0484
  C  C83  1  0.156500  0.191000  0.688900  1.0  -0.0745
  C  C84  1  0.162700  0.087600  0.680200  1.0  -0.1225
  C  C85  1  0.223300  0.031900  0.735800  1.0  -0.0595
  C  C86  1  0.275900  0.076900  0.800000  1.0  -0.0544
  C  C87  1  0.102600  0.039000  0.610700  1.0  0.7479
  C  C88  1  0.411400  0.627600  0.917100  1.0  0.7153
  C  C89  1  0.648900  0.328300  0.869300  1.0  0.7148
  C  C90  1  0.722100  0.339800  0.795900  1.0  -0.0934
  C  C91  1  0.730000  0.433200  0.762100  1.0  -0.0673
  C  C92  1  0.793400  0.443800  0.694700  1.0  -0.0336
  C  C93  1  0.846800  0.360400  0.657600  1.0  -0.1591
  C  C94  1  0.839900  0.267700  0.691500  1.0  -0.0397
  C  C95  1  0.778500  0.258800  0.762300  1.0  -0.0532
  C  C96  1  0.823600  0.770700  0.621900  1.0  0.7179
  C  C97  1  0.768100  0.820500  0.690800  1.0  -0.1187
  C  C98  1  0.709200  0.764500  0.746200  1.0  -0.0484
  C  C99  1  0.656500  0.809000  0.811100  1.0  -0.0734
  C  C100  1  0.662700  0.912400  0.819800  1.0  -0.1235
  C  C101  1  0.723300  0.968100  0.764200  1.0  -0.0604
  C  C102  1  0.775900  0.923100  0.700000  1.0  -0.054
  C  C103  1  0.602600  0.961000  0.889300  1.0  0.7485
  C  C104  1  0.911400  0.372400  0.582900  1.0  0.7146
  O  O105  1  0.820800  0.256500  0.410900  1.0  -0.644
  O  O106  1  0.938600  0.391600  0.382300  1.0  -0.6162
  O  O107  1  0.603000  0.819500  0.078100  1.0  -0.6582
  O  O108  1  0.707300  0.681200  0.110600  1.0  -0.6215
  O  O109  1  0.523500  0.300500  0.053700  1.0  -0.6678
  O  O110  1  0.852800  0.044600  0.406400  1.0  -0.6295
  O  O111  1  0.983800  0.914400  0.423900  1.0  -0.6695
  O  O112  1  0.595500  0.453300  0.049200  1.0  -0.6391
  O  O113  1  0.320800  0.743500  0.089100  1.0  -0.6465
  O  O114  1  0.438600  0.608400  0.117700  1.0  -0.616
  O  O115  1  0.103000  0.180500  0.421900  1.0  -0.6598
  O  O116  1  0.207300  0.318800  0.389400  1.0  -0.6215
  O  O117  1  0.023500  0.699500  0.446300  1.0  -0.6672
  O  O118  1  0.352800  0.955400  0.093600  1.0  -0.6307
  O  O119  1  0.483800  0.085600  0.076100  1.0  -0.6695
  O  O120  1  0.095500  0.546700  0.450800  1.0  -0.6388
  O  O121  1  0.179200  0.743500  0.589100  1.0  -0.6487
  O  O122  1  0.061400  0.608400  0.617700  1.0  -0.6162
  O  O123  1  0.397000  0.180500  0.921900  1.0  -0.6605
  O  O124  1  0.292700  0.318800  0.889400  1.0  -0.6226
  O  O125  1  0.476500  0.699500  0.946300  1.0  -0.668
  O  O126  1  0.147200  0.955400  0.593600  1.0  -0.6304
  O  O127  1  0.016200  0.085600  0.576100  1.0  -0.6693
  O  O128  1  0.404500  0.546700  0.950800  1.0  -0.6374
  O  O129  1  0.679200  0.256500  0.910900  1.0  -0.6463
  O  O130  1  0.561400  0.391600  0.882300  1.0  -0.6163
  O  O131  1  0.897000  0.819500  0.578100  1.0  -0.6594
  O  O132  1  0.792700  0.681200  0.610600  1.0  -0.6205
  O  O133  1  0.976500  0.300500  0.553700  1.0  -0.6686
  O  O134  1  0.647200  0.044600  0.906400  1.0  -0.6309
  O  O135  1  0.516200  0.914400  0.923900  1.0  -0.6686
  O  O136  1  0.904500  0.453300  0.549200  1.0  -0.638
