# generated using pymatgen
data_MnH4(C2O)4
_symmetry_space_group_name_H-M   'P 1'
_cell_length_a   10.18980000
_cell_length_b   13.57920000
_cell_length_c   17.62230000
_cell_angle_alpha   90.73800000
_cell_angle_beta   90.00000000
_cell_angle_gamma   90.00000000
_symmetry_Int_Tables_number   1
_chemical_formula_structural   MnH4(C2O)4
_chemical_formula_sum   'Mn8 H32 C64 O32'
_cell_volume   2438.18361100
_cell_formula_units_Z   8
loop_
 _symmetry_equiv_pos_site_id
 _symmetry_equiv_pos_as_xyz
  1  'x, y, z'
loop_
 _atom_site_type_symbol
 _atom_site_label
 _atom_site_symmetry_multiplicity
 _atom_site_fract_x
 _atom_site_fract_y
 _atom_site_fract_z
 _atom_site_occupancy
 _atom_site_charge
  Mn  Mn1  1  0.579700  0.389960  0.465720  1.0  1.1257
  Mn  Mn2  1  0.429940  0.152400  0.480310  1.0  1.2082
  Mn  Mn3  1  0.079700  0.610040  0.034280  1.0  1.1259
  Mn  Mn4  1  0.929940  0.847600  0.019690  1.0  1.2076
  Mn  Mn5  1  0.420300  0.610040  0.534280  1.0  1.1271
  Mn  Mn6  1  0.570060  0.847600  0.519690  1.0  1.2061
  Mn  Mn7  1  0.920300  0.389960  0.965720  1.0  1.1268
  Mn  Mn8  1  0.070060  0.152400  0.980310  1.0  1.2069
  H  H9  1  0.615000  0.231300  0.650500  1.0  0.104
  H  H10  1  0.372000  0.215600  0.666200  1.0  0.1014
  H  H11  1  0.709000  0.304000  0.756700  1.0  0.102
  H  H12  1  0.810000  0.044000  0.833400  1.0  0.109
  H  H13  1  0.186000  0.483000  0.787400  1.0  0.1108
  H  H14  1  0.271000  0.199000  0.779700  1.0  0.1084
  H  H15  1  0.299000  0.504400  0.672500  1.0  0.1047
  H  H16  1  0.721000  0.970000  0.731600  1.0  0.0959
  H  H17  1  0.115000  0.768700  0.849500  1.0  0.1037
  H  H18  1  0.872000  0.784400  0.833800  1.0  0.1036
  H  H19  1  0.209000  0.696000  0.743300  1.0  0.1005
  H  H20  1  0.310000  0.956000  0.666667  1.0  0.1064
  H  H21  1  0.686000  0.517000  0.712600  1.0  0.1106
  H  H22  1  0.771000  0.801000  0.720300  1.0  0.1079
  H  H23  1  0.799000  0.495600  0.827500  1.0  0.1047
  H  H24  1  0.221000  0.030000  0.768400  1.0  0.0957
  H  H25  1  0.385000  0.768700  0.349500  1.0  0.1043
  H  H26  1  0.628000  0.784400  0.333800  1.0  0.1047
  H  H27  1  0.291000  0.696000  0.243300  1.0  0.1006
  H  H28  1  0.190000  0.956000  0.166600  1.0  0.1084
  H  H29  1  0.814000  0.517000  0.212600  1.0  0.1108
  H  H30  1  0.729000  0.801000  0.220300  1.0  0.108
  H  H31  1  0.701000  0.495600  0.327500  1.0  0.1049
  H  H32  1  0.279000  0.030000  0.268400  1.0  0.0957
  H  H33  1  0.885000  0.231300  0.150500  1.0  0.1039
  H  H34  1  0.128000  0.215600  0.166200  1.0  0.1024
  H  H35  1  0.791000  0.304000  0.256700  1.0  0.1019
  H  H36  1  0.690000  0.044000  0.333400  1.0  0.1089
  H  H37  1  0.314000  0.483000  0.287400  1.0  0.1109
  H  H38  1  0.229000  0.199000  0.279700  1.0  0.108
  H  H39  1  0.201000  0.504400  0.172500  1.0  0.1049
  H  H40  1  0.779000  0.970000  0.231600  1.0  0.0958
  C  C41  1  0.346300  0.359400  0.656310  1.0  -0.1592
  C  C42  1  0.337700  0.267510  0.688130  1.0  -0.0379
  C  C43  1  0.275500  0.256950  0.757330  1.0  -0.07
  C  C44  1  0.219300  0.336910  0.793600  1.0  -0.1143
  C  C45  1  0.228300  0.429010  0.761300  1.0  -0.0772
  C  C46  1  0.293300  0.441000  0.693870  1.0  -0.0311
  C  C47  1  0.413560  0.372580  0.582400  1.0  0.7256
  C  C48  1  0.146600  0.324110  0.866820  1.0  0.7327
  C  C49  1  0.661700  0.091770  0.678930  1.0  -0.1148
  C  C50  1  0.656700  0.192400  0.687930  1.0  -0.0652
  C  C51  1  0.709300  0.236770  0.752150  1.0  -0.0506
  C  C52  1  0.767600  0.181570  0.807690  1.0  -0.1436
  C  C53  1  0.775000  0.080660  0.798070  1.0  -0.0552
  C  C54  1  0.721600  0.036520  0.734290  1.0  -0.0557
  C  C55  1  0.601800  0.043010  0.609740  1.0  0.7625
  C  C56  1  0.823700  0.231300  0.876820  1.0  0.7289
  C  C57  1  0.846300  0.640600  0.843690  1.0  -0.1607
  C  C58  1  0.837700  0.732490  0.811870  1.0  -0.0383
  C  C59  1  0.775500  0.743050  0.742670  1.0  -0.0657
  C  C60  1  0.719300  0.663090  0.706400  1.0  -0.1142
  C  C61  1  0.728300  0.570990  0.738700  1.0  -0.0759
  C  C62  1  0.793300  0.559000  0.806130  1.0  -0.0303
  C  C63  1  0.913560  0.627420  0.917600  1.0  0.7257
  C  C64  1  0.646600  0.675890  0.633180  1.0  0.7339
  C  C65  1  0.161700  0.908230  0.821070  1.0  -0.1163
  C  C66  1  0.156700  0.807600  0.812070  1.0  -0.0665
  C  C67  1  0.209300  0.763230  0.747850  1.0  -0.0496
  C  C68  1  0.267600  0.818430  0.692310  1.0  -0.1428
  C  C69  1  0.275000  0.919340  0.701930  1.0  -0.0657
  C  C70  1  0.221600  0.963480  0.765710  1.0  -0.0559
  C  C71  1  0.101800  0.956990  0.890260  1.0  0.7643
  C  C72  1  0.323700  0.768700  0.623180  1.0  0.7291
  C  C73  1  0.653700  0.640600  0.343690  1.0  -0.1612
  C  C74  1  0.662300  0.732490  0.311870  1.0  -0.0381
  C  C75  1  0.724500  0.743050  0.242670  1.0  -0.0658
  C  C76  1  0.780700  0.663090  0.206400  1.0  -0.1139
  C  C77  1  0.771700  0.570990  0.238700  1.0  -0.0764
  C  C78  1  0.706700  0.559000  0.306130  1.0  -0.0305
  C  C79  1  0.586440  0.627420  0.417600  1.0  0.7245
  C  C80  1  0.853400  0.675890  0.133180  1.0  0.7332
  C  C81  1  0.338300  0.908230  0.321070  1.0  -0.116
  C  C82  1  0.343300  0.807600  0.312070  1.0  -0.0671
  C  C83  1  0.290700  0.763230  0.247850  1.0  -0.0494
  C  C84  1  0.232400  0.818430  0.192310  1.0  -0.1427
  C  C85  1  0.225000  0.919340  0.201930  1.0  -0.0555
  C  C86  1  0.278400  0.963480  0.265710  1.0  -0.0561
  C  C87  1  0.398200  0.956990  0.390260  1.0  0.7639
  C  C88  1  0.176300  0.768700  0.123180  1.0  0.7282
  C  C89  1  0.153700  0.359400  0.156310  1.0  -0.1593
  C  C90  1  0.162300  0.267510  0.188130  1.0  -0.0367
  C  C91  1  0.224500  0.256950  0.257330  1.0  -0.0693
  C  C92  1  0.280700  0.336910  0.293600  1.0  -0.1143
  C  C93  1  0.271700  0.429010  0.261300  1.0  -0.0772
  C  C94  1  0.206700  0.441000  0.193870  1.0  -0.031
  C  C95  1  0.086440  0.372580  0.082400  1.0  0.725
  C  C96  1  0.353400  0.324110  0.366820  1.0  0.7312
  C  C97  1  0.838300  0.091770  0.178930  1.0  -0.1142
  C  C98  1  0.843300  0.192400  0.187930  1.0  -0.0658
  C  C99  1  0.790700  0.236770  0.252150  1.0  -0.0502
  C  C100  1  0.732400  0.181570  0.307690  1.0  -0.1431
  C  C101  1  0.725000  0.080660  0.298070  1.0  -0.0558
  C  C102  1  0.778400  0.036520  0.234290  1.0  -0.0563
  C  C103  1  0.898200  0.043010  0.109740  1.0  0.7624
  C  C104  1  0.676300  0.231300  0.376820  1.0  0.7292
  O  O105  1  0.475340  0.301890  0.551810  1.0  -0.6647
  O  O106  1  0.409780  0.454500  0.551480  1.0  -0.6523
  O  O107  1  0.066510  0.390050  0.883350  1.0  -0.6132
  O  O108  1  0.172560  0.251110  0.905030  1.0  -0.6358
  O  O109  1  0.521000  0.090210  0.573560  1.0  -0.6648
  O  O110  1  0.637500  0.957920  0.594820  1.0  -0.6373
  O  O111  1  0.891750  0.182490  0.921120  1.0  -0.656
  O  O112  1  0.796100  0.320340  0.886950  1.0  -0.6221
  O  O113  1  0.975340  0.698110  0.948190  1.0  -0.6648
  O  O114  1  0.909780  0.545500  0.948520  1.0  -0.6517
  O  O115  1  0.566510  0.609950  0.616650  1.0  -0.6136
  O  O116  1  0.672560  0.748890  0.594970  1.0  -0.6366
  O  O117  1  0.021000  0.909790  0.926440  1.0  -0.6645
  O  O118  1  0.137500  0.042080  0.905180  1.0  -0.6364
  O  O119  1  0.391750  0.817510  0.578880  1.0  -0.6568
  O  O120  1  0.296100  0.679660  0.613050  1.0  -0.62
  O  O121  1  0.524660  0.698110  0.448190  1.0  -0.6646
  O  O122  1  0.590220  0.545500  0.448520  1.0  -0.6517
  O  O123  1  0.933490  0.609950  0.116650  1.0  -0.6125
  O  O124  1  0.827440  0.748890  0.094970  1.0  -0.6355
  O  O125  1  0.479000  0.909790  0.426440  1.0  -0.6656
  O  O126  1  0.362500  0.042080  0.405180  1.0  -0.6373
  O  O127  1  0.108250  0.817510  0.078880  1.0  -0.6558
  O  O128  1  0.203900  0.679660  0.113050  1.0  -0.6191
  O  O129  1  0.024660  0.301890  0.051810  1.0  -0.6648
  O  O130  1  0.090220  0.454500  0.051480  1.0  -0.6529
  O  O131  1  0.433490  0.390050  0.383350  1.0  -0.613
  O  O132  1  0.327440  0.251110  0.405030  1.0  -0.634
  O  O133  1  0.979000  0.090210  0.073560  1.0  -0.6659
  O  O134  1  0.862500  0.957920  0.094820  1.0  -0.6368
  O  O135  1  0.608250  0.182490  0.421120  1.0  -0.656
  O  O136  1  0.703900  0.320340  0.386950  1.0  -0.6188
