# generated using pymatgen
data_MnH4(C2O)4
_symmetry_space_group_name_H-M   'P 1'
_cell_length_a   13.39610000
_cell_length_b   10.15790000
_cell_length_c   17.65550000
_cell_angle_alpha   90.00000000
_cell_angle_beta   90.07900000
_cell_angle_gamma   90.00000000
_symmetry_Int_Tables_number   1
_chemical_formula_structural   MnH4(C2O)4
_chemical_formula_sum   'Mn8 H32 C64 O32'
_cell_volume   2402.49184559
_cell_formula_units_Z   8
loop_
 _symmetry_equiv_pos_site_id
 _symmetry_equiv_pos_as_xyz
  1  'x, y, z'
loop_
 _atom_site_type_symbol
 _atom_site_label
 _atom_site_symmetry_multiplicity
 _atom_site_fract_x
 _atom_site_fract_y
 _atom_site_fract_z
 _atom_site_occupancy
 _atom_site_charge
  Mn  Mn1  1  0.846500  0.424180  0.015390  1.0  1.2192
  Mn  Mn2  1  0.611170  0.581670  0.031890  1.0  1.1015
  Mn  Mn3  1  0.153500  0.924180  0.484610  1.0  1.2203
  Mn  Mn4  1  0.388830  0.081670  0.468110  1.0  1.102
  Mn  Mn5  1  0.153500  0.575820  0.984610  1.0  1.2191
  Mn  Mn6  1  0.388830  0.418330  0.968110  1.0  1.1032
  Mn  Mn7  1  0.846500  0.075820  0.515390  1.0  1.2183
  Mn  Mn8  1  0.611170  0.918330  0.531890  1.0  1.1047
  H  H9  1  0.509000  0.190200  0.714600  1.0  0.114
  H  H10  1  0.803700  0.279500  0.711600  1.0  0.1074
  H  H11  1  0.693500  0.703300  0.740500  1.0  0.1031
  H  H12  1  0.964500  0.818200  0.661500  1.0  0.1056
  H  H13  1  0.491400  0.302200  0.828940  1.0  0.1041
  H  H14  1  0.040000  0.728500  0.768900  1.0  0.0977
  H  H15  1  0.789800  0.378100  0.830900  1.0  0.108
  H  H16  1  0.769300  0.617000  0.849400  1.0  0.1055
  H  H17  1  0.491000  0.690200  0.785400  1.0  0.1138
  H  H18  1  0.196300  0.779500  0.788400  1.0  0.1081
  H  H19  1  0.306500  0.203300  0.759500  1.0  0.1031
  H  H20  1  0.035500  0.318200  0.838500  1.0  0.1053
  H  H21  1  0.508600  0.802200  0.671060  1.0  0.1041
  H  H22  1  0.960000  0.228500  0.731100  1.0  0.0976
  H  H23  1  0.210200  0.878100  0.669100  1.0  0.1074
  H  H24  1  0.230700  0.117000  0.650600  1.0  0.1051
  H  H25  1  0.491000  0.809800  0.285400  1.0  0.1137
  H  H26  1  0.196300  0.720500  0.288400  1.0  0.1081
  H  H27  1  0.306500  0.296700  0.259500  1.0  0.103
  H  H28  1  0.035500  0.181800  0.338500  1.0  0.1051
  H  H29  1  0.508600  0.697800  0.171060  1.0  0.1039
  H  H30  1  0.960000  0.271500  0.231100  1.0  0.0974
  H  H31  1  0.210200  0.621900  0.169100  1.0  0.1078
  H  H32  1  0.230700  0.383000  0.150600  1.0  0.1054
  H  H33  1  0.509000  0.309800  0.214600  1.0  0.1139
  H  H34  1  0.803700  0.220500  0.211600  1.0  0.1076
  H  H35  1  0.693500  0.796700  0.240500  1.0  0.1031
  H  H36  1  0.964500  0.681800  0.161500  1.0  0.1056
  H  H37  1  0.491400  0.197800  0.328940  1.0  0.1043
  H  H38  1  0.040000  0.771500  0.268900  1.0  0.0977
  H  H39  1  0.789800  0.121900  0.330900  1.0  0.1079
  H  H40  1  0.769300  0.883000  0.349400  1.0  0.1056
  C  C41  1  0.628000  0.411500  0.917120  1.0  0.6948
  C  C42  1  0.639600  0.347600  0.841980  1.0  -0.1439
  C  C43  1  0.565400  0.230100  0.737800  1.0  -0.0548
  C  C44  1  0.658000  0.223700  0.702870  1.0  -0.1074
  C  C45  1  0.741100  0.281300  0.736700  1.0  -0.0593
  C  C46  1  0.912700  0.663000  0.819280  1.0  -0.1239
  C  C47  1  0.670600  0.149600  0.630000  1.0  0.7063
  C  C48  1  0.763900  0.708700  0.746400  1.0  -0.0447
  C  C49  1  0.821300  0.768500  0.690200  1.0  -0.1202
  C  C50  1  0.924900  0.776600  0.699100  1.0  -0.0544
  C  C51  1  0.770900  0.823900  0.621300  1.0  0.7113
  C  C52  1  0.555300  0.294200  0.806150  1.0  -0.0366
  C  C53  1  0.969500  0.723500  0.763200  1.0  -0.0561
  C  C54  1  0.732600  0.341400  0.806900  1.0  -0.0237
  C  C55  1  0.808900  0.656600  0.811100  1.0  -0.0714
  C  C56  1  0.962000  0.604000  0.888850  1.0  0.745
  C  C57  1  0.372000  0.911500  0.582880  1.0  0.6948
  C  C58  1  0.360400  0.847600  0.658020  1.0  -0.1423
  C  C59  1  0.434600  0.730100  0.762200  1.0  -0.0538
  C  C60  1  0.342000  0.723700  0.797130  1.0  -0.1086
  C  C61  1  0.258900  0.781300  0.763300  1.0  -0.0606
  C  C62  1  0.087300  0.163000  0.680720  1.0  -0.1226
  C  C63  1  0.329400  0.649600  0.870000  1.0  0.7058
  C  C64  1  0.236100  0.208700  0.753600  1.0  -0.0442
  C  C65  1  0.178700  0.268500  0.809800  1.0  -0.1201
  C  C66  1  0.075100  0.276600  0.800900  1.0  -0.0552
  C  C67  1  0.229100  0.323900  0.878700  1.0  0.7107
  C  C68  1  0.444700  0.794200  0.693850  1.0  -0.0363
  C  C69  1  0.030500  0.223500  0.736800  1.0  -0.0582
  C  C70  1  0.267400  0.841400  0.693100  1.0  -0.0244
  C  C71  1  0.191100  0.156600  0.688900  1.0  -0.0697
  C  C72  1  0.038000  0.104000  0.611150  1.0  0.7439
  C  C73  1  0.372000  0.588500  0.082880  1.0  0.6952
  C  C74  1  0.360400  0.652400  0.158020  1.0  -0.1413
  C  C75  1  0.434600  0.769900  0.262200  1.0  -0.0542
  C  C76  1  0.342000  0.776300  0.297130  1.0  -0.1086
  C  C77  1  0.258900  0.718700  0.263300  1.0  -0.0606
  C  C78  1  0.087300  0.337000  0.180720  1.0  -0.1227
  C  C79  1  0.329400  0.850400  0.370000  1.0  0.7062
  C  C80  1  0.236100  0.291300  0.253600  1.0  -0.0443
  C  C81  1  0.178700  0.231500  0.309800  1.0  -0.1201
  C  C82  1  0.075100  0.223400  0.300900  1.0  -0.055
  C  C83  1  0.229100  0.176100  0.378700  1.0  0.7109
  C  C84  1  0.444700  0.705800  0.193850  1.0  -0.0365
  C  C85  1  0.030500  0.276500  0.236800  1.0  -0.0586
  C  C86  1  0.267400  0.658600  0.193100  1.0  -0.0247
  C  C87  1  0.191100  0.343400  0.188900  1.0  -0.0701
  C  C88  1  0.038000  0.396000  0.111150  1.0  0.7431
  C  C89  1  0.628000  0.088500  0.417120  1.0  0.6948
  C  C90  1  0.639600  0.152400  0.341980  1.0  -0.1433
  C  C91  1  0.565400  0.269900  0.237800  1.0  -0.0545
  C  C92  1  0.658000  0.276300  0.202870  1.0  -0.1069
  C  C93  1  0.741100  0.218700  0.236700  1.0  -0.0592
  C  C94  1  0.912700  0.837000  0.319280  1.0  -0.124
  C  C95  1  0.670600  0.350400  0.130000  1.0  0.7065
  C  C96  1  0.763900  0.791300  0.246400  1.0  -0.0446
  C  C97  1  0.821300  0.731500  0.190200  1.0  -0.1209
  C  C98  1  0.924900  0.723400  0.199100  1.0  -0.0537
  C  C99  1  0.770900  0.676100  0.121300  1.0  0.7119
  C  C100  1  0.555300  0.205800  0.306150  1.0  -0.0376
  C  C101  1  0.969500  0.776500  0.263200  1.0  -0.0563
  C  C102  1  0.732600  0.158600  0.306900  1.0  -0.0238
  C  C103  1  0.808900  0.843400  0.311100  1.0  -0.0706
  C  C104  1  0.962000  0.896000  0.388850  1.0  0.7455
  O  O105  1  0.915400  0.514800  0.922970  1.0  -0.6712
  O  O106  1  0.700090  0.476600  0.945660  1.0  -0.6621
  O  O107  1  0.546460  0.402400  0.951990  1.0  -0.6595
  O  O108  1  0.607900  0.059600  0.618180  1.0  -0.6015
  O  O109  1  0.741100  0.181700  0.587010  1.0  -0.6443
  O  O110  1  0.819500  0.898300  0.577940  1.0  -0.6595
  O  O111  1  0.681000  0.790500  0.609820  1.0  -0.6053
  O  O112  1  0.045600  0.649300  0.906740  1.0  -0.6216
  O  O113  1  0.084600  0.014800  0.577030  1.0  -0.6725
  O  O114  1  0.299910  0.976600  0.554340  1.0  -0.6628
  O  O115  1  0.453540  0.902400  0.548010  1.0  -0.6614
  O  O116  1  0.392100  0.559600  0.881820  1.0  -0.6022
  O  O117  1  0.258900  0.681700  0.912990  1.0  -0.6436
  O  O118  1  0.180500  0.398300  0.922060  1.0  -0.6606
  O  O119  1  0.319000  0.290500  0.890180  1.0  -0.6058
  O  O120  1  0.954400  0.149300  0.593260  1.0  -0.6208
  O  O121  1  0.084600  0.485200  0.077030  1.0  -0.6736
  O  O122  1  0.299910  0.523400  0.054340  1.0  -0.6635
  O  O123  1  0.453540  0.597600  0.048010  1.0  -0.6599
  O  O124  1  0.392100  0.940400  0.381820  1.0  -0.6023
  O  O125  1  0.258900  0.818300  0.412990  1.0  -0.6431
  O  O126  1  0.180500  0.101700  0.422060  1.0  -0.6607
  O  O127  1  0.319000  0.209500  0.390180  1.0  -0.6058
  O  O128  1  0.954400  0.350700  0.093260  1.0  -0.6214
  O  O129  1  0.915400  0.985200  0.422970  1.0  -0.6724
  O  O130  1  0.700090  0.023400  0.445660  1.0  -0.6623
  O  O131  1  0.546460  0.097600  0.451990  1.0  -0.6592
  O  O132  1  0.607900  0.440400  0.118180  1.0  -0.6015
  O  O133  1  0.741100  0.318300  0.087010  1.0  -0.6439
  O  O134  1  0.819500  0.601700  0.077940  1.0  -0.659
  O  O135  1  0.681000  0.709500  0.109820  1.0  -0.6052
  O  O136  1  0.045600  0.850700  0.406740  1.0  -0.6222
