# generated using pymatgen
data_MnH8C13NO5
_symmetry_space_group_name_H-M   'P 1'
_cell_length_a   12.56400000
_cell_length_b   12.64610000
_cell_length_c   12.64610000
_cell_angle_alpha   91.63710000
_cell_angle_beta   113.87000000
_cell_angle_gamma   113.87000000
_symmetry_Int_Tables_number   1
_chemical_formula_structural   MnH8C13NO5
_chemical_formula_sum   'Mn4 H32 C52 N4 O20'
_cell_volume   1635.22001352
_cell_formula_units_Z   4
loop_
 _symmetry_equiv_pos_site_id
 _symmetry_equiv_pos_as_xyz
  1  'x, y, z'
loop_
 _atom_site_type_symbol
 _atom_site_label
 _atom_site_symmetry_multiplicity
 _atom_site_fract_x
 _atom_site_fract_y
 _atom_site_fract_z
 _atom_site_occupancy
 _atom_site_charge
  Mn  Mn1  1  0.250000  0.696100  0.303900  1.0  1.1928
  Mn  Mn2  1  0.750000  0.303900  0.696100  1.0  1.1991
  Mn  Mn3  1  0.000000  0.500000  0.000000  1.0  1.204
  Mn  Mn4  1  0.500000  0.000000  0.500000  1.0  1.204
  H  H5  1  0.504800  0.577200  0.345400  1.0  0.0998
  H  H6  1  0.600600  0.467100  0.450900  1.0  0.104
  H  H7  1  0.276900  0.167600  0.246000  1.0  0.0948
  H  H8  1  0.187600  0.277100  0.134300  1.0  0.0663
  H  H9  1  0.136600  0.785100  0.964300  1.0  0.1145
  H  H10  1  0.091300  0.939100  0.907300  1.0  0.1238
  H  H11  1  0.953400  0.926200  0.143400  1.0  0.1254
  H  H12  1  0.004500  0.774600  0.199000  1.0  0.1287
  H  H13  1  0.995200  0.654600  0.422800  1.0  0.1022
  H  H14  1  0.899400  0.549100  0.532900  1.0  0.1028
  H  H15  1  0.223100  0.754000  0.832400  1.0  0.0951
  H  H16  1  0.312400  0.865700  0.722900  1.0  0.0667
  H  H17  1  0.363400  0.035700  0.214900  1.0  0.1139
  H  H18  1  0.408700  0.092700  0.060900  1.0  0.1235
  H  H19  1  0.546600  0.856600  0.073800  1.0  0.1252
  H  H20  1  0.495500  0.801000  0.225400  1.0  0.1271
  H  H21  1  0.495200  0.422800  0.654600  1.0  0.1003
  H  H22  1  0.399400  0.532900  0.549100  1.0  0.1041
  H  H23  1  0.723100  0.832400  0.754000  1.0  0.0935
  H  H24  1  0.812400  0.722900  0.865700  1.0  0.065
  H  H25  1  0.863400  0.214900  0.035700  1.0  0.1148
  H  H26  1  0.908700  0.060900  0.092700  1.0  0.1236
  H  H27  1  0.046600  0.073800  0.856600  1.0  0.1261
  H  H28  1  0.995500  0.225400  0.801000  1.0  0.1278
  H  H29  1  0.004800  0.345400  0.577200  1.0  0.1019
  H  H30  1  0.100600  0.450900  0.467100  1.0  0.1025
  H  H31  1  0.776900  0.246000  0.167600  1.0  0.0948
  H  H32  1  0.687600  0.134300  0.277100  1.0  0.0651
  H  H33  1  0.636600  0.964300  0.785100  1.0  0.1138
  H  H34  1  0.591300  0.907300  0.939100  1.0  0.1231
  H  H35  1  0.453400  0.143400  0.926200  1.0  0.1247
  H  H36  1  0.504500  0.199000  0.774600  1.0  0.1288
  C  C37  1  0.268400  0.510400  0.167200  1.0  0.715
  C  C38  1  0.333900  0.438950  0.229650  1.0  -0.1266
  C  C39  1  0.458900  0.494700  0.324900  1.0  -0.0519
  C  C40  1  0.515800  0.428700  0.389500  1.0  -0.0479
  C  C41  1  0.446700  0.305500  0.362900  1.0  -0.1222
  C  C42  1  0.323400  0.250100  0.266300  1.0  -0.0617
  C  C43  1  0.269300  0.315900  0.200100  1.0  -0.04
  C  C44  1  0.506300  0.236400  0.441000  1.0  0.6907
  C  C45  1  0.100900  0.815200  0.001400  1.0  -0.0321
  C  C46  1  0.072700  0.906900  0.966500  1.0  -0.1393
  C  C47  1  0.016600  0.951900  0.018900  1.0  0.0434
  C  C48  1  0.991600  0.899500  0.106500  1.0  -0.1423
  C  C49  1  0.022200  0.808500  0.140100  1.0  0.0
  C  C50  1  0.231600  0.832800  0.489600  1.0  0.7181
  C  C51  1  0.166100  0.770350  0.561050  1.0  -0.1282
  C  C52  1  0.041100  0.675100  0.505300  1.0  -0.0523
  C  C53  1  0.984200  0.610500  0.571300  1.0  -0.0482
  C  C54  1  0.053300  0.637100  0.694500  1.0  -0.1234
  C  C55  1  0.176600  0.733700  0.749900  1.0  -0.0619
  C  C56  1  0.230700  0.799900  0.684100  1.0  -0.0397
  C  C57  1  0.993700  0.559000  0.763600  1.0  0.6933
  C  C58  1  0.399100  0.998600  0.184800  1.0  -0.0307
  C  C59  1  0.427300  0.033500  0.093100  1.0  -0.139
  C  C60  1  0.483400  0.981100  0.048100  1.0  0.0437
  C  C61  1  0.508400  0.893500  0.100500  1.0  -0.1434
  C  C62  1  0.477800  0.859900  0.191500  1.0  -0.0085
  C  C63  1  0.731600  0.489600  0.832800  1.0  0.7166
  C  C64  1  0.666100  0.561050  0.770350  1.0  -0.1274
  C  C65  1  0.541100  0.505300  0.675100  1.0  -0.0514
  C  C66  1  0.484200  0.571300  0.610500  1.0  -0.0465
  C  C67  1  0.553300  0.694500  0.637100  1.0  -0.1223
  C  C68  1  0.676600  0.749900  0.733700  1.0  -0.0616
  C  C69  1  0.730700  0.684100  0.799900  1.0  -0.0398
  C  C70  1  0.493700  0.763600  0.559000  1.0  0.6909
  C  C71  1  0.899100  0.184800  0.998600  1.0  -0.0322
  C  C72  1  0.927300  0.093100  0.033500  1.0  -0.1382
  C  C73  1  0.983400  0.048100  0.981100  1.0  0.044
  C  C74  1  0.008400  0.100500  0.893500  1.0  -0.1395
  C  C75  1  0.977800  0.191500  0.859900  1.0  0.0007
  C  C76  1  0.768400  0.167200  0.510400  1.0  0.7212
  C  C77  1  0.833900  0.229650  0.438950  1.0  -0.1288
  C  C78  1  0.958900  0.324900  0.494700  1.0  -0.0517
  C  C79  1  0.015800  0.389500  0.428700  1.0  -0.0489
  C  C80  1  0.946700  0.362900  0.305500  1.0  -0.1241
  C  C81  1  0.823400  0.266300  0.250100  1.0  -0.061
  C  C82  1  0.769300  0.200100  0.315900  1.0  -0.0398
  C  C83  1  0.006300  0.441000  0.236400  1.0  0.6932
  C  C84  1  0.600900  0.001400  0.815200  1.0  -0.0308
  C  C85  1  0.572700  0.966500  0.906900  1.0  -0.1394
  C  C86  1  0.516600  0.018900  0.951900  1.0  0.0437
  C  C87  1  0.491600  0.106500  0.899500  1.0  -0.1401
  C  C88  1  0.522200  0.140100  0.808500  1.0  -0.0056
  N  N89  1  0.077300  0.769380  0.088020  1.0  0.3494
  N  N90  1  0.422700  0.911980  0.230620  1.0  0.3481
  N  N91  1  0.922700  0.230620  0.911980  1.0  0.3506
  N  N92  1  0.577300  0.088020  0.769380  1.0  0.3498
  O  O93  1  0.323000  0.620020  0.213220  1.0  -0.6479
  O  O94  1  0.162600  0.457600  0.072480  1.0  -0.6274
  O  O95  1  0.618700  0.295520  0.524060  1.0  -0.6122
  O  O96  1  0.436900  0.124590  0.417290  1.0  -0.6203
  O  O97  1  0.107000  0.682090  0.121890  1.0  -0.5819
  O  O98  1  0.177000  0.786780  0.379980  1.0  -0.6478
  O  O99  1  0.337400  0.927520  0.542400  1.0  -0.6297
  O  O100  1  0.881300  0.475940  0.704480  1.0  -0.6119
  O  O101  1  0.063100  0.582710  0.875410  1.0  -0.6203
  O  O102  1  0.393000  0.878110  0.317910  1.0  -0.5813
  O  O103  1  0.677000  0.379980  0.786780  1.0  -0.6499
  O  O104  1  0.837400  0.542400  0.927520  1.0  -0.6273
  O  O105  1  0.381300  0.704480  0.475940  1.0  -0.6119
  O  O106  1  0.563100  0.875410  0.582710  1.0  -0.6203
  O  O107  1  0.893000  0.317910  0.878110  1.0  -0.5823
  O  O108  1  0.823000  0.213220  0.620020  1.0  -0.6481
  O  O109  1  0.662600  0.072480  0.457600  1.0  -0.6299
  O  O110  1  0.118700  0.524060  0.295520  1.0  -0.6124
  O  O111  1  0.936900  0.417290  0.124590  1.0  -0.6197
  O  O112  1  0.607000  0.121890  0.682090  1.0  -0.5851
