# generated using pymatgen
data_MnH4(C2O)4
_symmetry_space_group_name_H-M   'P 1'
_cell_length_a   10.16200000
_cell_length_b   13.41400000
_cell_length_c   17.65300000
_cell_angle_alpha   90.21000000
_cell_angle_beta   90.00000000
_cell_angle_gamma   90.00000000
_symmetry_Int_Tables_number   1
_chemical_formula_structural   MnH4(C2O)4
_chemical_formula_sum   'Mn8 H32 C64 O32'
_cell_volume   2406.31842652
_cell_formula_units_Z   8
loop_
 _symmetry_equiv_pos_site_id
 _symmetry_equiv_pos_as_xyz
  1  'x, y, z'
loop_
 _atom_site_type_symbol
 _atom_site_label
 _atom_site_symmetry_multiplicity
 _atom_site_fract_x
 _atom_site_fract_y
 _atom_site_fract_z
 _atom_site_occupancy
 _atom_site_charge
  Mn  Mn1  1  0.081580  0.388870  0.467980  1.0  1.1196
  Mn  Mn2  1  0.924450  0.153500  0.484570  1.0  1.225
  Mn  Mn3  1  0.581580  0.611130  0.032020  1.0  1.1199
  Mn  Mn4  1  0.424450  0.846500  0.015430  1.0  1.2241
  Mn  Mn5  1  0.918420  0.611130  0.532020  1.0  1.1223
  Mn  Mn6  1  0.075550  0.846500  0.515430  1.0  1.2223
  Mn  Mn7  1  0.418420  0.388870  0.967980  1.0  1.1217
  Mn  Mn8  1  0.575550  0.153500  0.984570  1.0  1.2229
  H  H9  1  0.877800  0.210300  0.668200  1.0  0.1057
  H  H10  1  0.802400  0.508400  0.670700  1.0  0.1017
  H  H11  1  0.779800  0.196000  0.788100  1.0  0.1098
  H  H12  1  0.690100  0.491000  0.785800  1.0  0.1118
  H  H13  1  0.296100  0.306300  0.258900  1.0  0.1045
  H  H14  1  0.181200  0.036100  0.338400  1.0  0.1057
  H  H15  1  0.382800  0.230500  0.150700  1.0  0.1025
  H  H16  1  0.271800  0.960300  0.230800  1.0  0.0984
  H  H17  1  0.377800  0.789700  0.831800  1.0  0.1061
  H  H18  1  0.302400  0.491600  0.829300  1.0  0.1016
  H  H19  1  0.279800  0.804000  0.711900  1.0  0.1093
  H  H20  1  0.190100  0.509000  0.714200  1.0  0.1119
  H  H21  1  0.796100  0.693700  0.241100  1.0  0.1046
  H  H22  1  0.681200  0.963900  0.161600  1.0  0.1055
  H  H23  1  0.882800  0.769500  0.349300  1.0  0.103
  H  H24  1  0.771800  0.039700  0.269200  1.0  0.0983
  H  H25  1  0.122200  0.789700  0.331800  1.0  0.1057
  H  H26  1  0.197600  0.491600  0.329300  1.0  0.1015
  H  H27  1  0.220200  0.804000  0.211900  1.0  0.1094
  H  H28  1  0.309900  0.509000  0.214200  1.0  0.1119
  H  H29  1  0.703900  0.693700  0.741100  1.0  0.1045
  H  H30  1  0.818800  0.963900  0.661600  1.0  0.1055
  H  H31  1  0.617200  0.769500  0.849300  1.0  0.1025
  H  H32  1  0.728200  0.039700  0.769200  1.0  0.0986
  H  H33  1  0.622200  0.210300  0.168200  1.0  0.1055
  H  H34  1  0.697600  0.508400  0.170700  1.0  0.102
  H  H35  1  0.720200  0.196000  0.288100  1.0  0.1098
  H  H36  1  0.809900  0.491000  0.285800  1.0  0.1117
  H  H37  1  0.203900  0.306300  0.758900  1.0  0.1045
  H  H38  1  0.318800  0.036100  0.838400  1.0  0.1059
  H  H39  1  0.117200  0.230500  0.650700  1.0  0.1025
  H  H40  1  0.228200  0.960300  0.730800  1.0  0.0986
  C  C41  1  0.911360  0.371590  0.582720  1.0  0.7096
  C  C42  1  0.847470  0.360570  0.657960  1.0  -0.1555
  C  C43  1  0.841390  0.267200  0.692530  1.0  -0.0338
  C  C44  1  0.794350  0.444650  0.693550  1.0  -0.0344
  C  C45  1  0.781250  0.258600  0.763070  1.0  -0.0616
  C  C46  1  0.729740  0.434630  0.762350  1.0  -0.0706
  C  C47  1  0.723370  0.341320  0.796950  1.0  -0.0938
  C  C48  1  0.648950  0.329490  0.870200  1.0  0.713
  C  C49  1  0.176170  0.228990  0.378700  1.0  0.7107
  C  C50  1  0.231260  0.178900  0.309610  1.0  -0.1225
  C  C51  1  0.291040  0.235900  0.253170  1.0  -0.0526
  C  C52  1  0.223010  0.075480  0.300840  1.0  -0.0591
  C  C53  1  0.343070  0.190920  0.188940  1.0  -0.0701
  C  C54  1  0.276520  0.030660  0.236580  1.0  -0.0593
  C  C55  1  0.337020  0.087610  0.180490  1.0  -0.1197
  C  C56  1  0.395820  0.038440  0.111190  1.0  0.7424
  C  C57  1  0.411360  0.628410  0.917280  1.0  0.7101
  C  C58  1  0.347470  0.639430  0.842040  1.0  -0.1559
  C  C59  1  0.341390  0.732800  0.807470  1.0  -0.0346
  C  C60  1  0.294350  0.555350  0.806450  1.0  -0.0347
  C  C61  1  0.281250  0.741400  0.736930  1.0  -0.06
  C  C62  1  0.229740  0.565370  0.737650  1.0  -0.0703
  C  C63  1  0.223370  0.658680  0.703050  1.0  -0.0933
  C  C64  1  0.148950  0.670510  0.629800  1.0  0.7138
  C  C65  1  0.676170  0.771010  0.121300  1.0  0.7118
  C  C66  1  0.731260  0.821100  0.190390  1.0  -0.1231
  C  C67  1  0.791040  0.764100  0.246830  1.0  -0.0533
  C  C68  1  0.723010  0.924520  0.199160  1.0  -0.0584
  C  C69  1  0.843070  0.809080  0.311060  1.0  -0.0701
  C  C70  1  0.776520  0.969340  0.263420  1.0  -0.0583
  C  C71  1  0.837020  0.912390  0.319510  1.0  -0.1198
  C  C72  1  0.895820  0.961560  0.388810  1.0  0.7436
  C  C73  1  0.088640  0.628410  0.417280  1.0  0.71
  C  C74  1  0.152530  0.639430  0.342040  1.0  -0.1569
  C  C75  1  0.158610  0.732800  0.307470  1.0  -0.0344
  C  C76  1  0.205650  0.555350  0.306450  1.0  -0.0343
  C  C77  1  0.218750  0.741400  0.236930  1.0  -0.0597
  C  C78  1  0.270260  0.565370  0.237650  1.0  -0.0704
  C  C79  1  0.276630  0.658680  0.203050  1.0  -0.093
  C  C80  1  0.351050  0.670510  0.129800  1.0  0.7129
  C  C81  1  0.823830  0.771010  0.621300  1.0  0.7125
  C  C82  1  0.768740  0.821100  0.690390  1.0  -0.1231
  C  C83  1  0.708960  0.764100  0.746830  1.0  -0.0531
  C  C84  1  0.776990  0.924520  0.699160  1.0  -0.0588
  C  C85  1  0.656930  0.809080  0.811060  1.0  -0.0716
  C  C86  1  0.723480  0.969340  0.763420  1.0  -0.0585
  C  C87  1  0.662980  0.912390  0.819510  1.0  -0.1213
  C  C88  1  0.604180  0.961560  0.888810  1.0  0.7438
  C  C89  1  0.588640  0.371590  0.082720  1.0  0.7098
  C  C90  1  0.652530  0.360570  0.157960  1.0  -0.1556
  C  C91  1  0.658610  0.267200  0.192530  1.0  -0.0336
  C  C92  1  0.705650  0.444650  0.193550  1.0  -0.0345
  C  C93  1  0.718750  0.258600  0.263070  1.0  -0.0613
  C  C94  1  0.770260  0.434630  0.262350  1.0  -0.0707
  C  C95  1  0.776630  0.341320  0.296950  1.0  -0.0939
  C  C96  1  0.851050  0.329490  0.370200  1.0  0.7116
  C  C97  1  0.323830  0.228990  0.878700  1.0  0.711
  C  C98  1  0.268740  0.178900  0.809610  1.0  -0.1229
  C  C99  1  0.208960  0.235900  0.753170  1.0  -0.0525
  C  C100  1  0.276990  0.075480  0.800840  1.0  -0.0593
  C  C101  1  0.156930  0.190920  0.688940  1.0  -0.0711
  C  C102  1  0.223480  0.030660  0.736580  1.0  -0.0593
  C  C103  1  0.162980  0.087610  0.680490  1.0  -0.1205
  C  C104  1  0.104180  0.038440  0.611190  1.0  0.7425
  O  O105  1  0.976750  0.300000  0.554360  1.0  -0.6633
  O  O106  1  0.902900  0.453440  0.548140  1.0  -0.65
  O  O107  1  0.559870  0.392030  0.881930  1.0  -0.6055
  O  O108  1  0.681200  0.258820  0.912710  1.0  -0.6447
  O  O109  1  0.209170  0.318930  0.390080  1.0  -0.6128
  O  O110  1  0.102040  0.180640  0.421880  1.0  -0.6542
  O  O111  1  0.351450  0.954270  0.093300  1.0  -0.6271
  O  O112  1  0.485010  0.084570  0.077080  1.0  -0.671
  O  O113  1  0.476750  0.700000  0.945640  1.0  -0.6627
  O  O114  1  0.402900  0.546560  0.951860  1.0  -0.6475
  O  O115  1  0.059870  0.607970  0.618070  1.0  -0.6053
  O  O116  1  0.181200  0.741180  0.587290  1.0  -0.6463
  O  O117  1  0.709170  0.681070  0.109920  1.0  -0.6143
  O  O118  1  0.602040  0.819360  0.078120  1.0  -0.6526
  O  O119  1  0.851450  0.045730  0.406700  1.0  -0.6262
  O  O120  1  0.985010  0.915430  0.422920  1.0  -0.6705
  O  O121  1  0.023250  0.700000  0.445640  1.0  -0.6644
  O  O122  1  0.097100  0.546560  0.451860  1.0  -0.6483
  O  O123  1  0.440130  0.607970  0.118070  1.0  -0.6054
  O  O124  1  0.318800  0.741180  0.087290  1.0  -0.645
  O  O125  1  0.790830  0.681070  0.609920  1.0  -0.6123
  O  O126  1  0.897960  0.819360  0.578120  1.0  -0.6539
  O  O127  1  0.648550  0.045730  0.906700  1.0  -0.6278
  O  O128  1  0.514990  0.915430  0.922920  1.0  -0.6697
  O  O129  1  0.523250  0.300000  0.054360  1.0  -0.6651
  O  O130  1  0.597100  0.453440  0.048140  1.0  -0.6503
  O  O131  1  0.940130  0.392030  0.381930  1.0  -0.6063
  O  O132  1  0.818800  0.258820  0.412710  1.0  -0.6426
  O  O133  1  0.290830  0.318930  0.890080  1.0  -0.6144
  O  O134  1  0.397960  0.180640  0.921880  1.0  -0.6551
  O  O135  1  0.148550  0.954270  0.593300  1.0  -0.627
  O  O136  1  0.014990  0.084570  0.577080  1.0  -0.6704
