# generated using pymatgen
data_MnH4(C2O)4
_symmetry_space_group_name_H-M   'P 1'
_cell_length_a   13.63530000
_cell_length_b   10.22590000
_cell_length_c   17.69250000
_cell_angle_alpha   90.00000000
_cell_angle_beta   90.70400000
_cell_angle_gamma   90.00000000
_symmetry_Int_Tables_number   1
_chemical_formula_structural   MnH4(C2O)4
_chemical_formula_sum   'Mn8 H32 C64 O32'
_cell_volume   2466.73592617
_cell_formula_units_Z   8
loop_
 _symmetry_equiv_pos_site_id
 _symmetry_equiv_pos_as_xyz
  1  'x, y, z'
loop_
 _atom_site_type_symbol
 _atom_site_label
 _atom_site_symmetry_multiplicity
 _atom_site_fract_x
 _atom_site_fract_y
 _atom_site_fract_z
 _atom_site_occupancy
 _atom_site_charge
  Mn  Mn1  1  0.389980  0.920280  0.965820  1.0  1.127
  Mn  Mn2  1  0.152310  0.070190  0.980440  1.0  1.1513
  Mn  Mn3  1  0.610020  0.420280  0.534180  1.0  1.1263
  Mn  Mn4  1  0.847690  0.570190  0.519560  1.0  1.1513
  Mn  Mn5  1  0.610020  0.079720  0.034180  1.0  1.1235
  Mn  Mn6  1  0.847690  0.929810  0.019560  1.0  1.151
  Mn  Mn7  1  0.389980  0.579720  0.465820  1.0  1.1244
  Mn  Mn8  1  0.152310  0.429810  0.480440  1.0  1.1512
  H  H9  1  0.304200  0.705000  0.758000  1.0  0.1043
  H  H10  1  0.230600  0.617900  0.651400  1.0  0.1002
  H  H11  1  0.968600  0.726500  0.728400  1.0  0.1005
  H  H12  1  0.042500  0.816400  0.834500  1.0  0.1079
  H  H13  1  0.483000  0.190000  0.785300  1.0  0.109
  H  H14  1  0.502900  0.301800  0.673300  1.0  0.1015
  H  H15  1  0.212900  0.372500  0.663300  1.0  0.1086
  H  H16  1  0.195800  0.272700  0.780100  1.0  0.111
  H  H17  1  0.695800  0.205000  0.742000  1.0  0.104
  H  H18  1  0.769400  0.117900  0.848600  1.0  0.1008
  H  H19  1  0.031400  0.226500  0.771600  1.0  0.1024
  H  H20  1  0.957500  0.316400  0.665500  1.0  0.1078
  H  H21  1  0.517000  0.690000  0.714700  1.0  0.1092
  H  H22  1  0.497100  0.801800  0.826700  1.0  0.1013
  H  H23  1  0.787100  0.872500  0.836700  1.0  0.1091
  H  H24  1  0.804200  0.772700  0.719900  1.0  0.11
  H  H25  1  0.695800  0.295000  0.242000  1.0  0.1039
  H  H26  1  0.769400  0.382100  0.348600  1.0  0.101
  H  H27  1  0.031400  0.273500  0.271600  1.0  0.1019
  H  H28  1  0.957500  0.183600  0.165500  1.0  0.1079
  H  H29  1  0.517000  0.810000  0.214700  1.0  0.1091
  H  H30  1  0.497100  0.698200  0.326700  1.0  0.1009
  H  H31  1  0.787100  0.627500  0.336700  1.0  0.1087
  H  H32  1  0.804200  0.727300  0.219900  1.0  0.1099
  H  H33  1  0.304200  0.795000  0.258000  1.0  0.1042
  H  H34  1  0.230600  0.882100  0.151400  1.0  0.1004
  H  H35  1  0.968600  0.773500  0.228400  1.0  0.1013
  H  H36  1  0.042500  0.683600  0.334500  1.0  0.1079
  H  H37  1  0.483000  0.310000  0.285300  1.0  0.1089
  H  H38  1  0.502900  0.198200  0.173300  1.0  0.1014
  H  H39  1  0.212900  0.127500  0.163300  1.0  0.1086
  H  H40  1  0.195800  0.227300  0.280100  1.0  0.1108
  C  C41  1  0.230730  0.823700  0.877020  1.0  0.7261
  C  C42  1  0.181040  0.767600  0.807770  1.0  -0.1286
  C  C43  1  0.236360  0.709100  0.752280  1.0  -0.044
  C  C44  1  0.192280  0.656600  0.688340  1.0  -0.0414
  C  C45  1  0.091240  0.661500  0.679080  1.0  -0.1254
  C  C46  1  0.036370  0.721800  0.734250  1.0  -0.0516
  C  C47  1  0.080520  0.775300  0.798170  1.0  -0.0636
  C  C48  1  0.324290  0.146700  0.866650  1.0  0.7509
  C  C49  1  0.336880  0.219400  0.793650  1.0  -0.1348
  C  C50  1  0.429100  0.228200  0.761310  1.0  -0.0508
  C  C51  1  0.440820  0.293200  0.693830  1.0  -0.0382
  C  C52  1  0.359420  0.346300  0.656300  1.0  -0.1234
  C  C53  1  0.267320  0.337500  0.688170  1.0  -0.0393
  C  C54  1  0.257110  0.275900  0.757610  1.0  -0.0599
  C  C55  1  0.372610  0.413600  0.582460  1.0  0.7174
  C  C56  1  0.042820  0.601800  0.609900  1.0  0.7666
  C  C57  1  0.769270  0.323700  0.622980  1.0  0.7254
  C  C58  1  0.818960  0.267600  0.692230  1.0  -0.1277
  C  C59  1  0.763640  0.209100  0.747720  1.0  -0.0454
  C  C60  1  0.807720  0.156600  0.811660  1.0  -0.0425
  C  C61  1  0.908760  0.161500  0.820920  1.0  -0.1266
  C  C62  1  0.963630  0.221800  0.765750  1.0  -0.0493
  C  C63  1  0.919480  0.275300  0.701830  1.0  -0.0634
  C  C64  1  0.675710  0.646700  0.633350  1.0  0.7522
  C  C65  1  0.663120  0.719400  0.706350  1.0  -0.1343
  C  C66  1  0.570900  0.728200  0.738690  1.0  -0.0499
  C  C67  1  0.559180  0.793200  0.806170  1.0  -0.038
  C  C68  1  0.640580  0.846300  0.843700  1.0  -0.1229
  C  C69  1  0.732680  0.837500  0.811830  1.0  -0.0392
  C  C70  1  0.742890  0.775900  0.742390  1.0  -0.0601
  C  C71  1  0.627390  0.913600  0.917540  1.0  0.7175
  C  C72  1  0.957180  0.101800  0.890100  1.0  0.7682
  C  C73  1  0.769270  0.176300  0.122980  1.0  0.7257
  C  C74  1  0.818960  0.232400  0.192230  1.0  -0.1286
  C  C75  1  0.763640  0.290900  0.247720  1.0  -0.0454
  C  C76  1  0.807720  0.343400  0.311660  1.0  -0.042
  C  C77  1  0.908760  0.338500  0.320920  1.0  -0.1271
  C  C78  1  0.963630  0.278200  0.265750  1.0  -0.0496
  C  C79  1  0.919480  0.224700  0.201830  1.0  -0.0635
  C  C80  1  0.675710  0.853300  0.133350  1.0  0.7522
  C  C81  1  0.663120  0.780600  0.206350  1.0  -0.1335
  C  C82  1  0.570900  0.771800  0.238690  1.0  -0.0499
  C  C83  1  0.559180  0.706800  0.306170  1.0  -0.0391
  C  C84  1  0.640580  0.653700  0.343700  1.0  -0.1231
  C  C85  1  0.732680  0.662500  0.311830  1.0  -0.0392
  C  C86  1  0.742890  0.724100  0.242390  1.0  -0.0595
  C  C87  1  0.627390  0.586400  0.417540  1.0  0.7182
  C  C88  1  0.957180  0.398200  0.390100  1.0  0.7685
  C  C89  1  0.230730  0.676300  0.377020  1.0  0.7258
  C  C90  1  0.181040  0.732400  0.307770  1.0  -0.1288
  C  C91  1  0.236360  0.790900  0.252280  1.0  -0.0442
  C  C92  1  0.192280  0.843400  0.188340  1.0  -0.0418
  C  C93  1  0.091240  0.838500  0.179080  1.0  -0.1257
  C  C94  1  0.036370  0.778200  0.234250  1.0  -0.0517
  C  C95  1  0.080520  0.724700  0.298170  1.0  -0.064
  C  C96  1  0.324290  0.353300  0.366650  1.0  0.7515
  C  C97  1  0.336880  0.280600  0.293650  1.0  -0.1345
  C  C98  1  0.429100  0.271800  0.261310  1.0  -0.0509
  C  C99  1  0.440820  0.206800  0.193830  1.0  -0.0381
  C  C100  1  0.359420  0.153700  0.156300  1.0  -0.1236
  C  C101  1  0.267320  0.162500  0.188170  1.0  -0.0397
  C  C102  1  0.257110  0.224100  0.257610  1.0  -0.0591
  C  C103  1  0.372610  0.086400  0.082460  1.0  0.7185
  C  C104  1  0.042820  0.898200  0.109900  1.0  0.7662
  O  O105  1  0.390030  0.066070  0.883390  1.0  -0.6047
  O  O106  1  0.320150  0.796100  0.887090  1.0  -0.6281
  O  O107  1  0.302070  0.475250  0.551930  1.0  -0.6595
  O  O108  1  0.251220  0.172520  0.905290  1.0  -0.642
  O  O109  1  0.182000  0.892010  0.921250  1.0  -0.6509
  O  O110  1  0.090250  0.520680  0.573640  1.0  -0.6798
  O  O111  1  0.454540  0.410150  0.551390  1.0  -0.682
  O  O112  1  0.957630  0.637400  0.594820  1.0  -0.6349
  O  O113  1  0.609970  0.566070  0.616610  1.0  -0.6047
  O  O114  1  0.679850  0.296100  0.612910  1.0  -0.6278
  O  O115  1  0.697930  0.975250  0.948070  1.0  -0.6597
  O  O116  1  0.748780  0.672520  0.594710  1.0  -0.6427
  O  O117  1  0.818000  0.392010  0.578750  1.0  -0.6507
  O  O118  1  0.909750  0.020680  0.926360  1.0  -0.6782
  O  O119  1  0.545460  0.910150  0.948610  1.0  -0.6822
  O  O120  1  0.042370  0.137400  0.905180  1.0  -0.6353
  O  O121  1  0.609970  0.933930  0.116610  1.0  -0.6044
  O  O122  1  0.679850  0.203900  0.112910  1.0  -0.6287
  O  O123  1  0.697930  0.524750  0.448070  1.0  -0.6596
  O  O124  1  0.748780  0.827480  0.094710  1.0  -0.6425
  O  O125  1  0.818000  0.107990  0.078750  1.0  -0.6503
  O  O126  1  0.909750  0.479320  0.426360  1.0  -0.6791
  O  O127  1  0.545460  0.589850  0.448610  1.0  -0.6828
  O  O128  1  0.042370  0.362600  0.405180  1.0  -0.6351
  O  O129  1  0.390030  0.433930  0.383390  1.0  -0.6045
  O  O130  1  0.320150  0.703900  0.387090  1.0  -0.6287
  O  O131  1  0.302070  0.024750  0.051930  1.0  -0.6602
  O  O132  1  0.251220  0.327480  0.405290  1.0  -0.6417
  O  O133  1  0.182000  0.607990  0.421250  1.0  -0.6518
  O  O134  1  0.090250  0.979320  0.073640  1.0  -0.6809
  O  O135  1  0.454540  0.089850  0.051390  1.0  -0.6813
  O  O136  1  0.957630  0.862600  0.094820  1.0  -0.6343
