# generated using pymatgen
data_MnH8C13NO5
_symmetry_space_group_name_H-M   'P 1'
_cell_length_a   12.71120000
_cell_length_b   12.71120000
_cell_length_c   13.75680000
_cell_angle_alpha   67.85030000
_cell_angle_beta   65.18780000
_cell_angle_gamma   97.92030000
_symmetry_Int_Tables_number   1
_chemical_formula_structural   MnH8C13NO5
_chemical_formula_sum   'Mn4 H32 C52 N4 O20'
_cell_volume   1749.00412922
_cell_formula_units_Z   4
loop_
 _symmetry_equiv_pos_site_id
 _symmetry_equiv_pos_as_xyz
  1  'x, y, z'
loop_
 _atom_site_type_symbol
 _atom_site_label
 _atom_site_symmetry_multiplicity
 _atom_site_fract_x
 _atom_site_fract_y
 _atom_site_fract_z
 _atom_site_occupancy
 _atom_site_charge
  Mn  Mn1  1  0.500000  0.000000  0.500000  1.0  1.2057
  Mn  Mn2  1  0.000000  0.000000  0.000000  1.0  1.2057
  Mn  Mn3  1  0.687310  0.937310  0.250000  1.0  1.1974
  Mn  Mn4  1  0.312690  0.062690  0.750000  1.0  1.1983
  H  H5  1  0.237200  0.613300  0.723500  1.0  0.0936
  H  H6  1  0.134300  0.406500  0.824200  1.0  0.0625
  H  H7  1  0.347800  0.391500  0.524500  1.0  0.0999
  H  H8  1  0.446200  0.598100  0.421900  1.0  0.1051
  H  H9  1  0.250000  0.177000  0.524400  1.0  0.1136
  H  H10  1  0.099900  0.176000  0.473700  1.0  0.1248
  H  H11  1  0.028500  0.827200  0.579500  1.0  0.1205
  H  H12  1  0.184500  0.834400  0.622300  1.0  0.1231
  H  H13  1  0.836800  0.960700  0.776500  1.0  0.0925
  H  H14  1  0.730700  0.958500  0.675800  1.0  0.0628
  H  H15  1  0.416000  0.872300  0.975500  1.0  0.099
  H  H16  1  0.520000  0.868100  0.078100  1.0  0.1039
  H  H17  1  0.201400  0.774400  0.975600  1.0  0.1132
  H  H18  1  0.149700  0.573600  0.026300  1.0  0.1227
  H  H19  1  0.906700  0.608000  0.920500  1.0  0.1202
  H  H20  1  0.956700  0.806800  0.877700  1.0  0.1223
  H  H21  1  0.762800  0.386700  0.276500  1.0  0.0937
  H  H22  1  0.865700  0.593500  0.175800  1.0  0.063
  H  H23  1  0.652200  0.608500  0.475500  1.0  0.1002
  H  H24  1  0.553800  0.401900  0.578100  1.0  0.1036
  H  H25  1  0.750000  0.823000  0.475600  1.0  0.1123
  H  H26  1  0.900100  0.824000  0.526300  1.0  0.1245
  H  H27  1  0.971500  0.172800  0.420500  1.0  0.1197
  H  H28  1  0.815500  0.165600  0.377700  1.0  0.1234
  H  H29  1  0.163200  0.039300  0.223500  1.0  0.0918
  H  H30  1  0.269300  0.041500  0.324200  1.0  0.063
  H  H31  1  0.584000  0.127700  0.024500  1.0  0.0991
  H  H32  1  0.480000  0.131900  0.921900  1.0  0.1046
  H  H33  1  0.798600  0.225600  0.024400  1.0  0.113
  H  H34  1  0.850300  0.426400  0.973700  1.0  0.1232
  H  H35  1  0.093300  0.392000  0.079500  1.0  0.1193
  H  H36  1  0.043300  0.193200  0.122300  1.0  0.1223
  C  C37  1  0.429000  0.760200  0.496800  1.0  0.6874
  C  C38  1  0.355000  0.626900  0.562500  1.0  -0.1224
  C  C39  1  0.260400  0.568900  0.682700  1.0  -0.0612
  C  C40  1  0.199200  0.444400  0.743400  1.0  -0.0464
  C  C41  1  0.232200  0.376500  0.686900  1.0  -0.1265
  C  C42  1  0.325100  0.435800  0.565500  1.0  -0.0548
  C  C43  1  0.384700  0.559700  0.504200  1.0  -0.0541
  C  C44  1  0.174600  0.239600  0.755800  1.0  0.7079
  C  C45  1  0.204700  0.105100  0.535600  1.0  0.0002
  C  C46  1  0.115000  0.104700  0.504500  1.0  -0.154
  C  C47  1  0.047600  0.001100  0.517900  1.0  0.0502
  C  C48  1  0.073900  0.900500  0.565600  1.0  -0.1438
  C  C49  1  0.165800  0.904000  0.594000  1.0  -0.0304
  C  C50  1  0.757000  0.925800  0.003200  1.0  0.6871
  C  C51  1  0.689400  0.917500  0.937500  1.0  -0.1232
  C  C52  1  0.751600  0.943100  0.817300  1.0  -0.0622
  C  C53  1  0.687800  0.942600  0.756600  1.0  -0.049
  C  C54  1  0.563400  0.919100  0.813100  1.0  -0.1255
  C  C55  1  0.501300  0.890600  0.934500  1.0  -0.054
  C  C56  1  0.563900  0.888900  0.995800  1.0  -0.0522
  C  C57  1  0.495400  0.930400  0.744200  1.0  0.7126
  C  C58  1  0.140700  0.740300  0.964400  1.0  -0.0015
  C  C59  1  0.109200  0.619500  0.995500  1.0  -0.1538
  C  C60  1  0.019000  0.565500  0.982100  1.0  0.0499
  C  C61  1  0.966100  0.639500  0.934400  1.0  -0.1419
  C  C62  1  0.998000  0.759800  0.906000  1.0  -0.0297
  C  C63  1  0.571000  0.239800  0.503200  1.0  0.6867
  C  C64  1  0.645000  0.373100  0.437500  1.0  -0.1228
  C  C65  1  0.739600  0.431100  0.317300  1.0  -0.0608
  C  C66  1  0.800800  0.555600  0.256600  1.0  -0.048
  C  C67  1  0.767800  0.623500  0.313100  1.0  -0.1267
  C  C68  1  0.674900  0.564200  0.434500  1.0  -0.0535
  C  C69  1  0.615300  0.440300  0.495800  1.0  -0.0528
  C  C70  1  0.825400  0.760400  0.244200  1.0  0.7086
  C  C71  1  0.795300  0.894900  0.464400  1.0  -0.0029
  C  C72  1  0.885000  0.895300  0.495500  1.0  -0.1513
  C  C73  1  0.952400  0.998900  0.482100  1.0  0.0498
  C  C74  1  0.926100  0.099500  0.434400  1.0  -0.141
  C  C75  1  0.834200  0.096000  0.406000  1.0  -0.0297
  C  C76  1  0.243000  0.074200  0.996800  1.0  0.6872
  C  C77  1  0.310600  0.082500  0.062500  1.0  -0.1234
  C  C78  1  0.248400  0.056900  0.182700  1.0  -0.0642
  C  C79  1  0.312200  0.057400  0.243400  1.0  -0.0466
  C  C80  1  0.436600  0.080900  0.186900  1.0  -0.1262
  C  C81  1  0.498700  0.109400  0.065500  1.0  -0.054
  C  C82  1  0.436100  0.111100  0.004200  1.0  -0.0537
  C  C83  1  0.504600  0.069600  0.255800  1.0  0.7121
  C  C84  1  0.859300  0.259700  0.035600  1.0  -0.0032
  C  C85  1  0.890800  0.380500  0.004500  1.0  -0.157
  C  C86  1  0.981000  0.434500  0.017900  1.0  0.0501
  C  C87  1  0.033900  0.360500  0.065600  1.0  -0.1387
  C  C88  1  0.002000  0.240200  0.094000  1.0  -0.0323
  N  N89  1  0.227300  0.005400  0.581100  1.0  0.3736
  N  N90  1  0.086500  0.808400  0.918900  1.0  0.3758
  N  N91  1  0.772700  0.994600  0.418900  1.0  0.3744
  N  N92  1  0.913500  0.191600  0.081100  1.0  0.3744
  O  O93  1  0.407100  0.814600  0.559500  1.0  -0.6159
  O  O94  1  0.508000  0.807300  0.385300  1.0  -0.6168
  O  O95  1  0.084300  0.190800  0.862700  1.0  -0.6131
  O  O96  1  0.223320  0.184220  0.700900  1.0  -0.6399
  O  O97  1  0.312400  0.005800  0.613800  1.0  -0.5827
  O  O98  1  0.874100  0.966600  0.940500  1.0  -0.6158
  O  O99  1  0.692600  0.893300  0.114700  1.0  -0.6171
  O  O100  1  0.553500  0.947000  0.637300  1.0  -0.6145
  O  O101  1  0.385120  0.924220  0.799100  1.0  -0.6392
  O  O102  1  0.119600  0.926200  0.886200  1.0  -0.583
  O  O103  1  0.592900  0.185400  0.440500  1.0  -0.6148
  O  O104  1  0.492000  0.192700  0.614700  1.0  -0.6176
  O  O105  1  0.915700  0.809200  0.137300  1.0  -0.613
  O  O106  1  0.776680  0.815780  0.299100  1.0  -0.64
  O  O107  1  0.687600  0.994200  0.386200  1.0  -0.5849
  O  O108  1  0.125900  0.033400  0.059500  1.0  -0.6148
  O  O109  1  0.307400  0.106700  0.885300  1.0  -0.6162
  O  O110  1  0.446500  0.053000  0.362700  1.0  -0.612
  O  O111  1  0.614880  0.075780  0.200900  1.0  -0.6414
  O  O112  1  0.880400  0.073800  0.113800  1.0  -0.5835
