# generated using pymatgen
data_MnH8C13NO5
_symmetry_space_group_name_H-M   'P 1'
_cell_length_a   12.72870000
_cell_length_b   12.72870000
_cell_length_c   13.80500000
_cell_angle_alpha   67.79300000
_cell_angle_beta   65.54360000
_cell_angle_gamma   98.11050000
_symmetry_Int_Tables_number   1
_chemical_formula_structural   MnH8C13NO5
_chemical_formula_sum   'Mn4 H32 C52 N4 O20'
_cell_volume   1763.57722592
_cell_formula_units_Z   4
loop_
 _symmetry_equiv_pos_site_id
 _symmetry_equiv_pos_as_xyz
  1  'x, y, z'
loop_
 _atom_site_type_symbol
 _atom_site_label
 _atom_site_symmetry_multiplicity
 _atom_site_fract_x
 _atom_site_fract_y
 _atom_site_fract_z
 _atom_site_occupancy
 _atom_site_charge
  Mn  Mn1  1  0.000000  0.500000  0.500000  1.0  1.147
  Mn  Mn2  1  0.500000  0.500000  0.000000  1.0  1.147
  Mn  Mn3  1  0.186620  0.436620  0.250000  1.0  1.1855
  Mn  Mn4  1  0.813380  0.563380  0.750000  1.0  1.1803
  H  H5  1  0.737700  0.113200  0.722700  1.0  0.1032
  H  H6  1  0.635500  0.908700  0.823400  1.0  0.0768
  H  H7  1  0.848200  0.889100  0.527500  1.0  0.0997
  H  H8  1  0.943800  0.095700  0.423100  1.0  0.1019
  H  H9  1  0.753800  0.679400  0.520800  1.0  0.0942
  H  H10  1  0.604300  0.679500  0.469200  1.0  0.1251
  H  H11  1  0.529000  0.325500  0.581700  1.0  0.1221
  H  H12  1  0.682900  0.335400  0.624900  1.0  0.1017
  H  H13  1  0.335900  0.460400  0.777300  1.0  0.1037
  H  H14  1  0.232100  0.458900  0.676600  1.0  0.0769
  H  H15  1  0.916600  0.375700  0.972500  1.0  0.0984
  H  H16  1  0.018800  0.366900  0.076900  1.0  0.1025
  H  H17  1  0.700200  0.274600  0.979200  1.0  0.0945
  H  H18  1  0.648700  0.073500  0.030800  1.0  0.1235
  H  H19  1  0.407200  0.110700  0.918300  1.0  0.1221
  H  H20  1  0.460300  0.307800  0.875100  1.0  0.1018
  H  H21  1  0.262300  0.886800  0.277300  1.0  0.1031
  H  H22  1  0.364500  0.091300  0.176600  1.0  0.0766
  H  H23  1  0.151800  0.110900  0.472500  1.0  0.0994
  H  H24  1  0.056200  0.904300  0.576900  1.0  0.1024
  H  H25  1  0.246200  0.320600  0.479200  1.0  0.0941
  H  H26  1  0.395700  0.320500  0.530800  1.0  0.1255
  H  H27  1  0.471000  0.674500  0.418300  1.0  0.1215
  H  H28  1  0.317100  0.664600  0.375100  1.0  0.1025
  H  H29  1  0.664100  0.539600  0.222700  1.0  0.1029
  H  H30  1  0.767900  0.541100  0.323400  1.0  0.0771
  H  H31  1  0.083400  0.624300  0.027500  1.0  0.0987
  H  H32  1  0.981200  0.633100  0.923100  1.0  0.1027
  H  H33  1  0.299800  0.725400  0.020800  1.0  0.0954
  H  H34  1  0.351300  0.926500  0.969200  1.0  0.1237
  H  H35  1  0.592800  0.889300  0.081700  1.0  0.1214
  H  H36  1  0.539700  0.692200  0.124900  1.0  0.1018
  C  C37  1  0.929000  0.259400  0.496400  1.0  0.702
  C  C38  1  0.856100  0.127000  0.561900  1.0  -0.1013
  C  C39  1  0.760700  0.068400  0.682700  1.0  -0.0742
  C  C40  1  0.700000  0.945600  0.743200  1.0  -0.0354
  C  C41  1  0.732500  0.874800  0.687900  1.0  -0.139
  C  C42  1  0.825000  0.933700  0.567500  1.0  -0.0327
  C  C43  1  0.884000  0.057900  0.505100  1.0  -0.0264
  C  C44  1  0.674300  0.739900  0.757000  1.0  0.7211
  C  C45  1  0.707300  0.607100  0.533400  1.0  0.0008
  C  C46  1  0.618000  0.607600  0.501400  1.0  -0.1785
  C  C47  1  0.547900  0.502000  0.516900  1.0  0.0561
  C  C48  1  0.574200  0.399600  0.567000  1.0  -0.134
  C  C49  1  0.664900  0.405000  0.595100  1.0  -0.0221
  C  C50  1  0.255800  0.425400  0.003600  1.0  0.7019
  C  C51  1  0.188900  0.418000  0.938100  1.0  -0.1019
  C  C52  1  0.251100  0.443400  0.817300  1.0  -0.0768
  C  C53  1  0.188800  0.443200  0.756800  1.0  -0.0345
  C  C54  1  0.062700  0.420400  0.812100  1.0  -0.1382
  C  C55  1  0.001200  0.392500  0.932500  1.0  -0.0323
  C  C56  1  0.063000  0.389100  0.994900  1.0  -0.0265
  C  C57  1  0.996900  0.431300  0.743000  1.0  0.7277
  C  C58  1  0.640500  0.240700  0.966600  1.0  0.0011
  C  C59  1  0.609000  0.119400  0.998600  1.0  -0.1772
  C  C60  1  0.518900  0.064800  0.983100  1.0  0.0566
  C  C61  1  0.466600  0.141200  0.933000  1.0  -0.1304
  C  C62  1  0.500100  0.260000  0.904900  1.0  -0.0203
  C  C63  1  0.071000  0.740600  0.503600  1.0  0.7011
  C  C64  1  0.143900  0.873000  0.438100  1.0  -0.0998
  C  C65  1  0.239300  0.931600  0.317300  1.0  -0.075
  C  C66  1  0.300000  0.054400  0.256800  1.0  -0.0358
  C  C67  1  0.267500  0.125200  0.312100  1.0  -0.1386
  C  C68  1  0.175000  0.066300  0.432500  1.0  -0.031
  C  C69  1  0.116000  0.942100  0.494900  1.0  -0.0265
  C  C70  1  0.325700  0.260100  0.243000  1.0  0.7229
  C  C71  1  0.292700  0.392900  0.466600  1.0  -0.001
  C  C72  1  0.382000  0.392400  0.498600  1.0  -0.1775
  C  C73  1  0.452100  0.498000  0.483100  1.0  0.0561
  C  C74  1  0.425800  0.600400  0.433000  1.0  -0.1348
  C  C75  1  0.335100  0.595000  0.404900  1.0  -0.0211
  C  C76  1  0.744200  0.574600  0.996400  1.0  0.7017
  C  C77  1  0.811100  0.582000  0.061900  1.0  -0.1006
  C  C78  1  0.748900  0.556600  0.182700  1.0  -0.0789
  C  C79  1  0.811200  0.556800  0.243200  1.0  -0.0335
  C  C80  1  0.937300  0.579600  0.187900  1.0  -0.1392
  C  C81  1  0.998800  0.607500  0.067500  1.0  -0.0328
  C  C82  1  0.937000  0.610900  0.005100  1.0  -0.0269
  C  C83  1  0.003100  0.568700  0.257000  1.0  0.7282
  C  C84  1  0.359500  0.759300  0.033400  1.0  -0.0004
  C  C85  1  0.391000  0.880600  0.001400  1.0  -0.1821
  C  C86  1  0.481100  0.935200  0.016900  1.0  0.0565
  C  C87  1  0.533400  0.858800  0.067000  1.0  -0.1298
  C  C88  1  0.499900  0.740000  0.095100  1.0  -0.0216
  N  N89  1  0.729000  0.508000  0.580800  1.0  0.3552
  N  N90  1  0.588800  0.309800  0.919200  1.0  0.3555
  N  N91  1  0.271000  0.492000  0.419200  1.0  0.3549
  N  N92  1  0.411200  0.690200  0.080800  1.0  0.3539
  O  O93  1  0.907500  0.315800  0.557300  1.0  -0.6142
  O  O94  1  0.008400  0.306200  0.385600  1.0  -0.6197
  O  O95  1  0.582800  0.691500  0.862700  1.0  -0.6035
  O  O96  1  0.721000  0.682900  0.703500  1.0  -0.6209
  O  O97  1  0.813500  0.509300  0.612400  1.0  -0.6261
  O  O98  1  0.373100  0.464800  0.942700  1.0  -0.6156
  O  O99  1  0.191800  0.394000  0.114400  1.0  -0.62
  O  O100  1  0.054200  0.445500  0.637300  1.0  -0.6044
  O  O101  1  0.886400  0.424500  0.796500  1.0  -0.6189
  O  O102  1  0.621700  0.425900  0.887600  1.0  -0.6266
  O  O103  1  0.092500  0.684200  0.442700  1.0  -0.6155
  O  O104  1  0.991600  0.693800  0.614400  1.0  -0.6205
  O  O105  1  0.417200  0.308500  0.137300  1.0  -0.6036
  O  O106  1  0.279000  0.317100  0.296500  1.0  -0.6205
  O  O107  1  0.186500  0.490700  0.387600  1.0  -0.6279
  O  O108  1  0.626900  0.535200  0.057300  1.0  -0.6144
  O  O109  1  0.808200  0.606000  0.885600  1.0  -0.6202
  O  O110  1  0.945800  0.554500  0.362700  1.0  -0.6013
  O  O111  1  0.113600  0.575500  0.203500  1.0  -0.6208
  O  O112  1  0.378300  0.574100  0.112400  1.0  -0.6268
