# generated using pymatgen
data_MnH8C13NO5
_symmetry_space_group_name_H-M   'P 1'
_cell_length_a   12.74050000
_cell_length_b   12.74050000
_cell_length_c   13.75950000
_cell_angle_alpha   66.38880000
_cell_angle_beta   65.36790000
_cell_angle_gamma   96.73710000
_symmetry_Int_Tables_number   1
_chemical_formula_structural   MnH8C13NO5
_chemical_formula_sum   'Mn4 H32 C52 N4 O20'
_cell_volume   1748.56602571
_cell_formula_units_Z   4
loop_
 _symmetry_equiv_pos_site_id
 _symmetry_equiv_pos_as_xyz
  1  'x, y, z'
loop_
 _atom_site_type_symbol
 _atom_site_label
 _atom_site_symmetry_multiplicity
 _atom_site_fract_x
 _atom_site_fract_y
 _atom_site_fract_z
 _atom_site_occupancy
 _atom_site_charge
  Mn  Mn1  1  0.311450  0.061450  0.750000  1.0  1.1857
  Mn  Mn2  1  0.688550  0.938550  0.250000  1.0  1.1987
  Mn  Mn3  1  0.500000  0.000000  0.500000  1.0  1.12
  Mn  Mn4  1  0.000000  0.000000  0.000000  1.0  1.12
  H  H5  1  0.553500  0.396900  0.581200  1.0  0.1063
  H  H6  1  0.651700  0.602900  0.479800  1.0  0.1017
  H  H7  1  0.855600  0.595300  0.172500  1.0  0.0619
  H  H8  1  0.752700  0.390500  0.271800  1.0  0.0909
  H  H9  1  0.201700  0.768700  0.978400  1.0  0.126
  H  H10  1  0.147900  0.567500  0.028600  1.0  0.1138
  H  H11  1  0.904900  0.613400  0.922300  1.0  0.113
  H  H12  1  0.960600  0.812200  0.874800  1.0  0.1179
  H  H13  1  0.478100  0.134700  0.918800  1.0  0.1069
  H  H14  1  0.582700  0.131500  0.020200  1.0  0.1018
  H  H15  1  0.267800  0.028100  0.327500  1.0  0.0621
  H  H16  1  0.162300  0.024500  0.228200  1.0  0.0892
  H  H17  1  0.247100  0.180100  0.521600  1.0  0.1267
  H  H18  1  0.096100  0.176500  0.471400  1.0  0.1146
  H  H19  1  0.035700  0.827200  0.577700  1.0  0.1139
  H  H20  1  0.187000  0.835400  0.625200  1.0  0.1184
  H  H21  1  0.446500  0.603100  0.418800  1.0  0.1059
  H  H22  1  0.348300  0.397100  0.520200  1.0  0.1021
  H  H23  1  0.144400  0.404700  0.827500  1.0  0.0621
  H  H24  1  0.247300  0.609500  0.728200  1.0  0.0905
  H  H25  1  0.798300  0.231300  0.021600  1.0  0.1271
  H  H26  1  0.852100  0.432500  0.971400  1.0  0.114
  H  H27  1  0.095100  0.386600  0.077700  1.0  0.1128
  H  H28  1  0.039400  0.187800  0.125200  1.0  0.1183
  H  H29  1  0.521900  0.865300  0.081200  1.0  0.1068
  H  H30  1  0.417300  0.868500  0.979800  1.0  0.1012
  H  H31  1  0.732200  0.971900  0.672500  1.0  0.0617
  H  H32  1  0.837700  0.975500  0.771800  1.0  0.0899
  H  H33  1  0.752900  0.819900  0.478400  1.0  0.1268
  H  H34  1  0.903900  0.823500  0.528600  1.0  0.115
  H  H35  1  0.964300  0.172800  0.422300  1.0  0.113
  H  H36  1  0.813000  0.164600  0.374800  1.0  0.1189
  C  C37  1  0.568600  0.239800  0.501400  1.0  0.6915
  C  C38  1  0.641400  0.372000  0.437000  1.0  -0.1338
  C  C39  1  0.613400  0.436900  0.498100  1.0  -0.0481
  C  C40  1  0.672900  0.560100  0.437600  1.0  -0.0537
  C  C41  1  0.765000  0.622100  0.313500  1.0  -0.1199
  C  C42  1  0.793400  0.556000  0.254800  1.0  -0.0479
  C  C43  1  0.824300  0.758800  0.245700  1.0  0.706
  C  C44  1  0.732400  0.432900  0.314500  1.0  -0.056
  C  C45  1  0.141300  0.736900  0.966600  1.0  0.001
  C  C46  1  0.108100  0.615800  0.997300  1.0  -0.1278
  C  C47  1  0.018200  0.564300  0.983100  1.0  0.0462
  C  C48  1  0.965600  0.642400  0.935200  1.0  -0.1342
  C  C49  1  0.999600  0.762400  0.905600  1.0  -0.0282
  C  C50  1  0.241200  0.070000  0.998600  1.0  0.6917
  C  C51  1  0.309000  0.078400  0.063000  1.0  -0.1356
  C  C52  1  0.435000  0.111500  0.001900  1.0  -0.0484
  C  C53  1  0.497700  0.110500  0.062400  1.0  -0.0538
  C  C54  1  0.435600  0.078500  0.186500  1.0  -0.1185
  C  C55  1  0.310800  0.048200  0.245200  1.0  -0.0462
  C  C56  1  0.504500  0.070000  0.254300  1.0  0.7081
  C  C57  1  0.247400  0.046900  0.185500  1.0  -0.0592
  C  C58  1  0.203500  0.107900  0.533400  1.0  0.0011
  C  C59  1  0.113100  0.105400  0.502700  1.0  -0.1302
  C  C60  1  0.047400  0.001300  0.516900  1.0  0.0461
  C  C61  1  0.077600  0.900800  0.564800  1.0  -0.1362
  C  C62  1  0.168000  0.905200  0.594400  1.0  -0.0304
  C  C63  1  0.431400  0.760200  0.498600  1.0  0.6921
  C  C64  1  0.358600  0.628000  0.563000  1.0  -0.1331
  C  C65  1  0.386600  0.563100  0.501900  1.0  -0.048
  C  C66  1  0.327100  0.439900  0.562400  1.0  -0.0545
  C  C67  1  0.235000  0.377900  0.686500  1.0  -0.1195
  C  C68  1  0.206600  0.444000  0.745200  1.0  -0.0474
  C  C69  1  0.175700  0.241200  0.754300  1.0  0.7061
  C  C70  1  0.267600  0.567100  0.685500  1.0  -0.0561
  C  C71  1  0.858700  0.263100  0.033400  1.0  0.0013
  C  C72  1  0.891900  0.384200  0.002700  1.0  -0.1313
  C  C73  1  0.981800  0.435700  0.016900  1.0  0.0461
  C  C74  1  0.034400  0.357600  0.064800  1.0  -0.1344
  C  C75  1  0.000400  0.237600  0.094400  1.0  -0.03
  C  C76  1  0.758800  0.930000  0.001400  1.0  0.6907
  C  C77  1  0.691000  0.921600  0.937000  1.0  -0.1365
  C  C78  1  0.565000  0.888500  0.998100  1.0  -0.0482
  C  C79  1  0.502300  0.889500  0.937600  1.0  -0.0538
  C  C80  1  0.564400  0.921500  0.813500  1.0  -0.1181
  C  C81  1  0.689200  0.951800  0.754800  1.0  -0.0477
  C  C82  1  0.495500  0.930000  0.745700  1.0  0.7085
  C  C83  1  0.752600  0.953100  0.814500  1.0  -0.056
  C  C84  1  0.796500  0.892100  0.466600  1.0  0.001
  C  C85  1  0.886900  0.894600  0.497300  1.0  -0.1294
  C  C86  1  0.952600  0.998700  0.483100  1.0  0.0458
  C  C87  1  0.922400  0.099200  0.435200  1.0  -0.1371
  C  C88  1  0.832000  0.094800  0.405600  1.0  -0.0287
  N  N89  1  0.086500  0.807700  0.920000  1.0  0.3715
  N  N90  1  0.227700  0.006500  0.580000  1.0  0.3705
  N  N91  1  0.913500  0.192300  0.080000  1.0  0.3699
  N  N92  1  0.772300  0.993500  0.420000  1.0  0.3704
  O  O93  1  0.488400  0.190100  0.614900  1.0  -0.6309
  O  O94  1  0.590700  0.186300  0.439000  1.0  -0.5948
  O  O95  1  0.120500  0.925600  0.886700  1.0  -0.5844
  O  O96  1  0.777800  0.813800  0.301400  1.0  -0.6419
  O  O97  1  0.915600  0.808000  0.139000  1.0  -0.5965
  O  O98  1  0.305000  0.103300  0.885100  1.0  -0.6318
  O  O99  1  0.125300  0.029700  0.061000  1.0  -0.5945
  O  O100  1  0.312300  0.007200  0.613300  1.0  -0.5842
  O  O101  1  0.615200  0.079200  0.198600  1.0  -0.6442
  O  O102  1  0.447000  0.054600  0.361000  1.0  -0.5948
  O  O103  1  0.511600  0.809900  0.385100  1.0  -0.6306
  O  O104  1  0.409300  0.813700  0.561000  1.0  -0.5964
  O  O105  1  0.879500  0.074400  0.113300  1.0  -0.5844
  O  O106  1  0.222200  0.186200  0.698600  1.0  -0.6433
  O  O107  1  0.084400  0.192000  0.861000  1.0  -0.5964
  O  O108  1  0.695000  0.896700  0.114900  1.0  -0.6326
  O  O109  1  0.874700  0.970300  0.939000  1.0  -0.5961
  O  O110  1  0.687700  0.992800  0.386700  1.0  -0.5867
  O  O111  1  0.384800  0.920800  0.801400  1.0  -0.6411
  O  O112  1  0.553000  0.945400  0.639000  1.0  -0.5981
