# generated using pymatgen
data_CuH6C13O4
_symmetry_space_group_name_H-M   'P 1'
_cell_length_a   18.42840000
_cell_length_b   18.42840000
_cell_length_c   40.08100000
_cell_angle_alpha   90.00000000
_cell_angle_beta   90.00000000
_cell_angle_gamma   120.00000000
_symmetry_Int_Tables_number   1
_chemical_formula_structural   CuH6C13O4
_chemical_formula_sum   'Cu18 H108 C234 O72'
_cell_volume   11788.11708320
_cell_formula_units_Z   18
loop_
 _symmetry_equiv_pos_site_id
 _symmetry_equiv_pos_as_xyz
  1  'x, y, z'
loop_
 _atom_site_type_symbol
 _atom_site_label
 _atom_site_symmetry_multiplicity
 _atom_site_fract_x
 _atom_site_fract_y
 _atom_site_fract_z
 _atom_site_occupancy
 _atom_site_charge
  Cu  Cu1  1  0.048810  0.524410  0.026670  1.0  0.9008
  Cu  Cu2  1  0.715480  0.857740  0.360000  1.0  0.9013
  Cu  Cu3  1  0.382140  0.191070  0.693340  1.0  0.9118
  Cu  Cu4  1  0.475590  0.524410  0.026670  1.0  0.911
  Cu  Cu5  1  0.142260  0.857740  0.360000  1.0  0.9106
  Cu  Cu6  1  0.808930  0.191070  0.693340  1.0  0.9114
  Cu  Cu7  1  0.475590  0.951190  0.026670  1.0  0.8996
  Cu  Cu8  1  0.142260  0.284520  0.360000  1.0  0.8999
  Cu  Cu9  1  0.808930  0.617860  0.693340  1.0  0.9102
  Cu  Cu10  1  0.524410  0.048810  0.973330  1.0  0.912
  Cu  Cu11  1  0.191070  0.382140  0.306660  1.0  0.9106
  Cu  Cu12  1  0.857740  0.715480  0.640000  1.0  0.8995
  Cu  Cu13  1  0.524410  0.475590  0.973330  1.0  0.9097
  Cu  Cu14  1  0.191070  0.808930  0.306660  1.0  0.9057
  Cu  Cu15  1  0.857740  0.142260  0.640000  1.0  0.9091
  Cu  Cu16  1  0.951190  0.475600  0.973330  1.0  0.9009
  Cu  Cu17  1  0.617860  0.808930  0.306660  1.0  0.9116
  Cu  Cu18  1  0.284520  0.142260  0.640000  1.0  0.9011
  H  H19  1  0.924500  0.632000  0.083700  1.0  0.111
  H  H20  1  0.591170  0.965330  0.417030  1.0  0.1122
  H  H21  1  0.257830  0.298670  0.750370  1.0  0.111
  H  H22  1  0.368000  0.292500  0.083700  1.0  0.1123
  H  H23  1  0.034670  0.625830  0.417030  1.0  0.1115
  H  H24  1  0.701330  0.959170  0.750370  1.0  0.1123
  H  H25  1  0.707500  0.075500  0.083700  1.0  0.1131
  H  H26  1  0.374170  0.408830  0.417030  1.0  0.1128
  H  H27  1  0.040830  0.742170  0.750370  1.0  0.1135
  H  H28  1  0.632000  0.924500  0.916300  1.0  0.112
  H  H29  1  0.298670  0.257830  0.249630  1.0  0.112
  H  H30  1  0.965330  0.591170  0.582970  1.0  0.1129
  H  H31  1  0.292500  0.368000  0.916300  1.0  0.1118
  H  H32  1  0.959170  0.701330  0.249630  1.0  0.1118
  H  H33  1  0.625830  0.034670  0.582970  1.0  0.1115
  H  H34  1  0.075500  0.707500  0.916300  1.0  0.1122
  H  H35  1  0.742170  0.040830  0.249630  1.0  0.1125
  H  H36  1  0.408830  0.374170  0.582970  1.0  0.1119
  H  H37  1  0.075500  0.368000  0.916300  1.0  0.1113
  H  H38  1  0.742170  0.701330  0.249630  1.0  0.1112
  H  H39  1  0.408830  0.034670  0.582970  1.0  0.1123
  H  H40  1  0.632000  0.707500  0.916300  1.0  0.1121
  H  H41  1  0.298670  0.040830  0.249630  1.0  0.1121
  H  H42  1  0.965330  0.374170  0.582970  1.0  0.1116
  H  H43  1  0.292500  0.924500  0.916300  1.0  0.1123
  H  H44  1  0.959170  0.257830  0.249630  1.0  0.1126
  H  H45  1  0.625830  0.591170  0.582970  1.0  0.112
  H  H46  1  0.368000  0.075500  0.083700  1.0  0.1117
  H  H47  1  0.034670  0.408830  0.417030  1.0  0.1132
  H  H48  1  0.701330  0.742170  0.750370  1.0  0.1117
  H  H49  1  0.707500  0.632000  0.083700  1.0  0.1114
  H  H50  1  0.374170  0.965330  0.417030  1.0  0.1107
  H  H51  1  0.040830  0.298670  0.750370  1.0  0.1115
  H  H52  1  0.924500  0.292500  0.083700  1.0  0.1115
  H  H53  1  0.591170  0.625830  0.417030  1.0  0.1115
  H  H54  1  0.257830  0.959170  0.750370  1.0  0.1119
  H  H55  1  0.900200  0.800400  0.100700  1.0  0.1209
  H  H56  1  0.936900  0.873800  0.152200  1.0  0.0984
  H  H57  1  0.766000  0.532000  0.006900  1.0  0.1072
  H  H58  1  0.764750  0.529500  0.132200  1.0  0.1116
  H  H59  1  0.566870  0.133730  0.434030  1.0  0.1209
  H  H60  1  0.603570  0.207130  0.485530  1.0  0.1011
  H  H61  1  0.432670  0.865330  0.340230  1.0  0.1072
  H  H62  1  0.431420  0.862830  0.465530  1.0  0.1129
  H  H63  1  0.233530  0.467070  0.767370  1.0  0.1209
  H  H64  1  0.270230  0.540470  0.818870  1.0  0.0984
  H  H65  1  0.099330  0.198670  0.673570  1.0  0.1073
  H  H66  1  0.098080  0.196170  0.798870  1.0  0.1116
  H  H67  1  0.199600  0.099800  0.100700  1.0  0.121
  H  H68  1  0.126200  0.063100  0.152200  1.0  0.0986
  H  H69  1  0.468000  0.234000  0.006900  1.0  0.107
  H  H70  1  0.470500  0.235250  0.132200  1.0  0.1122
  H  H71  1  0.866270  0.433130  0.434030  1.0  0.121
  H  H72  1  0.792870  0.396430  0.485530  1.0  0.1012
  H  H73  1  0.134670  0.567330  0.340230  1.0  0.107
  H  H74  1  0.137170  0.568580  0.465530  1.0  0.1134
  H  H75  1  0.532930  0.766470  0.767370  1.0  0.121
  H  H76  1  0.459530  0.729770  0.818870  1.0  0.0986
  H  H77  1  0.801330  0.900670  0.673570  1.0  0.107
  H  H78  1  0.803830  0.901920  0.798870  1.0  0.1122
  H  H79  1  0.900200  0.099800  0.100700  1.0  0.121
  H  H80  1  0.936900  0.063100  0.152200  1.0  0.1014
  H  H81  1  0.766000  0.234000  0.006900  1.0  0.1061
  H  H82  1  0.764750  0.235250  0.132200  1.0  0.1124
  H  H83  1  0.566870  0.433130  0.434030  1.0  0.121
  H  H84  1  0.603570  0.396430  0.485530  1.0  0.1004
  H  H85  1  0.432670  0.567330  0.340230  1.0  0.1073
  H  H86  1  0.431420  0.568580  0.465530  1.0  0.1112
  H  H87  1  0.233530  0.766470  0.767370  1.0  0.121
  H  H88  1  0.270230  0.729770  0.818870  1.0  0.1014
  H  H89  1  0.099330  0.900670  0.673570  1.0  0.1062
  H  H90  1  0.098080  0.901920  0.798870  1.0  0.1124
  H  H91  1  0.800400  0.900200  0.899300  1.0  0.1202
  H  H92  1  0.873800  0.936900  0.847800  1.0  0.0986
  H  H93  1  0.532000  0.766000  0.993100  1.0  0.1068
  H  H94  1  0.529500  0.764750  0.867800  1.0  0.1117
  H  H95  1  0.467070  0.233530  0.232630  1.0  0.1202
  H  H96  1  0.540470  0.270230  0.181130  1.0  0.0986
  H  H97  1  0.198670  0.099330  0.326430  1.0  0.1068
  H  H98  1  0.196170  0.098080  0.201130  1.0  0.1117
  H  H99  1  0.133730  0.566870  0.565970  1.0  0.1202
  H  H100  1  0.207130  0.603570  0.514470  1.0  0.1017
  H  H101  1  0.865330  0.432670  0.659770  1.0  0.1068
  H  H102  1  0.862830  0.431420  0.534470  1.0  0.1127
  H  H103  1  0.099800  0.199600  0.899300  1.0  0.1208
  H  H104  1  0.063100  0.126200  0.847800  1.0  0.0988
  H  H105  1  0.234000  0.468000  0.993100  1.0  0.1068
  H  H106  1  0.235250  0.470500  0.867800  1.0  0.1119
  H  H107  1  0.766470  0.532930  0.232630  1.0  0.1208
  H  H108  1  0.729770  0.459530  0.181130  1.0  0.0988
  H  H109  1  0.900670  0.801330  0.326430  1.0  0.1068
  H  H110  1  0.901920  0.803830  0.201130  1.0  0.1119
  H  H111  1  0.433130  0.866270  0.565970  1.0  0.1208
  H  H112  1  0.396430  0.792870  0.514470  1.0  0.1015
  H  H113  1  0.567330  0.134670  0.659770  1.0  0.1068
  H  H114  1  0.568580  0.137170  0.534470  1.0  0.113
  H  H115  1  0.099800  0.900200  0.899300  1.0  0.1211
  H  H116  1  0.063100  0.936900  0.847800  1.0  0.101
  H  H117  1  0.234000  0.766000  0.993100  1.0  0.1064
  H  H118  1  0.235250  0.764750  0.867800  1.0  0.1132
  H  H119  1  0.766470  0.233530  0.232630  1.0  0.1211
  H  H120  1  0.729770  0.270230  0.181130  1.0  0.101
  H  H121  1  0.900670  0.099330  0.326430  1.0  0.1064
  H  H122  1  0.901920  0.098080  0.201130  1.0  0.1132
  H  H123  1  0.433130  0.566870  0.565970  1.0  0.1211
  H  H124  1  0.396430  0.603570  0.514470  1.0  0.1006
  H  H125  1  0.567330  0.432670  0.659770  1.0  0.1072
  H  H126  1  0.568580  0.431420  0.534470  1.0  0.112
  C  C127  1  0.874600  0.619600  0.073180  1.0  -0.0461
  C  C128  1  0.855000  0.578600  0.042230  1.0  -0.1675
  C  C129  1  0.909700  0.550400  0.026860  1.0  0.6978
  C  C130  1  0.541270  0.952930  0.406510  1.0  -0.0461
  C  C131  1  0.521670  0.911930  0.375560  1.0  -0.1676
  C  C132  1  0.576370  0.883730  0.360190  1.0  0.6978
  C  C133  1  0.207930  0.286270  0.739850  1.0  -0.0461
  C  C134  1  0.188330  0.245270  0.708900  1.0  -0.1675
  C  C135  1  0.243030  0.217070  0.693530  1.0  0.6978
  C  C136  1  0.380400  0.255000  0.073180  1.0  -0.0477
  C  C137  1  0.421400  0.276400  0.042230  1.0  -0.1679
  C  C138  1  0.449600  0.359300  0.026860  1.0  0.6987
  C  C139  1  0.047070  0.588330  0.406510  1.0  -0.0477
  C  C140  1  0.088070  0.609730  0.375560  1.0  -0.1679
  C  C141  1  0.116270  0.692630  0.360190  1.0  0.6987
  C  C142  1  0.713730  0.921670  0.739850  1.0  -0.0477
  C  C143  1  0.754730  0.943070  0.708900  1.0  -0.1679
  C  C144  1  0.782930  0.025970  0.693530  1.0  0.6987
  C  C145  1  0.745000  0.125400  0.073180  1.0  -0.0447
  C  C146  1  0.723600  0.145000  0.042230  1.0  -0.166
  C  C147  1  0.640700  0.090300  0.026860  1.0  0.6993
  C  C148  1  0.411670  0.458730  0.406510  1.0  -0.0447
  C  C149  1  0.390270  0.478330  0.375560  1.0  -0.166
  C  C150  1  0.307370  0.423630  0.360190  1.0  0.6993
  C  C151  1  0.078330  0.792070  0.739850  1.0  -0.0447
  C  C152  1  0.056930  0.811670  0.708900  1.0  -0.166
  C  C153  1  0.974030  0.756970  0.693530  1.0  0.6992
  C  C154  1  0.619600  0.874600  0.926820  1.0  -0.045
  C  C155  1  0.578600  0.855000  0.957770  1.0  -0.1668
  C  C156  1  0.550400  0.909700  0.973140  1.0  0.6993
  C  C157  1  0.286270  0.207930  0.260150  1.0  -0.045
  C  C158  1  0.245270  0.188330  0.291100  1.0  -0.1668
  C  C159  1  0.217070  0.243030  0.306470  1.0  0.6993
  C  C160  1  0.952930  0.541270  0.593490  1.0  -0.045
  C  C161  1  0.911930  0.521670  0.624440  1.0  -0.1668
  C  C162  1  0.883730  0.576370  0.639810  1.0  0.6993
  C  C163  1  0.255000  0.380400  0.926820  1.0  -0.0465
  C  C164  1  0.276400  0.421400  0.957770  1.0  -0.1693
  C  C165  1  0.359300  0.449600  0.973140  1.0  0.698
  C  C166  1  0.921670  0.713730  0.260150  1.0  -0.0465
  C  C167  1  0.943070  0.754730  0.291100  1.0  -0.1693
  C  C168  1  0.025970  0.782930  0.306470  1.0  0.698
  C  C169  1  0.588330  0.047070  0.593490  1.0  -0.0465
  C  C170  1  0.609730  0.088070  0.624440  1.0  -0.1693
  C  C171  1  0.692630  0.116270  0.639810  1.0  0.698
  C  C172  1  0.125400  0.745000  0.926820  1.0  -0.0471
  C  C173  1  0.145000  0.723600  0.957770  1.0  -0.1692
  C  C174  1  0.090300  0.640700  0.973140  1.0  0.6992
  C  C175  1  0.792070  0.078330  0.260150  1.0  -0.0471
  C  C176  1  0.811670  0.056930  0.291100  1.0  -0.1692
  C  C177  1  0.756970  0.974030  0.306470  1.0  0.6992
  C  C178  1  0.458730  0.411670  0.593490  1.0  -0.0471
  C  C179  1  0.478330  0.390270  0.624440  1.0  -0.1692
  C  C180  1  0.423630  0.307370  0.639810  1.0  0.6992
  C  C181  1  0.125400  0.380400  0.926820  1.0  -0.0475
  C  C182  1  0.145000  0.421400  0.957770  1.0  -0.1694
  C  C183  1  0.090300  0.449600  0.973140  1.0  0.6986
  C  C184  1  0.792070  0.713730  0.260150  1.0  -0.0475
  C  C185  1  0.811670  0.754730  0.291100  1.0  -0.1694
  C  C186  1  0.756970  0.782930  0.306470  1.0  0.6986
  C  C187  1  0.458730  0.047070  0.593490  1.0  -0.0475
  C  C188  1  0.478330  0.088070  0.624440  1.0  -0.1694
  C  C189  1  0.423630  0.116270  0.639810  1.0  0.6986
  C  C190  1  0.619600  0.745000  0.926820  1.0  -0.046
  C  C191  1  0.578600  0.723600  0.957770  1.0  -0.1687
  C  C192  1  0.550400  0.640700  0.973140  1.0  0.6988
  C  C193  1  0.286270  0.078330  0.260150  1.0  -0.046
  C  C194  1  0.245270  0.056930  0.291100  1.0  -0.1687
  C  C195  1  0.217070  0.974030  0.306470  1.0  0.6988
  C  C196  1  0.952930  0.411670  0.593490  1.0  -0.046
  C  C197  1  0.911930  0.390270  0.624440  1.0  -0.1687
  C  C198  1  0.883730  0.307370  0.639810  1.0  0.6988
  C  C199  1  0.255000  0.874600  0.926820  1.0  -0.0448
  C  C200  1  0.276400  0.855000  0.957770  1.0  -0.1673
  C  C201  1  0.359300  0.909700  0.973140  1.0  0.6991
  C  C202  1  0.921670  0.207930  0.260150  1.0  -0.0448
  C  C203  1  0.943070  0.188330  0.291100  1.0  -0.1673
  C  C204  1  0.025970  0.243030  0.306470  1.0  0.699
  C  C205  1  0.588330  0.541270  0.593490  1.0  -0.0448
  C  C206  1  0.609730  0.521670  0.624440  1.0  -0.1673
  C  C207  1  0.692630  0.576370  0.639810  1.0  0.6991
  C  C208  1  0.380400  0.125400  0.073180  1.0  -0.0448
  C  C209  1  0.421400  0.145000  0.042230  1.0  -0.1661
  C  C210  1  0.449600  0.090300  0.026860  1.0  0.6989
  C  C211  1  0.047070  0.458730  0.406510  1.0  -0.0448
  C  C212  1  0.088070  0.478330  0.375560  1.0  -0.1661
  C  C213  1  0.116270  0.423630  0.360190  1.0  0.6989
  C  C214  1  0.713730  0.792070  0.739850  1.0  -0.0448
  C  C215  1  0.754730  0.811670  0.708900  1.0  -0.1661
  C  C216  1  0.782930  0.756970  0.693530  1.0  0.6989
  C  C217  1  0.745000  0.619600  0.073180  1.0  -0.0474
  C  C218  1  0.723600  0.578600  0.042230  1.0  -0.1678
  C  C219  1  0.640700  0.550400  0.026860  1.0  0.6984
  C  C220  1  0.411670  0.952930  0.406510  1.0  -0.0474
  C  C221  1  0.390270  0.911930  0.375560  1.0  -0.1678
  C  C222  1  0.307370  0.883730  0.360190  1.0  0.6984
  C  C223  1  0.078330  0.286270  0.739850  1.0  -0.0474
  C  C224  1  0.056930  0.245270  0.708900  1.0  -0.1678
  C  C225  1  0.974030  0.217070  0.693530  1.0  0.6984
  C  C226  1  0.874600  0.255000  0.073180  1.0  -0.0473
  C  C227  1  0.855000  0.276400  0.042230  1.0  -0.1679
  C  C228  1  0.909700  0.359300  0.026860  1.0  0.6984
  C  C229  1  0.541270  0.588330  0.406510  1.0  -0.0473
  C  C230  1  0.521670  0.609730  0.375560  1.0  -0.1679
  C  C231  1  0.576370  0.692630  0.360190  1.0  0.6984
  C  C232  1  0.207930  0.921670  0.739850  1.0  -0.0473
  C  C233  1  0.188330  0.943070  0.708900  1.0  -0.1679
  C  C234  1  0.243030  0.025970  0.693530  1.0  0.6984
  C  C235  1  0.822850  0.645700  0.151400  1.0  0.0929
  C  C236  1  0.843250  0.686500  0.121600  1.0  0.0836
  C  C237  1  0.885750  0.771500  0.120800  1.0  -0.1472
  C  C238  1  0.907750  0.815500  0.152100  1.0  -0.1285
  C  C239  1  0.779550  0.559100  0.027410  1.0  0.0346
  C  C240  1  0.779650  0.559300  0.152100  1.0  -0.1696
  C  C241  1  0.820900  0.641800  0.088200  1.0  0.0055
  C  C242  1  0.489520  0.979030  0.484730  1.0  0.0911
  C  C243  1  0.509920  0.019830  0.454930  1.0  0.0837
  C  C244  1  0.552420  0.104830  0.454130  1.0  -0.1472
  C  C245  1  0.574420  0.148830  0.485430  1.0  -0.1283
  C  C246  1  0.446220  0.892430  0.360740  1.0  0.0346
  C  C247  1  0.446320  0.892630  0.485430  1.0  -0.1669
  C  C248  1  0.487570  0.975130  0.421530  1.0  0.0056
  C  C249  1  0.156180  0.312370  0.818070  1.0  0.0929
  C  C250  1  0.176580  0.353170  0.788270  1.0  0.0836
  C  C251  1  0.219080  0.438170  0.787470  1.0  -0.1472
  C  C252  1  0.241080  0.482170  0.818770  1.0  -0.1285
  C  C253  1  0.112880  0.225770  0.694080  1.0  0.0346
  C  C254  1  0.112980  0.225970  0.818770  1.0  -0.1696
  C  C255  1  0.154230  0.308470  0.754870  1.0  0.0055
  C  C256  1  0.354300  0.177150  0.151400  1.0  0.0934
  C  C257  1  0.313500  0.156750  0.121600  1.0  0.0834
  C  C258  1  0.228500  0.114250  0.120800  1.0  -0.1484
  C  C259  1  0.184500  0.092250  0.152100  1.0  -0.1316
  C  C260  1  0.440900  0.220450  0.027410  1.0  0.0346
  C  C261  1  0.440700  0.220350  0.152100  1.0  -0.1699
  C  C262  1  0.358200  0.179100  0.088200  1.0  0.0036
  C  C263  1  0.020970  0.510480  0.484730  1.0  0.0917
  C  C264  1  0.980170  0.490080  0.454930  1.0  0.0834
  C  C265  1  0.895170  0.447580  0.454130  1.0  -0.1484
  C  C266  1  0.851170  0.425580  0.485430  1.0  -0.1318
  C  C267  1  0.107570  0.553780  0.360740  1.0  0.0346
  C  C268  1  0.107370  0.553680  0.485430  1.0  -0.1672
  C  C269  1  0.024870  0.512430  0.421530  1.0  0.0036
  C  C270  1  0.687630  0.843820  0.818070  1.0  0.0934
  C  C271  1  0.646830  0.823420  0.788270  1.0  0.0834
  C  C272  1  0.561830  0.780920  0.787470  1.0  -0.1484
  C  C273  1  0.517830  0.758920  0.818770  1.0  -0.1316
  C  C274  1  0.774230  0.887120  0.694080  1.0  0.0346
  C  C275  1  0.774030  0.887020  0.818770  1.0  -0.1699
  C  C276  1  0.691530  0.845770  0.754870  1.0  0.0036
  C  C277  1  0.822850  0.177150  0.151400  1.0  0.0928
  C  C278  1  0.843250  0.156750  0.121600  1.0  0.0831
  C  C279  1  0.885750  0.114250  0.120800  1.0  -0.148
  C  C280  1  0.907750  0.092250  0.152100  1.0  -0.1311
  C  C281  1  0.779550  0.220450  0.027410  1.0  0.035
  C  C282  1  0.779650  0.220350  0.152100  1.0  -0.1696
  C  C283  1  0.820900  0.179100  0.088200  1.0  0.0045
  C  C284  1  0.489520  0.510480  0.484730  1.0  0.091
  C  C285  1  0.509920  0.490080  0.454930  1.0  0.0831
  C  C286  1  0.552420  0.447580  0.454130  1.0  -0.148
  C  C287  1  0.574420  0.425580  0.485430  1.0  -0.13
  C  C288  1  0.446220  0.553780  0.360740  1.0  0.035
  C  C289  1  0.446320  0.553680  0.485430  1.0  -0.1692
  C  C290  1  0.487570  0.512430  0.421530  1.0  0.0045
  C  C291  1  0.156180  0.843820  0.818070  1.0  0.0928
  C  C292  1  0.176580  0.823420  0.788270  1.0  0.0831
  C  C293  1  0.219080  0.780920  0.787470  1.0  -0.148
  C  C294  1  0.241080  0.758920  0.818770  1.0  -0.1311
  C  C295  1  0.112880  0.887120  0.694080  1.0  0.035
  C  C296  1  0.112980  0.887020  0.818770  1.0  -0.1696
  C  C297  1  0.154230  0.845770  0.754870  1.0  0.0045
  C  C298  1  0.645700  0.822850  0.848600  1.0  0.0897
  C  C299  1  0.686500  0.843250  0.878400  1.0  0.0836
  C  C300  1  0.771500  0.885750  0.879200  1.0  -0.15
  C  C301  1  0.815500  0.907750  0.847900  1.0  -0.1314
  C  C302  1  0.559100  0.779550  0.972590  1.0  0.0331
  C  C303  1  0.559300  0.779650  0.847900  1.0  -0.1721
  C  C304  1  0.641800  0.820900  0.911800  1.0  0.0042
  C  C305  1  0.312370  0.156180  0.181930  1.0  0.0897
  C  C306  1  0.353170  0.176580  0.211730  1.0  0.0836
  C  C307  1  0.438170  0.219080  0.212530  1.0  -0.15
  C  C308  1  0.482170  0.241080  0.181230  1.0  -0.1314
  C  C309  1  0.225770  0.112880  0.305920  1.0  0.0331
  C  C310  1  0.225970  0.112980  0.181230  1.0  -0.1721
  C  C311  1  0.308470  0.154230  0.245130  1.0  0.0042
  C  C312  1  0.979030  0.489520  0.515270  1.0  0.0879
  C  C313  1  0.019830  0.509920  0.545070  1.0  0.0836
  C  C314  1  0.104830  0.552420  0.545870  1.0  -0.15
  C  C315  1  0.148830  0.574420  0.514570  1.0  -0.1323
  C  C316  1  0.892430  0.446220  0.639260  1.0  0.0331
  C  C317  1  0.892630  0.446320  0.514570  1.0  -0.1696
  C  C318  1  0.975130  0.487570  0.578470  1.0  0.0042
  C  C319  1  0.177150  0.354300  0.848600  1.0  0.0895
  C  C320  1  0.156750  0.313500  0.878400  1.0  0.0843
  C  C321  1  0.114250  0.228500  0.879200  1.0  -0.1495
  C  C322  1  0.092250  0.184500  0.847900  1.0  -0.1324
  C  C323  1  0.220450  0.440900  0.972590  1.0  0.0329
  C  C324  1  0.220350  0.440700  0.847900  1.0  -0.1742
  C  C325  1  0.179100  0.358200  0.911800  1.0  0.0048
  C  C326  1  0.843820  0.687630  0.181930  1.0  0.0895
  C  C327  1  0.823420  0.646830  0.211730  1.0  0.0843
  C  C328  1  0.780920  0.561830  0.212530  1.0  -0.1495
  C  C329  1  0.758920  0.517830  0.181230  1.0  -0.1324
  C  C330  1  0.887120  0.774230  0.305920  1.0  0.0329
  C  C331  1  0.887020  0.774030  0.181230  1.0  -0.1742
  C  C332  1  0.845770  0.691530  0.245130  1.0  0.0048
  C  C333  1  0.510480  0.020970  0.515270  1.0  0.0878
  C  C334  1  0.490080  0.980170  0.545070  1.0  0.0843
  C  C335  1  0.447580  0.895170  0.545870  1.0  -0.1495
  C  C336  1  0.425580  0.851170  0.514570  1.0  -0.1316
  C  C337  1  0.553780  0.107570  0.639260  1.0  0.0329
  C  C338  1  0.553680  0.107370  0.514570  1.0  -0.1715
  C  C339  1  0.512430  0.024870  0.578470  1.0  0.0049
  C  C340  1  0.177150  0.822850  0.848600  1.0  0.0901
  C  C341  1  0.156750  0.843250  0.878400  1.0  0.0838
  C  C342  1  0.114250  0.885750  0.879200  1.0  -0.1509
  C  C343  1  0.092250  0.907750  0.847900  1.0  -0.1315
  C  C344  1  0.220450  0.779550  0.972590  1.0  0.0344
  C  C345  1  0.220350  0.779650  0.847900  1.0  -0.1735
  C  C346  1  0.179100  0.820900  0.911800  1.0  0.0038
  C  C347  1  0.843820  0.156180  0.181930  1.0  0.0901
  C  C348  1  0.823420  0.176580  0.211730  1.0  0.0838
  C  C349  1  0.780920  0.219080  0.212530  1.0  -0.1509
  C  C350  1  0.758920  0.241080  0.181230  1.0  -0.1315
  C  C351  1  0.887120  0.112880  0.305920  1.0  0.0344
  C  C352  1  0.887020  0.112980  0.181230  1.0  -0.1735
  C  C353  1  0.845770  0.154230  0.245130  1.0  0.0038
  C  C354  1  0.510480  0.489520  0.515270  1.0  0.0882
  C  C355  1  0.490080  0.509920  0.545070  1.0  0.0839
  C  C356  1  0.447580  0.552420  0.545870  1.0  -0.1509
  C  C357  1  0.425580  0.574420  0.514570  1.0  -0.1308
  C  C358  1  0.553780  0.446220  0.639260  1.0  0.0344
  C  C359  1  0.553680  0.446320  0.514570  1.0  -0.173
  C  C360  1  0.512430  0.487570  0.578470  1.0  0.0039
  O  O361  1  0.972400  0.561200  0.043050  1.0  -0.5736
  O  O362  1  0.891500  0.520000  0.998070  1.0  -0.5775
  O  O363  1  0.639070  0.894530  0.376380  1.0  -0.5736
  O  O364  1  0.558170  0.853330  0.331400  1.0  -0.5775
  O  O365  1  0.305730  0.227870  0.709720  1.0  -0.5736
  O  O366  1  0.224830  0.186670  0.664740  1.0  -0.5775
  O  O367  1  0.438800  0.411200  0.043050  1.0  -0.573
  O  O368  1  0.480000  0.371500  0.998070  1.0  -0.5767
  O  O369  1  0.105470  0.744530  0.376380  1.0  -0.573
  O  O370  1  0.146670  0.704830  0.331400  1.0  -0.5767
  O  O371  1  0.772130  0.077870  0.709720  1.0  -0.573
  O  O372  1  0.813330  0.038170  0.664740  1.0  -0.5767
  O  O373  1  0.588800  0.027600  0.043050  1.0  -0.574
  O  O374  1  0.628500  0.108500  0.998070  1.0  -0.578
  O  O375  1  0.255470  0.360930  0.376380  1.0  -0.574
  O  O376  1  0.295170  0.441830  0.331400  1.0  -0.578
  O  O377  1  0.922130  0.694270  0.709720  1.0  -0.574
  O  O378  1  0.961830  0.775170  0.664740  1.0  -0.578
  O  O379  1  0.561200  0.972400  0.956950  1.0  -0.5741
  O  O380  1  0.520000  0.891500  0.001930  1.0  -0.5771
  O  O381  1  0.227870  0.305730  0.290280  1.0  -0.5741
  O  O382  1  0.186670  0.224830  0.335260  1.0  -0.5771
  O  O383  1  0.894530  0.639070  0.623620  1.0  -0.5741
  O  O384  1  0.853330  0.558170  0.668600  1.0  -0.5771
  O  O385  1  0.411200  0.438800  0.956950  1.0  -0.5748
  O  O386  1  0.371500  0.480000  0.001930  1.0  -0.5764
  O  O387  1  0.077870  0.772130  0.290280  1.0  -0.5749
  O  O388  1  0.038170  0.813330  0.335260  1.0  -0.5764
  O  O389  1  0.744530  0.105470  0.623620  1.0  -0.5748
  O  O390  1  0.704830  0.146670  0.668600  1.0  -0.5764
  O  O391  1  0.027600  0.588800  0.956950  1.0  -0.574
  O  O392  1  0.108500  0.628500  0.001930  1.0  -0.5764
  O  O393  1  0.694270  0.922130  0.290280  1.0  -0.574
  O  O394  1  0.775170  0.961830  0.335260  1.0  -0.5764
  O  O395  1  0.360930  0.255470  0.623620  1.0  -0.574
  O  O396  1  0.441830  0.295170  0.668600  1.0  -0.5764
  O  O397  1  0.027600  0.438800  0.956950  1.0  -0.5741
  O  O398  1  0.108500  0.480000  0.001930  1.0  -0.5765
  O  O399  1  0.694270  0.772130  0.290280  1.0  -0.5741
  O  O400  1  0.775170  0.813330  0.335260  1.0  -0.5765
  O  O401  1  0.360930  0.105470  0.623620  1.0  -0.5741
  O  O402  1  0.441830  0.146670  0.668600  1.0  -0.5765
  O  O403  1  0.561200  0.588800  0.956950  1.0  -0.5743
  O  O404  1  0.520000  0.628500  0.001930  1.0  -0.5762
  O  O405  1  0.227870  0.922130  0.290280  1.0  -0.5743
  O  O406  1  0.186670  0.961830  0.335260  1.0  -0.5762
  O  O407  1  0.894530  0.255470  0.623620  1.0  -0.5743
  O  O408  1  0.853330  0.295170  0.668600  1.0  -0.5762
  O  O409  1  0.411200  0.972400  0.956950  1.0  -0.5735
  O  O410  1  0.371500  0.891500  0.001930  1.0  -0.5774
  O  O411  1  0.077870  0.305730  0.290280  1.0  -0.5735
  O  O412  1  0.038170  0.224830  0.335260  1.0  -0.5774
  O  O413  1  0.744530  0.639070  0.623620  1.0  -0.5735
  O  O414  1  0.704830  0.558170  0.668600  1.0  -0.5774
  O  O415  1  0.438800  0.027600  0.043050  1.0  -0.5735
  O  O416  1  0.480000  0.108500  0.998070  1.0  -0.5783
  O  O417  1  0.105470  0.360930  0.376380  1.0  -0.5735
  O  O418  1  0.146670  0.441830  0.331400  1.0  -0.5783
  O  O419  1  0.772130  0.694270  0.709720  1.0  -0.5735
  O  O420  1  0.813330  0.775170  0.664740  1.0  -0.5783
  O  O421  1  0.588800  0.561200  0.043050  1.0  -0.5733
  O  O422  1  0.628500  0.520000  0.998070  1.0  -0.5773
  O  O423  1  0.255470  0.894530  0.376380  1.0  -0.5733
  O  O424  1  0.295170  0.853330  0.331400  1.0  -0.5773
  O  O425  1  0.922130  0.227870  0.709720  1.0  -0.5733
  O  O426  1  0.961830  0.186670  0.664740  1.0  -0.5773
  O  O427  1  0.972400  0.411200  0.043050  1.0  -0.5736
  O  O428  1  0.891500  0.371500  0.998070  1.0  -0.5771
  O  O429  1  0.639070  0.744530  0.376380  1.0  -0.5736
  O  O430  1  0.558170  0.704830  0.331400  1.0  -0.5771
  O  O431  1  0.305730  0.077870  0.709720  1.0  -0.5736
  O  O432  1  0.224830  0.038170  0.664740  1.0  -0.5771
