# generated using pymatgen
data_Cu2H3C8SO8
_symmetry_space_group_name_H-M   'P 1'
_cell_length_a   7.33330000
_cell_length_b   10.17290000
_cell_length_c   18.15300000
_cell_angle_alpha   90.00000000
_cell_angle_beta   90.00000000
_cell_angle_gamma   94.37900000
_symmetry_Int_Tables_number   1
_chemical_formula_structural   Cu2H3C8SO8
_chemical_formula_sum   'Cu8 H12 C32 S4 O32'
_cell_volume   1350.27737385
_cell_formula_units_Z   4
loop_
 _symmetry_equiv_pos_site_id
 _symmetry_equiv_pos_as_xyz
  1  'x, y, z'
loop_
 _atom_site_type_symbol
 _atom_site_label
 _atom_site_symmetry_multiplicity
 _atom_site_fract_x
 _atom_site_fract_y
 _atom_site_fract_z
 _atom_site_occupancy
 _atom_site_charge
  Cu  Cu1  1  0.865570  0.217100  0.905730  1.0  1.0484
  Cu  Cu2  1  0.044010  0.931940  0.931450  1.0  1.1134
  Cu  Cu3  1  0.634430  0.282900  0.405730  1.0  1.0482
  Cu  Cu4  1  0.455990  0.568060  0.431450  1.0  1.1141
  Cu  Cu5  1  0.134430  0.782900  0.094270  1.0  1.0487
  Cu  Cu6  1  0.955990  0.068060  0.068550  1.0  1.1144
  Cu  Cu7  1  0.365570  0.717100  0.594270  1.0  1.048
  Cu  Cu8  1  0.544010  0.431940  0.568550  1.0  1.1141
  H  H9  1  0.782500  0.165600  0.692200  1.0  0.1105
  H  H10  1  0.937900  0.796200  0.706700  1.0  0.1129
  H  H11  1  0.778900  0.938100  0.511600  1.0  0.112
  H  H12  1  0.717500  0.334400  0.192200  1.0  0.1108
  H  H13  1  0.562100  0.703800  0.206700  1.0  0.1131
  H  H14  1  0.721100  0.561900  0.011600  1.0  0.1117
  H  H15  1  0.217500  0.834400  0.307800  1.0  0.1105
  H  H16  1  0.062100  0.203800  0.293300  1.0  0.1134
  H  H17  1  0.221100  0.061900  0.488400  1.0  0.112
  H  H18  1  0.282500  0.665600  0.807800  1.0  0.1104
  H  H19  1  0.437900  0.296200  0.793300  1.0  0.1131
  H  H20  1  0.278900  0.438100  0.988400  1.0  0.1121
  C  C21  1  0.862800  0.849700  0.604500  1.0  -0.2893
  C  C22  1  0.771600  0.070100  0.595500  1.0  -0.1494
  C  C23  1  0.804300  0.085900  0.670000  1.0  0.0459
  C  C24  1  0.869300  0.985200  0.713100  1.0  -0.1718
  C  C25  1  0.902300  0.009300  0.792400  1.0  0.7302
  C  C26  1  0.896900  0.865300  0.679300  1.0  0.0427
  C  C27  1  0.800700  0.950300  0.561700  1.0  0.0462
  C  C28  1  0.699700  0.183000  0.553600  1.0  0.7184
  C  C29  1  0.637200  0.650300  0.104500  1.0  -0.2891
  C  C30  1  0.728400  0.429900  0.095500  1.0  -0.1505
  C  C31  1  0.695700  0.414100  0.170000  1.0  0.0452
  C  C32  1  0.630700  0.514800  0.213100  1.0  -0.172
  C  C33  1  0.597700  0.490700  0.292400  1.0  0.73
  C  C34  1  0.603100  0.634700  0.179300  1.0  0.0434
  C  C35  1  0.699300  0.549700  0.061700  1.0  0.0463
  C  C36  1  0.800300  0.317000  0.053600  1.0  0.7188
  C  C37  1  0.137200  0.150300  0.395500  1.0  -0.2886
  C  C38  1  0.228400  0.929900  0.404500  1.0  -0.1505
  C  C39  1  0.195700  0.914100  0.330000  1.0  0.0451
  C  C40  1  0.130700  0.014800  0.286900  1.0  -0.1714
  C  C41  1  0.097700  0.990700  0.207600  1.0  0.7299
  C  C42  1  0.103100  0.134700  0.320700  1.0  0.0429
  C  C43  1  0.199300  0.049700  0.438300  1.0  0.0463
  C  C44  1  0.300300  0.817000  0.446400  1.0  0.7183
  C  C45  1  0.362800  0.349700  0.895500  1.0  -0.2891
  C  C46  1  0.271600  0.570100  0.904500  1.0  -0.1495
  C  C47  1  0.304300  0.585900  0.830000  1.0  0.0456
  C  C48  1  0.369300  0.485200  0.786900  1.0  -0.1711
  C  C49  1  0.402300  0.509300  0.707600  1.0  0.7301
  C  C50  1  0.396900  0.365300  0.820700  1.0  0.0423
  C  C51  1  0.300700  0.450300  0.938300  1.0  0.046
  C  C52  1  0.199700  0.683000  0.946400  1.0  0.7178
  S  S53  1  0.880170  0.691040  0.565480  1.0  1.3795
  S  S54  1  0.619830  0.808960  0.065480  1.0  1.3791
  S  S55  1  0.119830  0.308960  0.434520  1.0  1.3791
  S  S56  1  0.380170  0.191040  0.934520  1.0  1.3797
  O  O57  1  0.947300  0.914100  0.832200  1.0  -0.5237
  O  O58  1  0.870400  0.057100  0.965300  1.0  -0.6884
  O  O59  1  0.659500  0.163500  0.487000  1.0  -0.6177
  O  O60  1  0.881600  0.125400  0.814200  1.0  -0.5833
  O  O61  1  0.871800  0.702600  0.487200  1.0  -0.5945
  O  O62  1  0.686900  0.286200  0.590100  1.0  -0.5178
  O  O63  1  0.726000  0.613000  0.596800  1.0  -0.7128
  O  O64  1  0.049800  0.645000  0.593300  1.0  -0.6124
  O  O65  1  0.552700  0.585900  0.332200  1.0  -0.5224
  O  O66  1  0.629600  0.442900  0.465300  1.0  -0.6882
  O  O67  1  0.840500  0.336500  0.987000  1.0  -0.6173
  O  O68  1  0.618400  0.374600  0.314200  1.0  -0.5834
  O  O69  1  0.628200  0.797400  0.987200  1.0  -0.5943
  O  O70  1  0.813100  0.213800  0.090100  1.0  -0.5194
  O  O71  1  0.774000  0.887000  0.096800  1.0  -0.7133
  O  O72  1  0.450200  0.855000  0.093300  1.0  -0.6116
  O  O73  1  0.052700  0.085900  0.167800  1.0  -0.5221
  O  O74  1  0.129600  0.942900  0.034700  1.0  -0.6882
  O  O75  1  0.340500  0.836500  0.513000  1.0  -0.6178
  O  O76  1  0.118400  0.874600  0.185800  1.0  -0.5831
  O  O77  1  0.128200  0.297400  0.512800  1.0  -0.5937
  O  O78  1  0.313100  0.713800  0.409900  1.0  -0.5189
  O  O79  1  0.274000  0.387000  0.403200  1.0  -0.7127
  O  O80  1  0.950200  0.355000  0.406700  1.0  -0.6119
  O  O81  1  0.447300  0.414100  0.667800  1.0  -0.5234
  O  O82  1  0.370400  0.557100  0.534700  1.0  -0.6884
  O  O83  1  0.159500  0.663500  0.013000  1.0  -0.6181
  O  O84  1  0.381600  0.625400  0.685800  1.0  -0.583
  O  O85  1  0.371800  0.202600  0.012800  1.0  -0.5936
  O  O86  1  0.186900  0.786200  0.909900  1.0  -0.5174
  O  O87  1  0.226000  0.113000  0.903200  1.0  -0.7128
  O  O88  1  0.549800  0.145000  0.906700  1.0  -0.6129
