# generated using pymatgen
data_Cu2H3C8SO8
_symmetry_space_group_name_H-M   'P 1'
_cell_length_a   7.31500000
_cell_length_b   10.21900000
_cell_length_c   18.16800000
_cell_angle_alpha   90.00000000
_cell_angle_beta   90.00000000
_cell_angle_gamma   94.16300000
_symmetry_Int_Tables_number   1
_chemical_formula_structural   Cu2H3C8SO8
_chemical_formula_sum   'Cu8 H12 C32 S4 O32'
_cell_volume   1354.51081980
_cell_formula_units_Z   4
loop_
 _symmetry_equiv_pos_site_id
 _symmetry_equiv_pos_as_xyz
  1  'x, y, z'
loop_
 _atom_site_type_symbol
 _atom_site_label
 _atom_site_symmetry_multiplicity
 _atom_site_fract_x
 _atom_site_fract_y
 _atom_site_fract_z
 _atom_site_occupancy
 _atom_site_charge
  Cu  Cu1  1  0.864520  0.215560  0.905330  1.0  1.0495
  Cu  Cu2  1  0.038530  0.929580  0.931570  1.0  1.1214
  Cu  Cu3  1  0.635480  0.284440  0.405330  1.0  1.0493
  Cu  Cu4  1  0.461470  0.570420  0.431570  1.0  1.1208
  Cu  Cu5  1  0.135480  0.784440  0.094670  1.0  1.0492
  Cu  Cu6  1  0.961470  0.070420  0.068430  1.0  1.1215
  Cu  Cu7  1  0.364520  0.715560  0.594670  1.0  1.0487
  Cu  Cu8  1  0.538530  0.429580  0.568430  1.0  1.1215
  H  H9  1  0.781900  0.165000  0.691500  1.0  0.1166
  H  H10  1  0.934000  0.797600  0.706600  1.0  0.1186
  H  H11  1  0.771900  0.937300  0.510800  1.0  0.1191
  H  H12  1  0.718100  0.335000  0.191500  1.0  0.1168
  H  H13  1  0.566000  0.702400  0.206600  1.0  0.1189
  H  H14  1  0.728100  0.562700  0.010800  1.0  0.1184
  H  H15  1  0.218100  0.835000  0.308500  1.0  0.1164
  H  H16  1  0.066000  0.202400  0.293400  1.0  0.119
  H  H17  1  0.228100  0.062700  0.489200  1.0  0.1187
  H  H18  1  0.281900  0.665000  0.808500  1.0  0.1165
  H  H19  1  0.434000  0.297600  0.793400  1.0  0.1186
  H  H20  1  0.271900  0.437300  0.989200  1.0  0.1189
  C  C21  1  0.856600  0.849700  0.604300  1.0  -0.2831
  C  C22  1  0.766800  0.067600  0.595200  1.0  -0.1429
  C  C23  1  0.801000  0.084700  0.669700  1.0  0.0367
  C  C24  1  0.863000  0.984500  0.712400  1.0  -0.1648
  C  C25  1  0.898800  0.008100  0.792500  1.0  0.7349
  C  C26  1  0.891600  0.866000  0.679100  1.0  0.0498
  C  C27  1  0.794200  0.949500  0.560800  1.0  0.0273
  C  C28  1  0.692700  0.178400  0.552500  1.0  0.7237
  C  C29  1  0.643400  0.650300  0.104300  1.0  -0.2826
  C  C30  1  0.733200  0.432400  0.095200  1.0  -0.1435
  C  C31  1  0.699000  0.415300  0.169700  1.0  0.0369
  C  C32  1  0.637000  0.515500  0.212400  1.0  -0.1648
  C  C33  1  0.601200  0.491900  0.292500  1.0  0.7349
  C  C34  1  0.608400  0.634000  0.179100  1.0  0.0514
  C  C35  1  0.705800  0.550500  0.060800  1.0  0.0281
  C  C36  1  0.807300  0.321600  0.052500  1.0  0.7233
  C  C37  1  0.143400  0.150300  0.395700  1.0  -0.2819
  C  C38  1  0.233200  0.932400  0.404800  1.0  -0.1438
  C  C39  1  0.199000  0.915300  0.330300  1.0  0.0366
  C  C40  1  0.137000  0.015500  0.287600  1.0  -0.1652
  C  C41  1  0.101200  0.991900  0.207500  1.0  0.7351
  C  C42  1  0.108400  0.134000  0.320900  1.0  0.0508
  C  C43  1  0.205800  0.050500  0.439200  1.0  0.0278
  C  C44  1  0.307300  0.821600  0.447500  1.0  0.7235
  C  C45  1  0.356600  0.349700  0.895700  1.0  -0.2824
  C  C46  1  0.266800  0.567600  0.904800  1.0  -0.1431
  C  C47  1  0.301000  0.584700  0.830300  1.0  0.0364
  C  C48  1  0.363000  0.484500  0.787600  1.0  -0.165
  C  C49  1  0.398800  0.508100  0.707500  1.0  0.7352
  C  C50  1  0.391600  0.366000  0.820900  1.0  0.049
  C  C51  1  0.294200  0.449500  0.939200  1.0  0.0269
  C  C52  1  0.192700  0.678400  0.947500  1.0  0.7238
  S  S53  1  0.875800  0.690630  0.564870  1.0  1.3623
  S  S54  1  0.624200  0.809370  0.064870  1.0  1.3602
  S  S55  1  0.124200  0.309370  0.435130  1.0  1.3604
  S  S56  1  0.375800  0.190630  0.935130  1.0  1.3626
  O  O57  1  0.942300  0.914800  0.832400  1.0  -0.5183
  O  O58  1  0.868100  0.058100  0.965500  1.0  -0.6871
  O  O59  1  0.657500  0.162600  0.485900  1.0  -0.6145
  O  O60  1  0.876700  0.124100  0.813700  1.0  -0.5821
  O  O61  1  0.856900  0.699700  0.486800  1.0  -0.5925
  O  O62  1  0.675000  0.281700  0.589400  1.0  -0.5351
  O  O63  1  0.725800  0.611000  0.599100  1.0  -0.7157
  O  O64  1  0.051300  0.646400  0.590800  1.0  -0.6262
  O  O65  1  0.557700  0.585200  0.332400  1.0  -0.5167
  O  O66  1  0.631900  0.441900  0.465500  1.0  -0.6866
  O  O67  1  0.842500  0.337400  0.985900  1.0  -0.6142
  O  O68  1  0.623300  0.375900  0.313700  1.0  -0.5819
  O  O69  1  0.643100  0.800300  0.986800  1.0  -0.5924
  O  O70  1  0.825000  0.218300  0.089400  1.0  -0.535
  O  O71  1  0.774200  0.889000  0.099100  1.0  -0.7162
  O  O72  1  0.448700  0.853600  0.090800  1.0  -0.6224
  O  O73  1  0.057700  0.085200  0.167600  1.0  -0.5168
  O  O74  1  0.131900  0.941900  0.034500  1.0  -0.6863
  O  O75  1  0.342500  0.837400  0.514100  1.0  -0.6136
  O  O76  1  0.123300  0.875900  0.186300  1.0  -0.5815
  O  O77  1  0.143100  0.300300  0.513200  1.0  -0.5938
  O  O78  1  0.325000  0.718300  0.410600  1.0  -0.5346
  O  O79  1  0.274200  0.389000  0.400900  1.0  -0.7152
  O  O80  1  0.948700  0.353600  0.409200  1.0  -0.6224
  O  O81  1  0.442300  0.414800  0.667600  1.0  -0.5187
  O  O82  1  0.368100  0.558100  0.534500  1.0  -0.6867
  O  O83  1  0.157500  0.662600  0.014100  1.0  -0.6141
  O  O84  1  0.376700  0.624100  0.686300  1.0  -0.5818
  O  O85  1  0.356900  0.199700  0.013200  1.0  -0.5939
  O  O86  1  0.175000  0.781700  0.910600  1.0  -0.5353
  O  O87  1  0.225800  0.111000  0.900900  1.0  -0.7156
  O  O88  1  0.551300  0.146400  0.909200  1.0  -0.6259
