# generated using pymatgen
data_Cu2H3C8SO8
_symmetry_space_group_name_H-M   'P 1'
_cell_length_a   7.33540000
_cell_length_b   10.17900000
_cell_length_c   18.14000000
_cell_angle_alpha   90.00000000
_cell_angle_beta   90.00000000
_cell_angle_gamma   94.33700000
_symmetry_Int_Tables_number   1
_chemical_formula_structural   Cu2H3C8SO8
_chemical_formula_sum   'Cu8 H12 C32 S4 O32'
_cell_volume   1350.58155633
_cell_formula_units_Z   4
loop_
 _symmetry_equiv_pos_site_id
 _symmetry_equiv_pos_as_xyz
  1  'x, y, z'
loop_
 _atom_site_type_symbol
 _atom_site_label
 _atom_site_symmetry_multiplicity
 _atom_site_fract_x
 _atom_site_fract_y
 _atom_site_fract_z
 _atom_site_occupancy
 _atom_site_charge
  Cu  Cu1  1  0.865430  0.216960  0.905510  1.0  1.0449
  Cu  Cu2  1  0.043210  0.931550  0.931500  1.0  1.1167
  Cu  Cu3  1  0.634570  0.283040  0.405510  1.0  1.0449
  Cu  Cu4  1  0.456790  0.568450  0.431500  1.0  1.1172
  Cu  Cu5  1  0.134570  0.783040  0.094490  1.0  1.0457
  Cu  Cu6  1  0.956790  0.068450  0.068500  1.0  1.1172
  Cu  Cu7  1  0.365430  0.716960  0.594490  1.0  1.045
  Cu  Cu8  1  0.543210  0.431550  0.568500  1.0  1.117
  H  H9  1  0.782400  0.165900  0.692300  1.0  0.1126
  H  H10  1  0.937300  0.796200  0.706800  1.0  0.1149
  H  H11  1  0.780600  0.938600  0.511100  1.0  0.1111
  H  H12  1  0.717600  0.334100  0.192300  1.0  0.1129
  H  H13  1  0.562700  0.703800  0.206800  1.0  0.1149
  H  H14  1  0.719400  0.561400  0.011100  1.0  0.1108
  H  H15  1  0.217600  0.834100  0.307700  1.0  0.1125
  H  H16  1  0.062700  0.203800  0.293200  1.0  0.1151
  H  H17  1  0.219400  0.061400  0.488900  1.0  0.1112
  H  H18  1  0.282400  0.665900  0.807700  1.0  0.1124
  H  H19  1  0.437300  0.296200  0.793200  1.0  0.1149
  H  H20  1  0.280600  0.438600  0.988900  1.0  0.1114
  C  C21  1  0.861500  0.849600  0.604100  1.0  -0.2891
  C  C22  1  0.771000  0.069100  0.595000  1.0  -0.1475
  C  C23  1  0.803600  0.086100  0.670000  1.0  0.0396
  C  C24  1  0.867900  0.984800  0.712400  1.0  -0.1667
  C  C25  1  0.902000  0.009100  0.792900  1.0  0.734
  C  C26  1  0.896000  0.865100  0.679200  1.0  0.0435
  C  C27  1  0.800900  0.950400  0.561300  1.0  0.0416
  C  C28  1  0.698700  0.182100  0.553400  1.0  0.7207
  C  C29  1  0.638500  0.650400  0.104100  1.0  -0.2889
  C  C30  1  0.729000  0.430900  0.095000  1.0  -0.148
  C  C31  1  0.696400  0.413900  0.170000  1.0  0.0396
  C  C32  1  0.632100  0.515200  0.212400  1.0  -0.1667
  C  C33  1  0.598000  0.490900  0.292900  1.0  0.734
  C  C34  1  0.604000  0.634900  0.179200  1.0  0.0441
  C  C35  1  0.699100  0.549600  0.061300  1.0  0.0417
  C  C36  1  0.801300  0.317900  0.053400  1.0  0.7211
  C  C37  1  0.138500  0.150400  0.395900  1.0  -0.2884
  C  C38  1  0.229000  0.930900  0.405000  1.0  -0.1481
  C  C39  1  0.196400  0.913900  0.330000  1.0  0.0394
  C  C40  1  0.132100  0.015200  0.287600  1.0  -0.1667
  C  C41  1  0.098000  0.990900  0.207100  1.0  0.7341
  C  C42  1  0.104000  0.134900  0.320800  1.0  0.0434
  C  C43  1  0.199100  0.049600  0.438700  1.0  0.0414
  C  C44  1  0.301300  0.817900  0.446600  1.0  0.721
  C  C45  1  0.361500  0.349600  0.895900  1.0  -0.2889
  C  C46  1  0.271000  0.569100  0.905000  1.0  -0.1476
  C  C47  1  0.303600  0.586100  0.830000  1.0  0.0392
  C  C48  1  0.367900  0.484800  0.787600  1.0  -0.1665
  C  C49  1  0.402000  0.509100  0.707100  1.0  0.7342
  C  C50  1  0.396000  0.365100  0.820800  1.0  0.043
  C  C51  1  0.300900  0.450400  0.938700  1.0  0.0411
  C  C52  1  0.198700  0.682100  0.946600  1.0  0.7204
  S  S53  1  0.879400  0.690950  0.565370  1.0  1.3792
  S  S54  1  0.620600  0.809050  0.065370  1.0  1.379
  S  S55  1  0.120600  0.309050  0.434630  1.0  1.3791
  S  S56  1  0.379400  0.190950  0.934630  1.0  1.3794
  O  O57  1  0.947400  0.914400  0.831960  1.0  -0.5192
  O  O58  1  0.870600  0.057400  0.965210  1.0  -0.6916
  O  O59  1  0.658800  0.163300  0.486470  1.0  -0.6196
  O  O60  1  0.881200  0.125200  0.813930  1.0  -0.5816
  O  O61  1  0.870300  0.701900  0.487200  1.0  -0.5986
  O  O62  1  0.685600  0.285900  0.589600  1.0  -0.5152
  O  O63  1  0.726300  0.612100  0.597300  1.0  -0.7177
  O  O64  1  0.049200  0.645100  0.592700  1.0  -0.6138
  O  O65  1  0.552600  0.585600  0.331960  1.0  -0.5176
  O  O66  1  0.629400  0.442600  0.465210  1.0  -0.6912
  O  O67  1  0.841200  0.336700  0.986470  1.0  -0.6193
  O  O68  1  0.618800  0.374800  0.313930  1.0  -0.5818
  O  O69  1  0.629700  0.798100  0.987200  1.0  -0.5983
  O  O70  1  0.814400  0.214100  0.089600  1.0  -0.5169
  O  O71  1  0.773700  0.887900  0.097300  1.0  -0.7179
  O  O72  1  0.450800  0.854900  0.092700  1.0  -0.6134
  O  O73  1  0.052600  0.085600  0.168040  1.0  -0.5173
  O  O74  1  0.129400  0.942600  0.034790  1.0  -0.6912
  O  O75  1  0.341200  0.836700  0.513530  1.0  -0.6196
  O  O76  1  0.118800  0.874800  0.186070  1.0  -0.5814
  O  O77  1  0.129700  0.298100  0.512800  1.0  -0.5982
  O  O78  1  0.314400  0.714100  0.410400  1.0  -0.5163
  O  O79  1  0.273700  0.387900  0.402700  1.0  -0.717
  O  O80  1  0.950800  0.354900  0.407300  1.0  -0.6134
  O  O81  1  0.447400  0.414400  0.668040  1.0  -0.5188
  O  O82  1  0.370600  0.557400  0.534790  1.0  -0.6915
  O  O83  1  0.158800  0.663300  0.013530  1.0  -0.6197
  O  O84  1  0.381200  0.625200  0.686070  1.0  -0.5812
  O  O85  1  0.370300  0.201900  0.012800  1.0  -0.5983
  O  O86  1  0.185600  0.785900  0.910400  1.0  -0.5146
  O  O87  1  0.226300  0.112100  0.902700  1.0  -0.7176
  O  O88  1  0.549200  0.145100  0.907300  1.0  -0.6142
