# generated using pymatgen
data_Cu2H3C8SO8
_symmetry_space_group_name_H-M   'P 1'
_cell_length_a   7.30600000
_cell_length_b   10.20500000
_cell_length_c   18.11100000
_cell_angle_alpha   90.00000000
_cell_angle_beta   90.00000000
_cell_angle_gamma   94.24800000
_symmetry_Int_Tables_number   1
_chemical_formula_structural   Cu2H3C8SO8
_chemical_formula_sum   'Cu8 H12 C32 S4 O32'
_cell_volume   1346.60542387
_cell_formula_units_Z   4
loop_
 _symmetry_equiv_pos_site_id
 _symmetry_equiv_pos_as_xyz
  1  'x, y, z'
loop_
 _atom_site_type_symbol
 _atom_site_label
 _atom_site_symmetry_multiplicity
 _atom_site_fract_x
 _atom_site_fract_y
 _atom_site_fract_z
 _atom_site_occupancy
 _atom_site_charge
  Cu  Cu1  1  0.864550  0.215900  0.905280  1.0  1.0479
  Cu  Cu2  1  0.039510  0.929790  0.931580  1.0  1.1225
  Cu  Cu3  1  0.635450  0.284100  0.405280  1.0  1.0479
  Cu  Cu4  1  0.460490  0.570210  0.431580  1.0  1.122
  Cu  Cu5  1  0.135450  0.784100  0.094720  1.0  1.0485
  Cu  Cu6  1  0.960490  0.070210  0.068420  1.0  1.1226
  Cu  Cu7  1  0.364550  0.715900  0.594720  1.0  1.0477
  Cu  Cu8  1  0.539510  0.429790  0.568420  1.0  1.1225
  H  H9  1  0.778900  0.164300  0.692100  1.0  0.1134
  H  H10  1  0.935900  0.797500  0.707000  1.0  0.1141
  H  H11  1  0.772900  0.936600  0.510900  1.0  0.1121
  H  H12  1  0.721100  0.335700  0.192100  1.0  0.1137
  H  H13  1  0.564100  0.702500  0.207000  1.0  0.1143
  H  H14  1  0.727100  0.563400  0.010900  1.0  0.1117
  H  H15  1  0.221100  0.835700  0.307900  1.0  0.1133
  H  H16  1  0.064100  0.202500  0.293000  1.0  0.1144
  H  H17  1  0.227100  0.063400  0.489100  1.0  0.1121
  H  H18  1  0.278900  0.664300  0.807900  1.0  0.1132
  H  H19  1  0.435900  0.297500  0.793000  1.0  0.114
  H  H20  1  0.272900  0.436600  0.989100  1.0  0.1122
  C  C21  1  0.858600  0.848400  0.604200  1.0  -0.2933
  C  C22  1  0.766100  0.069000  0.595000  1.0  -0.1564
  C  C23  1  0.799600  0.084700  0.669700  1.0  0.0465
  C  C24  1  0.863500  0.984300  0.711900  1.0  -0.1617
  C  C25  1  0.898500  0.008800  0.792400  1.0  0.7342
  C  C26  1  0.893200  0.865400  0.679100  1.0  0.0495
  C  C27  1  0.795200  0.949000  0.561000  1.0  0.0342
  C  C28  1  0.694200  0.180000  0.552900  1.0  0.7321
  C  C29  1  0.641400  0.651600  0.104200  1.0  -0.2929
  C  C30  1  0.733900  0.431000  0.095000  1.0  -0.157
  C  C31  1  0.700400  0.415300  0.169700  1.0  0.0466
  C  C32  1  0.636500  0.515700  0.211900  1.0  -0.1618
  C  C33  1  0.601500  0.491200  0.292400  1.0  0.7342
  C  C34  1  0.606800  0.634600  0.179100  1.0  0.0505
  C  C35  1  0.704800  0.551000  0.061000  1.0  0.0342
  C  C36  1  0.805800  0.320000  0.052900  1.0  0.7319
  C  C37  1  0.141400  0.151600  0.395800  1.0  -0.2923
  C  C38  1  0.233900  0.931000  0.405000  1.0  -0.1571
  C  C39  1  0.200400  0.915300  0.330300  1.0  0.0466
  C  C40  1  0.136500  0.015700  0.288100  1.0  -0.1621
  C  C41  1  0.101500  0.991200  0.207600  1.0  0.7343
  C  C42  1  0.106800  0.134600  0.320900  1.0  0.0493
  C  C43  1  0.204800  0.051000  0.439000  1.0  0.0344
  C  C44  1  0.305800  0.820000  0.447100  1.0  0.7314
  C  C45  1  0.358600  0.348400  0.895800  1.0  -0.2928
  C  C46  1  0.266100  0.569000  0.905000  1.0  -0.1566
  C  C47  1  0.299600  0.584700  0.830300  1.0  0.0465
  C  C48  1  0.363500  0.484300  0.788100  1.0  -0.1616
  C  C49  1  0.398500  0.508800  0.707600  1.0  0.7343
  C  C50  1  0.393200  0.365400  0.820900  1.0  0.0486
  C  C51  1  0.295200  0.449000  0.939000  1.0  0.0344
  C  C52  1  0.194200  0.680000  0.947100  1.0  0.7316
  S  S53  1  0.876210  0.690430  0.565060  1.0  1.3819
  S  S54  1  0.623790  0.809570  0.065060  1.0  1.3815
  S  S55  1  0.123790  0.309570  0.434940  1.0  1.3817
  S  S56  1  0.376210  0.190430  0.934940  1.0  1.3822
  O  O57  1  0.944000  0.914400  0.832110  1.0  -0.522
  O  O58  1  0.869400  0.058300  0.965580  1.0  -0.6922
  O  O59  1  0.656000  0.161800  0.486000  1.0  -0.6211
  O  O60  1  0.877300  0.124400  0.813590  1.0  -0.5806
  O  O61  1  0.858300  0.700400  0.486900  1.0  -0.6007
  O  O62  1  0.678800  0.282900  0.589200  1.0  -0.5213
  O  O63  1  0.725700  0.611100  0.598400  1.0  -0.7217
  O  O64  1  0.048900  0.647300  0.591300  1.0  -0.619
  O  O65  1  0.556000  0.585600  0.332110  1.0  -0.5209
  O  O66  1  0.630600  0.441700  0.465580  1.0  -0.6918
  O  O67  1  0.844000  0.338200  0.986000  1.0  -0.6208
  O  O68  1  0.622700  0.375600  0.313590  1.0  -0.5806
  O  O69  1  0.641700  0.799600  0.986900  1.0  -0.6005
  O  O70  1  0.821200  0.217100  0.089200  1.0  -0.5214
  O  O71  1  0.774300  0.888900  0.098400  1.0  -0.7217
  O  O72  1  0.451100  0.852700  0.091300  1.0  -0.6178
  O  O73  1  0.056000  0.085600  0.167890  1.0  -0.5206
  O  O74  1  0.130600  0.941700  0.034420  1.0  -0.6917
  O  O75  1  0.344000  0.838200  0.514000  1.0  -0.6203
  O  O76  1  0.122700  0.875600  0.186410  1.0  -0.5802
  O  O77  1  0.141700  0.299600  0.513100  1.0  -0.6016
  O  O78  1  0.321200  0.717100  0.410800  1.0  -0.5212
  O  O79  1  0.274300  0.388900  0.401600  1.0  -0.7208
  O  O80  1  0.951100  0.352700  0.408700  1.0  -0.6178
  O  O81  1  0.444000  0.414400  0.667890  1.0  -0.5216
  O  O82  1  0.369400  0.558300  0.534420  1.0  -0.6919
  O  O83  1  0.156000  0.661800  0.014000  1.0  -0.6209
  O  O84  1  0.377300  0.624400  0.686410  1.0  -0.5802
  O  O85  1  0.358300  0.200400  0.013100  1.0  -0.6018
  O  O86  1  0.178800  0.782900  0.910800  1.0  -0.5209
  O  O87  1  0.225700  0.111100  0.901600  1.0  -0.7217
  O  O88  1  0.548900  0.147300  0.908700  1.0  -0.6194
