# generated using pymatgen
data_Cu2H3C8SO8
_symmetry_space_group_name_H-M   'P 1'
_cell_length_a   7.33540000
_cell_length_b   10.17900000
_cell_length_c   18.14000000
_cell_angle_alpha   90.00000000
_cell_angle_beta   90.00000000
_cell_angle_gamma   94.33700000
_symmetry_Int_Tables_number   1
_chemical_formula_structural   Cu2H3C8SO8
_chemical_formula_sum   'Cu8 H12 C32 S4 O32'
_cell_volume   1350.58155633
_cell_formula_units_Z   4
loop_
 _symmetry_equiv_pos_site_id
 _symmetry_equiv_pos_as_xyz
  1  'x, y, z'
loop_
 _atom_site_type_symbol
 _atom_site_label
 _atom_site_symmetry_multiplicity
 _atom_site_fract_x
 _atom_site_fract_y
 _atom_site_fract_z
 _atom_site_occupancy
 _atom_site_charge
  Cu  Cu1  1  0.865410  0.216960  0.905510  1.0  1.045
  Cu  Cu2  1  0.043180  0.931540  0.931500  1.0  1.1164
  Cu  Cu3  1  0.634590  0.283040  0.405510  1.0  1.045
  Cu  Cu4  1  0.456820  0.568460  0.431500  1.0  1.1169
  Cu  Cu5  1  0.134590  0.783040  0.094490  1.0  1.0459
  Cu  Cu6  1  0.956820  0.068460  0.068500  1.0  1.1169
  Cu  Cu7  1  0.365410  0.716960  0.594490  1.0  1.0452
  Cu  Cu8  1  0.543180  0.431540  0.568500  1.0  1.1166
  H  H9  1  0.781700  0.165700  0.692300  1.0  0.1118
  H  H10  1  0.936600  0.796000  0.706700  1.0  0.1146
  H  H11  1  0.780700  0.938400  0.511100  1.0  0.1141
  H  H12  1  0.718300  0.334300  0.192300  1.0  0.1121
  H  H13  1  0.563400  0.704000  0.206700  1.0  0.1147
  H  H14  1  0.719300  0.561600  0.011100  1.0  0.1137
  H  H15  1  0.218300  0.834300  0.307700  1.0  0.1118
  H  H16  1  0.063400  0.204000  0.293300  1.0  0.1148
  H  H17  1  0.219300  0.061600  0.488900  1.0  0.1139
  H  H18  1  0.281700  0.665700  0.807700  1.0  0.1116
  H  H19  1  0.436600  0.296000  0.793300  1.0  0.1147
  H  H20  1  0.280700  0.438400  0.988900  1.0  0.1141
  C  C21  1  0.861400  0.849600  0.604100  1.0  -0.2891
  C  C22  1  0.770900  0.069300  0.595000  1.0  -0.1465
  C  C23  1  0.803400  0.086100  0.670100  1.0  0.04
  C  C24  1  0.868000  0.984900  0.712400  1.0  -0.167
  C  C25  1  0.902100  0.009100  0.792800  1.0  0.7319
  C  C26  1  0.895700  0.865000  0.679200  1.0  0.0445
  C  C27  1  0.800900  0.950300  0.561400  1.0  0.0402
  C  C28  1  0.699000  0.182100  0.553500  1.0  0.719
  C  C29  1  0.638600  0.650400  0.104100  1.0  -0.2887
  C  C30  1  0.729100  0.430700  0.095000  1.0  -0.1474
  C  C31  1  0.696600  0.413900  0.170100  1.0  0.0398
  C  C32  1  0.632000  0.515100  0.212400  1.0  -0.1671
  C  C33  1  0.597900  0.490900  0.292800  1.0  0.7319
  C  C34  1  0.604300  0.635000  0.179200  1.0  0.0447
  C  C35  1  0.699100  0.549700  0.061400  1.0  0.0403
  C  C36  1  0.801000  0.317900  0.053500  1.0  0.7191
  C  C37  1  0.138600  0.150400  0.395900  1.0  -0.2884
  C  C38  1  0.229100  0.930700  0.405000  1.0  -0.1475
  C  C39  1  0.196600  0.913900  0.329900  1.0  0.0396
  C  C40  1  0.132000  0.015100  0.287600  1.0  -0.1673
  C  C41  1  0.097900  0.990900  0.207200  1.0  0.732
  C  C42  1  0.104300  0.135000  0.320800  1.0  0.0441
  C  C43  1  0.199100  0.049700  0.438600  1.0  0.0406
  C  C44  1  0.301000  0.817900  0.446500  1.0  0.7188
  C  C45  1  0.361400  0.349600  0.895900  1.0  -0.2889
  C  C46  1  0.270900  0.569300  0.905000  1.0  -0.1467
  C  C47  1  0.303400  0.586100  0.829900  1.0  0.0398
  C  C48  1  0.368000  0.484900  0.787600  1.0  -0.1672
  C  C49  1  0.402100  0.509100  0.707200  1.0  0.7321
  C  C50  1  0.395700  0.365000  0.820800  1.0  0.044
  C  C51  1  0.300900  0.450300  0.938600  1.0  0.0403
  C  C52  1  0.199000  0.682100  0.946500  1.0  0.7185
  S  S53  1  0.879400  0.690960  0.565380  1.0  1.3802
  S  S54  1  0.620600  0.809040  0.065380  1.0  1.38
  S  S55  1  0.120600  0.309040  0.434620  1.0  1.38
  S  S56  1  0.379400  0.190960  0.934620  1.0  1.3804
  O  O57  1  0.947600  0.914400  0.831970  1.0  -0.515
  O  O58  1  0.870600  0.057300  0.965200  1.0  -0.6914
  O  O59  1  0.659000  0.163400  0.486480  1.0  -0.6207
  O  O60  1  0.881200  0.125300  0.813920  1.0  -0.5833
  O  O61  1  0.870300  0.702000  0.487200  1.0  -0.5966
  O  O62  1  0.685500  0.285900  0.589740  1.0  -0.518
  O  O63  1  0.726100  0.612300  0.597200  1.0  -0.7167
  O  O64  1  0.049100  0.645000  0.592600  1.0  -0.6145
  O  O65  1  0.552400  0.585600  0.331970  1.0  -0.5138
  O  O66  1  0.629400  0.442700  0.465200  1.0  -0.691
  O  O67  1  0.841000  0.336600  0.986480  1.0  -0.6205
  O  O68  1  0.618800  0.374700  0.313920  1.0  -0.5834
  O  O69  1  0.629700  0.798000  0.987200  1.0  -0.5963
  O  O70  1  0.814500  0.214100  0.089740  1.0  -0.5192
  O  O71  1  0.773900  0.887700  0.097200  1.0  -0.7172
  O  O72  1  0.450900  0.855000  0.092600  1.0  -0.6141
  O  O73  1  0.052400  0.085600  0.168030  1.0  -0.5134
  O  O74  1  0.129400  0.942700  0.034800  1.0  -0.6911
  O  O75  1  0.341000  0.836600  0.513520  1.0  -0.6207
  O  O76  1  0.118800  0.874700  0.186080  1.0  -0.5831
  O  O77  1  0.129700  0.298000  0.512800  1.0  -0.5961
  O  O78  1  0.314500  0.714100  0.410260  1.0  -0.5185
  O  O79  1  0.273900  0.387700  0.402800  1.0  -0.7163
  O  O80  1  0.950900  0.355000  0.407400  1.0  -0.6142
  O  O81  1  0.447600  0.414400  0.668030  1.0  -0.5147
  O  O82  1  0.370600  0.557300  0.534800  1.0  -0.6913
  O  O83  1  0.159000  0.663400  0.013520  1.0  -0.6208
  O  O84  1  0.381200  0.625300  0.686080  1.0  -0.583
  O  O85  1  0.370300  0.202000  0.012800  1.0  -0.5962
  O  O86  1  0.185500  0.785900  0.910260  1.0  -0.5173
  O  O87  1  0.226100  0.112300  0.902800  1.0  -0.7167
  O  O88  1  0.549100  0.145000  0.907400  1.0  -0.6149
