# generated using pymatgen
data_Cu2H3C8SO8
_symmetry_space_group_name_H-M   'P 1'
_cell_length_a   7.30100000
_cell_length_b   10.21000000
_cell_length_c   18.04800000
_cell_angle_alpha   90.00000000
_cell_angle_beta   90.00000000
_cell_angle_gamma   94.33400000
_symmetry_Int_Tables_number   1
_chemical_formula_structural   Cu2H3C8SO8
_chemical_formula_sum   'Cu8 H12 C32 S4 O32'
_cell_volume   1341.50876150
_cell_formula_units_Z   4
loop_
 _symmetry_equiv_pos_site_id
 _symmetry_equiv_pos_as_xyz
  1  'x, y, z'
loop_
 _atom_site_type_symbol
 _atom_site_label
 _atom_site_symmetry_multiplicity
 _atom_site_fract_x
 _atom_site_fract_y
 _atom_site_fract_z
 _atom_site_occupancy
 _atom_site_charge
  Cu  Cu1  1  0.865040  0.215930  0.905340  1.0  1.0426
  Cu  Cu2  1  0.040000  0.930010  0.931590  1.0  1.1217
  Cu  Cu3  1  0.634960  0.284070  0.405340  1.0  1.0425
  Cu  Cu4  1  0.460000  0.569990  0.431590  1.0  1.1221
  Cu  Cu5  1  0.134960  0.784070  0.094660  1.0  1.0432
  Cu  Cu6  1  0.960000  0.069990  0.068410  1.0  1.1209
  Cu  Cu7  1  0.365040  0.715930  0.594660  1.0  1.0425
  Cu  Cu8  1  0.540000  0.430010  0.568410  1.0  1.1206
  H  H9  1  0.778500  0.164300  0.692200  1.0  0.1075
  H  H10  1  0.936000  0.798800  0.707700  1.0  0.1123
  H  H11  1  0.772200  0.935400  0.510700  1.0  0.112
  H  H12  1  0.721500  0.335700  0.192200  1.0  0.107
  H  H13  1  0.564000  0.701200  0.207700  1.0  0.1135
  H  H14  1  0.727800  0.564600  0.010700  1.0  0.112
  H  H15  1  0.221500  0.835700  0.307800  1.0  0.107
  H  H16  1  0.064000  0.201200  0.292300  1.0  0.1125
  H  H17  1  0.227800  0.064600  0.489300  1.0  0.1127
  H  H18  1  0.278500  0.664300  0.807800  1.0  0.1072
  H  H19  1  0.436000  0.298800  0.792300  1.0  0.112
  H  H20  1  0.272200  0.435400  0.989300  1.0  0.1121
  C  C21  1  0.856300  0.848700  0.603600  1.0  -0.2905
  C  C22  1  0.768300  0.070100  0.594900  1.0  -0.1522
  C  C23  1  0.800600  0.085100  0.669600  1.0  0.04
  C  C24  1  0.864600  0.986600  0.711900  1.0  -0.1614
  C  C25  1  0.898600  0.011600  0.793000  1.0  0.734
  C  C26  1  0.893200  0.866500  0.679500  1.0  0.0377
  C  C27  1  0.795300  0.948100  0.561000  1.0  0.0314
  C  C28  1  0.694300  0.180800  0.552900  1.0  0.7375
  C  C29  1  0.643700  0.651300  0.103600  1.0  -0.2745
  C  C30  1  0.731700  0.429900  0.094900  1.0  -0.1529
  C  C31  1  0.699400  0.414900  0.169600  1.0  0.041
  C  C32  1  0.635400  0.513400  0.211900  1.0  -0.1613
  C  C33  1  0.601400  0.488400  0.293000  1.0  0.7337
  C  C34  1  0.606800  0.633500  0.179500  1.0  0.0472
  C  C35  1  0.704700  0.551900  0.061000  1.0  0.0301
  C  C36  1  0.805700  0.319200  0.052900  1.0  0.7367
  C  C37  1  0.143700  0.151300  0.396400  1.0  -0.2747
  C  C38  1  0.231700  0.929900  0.405100  1.0  -0.1523
  C  C39  1  0.199400  0.914900  0.330400  1.0  0.0403
  C  C40  1  0.135400  0.013400  0.288100  1.0  -0.1617
  C  C41  1  0.101400  0.988400  0.207000  1.0  0.7344
  C  C42  1  0.106800  0.133500  0.320500  1.0  0.0425
  C  C43  1  0.204700  0.051900  0.439000  1.0  0.0307
  C  C44  1  0.305700  0.819200  0.447100  1.0  0.7368
  C  C45  1  0.356300  0.348700  0.896400  1.0  -0.2903
  C  C46  1  0.268300  0.570100  0.905100  1.0  -0.1516
  C  C47  1  0.300600  0.585100  0.830400  1.0  0.0395
  C  C48  1  0.364600  0.486600  0.788100  1.0  -0.1614
  C  C49  1  0.398600  0.511600  0.707000  1.0  0.7347
  C  C50  1  0.393200  0.366500  0.820500  1.0  0.0404
  C  C51  1  0.295300  0.448100  0.939000  1.0  0.0349
  C  C52  1  0.194300  0.680800  0.947100  1.0  0.7374
  S  S53  1  0.876700  0.690390  0.565190  1.0  1.3921
  S  S54  1  0.623300  0.809610  0.065190  1.0  1.3917
  S  S55  1  0.123300  0.309610  0.434810  1.0  1.3946
  S  S56  1  0.376700  0.190390  0.934810  1.0  1.3946
  O  O57  1  0.943400  0.915100  0.832200  1.0  -0.5402
  O  O58  1  0.871200  0.056700  0.965200  1.0  -0.6966
  O  O59  1  0.656000  0.162700  0.486200  1.0  -0.6148
  O  O60  1  0.877700  0.124300  0.813800  1.0  -0.5688
  O  O61  1  0.861400  0.700500  0.487100  1.0  -0.6004
  O  O62  1  0.680200  0.282800  0.589400  1.0  -0.5234
  O  O63  1  0.726400  0.612100  0.598500  1.0  -0.7179
  O  O64  1  0.047800  0.647600  0.591800  1.0  -0.6175
  O  O65  1  0.556600  0.584900  0.332200  1.0  -0.5393
  O  O66  1  0.628800  0.443300  0.465200  1.0  -0.6963
  O  O67  1  0.844000  0.337300  0.986200  1.0  -0.6145
  O  O68  1  0.622300  0.375700  0.313800  1.0  -0.5688
  O  O69  1  0.638600  0.799500  0.987100  1.0  -0.6002
  O  O70  1  0.819800  0.217200  0.089400  1.0  -0.5242
  O  O71  1  0.773600  0.887900  0.098500  1.0  -0.717
  O  O72  1  0.452200  0.852400  0.091800  1.0  -0.6172
  O  O73  1  0.056600  0.084900  0.167800  1.0  -0.5389
  O  O74  1  0.128800  0.943300  0.034800  1.0  -0.6962
  O  O75  1  0.344000  0.837300  0.513800  1.0  -0.6135
  O  O76  1  0.122300  0.875700  0.186200  1.0  -0.5683
  O  O77  1  0.138600  0.299500  0.512900  1.0  -0.6007
  O  O78  1  0.319800  0.717200  0.410600  1.0  -0.525
  O  O79  1  0.273600  0.387900  0.401500  1.0  -0.7161
  O  O80  1  0.952200  0.352400  0.408200  1.0  -0.6174
  O  O81  1  0.443400  0.415100  0.667800  1.0  -0.54
  O  O82  1  0.371200  0.556700  0.534800  1.0  -0.6965
  O  O83  1  0.156000  0.662700  0.013800  1.0  -0.6141
  O  O84  1  0.377700  0.624300  0.686200  1.0  -0.5683
  O  O85  1  0.361400  0.200500  0.012900  1.0  -0.6009
  O  O86  1  0.180200  0.782800  0.910600  1.0  -0.5243
  O  O87  1  0.226400  0.112100  0.901500  1.0  -0.718
  O  O88  1  0.547800  0.147600  0.908200  1.0  -0.6176
