# generated using pymatgen
data_Cu2H3C8SO8
_symmetry_space_group_name_H-M   'P 1'
_cell_length_a   7.30200000
_cell_length_b   10.26700000
_cell_length_c   18.15000000
_cell_angle_alpha   90.00000000
_cell_angle_beta   90.00000000
_cell_angle_gamma   94.01000000
_symmetry_Int_Tables_number   1
_chemical_formula_structural   Cu2H3C8SO8
_chemical_formula_sum   'Cu8 H12 C32 S4 O32'
_cell_volume   1357.36767616
_cell_formula_units_Z   4
loop_
 _symmetry_equiv_pos_site_id
 _symmetry_equiv_pos_as_xyz
  1  'x, y, z'
loop_
 _atom_site_type_symbol
 _atom_site_label
 _atom_site_symmetry_multiplicity
 _atom_site_fract_x
 _atom_site_fract_y
 _atom_site_fract_z
 _atom_site_occupancy
 _atom_site_charge
  Cu  Cu1  1  0.864100  0.215000  0.905260  1.0  1.0438
  Cu  Cu2  1  0.037500  0.929200  0.931660  1.0  1.1139
  Cu  Cu3  1  0.635900  0.285000  0.405260  1.0  1.0442
  Cu  Cu4  1  0.462500  0.570800  0.431660  1.0  1.1137
  Cu  Cu5  1  0.135900  0.785000  0.094740  1.0  1.0447
  Cu  Cu6  1  0.962500  0.070800  0.068340  1.0  1.1147
  Cu  Cu7  1  0.364100  0.715000  0.594740  1.0  1.0441
  Cu  Cu8  1  0.537500  0.429200  0.568340  1.0  1.1143
  H  H9  1  0.780800  0.168000  0.690400  1.0  0.1205
  H  H10  1  0.940200  0.802700  0.706600  1.0  0.1126
  H  H11  1  0.777000  0.946300  0.510700  1.0  0.1121
  H  H12  1  0.719200  0.332000  0.190400  1.0  0.1206
  H  H13  1  0.559800  0.697300  0.206600  1.0  0.1125
  H  H14  1  0.723000  0.553700  0.010700  1.0  0.1112
  H  H15  1  0.219200  0.832000  0.309600  1.0  0.1202
  H  H16  1  0.059800  0.197300  0.293400  1.0  0.1125
  H  H17  1  0.223000  0.053700  0.489300  1.0  0.1109
  H  H18  1  0.280800  0.668000  0.809600  1.0  0.1201
  H  H19  1  0.440200  0.302700  0.793400  1.0  0.1123
  H  H20  1  0.277000  0.446300  0.989300  1.0  0.1112
  C  C21  1  0.855000  0.851400  0.603600  1.0  -0.2804
  C  C22  1  0.765000  0.067000  0.594500  1.0  -0.1423
  C  C23  1  0.799000  0.088000  0.669000  1.0  0.0268
  C  C24  1  0.861000  0.985100  0.711500  1.0  -0.1563
  C  C25  1  0.896000  0.004600  0.793000  1.0  0.722
  C  C26  1  0.893000  0.869200  0.679200  1.0  0.0348
  C  C27  1  0.795000  0.956000  0.561200  1.0  0.0495
  C  C28  1  0.695000  0.185000  0.553300  1.0  0.7245
  C  C29  1  0.645000  0.648600  0.103600  1.0  -0.2797
  C  C30  1  0.735000  0.433000  0.094500  1.0  -0.1426
  C  C31  1  0.701000  0.412000  0.169000  1.0  0.0273
  C  C32  1  0.639000  0.514900  0.211500  1.0  -0.1561
  C  C33  1  0.604000  0.495400  0.293000  1.0  0.722
  C  C34  1  0.607000  0.630800  0.179200  1.0  0.0346
  C  C35  1  0.705000  0.544000  0.061200  1.0  0.0504
  C  C36  1  0.805000  0.315000  0.053300  1.0  0.7243
  C  C37  1  0.145000  0.148600  0.396400  1.0  -0.2789
  C  C38  1  0.235000  0.933000  0.405500  1.0  -0.1425
  C  C39  1  0.201000  0.912000  0.331000  1.0  0.0268
  C  C40  1  0.139000  0.014900  0.288500  1.0  -0.1573
  C  C41  1  0.104000  0.995400  0.207000  1.0  0.7211
  C  C42  1  0.107000  0.130800  0.320800  1.0  0.0337
  C  C43  1  0.205000  0.044000  0.438800  1.0  0.0505
  C  C44  1  0.305000  0.815000  0.446700  1.0  0.7239
  C  C45  1  0.355000  0.351400  0.896400  1.0  -0.2797
  C  C46  1  0.265000  0.567000  0.905500  1.0  -0.1424
  C  C47  1  0.299000  0.588000  0.831000  1.0  0.0268
  C  C48  1  0.361000  0.485100  0.788500  1.0  -0.1572
  C  C49  1  0.396000  0.504600  0.707000  1.0  0.7202
  C  C50  1  0.393000  0.369200  0.820800  1.0  0.033
  C  C51  1  0.295000  0.456000  0.938800  1.0  0.0497
  C  C52  1  0.195000  0.685000  0.946700  1.0  0.724
  S  S53  1  0.873300  0.690700  0.565000  1.0  1.3668
  S  S54  1  0.626700  0.809300  0.065000  1.0  1.3673
  S  S55  1  0.126700  0.309300  0.435000  1.0  1.3674
  S  S56  1  0.373300  0.190700  0.935000  1.0  1.367
  O  O57  1  0.941000  0.915600  0.831800  1.0  -0.5051
  O  O58  1  0.870300  0.055400  0.965700  1.0  -0.6917
  O  O59  1  0.655200  0.160200  0.485500  1.0  -0.6354
  O  O60  1  0.878400  0.125800  0.813400  1.0  -0.5977
  O  O61  1  0.852000  0.701200  0.487200  1.0  -0.5927
  O  O62  1  0.673000  0.277500  0.589600  1.0  -0.5142
  O  O63  1  0.725700  0.609400  0.599000  1.0  -0.704
  O  O64  1  0.046700  0.644000  0.590000  1.0  -0.6068
  O  O65  1  0.559000  0.584400  0.331800  1.0  -0.506
  O  O66  1  0.629700  0.444600  0.465700  1.0  -0.6913
  O  O67  1  0.844800  0.339800  0.985500  1.0  -0.6349
  O  O68  1  0.621600  0.374200  0.313400  1.0  -0.5982
  O  O69  1  0.648000  0.798800  0.987200  1.0  -0.5925
  O  O70  1  0.827000  0.222500  0.089600  1.0  -0.5142
  O  O71  1  0.774300  0.890600  0.099000  1.0  -0.7032
  O  O72  1  0.453300  0.856000  0.090000  1.0  -0.6059
  O  O73  1  0.059000  0.084400  0.168200  1.0  -0.5062
  O  O74  1  0.129700  0.944600  0.034300  1.0  -0.691
  O  O75  1  0.344800  0.839800  0.514500  1.0  -0.6342
  O  O76  1  0.121600  0.874200  0.186600  1.0  -0.5977
  O  O77  1  0.148000  0.298800  0.512800  1.0  -0.5946
  O  O78  1  0.327000  0.722500  0.410400  1.0  -0.5135
  O  O79  1  0.274300  0.390600  0.401000  1.0  -0.7032
  O  O80  1  0.953300  0.356000  0.410000  1.0  -0.606
  O  O81  1  0.441000  0.415600  0.668200  1.0  -0.5055
  O  O82  1  0.370300  0.555400  0.534300  1.0  -0.6913
  O  O83  1  0.155200  0.660200  0.014500  1.0  -0.635
  O  O84  1  0.378400  0.625800  0.686600  1.0  -0.5975
  O  O85  1  0.352000  0.201200  0.012800  1.0  -0.5951
  O  O86  1  0.173000  0.777500  0.910400  1.0  -0.5133
  O  O87  1  0.225700  0.109400  0.901000  1.0  -0.7048
  O  O88  1  0.546700  0.144000  0.910000  1.0  -0.6069
