# generated using pymatgen
data_Cu2H3C8SO8
_symmetry_space_group_name_H-M   'P 1'
_cell_length_a   7.25200000
_cell_length_b   10.23000000
_cell_length_c   18.06800000
_cell_angle_alpha   90.00000000
_cell_angle_beta   90.00000000
_cell_angle_gamma   94.21600000
_symmetry_Int_Tables_number   1
_chemical_formula_structural   Cu2H3C8SO8
_chemical_formula_sum   'Cu8 H12 C32 S4 O32'
_cell_volume   1336.80084468
_cell_formula_units_Z   4
loop_
 _symmetry_equiv_pos_site_id
 _symmetry_equiv_pos_as_xyz
  1  'x, y, z'
loop_
 _atom_site_type_symbol
 _atom_site_label
 _atom_site_symmetry_multiplicity
 _atom_site_fract_x
 _atom_site_fract_y
 _atom_site_fract_z
 _atom_site_occupancy
 _atom_site_charge
  Cu  Cu1  1  0.862220  0.214010  0.905870  1.0  1.0504
  Cu  Cu2  1  0.036280  0.929580  0.931490  1.0  1.1281
  Cu  Cu3  1  0.637780  0.285990  0.405870  1.0  1.0495
  Cu  Cu4  1  0.463720  0.570420  0.431490  1.0  1.1275
  Cu  Cu5  1  0.137780  0.785990  0.094130  1.0  1.05
  Cu  Cu6  1  0.963720  0.070420  0.068510  1.0  1.1286
  Cu  Cu7  1  0.362220  0.714010  0.594130  1.0  1.0506
  Cu  Cu8  1  0.536280  0.429580  0.568510  1.0  1.1281
  H  H9  1  0.778700  0.165000  0.691500  1.0  0.1068
  H  H10  1  0.932900  0.799700  0.707300  1.0  0.1149
  H  H11  1  0.770500  0.938300  0.511800  1.0  0.1048
  H  H12  1  0.721300  0.335000  0.191500  1.0  0.1071
  H  H13  1  0.567100  0.700300  0.207300  1.0  0.1149
  H  H14  1  0.729500  0.561700  0.011800  1.0  0.1043
  H  H15  1  0.221300  0.835000  0.308500  1.0  0.1066
  H  H16  1  0.067100  0.200300  0.292700  1.0  0.1149
  H  H17  1  0.229500  0.061700  0.488200  1.0  0.1042
  H  H18  1  0.278700  0.665000  0.808500  1.0  0.1066
  H  H19  1  0.432900  0.299700  0.792700  1.0  0.1147
  H  H20  1  0.270500  0.438300  0.988200  1.0  0.1044
  C  C21  1  0.852500  0.849200  0.603900  1.0  -0.2928
  C  C22  1  0.764000  0.070700  0.594800  1.0  -0.1459
  C  C23  1  0.797900  0.085200  0.669300  1.0  0.0374
  C  C24  1  0.859400  0.986100  0.712200  1.0  -0.1607
  C  C25  1  0.895300  0.008000  0.792500  1.0  0.7315
  C  C26  1  0.889000  0.867200  0.679400  1.0  0.0419
  C  C27  1  0.792400  0.950400  0.562200  1.0  0.0454
  C  C28  1  0.690000  0.182400  0.553100  1.0  0.7264
  C  C29  1  0.647500  0.650800  0.103900  1.0  -0.2918
  C  C30  1  0.736000  0.429300  0.094800  1.0  -0.1456
  C  C31  1  0.702100  0.414800  0.169300  1.0  0.0378
  C  C32  1  0.640600  0.513900  0.212200  1.0  -0.1607
  C  C33  1  0.604700  0.492000  0.292500  1.0  0.7316
  C  C34  1  0.611000  0.632800  0.179400  1.0  0.045
  C  C35  1  0.707600  0.549600  0.062200  1.0  0.046
  C  C36  1  0.810000  0.317600  0.053100  1.0  0.7262
  C  C37  1  0.147500  0.150800  0.396100  1.0  -0.2916
  C  C38  1  0.236000  0.929300  0.405200  1.0  -0.1452
  C  C39  1  0.202100  0.914800  0.330700  1.0  0.0373
  C  C40  1  0.140600  0.013900  0.287800  1.0  -0.1622
  C  C41  1  0.104700  0.992000  0.207500  1.0  0.7318
  C  C42  1  0.111000  0.132800  0.320600  1.0  0.0436
  C  C43  1  0.207600  0.049600  0.437800  1.0  0.0466
  C  C44  1  0.310000  0.817600  0.446900  1.0  0.7264
  C  C45  1  0.352500  0.349200  0.896100  1.0  -0.2927
  C  C46  1  0.264000  0.570700  0.905200  1.0  -0.1456
  C  C47  1  0.297900  0.585200  0.830700  1.0  0.0368
  C  C48  1  0.359400  0.486100  0.787800  1.0  -0.1621
  C  C49  1  0.395300  0.508000  0.707500  1.0  0.7318
  C  C50  1  0.389000  0.367200  0.820600  1.0  0.0402
  C  C51  1  0.292400  0.450400  0.937800  1.0  0.0458
  C  C52  1  0.190000  0.682400  0.946900  1.0  0.7264
  S  S53  1  0.870700  0.693200  0.564760  1.0  1.4007
  S  S54  1  0.629300  0.806800  0.064760  1.0  1.4009
  S  S55  1  0.129300  0.306800  0.435240  1.0  1.4011
  S  S56  1  0.370700  0.193200  0.935240  1.0  1.4009
  O  O57  1  0.940700  0.915600  0.832900  1.0  -0.5333
  O  O58  1  0.868500  0.057600  0.966400  1.0  -0.6982
  O  O59  1  0.656200  0.163200  0.486400  1.0  -0.6035
  O  O60  1  0.873900  0.123400  0.814000  1.0  -0.5891
  O  O61  1  0.850100  0.702600  0.487500  1.0  -0.6002
  O  O62  1  0.671300  0.284100  0.589900  1.0  -0.5202
  O  O63  1  0.722300  0.611900  0.599800  1.0  -0.7286
  O  O64  1  0.043100  0.649300  0.590000  1.0  -0.6193
  O  O65  1  0.559300  0.584400  0.332900  1.0  -0.5323
  O  O66  1  0.631500  0.442400  0.466400  1.0  -0.6981
  O  O67  1  0.843800  0.336800  0.986400  1.0  -0.6029
  O  O68  1  0.626100  0.376600  0.314000  1.0  -0.5889
  O  O69  1  0.649900  0.797400  0.987500  1.0  -0.6003
  O  O70  1  0.828700  0.215900  0.089900  1.0  -0.5205
  O  O71  1  0.777700  0.888100  0.099800  1.0  -0.7283
  O  O72  1  0.456900  0.850700  0.090000  1.0  -0.618
  O  O73  1  0.059300  0.084400  0.167100  1.0  -0.532
  O  O74  1  0.131500  0.942400  0.033600  1.0  -0.698
  O  O75  1  0.343800  0.836800  0.513600  1.0  -0.6021
  O  O76  1  0.126100  0.876600  0.186000  1.0  -0.5885
  O  O77  1  0.149900  0.297400  0.512500  1.0  -0.6
  O  O78  1  0.328700  0.715900  0.410100  1.0  -0.5202
  O  O79  1  0.277700  0.388100  0.400200  1.0  -0.7275
  O  O80  1  0.956900  0.350700  0.410000  1.0  -0.6182
  O  O81  1  0.440700  0.415600  0.667100  1.0  -0.5331
  O  O82  1  0.368500  0.557600  0.533600  1.0  -0.6981
  O  O83  1  0.156200  0.663200  0.013600  1.0  -0.6029
  O  O84  1  0.373900  0.623400  0.686000  1.0  -0.5888
  O  O85  1  0.350100  0.202600  0.012500  1.0  -0.6
  O  O86  1  0.171300  0.784100  0.910100  1.0  -0.52
  O  O87  1  0.222300  0.111900  0.900200  1.0  -0.7288
  O  O88  1  0.543100  0.149300  0.910000  1.0  -0.6198
