# generated using pymatgen
data_Cu2H3C8SO8
_symmetry_space_group_name_H-M   'P 1'
_cell_length_a   7.28300000
_cell_length_b   10.26200000
_cell_length_c   18.11900000
_cell_angle_alpha   90.00000000
_cell_angle_beta   90.00000000
_cell_angle_gamma   94.11900000
_symmetry_Int_Tables_number   1
_chemical_formula_structural   Cu2H3C8SO8
_chemical_formula_sum   'Cu8 H12 C32 S4 O32'
_cell_volume   1350.68264447
_cell_formula_units_Z   4
loop_
 _symmetry_equiv_pos_site_id
 _symmetry_equiv_pos_as_xyz
  1  'x, y, z'
loop_
 _atom_site_type_symbol
 _atom_site_label
 _atom_site_symmetry_multiplicity
 _atom_site_fract_x
 _atom_site_fract_y
 _atom_site_fract_z
 _atom_site_occupancy
 _atom_site_charge
  Cu  Cu1  1  0.862480  0.214240  0.905740  1.0  1.06
  Cu  Cu2  1  0.036350  0.929230  0.931560  1.0  1.1246
  Cu  Cu3  1  0.637520  0.285760  0.405740  1.0  1.0592
  Cu  Cu4  1  0.463650  0.570770  0.431560  1.0  1.1248
  Cu  Cu5  1  0.137520  0.785760  0.094260  1.0  1.0599
  Cu  Cu6  1  0.963650  0.070770  0.068440  1.0  1.1257
  Cu  Cu7  1  0.362480  0.714240  0.594260  1.0  1.0602
  Cu  Cu8  1  0.536350  0.429230  0.568440  1.0  1.1249
  H  H9  1  0.775400  0.164000  0.691700  1.0  0.111
  H  H10  1  0.932800  0.799700  0.706400  1.0  0.1092
  H  H11  1  0.771000  0.938000  0.511900  1.0  0.1086
  H  H12  1  0.724600  0.336000  0.191700  1.0  0.1112
  H  H13  1  0.567200  0.700300  0.206400  1.0  0.1091
  H  H14  1  0.729000  0.562000  0.011900  1.0  0.1082
  H  H15  1  0.224600  0.836000  0.308300  1.0  0.1108
  H  H16  1  0.067200  0.200300  0.293600  1.0  0.1087
  H  H17  1  0.229000  0.062000  0.488100  1.0  0.1084
  H  H18  1  0.275400  0.664000  0.808300  1.0  0.1108
  H  H19  1  0.432800  0.299700  0.793600  1.0  0.109
  H  H20  1  0.271000  0.438000  0.988100  1.0  0.1084
  C  C21  1  0.854400  0.849600  0.604000  1.0  -0.2803
  C  C22  1  0.764700  0.068900  0.594900  1.0  -0.1554
  C  C23  1  0.796900  0.084700  0.669600  1.0  0.0476
  C  C24  1  0.860800  0.985100  0.712500  1.0  -0.1769
  C  C25  1  0.895800  0.008200  0.792000  1.0  0.7316
  C  C26  1  0.889500  0.867500  0.678700  1.0  0.0382
  C  C27  1  0.793100  0.950100  0.562100  1.0  0.0428
  C  C28  1  0.690500  0.180000  0.553100  1.0  0.7338
  C  C29  1  0.645600  0.650400  0.104000  1.0  -0.2795
  C  C30  1  0.735300  0.431100  0.094900  1.0  -0.1554
  C  C31  1  0.703100  0.415300  0.169600  1.0  0.0472
  C  C32  1  0.639200  0.514900  0.212500  1.0  -0.1771
  C  C33  1  0.604200  0.491800  0.292000  1.0  0.7314
  C  C34  1  0.610500  0.632500  0.178700  1.0  0.0401
  C  C35  1  0.706900  0.549900  0.062100  1.0  0.0433
  C  C36  1  0.809500  0.320000  0.053100  1.0  0.7337
  C  C37  1  0.145600  0.150400  0.396000  1.0  -0.2791
  C  C38  1  0.235300  0.931100  0.405100  1.0  -0.1555
  C  C39  1  0.203100  0.915300  0.330400  1.0  0.0472
  C  C40  1  0.139200  0.014900  0.287500  1.0  -0.1766
  C  C41  1  0.104200  0.991800  0.208000  1.0  0.7314
  C  C42  1  0.110500  0.132500  0.321300  1.0  0.0394
  C  C43  1  0.206900  0.049900  0.437900  1.0  0.0436
  C  C44  1  0.309500  0.820000  0.446900  1.0  0.7338
  C  C45  1  0.354400  0.349600  0.896000  1.0  -0.2802
  C  C46  1  0.264700  0.568900  0.905100  1.0  -0.1555
  C  C47  1  0.296900  0.584700  0.830400  1.0  0.0476
  C  C48  1  0.360800  0.485100  0.787500  1.0  -0.176
  C  C49  1  0.395800  0.508200  0.708000  1.0  0.7315
  C  C50  1  0.389500  0.367500  0.821300  1.0  0.0377
  C  C51  1  0.293100  0.450100  0.937900  1.0  0.043
  C  C52  1  0.190500  0.680000  0.946900  1.0  0.7338
  S  S53  1  0.871400  0.692430  0.564870  1.0  1.4006
  S  S54  1  0.628600  0.807570  0.064870  1.0  1.4005
  S  S55  1  0.128600  0.307570  0.435130  1.0  1.4006
  S  S56  1  0.371400  0.192430  0.935130  1.0  1.4009
  O  O57  1  0.941800  0.915900  0.832200  1.0  -0.5291
  O  O58  1  0.868200  0.057700  0.966000  1.0  -0.694
  O  O59  1  0.654000  0.163200  0.486300  1.0  -0.6165
  O  O60  1  0.872400  0.123500  0.813800  1.0  -0.5856
  O  O61  1  0.849500  0.702800  0.487000  1.0  -0.6068
  O  O62  1  0.671600  0.282200  0.589600  1.0  -0.5274
  O  O63  1  0.723500  0.613800  0.599100  1.0  -0.7122
  O  O64  1  0.043800  0.649800  0.589200  1.0  -0.6271
  O  O65  1  0.558200  0.584100  0.332200  1.0  -0.5285
  O  O66  1  0.631800  0.442300  0.466000  1.0  -0.6934
  O  O67  1  0.846000  0.336800  0.986300  1.0  -0.6163
  O  O68  1  0.627600  0.376500  0.313800  1.0  -0.5852
  O  O69  1  0.650500  0.797200  0.987000  1.0  -0.6067
  O  O70  1  0.828400  0.217800  0.089600  1.0  -0.5276
  O  O71  1  0.776500  0.886200  0.099100  1.0  -0.7116
  O  O72  1  0.456200  0.850200  0.089200  1.0  -0.6261
  O  O73  1  0.058200  0.084100  0.167800  1.0  -0.5281
  O  O74  1  0.131800  0.942300  0.034000  1.0  -0.693
  O  O75  1  0.346000  0.836800  0.513700  1.0  -0.6152
  O  O76  1  0.127600  0.876500  0.186200  1.0  -0.5848
  O  O77  1  0.150500  0.297200  0.513000  1.0  -0.6078
  O  O78  1  0.328400  0.717800  0.410400  1.0  -0.5279
  O  O79  1  0.276500  0.386200  0.400900  1.0  -0.7106
  O  O80  1  0.956200  0.350200  0.410800  1.0  -0.6264
  O  O81  1  0.441800  0.415900  0.667800  1.0  -0.529
  O  O82  1  0.368200  0.557700  0.534000  1.0  -0.6936
  O  O83  1  0.154000  0.663200  0.013700  1.0  -0.6156
  O  O84  1  0.372400  0.623500  0.686200  1.0  -0.5852
  O  O85  1  0.349500  0.202800  0.013000  1.0  -0.6081
  O  O86  1  0.171600  0.782200  0.910400  1.0  -0.5268
  O  O87  1  0.223500  0.113800  0.900900  1.0  -0.7122
  O  O88  1  0.543800  0.149800  0.910800  1.0  -0.6279
