# generated using pymatgen
data_Cu2H3C8SO8
_symmetry_space_group_name_H-M   'P 1'
_cell_length_a   7.27100000
_cell_length_b   10.21200000
_cell_length_c   18.06100000
_cell_angle_alpha   90.00000000
_cell_angle_beta   90.00000000
_cell_angle_gamma   94.23400000
_symmetry_Int_Tables_number   1
_chemical_formula_structural   Cu2H3C8SO8
_chemical_formula_sum   'Cu8 H12 C32 S4 O32'
_cell_volume   1337.39552124
_cell_formula_units_Z   4
loop_
 _symmetry_equiv_pos_site_id
 _symmetry_equiv_pos_as_xyz
  1  'x, y, z'
loop_
 _atom_site_type_symbol
 _atom_site_label
 _atom_site_symmetry_multiplicity
 _atom_site_fract_x
 _atom_site_fract_y
 _atom_site_fract_z
 _atom_site_occupancy
 _atom_site_charge
  Cu  Cu1  1  0.863150  0.214540  0.905550  1.0  1.0585
  Cu  Cu2  1  0.036550  0.929170  0.931600  1.0  1.1286
  Cu  Cu3  1  0.636850  0.285460  0.405550  1.0  1.0578
  Cu  Cu4  1  0.463450  0.570830  0.431600  1.0  1.1286
  Cu  Cu5  1  0.136850  0.785460  0.094450  1.0  1.0583
  Cu  Cu6  1  0.963450  0.070830  0.068400  1.0  1.1295
  Cu  Cu7  1  0.363150  0.714540  0.594450  1.0  1.0585
  Cu  Cu8  1  0.536550  0.429170  0.568400  1.0  1.1288
  H  H9  1  0.777600  0.164800  0.691600  1.0  0.1093
  H  H10  1  0.933500  0.798400  0.706500  1.0  0.1138
  H  H11  1  0.772900  0.937500  0.511300  1.0  0.1112
  H  H12  1  0.722400  0.335200  0.191600  1.0  0.1096
  H  H13  1  0.566500  0.701600  0.206500  1.0  0.1141
  H  H14  1  0.727100  0.562500  0.011300  1.0  0.1108
  H  H15  1  0.222400  0.835200  0.308400  1.0  0.1093
  H  H16  1  0.066500  0.201600  0.293500  1.0  0.1144
  H  H17  1  0.227100  0.062500  0.488700  1.0  0.1107
  H  H18  1  0.277600  0.664800  0.808400  1.0  0.1092
  H  H19  1  0.433500  0.298400  0.793500  1.0  0.1139
  H  H20  1  0.272900  0.437500  0.988700  1.0  0.1107
  C  C21  1  0.854700  0.849500  0.604100  1.0  -0.287
  C  C22  1  0.765400  0.069300  0.594900  1.0  -0.1626
  C  C23  1  0.798300  0.084900  0.669500  1.0  0.0469
  C  C24  1  0.861200  0.985700  0.712600  1.0  -0.1791
  C  C25  1  0.896500  0.008300  0.792200  1.0  0.7484
  C  C26  1  0.890300  0.866500  0.678900  1.0  0.0391
  C  C27  1  0.794300  0.949600  0.561700  1.0  0.0378
  C  C28  1  0.691500  0.179100  0.553200  1.0  0.7312
  C  C29  1  0.645300  0.650500  0.104100  1.0  -0.2857
  C  C30  1  0.734600  0.430700  0.094900  1.0  -0.1632
  C  C31  1  0.701700  0.415100  0.169500  1.0  0.0474
  C  C32  1  0.638800  0.514300  0.212600  1.0  -0.1793
  C  C33  1  0.603500  0.491700  0.292200  1.0  0.7482
  C  C34  1  0.609700  0.633500  0.178900  1.0  0.042
  C  C35  1  0.705700  0.550400  0.061700  1.0  0.0386
  C  C36  1  0.808500  0.320900  0.053200  1.0  0.7311
  C  C37  1  0.145300  0.150500  0.395900  1.0  -0.2851
  C  C38  1  0.234600  0.930700  0.405100  1.0  -0.1628
  C  C39  1  0.201700  0.915100  0.330500  1.0  0.0473
  C  C40  1  0.138800  0.014300  0.287400  1.0  -0.1796
  C  C41  1  0.103500  0.991700  0.207800  1.0  0.7483
  C  C42  1  0.109700  0.133500  0.321100  1.0  0.0408
  C  C43  1  0.205700  0.050400  0.438300  1.0  0.0385
  C  C44  1  0.308500  0.820900  0.446800  1.0  0.7306
  C  C45  1  0.354700  0.349500  0.895900  1.0  -0.2866
  C  C46  1  0.265400  0.569300  0.905100  1.0  -0.1623
  C  C47  1  0.298300  0.584900  0.830500  1.0  0.0467
  C  C48  1  0.361200  0.485700  0.787400  1.0  -0.1793
  C  C49  1  0.396500  0.508300  0.707800  1.0  0.7483
  C  C50  1  0.390300  0.366500  0.821100  1.0  0.038
  C  C51  1  0.294300  0.449600  0.938300  1.0  0.0375
  C  C52  1  0.191500  0.679100  0.946800  1.0  0.7308
  S  S53  1  0.872200  0.691890  0.564840  1.0  1.4038
  S  S54  1  0.627800  0.808110  0.064840  1.0  1.4035
  S  S55  1  0.127800  0.308110  0.435160  1.0  1.4037
  S  S56  1  0.372200  0.191890  0.935160  1.0  1.4041
  O  O57  1  0.942900  0.915600  0.832000  1.0  -0.531
  O  O58  1  0.868900  0.057300  0.965800  1.0  -0.6954
  O  O59  1  0.655000  0.162500  0.485800  1.0  -0.6214
  O  O60  1  0.873900  0.122900  0.813900  1.0  -0.5871
  O  O61  1  0.852700  0.702000  0.486800  1.0  -0.6064
  O  O62  1  0.672000  0.282200  0.589400  1.0  -0.5332
  O  O63  1  0.724400  0.613300  0.598500  1.0  -0.7074
  O  O64  1  0.045000  0.649100  0.589500  1.0  -0.6217
  O  O65  1  0.557100  0.584400  0.332000  1.0  -0.5297
  O  O66  1  0.631100  0.442700  0.465800  1.0  -0.6952
  O  O67  1  0.845000  0.337500  0.985800  1.0  -0.621
  O  O68  1  0.626100  0.377100  0.313900  1.0  -0.5868
  O  O69  1  0.647300  0.798000  0.986800  1.0  -0.6064
  O  O70  1  0.828000  0.217800  0.089400  1.0  -0.5325
  O  O71  1  0.775600  0.886700  0.098500  1.0  -0.7082
  O  O72  1  0.455000  0.850900  0.089500  1.0  -0.62
  O  O73  1  0.057100  0.084400  0.168000  1.0  -0.5292
  O  O74  1  0.131100  0.942700  0.034200  1.0  -0.695
  O  O75  1  0.345000  0.837500  0.514200  1.0  -0.6202
  O  O76  1  0.126100  0.877100  0.186100  1.0  -0.5865
  O  O77  1  0.147300  0.298000  0.513200  1.0  -0.6079
  O  O78  1  0.328000  0.717800  0.410600  1.0  -0.5326
  O  O79  1  0.275600  0.386700  0.401500  1.0  -0.707
  O  O80  1  0.955000  0.350900  0.410500  1.0  -0.6203
  O  O81  1  0.442900  0.415600  0.668000  1.0  -0.5306
  O  O82  1  0.368900  0.557300  0.534200  1.0  -0.6952
  O  O83  1  0.155000  0.662500  0.014200  1.0  -0.6206
  O  O84  1  0.373900  0.622900  0.686100  1.0  -0.5869
  O  O85  1  0.352700  0.202000  0.013200  1.0  -0.608
  O  O86  1  0.172000  0.782200  0.910600  1.0  -0.5324
  O  O87  1  0.224400  0.113300  0.901500  1.0  -0.7072
  O  O88  1  0.545000  0.149100  0.910500  1.0  -0.6223
