# generated using pymatgen
data_Cu2H3C8SO8
_symmetry_space_group_name_H-M   'P 1'
_cell_length_a   7.30100000
_cell_length_b   10.13300000
_cell_length_c   18.03200000
_cell_angle_alpha   90.00000000
_cell_angle_beta   90.00000000
_cell_angle_gamma   94.30700000
_symmetry_Int_Tables_number   1
_chemical_formula_structural   Cu2H3C8SO8
_chemical_formula_sum   'Cu8 H12 C32 S4 O32'
_cell_volume   1330.25865192
_cell_formula_units_Z   4
loop_
 _symmetry_equiv_pos_site_id
 _symmetry_equiv_pos_as_xyz
  1  'x, y, z'
loop_
 _atom_site_type_symbol
 _atom_site_label
 _atom_site_symmetry_multiplicity
 _atom_site_fract_x
 _atom_site_fract_y
 _atom_site_fract_z
 _atom_site_occupancy
 _atom_site_charge
  Cu  Cu1  1  0.865070  0.216390  0.905360  1.0  1.0459
  Cu  Cu2  1  0.458690  0.569520  0.431520  1.0  1.1283
  Cu  Cu3  1  0.634930  0.283610  0.405360  1.0  1.0454
  Cu  Cu4  1  0.041310  0.930480  0.931520  1.0  1.128
  Cu  Cu5  1  0.134930  0.783610  0.094640  1.0  1.0466
  Cu  Cu6  1  0.541310  0.430480  0.568480  1.0  1.1283
  Cu  Cu7  1  0.365070  0.716390  0.594640  1.0  1.0466
  Cu  Cu8  1  0.958690  0.069520  0.068480  1.0  1.1284
  H  H9  1  0.717300  0.334200  0.192000  1.0  0.1092
  H  H10  1  0.559200  0.702800  0.207000  1.0  0.1191
  H  H11  1  0.725900  0.564400  0.011400  1.0  0.1138
  H  H12  1  0.782700  0.165800  0.692000  1.0  0.1091
  H  H13  1  0.940800  0.797200  0.707000  1.0  0.1197
  H  H14  1  0.774100  0.935600  0.511400  1.0  0.1144
  H  H15  1  0.282700  0.665800  0.808000  1.0  0.109
  H  H16  1  0.440800  0.297200  0.793000  1.0  0.1198
  H  H17  1  0.274100  0.435600  0.988600  1.0  0.1141
  H  H18  1  0.217300  0.834200  0.308000  1.0  0.1088
  H  H19  1  0.059200  0.202800  0.293000  1.0  0.1196
  H  H20  1  0.225900  0.064400  0.488600  1.0  0.1139
  C  C21  1  0.640900  0.649600  0.103700  1.0  -0.2802
  C  C22  1  0.729900  0.430300  0.095400  1.0  -0.149
  C  C23  1  0.697100  0.414500  0.169600  1.0  0.0153
  C  C24  1  0.634900  0.515100  0.212100  1.0  -0.1565
  C  C25  1  0.598900  0.491100  0.293000  1.0  0.7435
  C  C26  1  0.603700  0.634400  0.179500  1.0  0.0313
  C  C27  1  0.702400  0.551500  0.061700  1.0  0.0303
  C  C28  1  0.802500  0.319700  0.052700  1.0  0.7354
  C  C29  1  0.859100  0.850400  0.603700  1.0  -0.2805
  C  C30  1  0.770100  0.069700  0.595400  1.0  -0.1486
  C  C31  1  0.802900  0.085500  0.669600  1.0  0.0133
  C  C32  1  0.865100  0.984900  0.712100  1.0  -0.1565
  C  C33  1  0.901100  0.008900  0.793000  1.0  0.7436
  C  C34  1  0.896300  0.865600  0.679500  1.0  0.0298
  C  C35  1  0.797600  0.948500  0.561700  1.0  0.0301
  C  C36  1  0.697500  0.180300  0.552700  1.0  0.7357
  C  C37  1  0.359100  0.350400  0.896300  1.0  -0.2809
  C  C38  1  0.270100  0.569700  0.904600  1.0  -0.1485
  C  C39  1  0.302900  0.585500  0.830400  1.0  0.0138
  C  C40  1  0.365100  0.484900  0.787900  1.0  -0.1571
  C  C41  1  0.401100  0.508900  0.707000  1.0  0.7437
  C  C42  1  0.396300  0.365600  0.820500  1.0  0.0262
  C  C43  1  0.297600  0.448500  0.938300  1.0  0.0303
  C  C44  1  0.197500  0.680300  0.947300  1.0  0.7353
  C  C45  1  0.140900  0.149600  0.396300  1.0  -0.2804
  C  C46  1  0.229900  0.930300  0.404600  1.0  -0.1488
  C  C47  1  0.197100  0.914500  0.330400  1.0  0.0157
  C  C48  1  0.134900  0.015100  0.287900  1.0  -0.1574
  C  C49  1  0.098900  0.991100  0.207000  1.0  0.7437
  C  C50  1  0.103700  0.134400  0.320500  1.0  0.0281
  C  C51  1  0.202400  0.051500  0.438300  1.0  0.031
  C  C52  1  0.302500  0.819700  0.447300  1.0  0.735
  S  S53  1  0.622300  0.809270  0.065160  1.0  1.3996
  S  S54  1  0.877700  0.690730  0.565160  1.0  1.3995
  S  S55  1  0.377700  0.190730  0.934840  1.0  1.3999
  S  S56  1  0.122300  0.309270  0.434840  1.0  1.3998
  O  O57  1  0.553800  0.585200  0.331600  1.0  -0.5166
  O  O58  1  0.870900  0.056600  0.965000  1.0  -0.694
  O  O59  1  0.841300  0.336800  0.986300  1.0  -0.6148
  O  O60  1  0.619900  0.375200  0.313800  1.0  -0.5835
  O  O61  1  0.634000  0.800200  0.987600  1.0  -0.6009
  O  O62  1  0.817700  0.216400  0.089500  1.0  -0.5323
  O  O63  1  0.773000  0.888700  0.098000  1.0  -0.7208
  O  O64  1  0.452100  0.853300  0.091800  1.0  -0.6211
  O  O65  1  0.946200  0.914800  0.831600  1.0  -0.5175
  O  O66  1  0.629100  0.443400  0.465000  1.0  -0.6935
  O  O67  1  0.658700  0.163200  0.486300  1.0  -0.6142
  O  O68  1  0.880100  0.124800  0.813800  1.0  -0.5836
  O  O69  1  0.866000  0.699800  0.487600  1.0  -0.6012
  O  O70  1  0.682300  0.283600  0.589500  1.0  -0.5314
  O  O71  1  0.727000  0.611300  0.598000  1.0  -0.7211
  O  O72  1  0.047900  0.646700  0.591800  1.0  -0.6221
  O  O73  1  0.446200  0.414800  0.668400  1.0  -0.5173
  O  O74  1  0.129100  0.943400  0.035000  1.0  -0.6933
  O  O75  1  0.158700  0.663200  0.013700  1.0  -0.6134
  O  O76  1  0.380100  0.624800  0.686200  1.0  -0.5831
  O  O77  1  0.366000  0.199800  0.012400  1.0  -0.6013
  O  O78  1  0.182300  0.783600  0.910500  1.0  -0.5306
  O  O79  1  0.227000  0.111300  0.902000  1.0  -0.7221
  O  O80  1  0.547900  0.146700  0.908200  1.0  -0.6223
  O  O81  1  0.053800  0.085200  0.168400  1.0  -0.5165
  O  O82  1  0.370900  0.556600  0.535000  1.0  -0.6937
  O  O83  1  0.341300  0.836800  0.513700  1.0  -0.6136
  O  O84  1  0.119900  0.875200  0.186200  1.0  -0.5829
  O  O85  1  0.134000  0.300200  0.512400  1.0  -0.6009
  O  O86  1  0.317700  0.716400  0.410500  1.0  -0.5316
  O  O87  1  0.273000  0.388700  0.402000  1.0  -0.7208
  O  O88  1  0.952100  0.353300  0.408200  1.0  -0.6213
