# generated using pymatgen
data_Cu2Mo(CN)8
_symmetry_space_group_name_H-M   'P 1'
_cell_length_a   11.28830000
_cell_length_b   11.28830000
_cell_length_c   12.84190000
_cell_angle_alpha   90.00000000
_cell_angle_beta   90.00000000
_cell_angle_gamma   90.00000000
_symmetry_Int_Tables_number   1
_chemical_formula_structural   Cu2Mo(CN)8
_chemical_formula_sum   'Cu8 Mo4 C32 N32'
_cell_volume   1636.38831373
_cell_formula_units_Z   4
loop_
 _symmetry_equiv_pos_site_id
 _symmetry_equiv_pos_as_xyz
  1  'x, y, z'
loop_
 _atom_site_type_symbol
 _atom_site_label
 _atom_site_symmetry_multiplicity
 _atom_site_fract_x
 _atom_site_fract_y
 _atom_site_fract_z
 _atom_site_occupancy
 _atom_site_charge
  Cu  Cu1  1  0.312730  0.187270  0.500000  1.0  0.7606
  Cu  Cu2  1  0.687270  0.812730  0.500000  1.0  0.7617
  Cu  Cu3  1  0.812730  0.312730  0.500000  1.0  0.76
  Cu  Cu4  1  0.187270  0.687270  0.500000  1.0  0.7622
  Cu  Cu5  1  0.687270  0.187270  0.000000  1.0  0.7622
  Cu  Cu6  1  0.312730  0.812730  0.000000  1.0  0.76
  Cu  Cu7  1  0.187270  0.312730  0.000000  1.0  0.7617
  Cu  Cu8  1  0.812730  0.687270  0.000000  1.0  0.7606
  Mo  Mo9  1  0.000000  0.000000  0.250000  1.0  -0.1529
  Mo  Mo10  1  0.500000  0.500000  0.750000  1.0  -0.1529
  Mo  Mo11  1  0.000000  0.000000  0.750000  1.0  -0.1529
  Mo  Mo12  1  0.500000  0.500000  0.250000  1.0  -0.1529
  C  C13  1  0.145790  0.064400  0.342770  1.0  0.2159
  C  C14  1  0.645790  0.564400  0.842770  1.0  0.2159
  C  C15  1  0.854210  0.935600  0.342770  1.0  0.2166
  C  C16  1  0.354210  0.435600  0.842770  1.0  0.2166
  C  C17  1  0.935600  0.145790  0.342770  1.0  0.2174
  C  C18  1  0.435600  0.645790  0.842770  1.0  0.2173
  C  C19  1  0.064400  0.854210  0.342770  1.0  0.2179
  C  C20  1  0.564400  0.354210  0.842770  1.0  0.2176
  C  C21  1  0.854210  0.064400  0.157230  1.0  0.212
  C  C22  1  0.354210  0.564400  0.657230  1.0  0.2118
  C  C23  1  0.145790  0.935600  0.157230  1.0  0.2117
  C  C24  1  0.645790  0.435600  0.657230  1.0  0.2117
  C  C25  1  0.064400  0.145790  0.157230  1.0  0.2126
  C  C26  1  0.564400  0.645790  0.657230  1.0  0.2126
  C  C27  1  0.935600  0.854210  0.157230  1.0  0.2131
  C  C28  1  0.435600  0.354210  0.657230  1.0  0.2131
  C  C29  1  0.854210  0.935600  0.657230  1.0  0.2161
  C  C30  1  0.354210  0.435600  0.157230  1.0  0.2161
  C  C31  1  0.145790  0.064400  0.657230  1.0  0.2165
  C  C32  1  0.645790  0.564400  0.157230  1.0  0.2165
  C  C33  1  0.064400  0.854210  0.657230  1.0  0.2183
  C  C34  1  0.564400  0.354210  0.157230  1.0  0.2186
  C  C35  1  0.935600  0.145790  0.657230  1.0  0.2174
  C  C36  1  0.435600  0.645790  0.157230  1.0  0.2177
  C  C37  1  0.145790  0.935600  0.842770  1.0  0.2113
  C  C38  1  0.645790  0.435600  0.342770  1.0  0.2116
  C  C39  1  0.854210  0.064400  0.842770  1.0  0.2116
  C  C40  1  0.354210  0.564400  0.342770  1.0  0.2116
  C  C41  1  0.935600  0.854210  0.842770  1.0  0.2128
  C  C42  1  0.435600  0.354210  0.342770  1.0  0.2128
  C  C43  1  0.064400  0.145790  0.842770  1.0  0.2125
  C  C44  1  0.564400  0.645790  0.342770  1.0  0.2125
  N  N45  1  0.220480  0.102930  0.392920  1.0  -0.3851
  N  N46  1  0.720480  0.602930  0.892920  1.0  -0.3851
  N  N47  1  0.779520  0.897070  0.392920  1.0  -0.3849
  N  N48  1  0.279520  0.397070  0.892920  1.0  -0.3849
  N  N49  1  0.897070  0.220480  0.392920  1.0  -0.3875
  N  N50  1  0.397070  0.720480  0.892920  1.0  -0.3875
  N  N51  1  0.102930  0.779520  0.392920  1.0  -0.3864
  N  N52  1  0.602930  0.279520  0.892920  1.0  -0.3864
  N  N53  1  0.779520  0.102930  0.107080  1.0  -0.3847
  N  N54  1  0.279520  0.602930  0.607080  1.0  -0.3847
  N  N55  1  0.220480  0.897070  0.107080  1.0  -0.3848
  N  N56  1  0.720480  0.397070  0.607080  1.0  -0.3848
  N  N57  1  0.102930  0.220480  0.107080  1.0  -0.3873
  N  N58  1  0.602930  0.720480  0.607080  1.0  -0.3873
  N  N59  1  0.897070  0.779520  0.107080  1.0  -0.3859
  N  N60  1  0.397070  0.279520  0.607080  1.0  -0.3859
  N  N61  1  0.779520  0.897070  0.607080  1.0  -0.3844
  N  N62  1  0.279520  0.397070  0.107080  1.0  -0.3844
  N  N63  1  0.220480  0.102930  0.607080  1.0  -0.3849
  N  N64  1  0.720480  0.602930  0.107080  1.0  -0.3849
  N  N65  1  0.102930  0.779520  0.607080  1.0  -0.3862
  N  N66  1  0.602930  0.279520  0.107080  1.0  -0.3862
  N  N67  1  0.897070  0.220480  0.607080  1.0  -0.3869
  N  N68  1  0.397070  0.720480  0.107080  1.0  -0.3869
  N  N69  1  0.220480  0.897070  0.892920  1.0  -0.385
  N  N70  1  0.720480  0.397070  0.392920  1.0  -0.385
  N  N71  1  0.779520  0.102930  0.892920  1.0  -0.3851
  N  N72  1  0.279520  0.602930  0.392920  1.0  -0.3851
  N  N73  1  0.897070  0.779520  0.892920  1.0  -0.3862
  N  N74  1  0.397070  0.279520  0.392920  1.0  -0.3862
  N  N75  1  0.102930  0.220480  0.892920  1.0  -0.3877
  N  N76  1  0.602930  0.720480  0.392920  1.0  -0.3877
