# generated using pymatgen
data_Zn3H24C30(NO5)2
_symmetry_space_group_name_H-M   'P 1'
_cell_length_a   15.17430000
_cell_length_b   24.88590000
_cell_length_c   24.88590000
_cell_angle_alpha   90.00000000
_cell_angle_beta   90.00000000
_cell_angle_gamma   90.00000000
_symmetry_Int_Tables_number   1
_chemical_formula_structural   Zn3H24C30(NO5)2
_chemical_formula_sum   'Zn24 H192 C240 N16 O80'
_cell_volume   9397.56566983
_cell_formula_units_Z   8
loop_
 _symmetry_equiv_pos_site_id
 _symmetry_equiv_pos_as_xyz
  1  'x, y, z'
loop_
 _atom_site_type_symbol
 _atom_site_label
 _atom_site_symmetry_multiplicity
 _atom_site_fract_x
 _atom_site_fract_y
 _atom_site_fract_z
 _atom_site_occupancy
 _atom_site_charge
  Zn  Zn1  1  0.030230  0.879220  0.022420  1.0  0.9306
  Zn  Zn2  1  0.246830  0.850970  0.000710  1.0  0.9408
  Zn  Zn3  1  0.967020  0.482350  0.372650  1.0  0.9666
  Zn  Zn4  1  0.030230  0.120780  0.977580  1.0  0.9309
  Zn  Zn5  1  0.246830  0.149030  0.999290  1.0  0.941
  Zn  Zn6  1  0.967020  0.517650  0.627350  1.0  0.9669
  Zn  Zn7  1  0.969770  0.022420  0.120780  1.0  0.931
  Zn  Zn8  1  0.753170  0.000710  0.149030  1.0  0.9427
  Zn  Zn9  1  0.032980  0.372650  0.517650  1.0  0.9681
  Zn  Zn10  1  0.969770  0.977580  0.879220  1.0  0.9306
  Zn  Zn11  1  0.753170  0.999290  0.850970  1.0  0.9415
  Zn  Zn12  1  0.032980  0.627350  0.482350  1.0  0.9682
  Zn  Zn13  1  0.469770  0.620780  0.522420  1.0  0.931
  Zn  Zn14  1  0.253170  0.649030  0.500710  1.0  0.9413
  Zn  Zn15  1  0.532980  0.017650  0.872650  1.0  0.9661
  Zn  Zn16  1  0.469770  0.379220  0.477580  1.0  0.9317
  Zn  Zn17  1  0.253170  0.350970  0.499290  1.0  0.9412
  Zn  Zn18  1  0.532980  0.982350  0.127350  1.0  0.9676
  Zn  Zn19  1  0.530230  0.477580  0.620780  1.0  0.9302
  Zn  Zn20  1  0.746830  0.499290  0.649030  1.0  0.9424
  Zn  Zn21  1  0.467020  0.127350  0.017650  1.0  0.9682
  Zn  Zn22  1  0.530230  0.522420  0.379220  1.0  0.9301
  Zn  Zn23  1  0.746830  0.500710  0.350970  1.0  0.9412
  Zn  Zn24  1  0.467020  0.872650  0.982350  1.0  0.9685
  H  H25  1  0.210600  0.731600  0.884300  1.0  0.0973
  H  H26  1  0.178300  0.672600  0.814800  1.0  0.1202
  H  H27  1  0.920900  0.714200  0.826300  1.0  0.1207
  H  H28  1  0.955600  0.772600  0.895500  1.0  0.1007
  H  H29  1  0.901000  0.628400  0.793800  1.0  0.1222
  H  H30  1  0.876100  0.565100  0.725700  1.0  0.0743
  H  H31  1  0.107500  0.592500  0.663200  1.0  0.0755
  H  H32  1  0.141700  0.655300  0.729300  1.0  0.1237
  H  H33  1  0.023100  0.620000  0.287000  1.0  0.096
  H  H34  1  0.062600  0.691100  0.231000  1.0  0.1167
  H  H35  1  0.811600  0.700300  0.179000  1.0  0.1175
  H  H36  1  0.773400  0.628400  0.234600  1.0  0.0996
  H  H37  1  0.089700  0.720100  0.144300  1.0  0.1163
  H  H38  1  0.121100  0.784800  0.081000  1.0  0.0743
  H  H39  1  0.891700  0.853300  0.103000  1.0  0.0827
  H  H40  1  0.855100  0.790300  0.168300  1.0  0.1201
  H  H41  1  0.213400  0.966100  0.040700  1.0  0.0808
  H  H42  1  0.289000  0.905300  0.094400  1.0  0.1122
  H  H43  1  0.250200  0.953200  0.130200  1.0  0.1168
  H  H44  1  0.202500  0.895800  0.129900  1.0  0.12
  H  H45  1  0.279100  0.948300  0.931600  1.0  0.0916
  H  H46  1  0.251600  0.867900  0.878400  1.0  0.1207
  H  H47  1  0.352100  0.869500  0.859100  1.0  0.1247
  H  H48  1  0.286200  0.916900  0.842500  1.0  0.1148
  H  H49  1  0.210600  0.268400  0.115700  1.0  0.0973
  H  H50  1  0.178300  0.327400  0.185200  1.0  0.1196
  H  H51  1  0.920900  0.285800  0.173700  1.0  0.1205
  H  H52  1  0.955600  0.227400  0.104500  1.0  0.1002
  H  H53  1  0.901000  0.371600  0.206200  1.0  0.1205
  H  H54  1  0.876100  0.434900  0.274300  1.0  0.0745
  H  H55  1  0.107500  0.407500  0.336800  1.0  0.0762
  H  H56  1  0.141700  0.344700  0.270700  1.0  0.123
  H  H57  1  0.023100  0.380000  0.713000  1.0  0.0959
  H  H58  1  0.062600  0.308900  0.769000  1.0  0.1177
  H  H59  1  0.811600  0.299700  0.821000  1.0  0.1182
  H  H60  1  0.773400  0.371600  0.765400  1.0  0.1011
  H  H61  1  0.089700  0.279900  0.855700  1.0  0.1162
  H  H62  1  0.121100  0.215200  0.919000  1.0  0.0733
  H  H63  1  0.891700  0.146700  0.897000  1.0  0.0826
  H  H64  1  0.855100  0.209700  0.831700  1.0  0.1205
  H  H65  1  0.213400  0.033900  0.959300  1.0  0.0827
  H  H66  1  0.289000  0.094700  0.905600  1.0  0.1119
  H  H67  1  0.250200  0.046800  0.869800  1.0  0.1152
  H  H68  1  0.202500  0.104200  0.870100  1.0  0.1192
  H  H69  1  0.279100  0.051700  0.068400  1.0  0.0911
  H  H70  1  0.251600  0.132100  0.121600  1.0  0.121
  H  H71  1  0.352100  0.130500  0.140900  1.0  0.1252
  H  H72  1  0.286200  0.083100  0.157500  1.0  0.1164
  H  H73  1  0.789400  0.884300  0.268400  1.0  0.0968
  H  H74  1  0.821700  0.814800  0.327400  1.0  0.1201
  H  H75  1  0.079100  0.826300  0.285800  1.0  0.1209
  H  H76  1  0.044400  0.895500  0.227400  1.0  0.0996
  H  H77  1  0.099000  0.793800  0.371600  1.0  0.1222
  H  H78  1  0.123900  0.725700  0.434900  1.0  0.0727
  H  H79  1  0.892500  0.663200  0.407500  1.0  0.0771
  H  H80  1  0.858300  0.729300  0.344700  1.0  0.1228
  H  H81  1  0.976900  0.287000  0.380000  1.0  0.0941
  H  H82  1  0.937400  0.231000  0.308900  1.0  0.1166
  H  H83  1  0.188400  0.179000  0.299700  1.0  0.1182
  H  H84  1  0.226600  0.234600  0.371600  1.0  0.1017
  H  H85  1  0.910300  0.144300  0.279900  1.0  0.1168
  H  H86  1  0.878900  0.081000  0.215200  1.0  0.0757
  H  H87  1  0.108300  0.103000  0.146700  1.0  0.0824
  H  H88  1  0.144900  0.168300  0.209700  1.0  0.1217
  H  H89  1  0.786600  0.040700  0.033900  1.0  0.0809
  H  H90  1  0.711000  0.094400  0.094700  1.0  0.1101
  H  H91  1  0.749800  0.130200  0.046800  1.0  0.1152
  H  H92  1  0.797500  0.129900  0.104200  1.0  0.1173
  H  H93  1  0.720900  0.931600  0.051700  1.0  0.0911
  H  H94  1  0.748400  0.878400  0.132100  1.0  0.1182
  H  H95  1  0.647900  0.859100  0.130500  1.0  0.1248
  H  H96  1  0.713800  0.842500  0.083100  1.0  0.115
  H  H97  1  0.789400  0.115700  0.731600  1.0  0.0966
  H  H98  1  0.821700  0.185200  0.672600  1.0  0.1198
  H  H99  1  0.079100  0.173700  0.714200  1.0  0.1203
  H  H100  1  0.044400  0.104500  0.772600  1.0  0.0994
  H  H101  1  0.099000  0.206200  0.628400  1.0  0.1222
  H  H102  1  0.123900  0.274300  0.565100  1.0  0.0734
  H  H103  1  0.892500  0.336800  0.592500  1.0  0.0782
  H  H104  1  0.858300  0.270700  0.655300  1.0  0.1228
  H  H105  1  0.976900  0.713000  0.620000  1.0  0.094
  H  H106  1  0.937400  0.769000  0.691100  1.0  0.1162
  H  H107  1  0.188400  0.821000  0.700300  1.0  0.1182
  H  H108  1  0.226600  0.765400  0.628400  1.0  0.1017
  H  H109  1  0.910300  0.855700  0.720100  1.0  0.1152
  H  H110  1  0.878900  0.919000  0.784800  1.0  0.0748
  H  H111  1  0.108300  0.897000  0.853300  1.0  0.0825
  H  H112  1  0.144900  0.831700  0.790300  1.0  0.1218
  H  H113  1  0.786600  0.959300  0.966100  1.0  0.0813
  H  H114  1  0.711000  0.905600  0.905300  1.0  0.1097
  H  H115  1  0.749800  0.869800  0.953200  1.0  0.115
  H  H116  1  0.797500  0.870100  0.895800  1.0  0.1178
  H  H117  1  0.720900  0.068400  0.948300  1.0  0.091
  H  H118  1  0.748400  0.121600  0.867900  1.0  0.1185
  H  H119  1  0.647900  0.140900  0.869500  1.0  0.1242
  H  H120  1  0.713800  0.157500  0.916900  1.0  0.1144
  H  H121  1  0.289400  0.768400  0.384300  1.0  0.0973
  H  H122  1  0.321700  0.827400  0.314800  1.0  0.1199
  H  H123  1  0.579100  0.785800  0.326300  1.0  0.1213
  H  H124  1  0.544400  0.727400  0.395500  1.0  0.1
  H  H125  1  0.599000  0.871600  0.293800  1.0  0.1225
  H  H126  1  0.623900  0.934900  0.225700  1.0  0.0739
  H  H127  1  0.392500  0.907500  0.163200  1.0  0.0782
  H  H128  1  0.358300  0.844700  0.229300  1.0  0.1234
  H  H129  1  0.476900  0.880000  0.787000  1.0  0.0956
  H  H130  1  0.437400  0.808900  0.731000  1.0  0.1165
  H  H131  1  0.688400  0.799700  0.679000  1.0  0.1179
  H  H132  1  0.726600  0.871600  0.734600  1.0  0.1008
  H  H133  1  0.410300  0.779900  0.644300  1.0  0.1163
  H  H134  1  0.378900  0.715200  0.581000  1.0  0.0735
  H  H135  1  0.608300  0.646700  0.603000  1.0  0.0832
  H  H136  1  0.644900  0.709700  0.668300  1.0  0.1204
  H  H137  1  0.286600  0.533900  0.540700  1.0  0.0816
  H  H138  1  0.211000  0.594700  0.594400  1.0  0.1114
  H  H139  1  0.249800  0.546800  0.630200  1.0  0.1184
  H  H140  1  0.297500  0.604200  0.629900  1.0  0.1187
  H  H141  1  0.220900  0.551700  0.431600  1.0  0.0915
  H  H142  1  0.248400  0.632100  0.378400  1.0  0.121
  H  H143  1  0.147900  0.630500  0.359100  1.0  0.1244
  H  H144  1  0.213800  0.583100  0.342500  1.0  0.1153
  H  H145  1  0.289400  0.231600  0.615700  1.0  0.0966
  H  H146  1  0.321700  0.172600  0.685200  1.0  0.1195
  H  H147  1  0.579100  0.214200  0.673700  1.0  0.1219
  H  H148  1  0.544400  0.272600  0.604500  1.0  0.1002
  H  H149  1  0.599000  0.128400  0.706200  1.0  0.1208
  H  H150  1  0.623900  0.065100  0.774300  1.0  0.0742
  H  H151  1  0.392500  0.092500  0.836800  1.0  0.0779
  H  H152  1  0.358300  0.155300  0.770700  1.0  0.1236
  H  H153  1  0.476900  0.120000  0.213000  1.0  0.0953
  H  H154  1  0.437400  0.191100  0.269000  1.0  0.1168
  H  H155  1  0.688400  0.200300  0.321000  1.0  0.118
  H  H156  1  0.726600  0.128400  0.265400  1.0  0.1019
  H  H157  1  0.410300  0.220100  0.355700  1.0  0.1158
  H  H158  1  0.378900  0.284800  0.419000  1.0  0.0741
  H  H159  1  0.608300  0.353300  0.397000  1.0  0.0833
  H  H160  1  0.644900  0.290300  0.331700  1.0  0.1207
  H  H161  1  0.286600  0.466100  0.459300  1.0  0.0815
  H  H162  1  0.211000  0.405300  0.405600  1.0  0.1111
  H  H163  1  0.249800  0.453200  0.369800  1.0  0.1166
  H  H164  1  0.297500  0.395800  0.370100  1.0  0.1185
  H  H165  1  0.220900  0.448300  0.568400  1.0  0.0915
  H  H166  1  0.248400  0.367900  0.621600  1.0  0.1204
  H  H167  1  0.147900  0.369500  0.640900  1.0  0.1248
  H  H168  1  0.213800  0.416900  0.657500  1.0  0.1154
  H  H169  1  0.710600  0.615700  0.768400  1.0  0.0971
  H  H170  1  0.678300  0.685200  0.827400  1.0  0.1201
  H  H171  1  0.420900  0.673700  0.785800  1.0  0.12
  H  H172  1  0.455600  0.604500  0.727400  1.0  0.0999
  H  H173  1  0.401000  0.706200  0.871600  1.0  0.1207
  H  H174  1  0.376100  0.774300  0.934900  1.0  0.0736
  H  H175  1  0.607500  0.836800  0.907500  1.0  0.0767
  H  H176  1  0.641700  0.770700  0.844700  1.0  0.1225
  H  H177  1  0.523100  0.213000  0.880000  1.0  0.0946
  H  H178  1  0.562600  0.269000  0.808900  1.0  0.1173
  H  H179  1  0.311600  0.321000  0.799700  1.0  0.1185
  H  H180  1  0.273400  0.265400  0.871600  1.0  0.101
  H  H181  1  0.589700  0.355700  0.779900  1.0  0.1169
  H  H182  1  0.621100  0.419000  0.715200  1.0  0.0755
  H  H183  1  0.391700  0.397000  0.646700  1.0  0.0821
  H  H184  1  0.355100  0.331700  0.709700  1.0  0.1216
  H  H185  1  0.713400  0.459300  0.533900  1.0  0.0818
  H  H186  1  0.789000  0.405600  0.594700  1.0  0.1106
  H  H187  1  0.750200  0.369800  0.546800  1.0  0.1145
  H  H188  1  0.702500  0.370100  0.604200  1.0  0.119
  H  H189  1  0.779100  0.568400  0.551700  1.0  0.0925
  H  H190  1  0.751600  0.621600  0.632100  1.0  0.1179
  H  H191  1  0.852100  0.640900  0.630500  1.0  0.1249
  H  H192  1  0.786200  0.657500  0.583100  1.0  0.1151
  H  H193  1  0.710600  0.384300  0.231600  1.0  0.0971
  H  H194  1  0.678300  0.314800  0.172600  1.0  0.1202
  H  H195  1  0.420900  0.326300  0.214200  1.0  0.12
  H  H196  1  0.455600  0.395500  0.272600  1.0  0.0991
  H  H197  1  0.401000  0.293800  0.128400  1.0  0.1224
  H  H198  1  0.376100  0.225700  0.065100  1.0  0.0726
  H  H199  1  0.607500  0.163200  0.092500  1.0  0.0762
  H  H200  1  0.641700  0.229300  0.155300  1.0  0.1222
  H  H201  1  0.523100  0.787000  0.120000  1.0  0.0939
  H  H202  1  0.562600  0.731000  0.191100  1.0  0.1168
  H  H203  1  0.311600  0.679000  0.200300  1.0  0.1178
  H  H204  1  0.273400  0.734600  0.128400  1.0  0.101
  H  H205  1  0.589700  0.644300  0.220100  1.0  0.1155
  H  H206  1  0.621100  0.581000  0.284800  1.0  0.075
  H  H207  1  0.391700  0.603000  0.353300  1.0  0.0824
  H  H208  1  0.355100  0.668300  0.290300  1.0  0.1214
  H  H209  1  0.713400  0.540700  0.466100  1.0  0.0805
  H  H210  1  0.789000  0.594400  0.405300  1.0  0.1108
  H  H211  1  0.750200  0.630200  0.453200  1.0  0.1141
  H  H212  1  0.702500  0.629900  0.395800  1.0  0.1186
  H  H213  1  0.779100  0.431600  0.448300  1.0  0.0913
  H  H214  1  0.751600  0.378400  0.367900  1.0  0.118
  H  H215  1  0.852100  0.359100  0.369500  1.0  0.1246
  H  H216  1  0.786200  0.342500  0.416900  1.0  0.1162
  C  C217  1  0.086500  0.757800  0.897200  1.0  -0.1767
  C  C218  1  0.151300  0.727900  0.872600  1.0  -0.0257
  C  C219  1  0.132300  0.692700  0.831200  1.0  -0.1574
  C  C220  1  0.046100  0.686600  0.813600  1.0  0.0653
  C  C221  1  0.980200  0.717300  0.838000  1.0  -0.1521
  C  C222  1  0.001100  0.752000  0.879100  1.0  -0.0383
  C  C223  1  0.025900  0.647600  0.770200  1.0  0.0915
  C  C224  1  0.945500  0.621100  0.768000  1.0  -0.1931
  C  C225  1  0.930800  0.583500  0.726700  1.0  0.1739
  C  C226  1  0.065500  0.599500  0.690700  1.0  0.1863
  C  C227  1  0.086600  0.637100  0.730000  1.0  -0.22
  C  C228  1  0.108900  0.795700  0.942100  1.0  0.6701
  C  C229  1  0.896200  0.616100  0.264900  1.0  -0.1249
  C  C230  1  0.979900  0.635800  0.264400  1.0  -0.0177
  C  C231  1  0.003300  0.678700  0.231500  1.0  -0.1731
  C  C232  1  0.941700  0.703100  0.200000  1.0  0.0075
  C  C233  1  0.855100  0.683900  0.200900  1.0  -0.1028
  C  C234  1  0.832600  0.640900  0.233600  1.0  -0.0438
  C  C235  1  0.967800  0.746400  0.161900  1.0  0.0974
  C  C236  1  0.047000  0.746800  0.136200  1.0  -0.1979
  C  C237  1  0.065500  0.785800  0.098500  1.0  0.1795
  C  C238  1  0.932700  0.825600  0.111300  1.0  0.1736
  C  C239  1  0.909900  0.787800  0.150000  1.0  -0.2283
  C  C240  1  0.873300  0.568700  0.299100  1.0  0.6746
  C  C241  1  0.179400  0.939400  0.062400  1.0  0.1001
  C  C242  1  0.096400  0.966800  0.083600  1.0  0.6966
  C  C243  1  0.235000  0.922000  0.108100  1.0  -0.3549
  C  C244  1  0.411900  0.953300  0.910700  1.0  0.6886
  C  C245  1  0.327100  0.922400  0.922400  1.0  0.1661
  C  C246  1  0.302000  0.891300  0.870900  1.0  -0.3528
  C  C247  1  0.086500  0.242200  0.102800  1.0  -0.1767
  C  C248  1  0.151300  0.272100  0.127400  1.0  -0.0253
  C  C249  1  0.132300  0.307300  0.168800  1.0  -0.1568
  C  C250  1  0.046100  0.313400  0.186400  1.0  0.0637
  C  C251  1  0.980200  0.282700  0.162000  1.0  -0.1527
  C  C252  1  0.001100  0.248000  0.120900  1.0  -0.0382
  C  C253  1  0.025900  0.352400  0.229800  1.0  0.0914
  C  C254  1  0.945500  0.378900  0.232000  1.0  -0.191
  C  C255  1  0.930800  0.416500  0.273300  1.0  0.174
  C  C256  1  0.065500  0.400500  0.309300  1.0  0.1825
  C  C257  1  0.086600  0.362900  0.270000  1.0  -0.2205
  C  C258  1  0.108900  0.204300  0.057900  1.0  0.6731
  C  C259  1  0.896200  0.383900  0.735100  1.0  -0.1251
  C  C260  1  0.979900  0.364200  0.735600  1.0  -0.018
  C  C261  1  0.003300  0.321300  0.768500  1.0  -0.1741
  C  C262  1  0.941700  0.296900  0.800000  1.0  0.0071
  C  C263  1  0.855100  0.316100  0.799100  1.0  -0.1058
  C  C264  1  0.832600  0.359100  0.766400  1.0  -0.0461
  C  C265  1  0.967800  0.253600  0.838100  1.0  0.099
  C  C266  1  0.047000  0.253200  0.863800  1.0  -0.1984
  C  C267  1  0.065500  0.214200  0.901500  1.0  0.1739
  C  C268  1  0.932700  0.174400  0.888700  1.0  0.1744
  C  C269  1  0.909900  0.212200  0.850000  1.0  -0.2311
  C  C270  1  0.873300  0.431300  0.700900  1.0  0.6738
  C  C271  1  0.179400  0.060600  0.937600  1.0  0.0998
  C  C272  1  0.096400  0.033200  0.916400  1.0  0.6964
  C  C273  1  0.235000  0.078000  0.891900  1.0  -0.3536
  C  C274  1  0.411900  0.046700  0.089300  1.0  0.689
  C  C275  1  0.327100  0.077600  0.077600  1.0  0.1653
  C  C276  1  0.302000  0.108700  0.129100  1.0  -0.354
  C  C277  1  0.913500  0.897200  0.242200  1.0  -0.1752
  C  C278  1  0.848700  0.872600  0.272100  1.0  -0.0265
  C  C279  1  0.867700  0.831200  0.307300  1.0  -0.1605
  C  C280  1  0.953900  0.813600  0.313400  1.0  0.0646
  C  C281  1  0.019800  0.838000  0.282700  1.0  -0.1535
  C  C282  1  0.998900  0.879100  0.248000  1.0  -0.0313
  C  C283  1  0.974100  0.770200  0.352400  1.0  0.0933
  C  C284  1  0.054500  0.768000  0.378900  1.0  -0.1929
  C  C285  1  0.069200  0.726700  0.416500  1.0  0.1743
  C  C286  1  0.934500  0.690700  0.400500  1.0  0.183
  C  C287  1  0.913400  0.730000  0.362900  1.0  -0.2198
  C  C288  1  0.891100  0.942100  0.204300  1.0  0.6682
  C  C289  1  0.103800  0.264900  0.383900  1.0  -0.1254
  C  C290  1  0.020100  0.264400  0.364200  1.0  -0.0201
  C  C291  1  0.996700  0.231500  0.321300  1.0  -0.1754
  C  C292  1  0.058300  0.200000  0.296900  1.0  0.0084
  C  C293  1  0.144900  0.200900  0.316100  1.0  -0.1024
  C  C294  1  0.167400  0.233600  0.359100  1.0  -0.0448
  C  C295  1  0.032200  0.161900  0.253600  1.0  0.0958
  C  C296  1  0.953000  0.136200  0.253200  1.0  -0.1969
  C  C297  1  0.934500  0.098500  0.214200  1.0  0.1793
  C  C298  1  0.067300  0.111300  0.174400  1.0  0.1756
  C  C299  1  0.090100  0.150000  0.212200  1.0  -0.2317
  C  C300  1  0.126700  0.299100  0.431300  1.0  0.6749
  C  C301  1  0.820600  0.062400  0.060600  1.0  0.1003
  C  C302  1  0.903600  0.083600  0.033200  1.0  0.6999
  C  C303  1  0.765000  0.108100  0.078000  1.0  -0.3529
  C  C304  1  0.588100  0.910700  0.046700  1.0  0.6882
  C  C305  1  0.672900  0.922400  0.077600  1.0  0.1656
  C  C306  1  0.698000  0.870900  0.108700  1.0  -0.3527
  C  C307  1  0.913500  0.102800  0.757800  1.0  -0.1772
  C  C308  1  0.848700  0.127400  0.727900  1.0  -0.0258
  C  C309  1  0.867700  0.168800  0.692700  1.0  -0.1586
  C  C310  1  0.953900  0.186400  0.686600  1.0  0.0635
  C  C311  1  0.019800  0.162000  0.717300  1.0  -0.1519
  C  C312  1  0.998900  0.120900  0.752000  1.0  -0.0305
  C  C313  1  0.974100  0.229800  0.647600  1.0  0.0938
  C  C314  1  0.054500  0.232000  0.621100  1.0  -0.1943
  C  C315  1  0.069200  0.273300  0.583500  1.0  0.1742
  C  C316  1  0.934500  0.309300  0.599500  1.0  0.184
  C  C317  1  0.913400  0.270000  0.637100  1.0  -0.2188
  C  C318  1  0.891100  0.057900  0.795700  1.0  0.6687
  C  C319  1  0.103800  0.735100  0.616100  1.0  -0.1253
  C  C320  1  0.020100  0.735600  0.635800  1.0  -0.0201
  C  C321  1  0.996700  0.768500  0.678700  1.0  -0.1761
  C  C322  1  0.058300  0.800000  0.703100  1.0  0.0089
  C  C323  1  0.144900  0.799100  0.683900  1.0  -0.1022
  C  C324  1  0.167400  0.766400  0.640900  1.0  -0.045
  C  C325  1  0.032200  0.838100  0.746400  1.0  0.0953
  C  C326  1  0.953000  0.863800  0.746800  1.0  -0.1983
  C  C327  1  0.934500  0.901500  0.785800  1.0  0.1815
  C  C328  1  0.067300  0.888700  0.825600  1.0  0.1731
  C  C329  1  0.090100  0.850000  0.787800  1.0  -0.2319
  C  C330  1  0.126700  0.700900  0.568700  1.0  0.6758
  C  C331  1  0.820600  0.937600  0.939400  1.0  0.1001
  C  C332  1  0.903600  0.916400  0.966800  1.0  0.6992
  C  C333  1  0.765000  0.891900  0.922000  1.0  -0.3528
  C  C334  1  0.588100  0.089300  0.953300  1.0  0.6866
  C  C335  1  0.672900  0.077600  0.922400  1.0  0.1653
  C  C336  1  0.698000  0.129100  0.891300  1.0  -0.3521
  C  C337  1  0.413500  0.742200  0.397200  1.0  -0.1757
  C  C338  1  0.348700  0.772100  0.372600  1.0  -0.0268
  C  C339  1  0.367700  0.807300  0.331200  1.0  -0.1583
  C  C340  1  0.453900  0.813400  0.313600  1.0  0.0644
  C  C341  1  0.519800  0.782700  0.338000  1.0  -0.153
  C  C342  1  0.498900  0.748000  0.379100  1.0  -0.0326
  C  C343  1  0.474100  0.852400  0.270200  1.0  0.0928
  C  C344  1  0.554500  0.878900  0.268000  1.0  -0.1906
  C  C345  1  0.569200  0.916500  0.226700  1.0  0.1738
  C  C346  1  0.434500  0.900500  0.190700  1.0  0.1868
  C  C347  1  0.413400  0.862900  0.230000  1.0  -0.2214
  C  C348  1  0.391100  0.704300  0.442100  1.0  0.6707
  C  C349  1  0.603800  0.883900  0.764900  1.0  -0.1251
  C  C350  1  0.520100  0.864200  0.764400  1.0  -0.0182
  C  C351  1  0.496700  0.821300  0.731500  1.0  -0.1747
  C  C352  1  0.558300  0.796900  0.700000  1.0  0.0064
  C  C353  1  0.644900  0.816100  0.700900  1.0  -0.1042
  C  C354  1  0.667400  0.859100  0.733600  1.0  -0.0456
  C  C355  1  0.532200  0.753600  0.661900  1.0  0.0987
  C  C356  1  0.453000  0.753200  0.636200  1.0  -0.1983
  C  C357  1  0.434500  0.714200  0.598500  1.0  0.1789
  C  C358  1  0.567300  0.674400  0.611300  1.0  0.1703
  C  C359  1  0.590100  0.712200  0.650000  1.0  -0.2303
  C  C360  1  0.626700  0.931300  0.799100  1.0  0.6742
  C  C361  1  0.320600  0.560600  0.562400  1.0  0.0994
  C  C362  1  0.403600  0.533200  0.583600  1.0  0.6984
  C  C363  1  0.265000  0.578000  0.608100  1.0  -0.3545
  C  C364  1  0.088100  0.546700  0.410700  1.0  0.6882
  C  C365  1  0.172900  0.577600  0.422400  1.0  0.1666
  C  C366  1  0.198000  0.608700  0.370900  1.0  -0.3541
  C  C367  1  0.413500  0.257800  0.602800  1.0  -0.1759
  C  C368  1  0.348700  0.227900  0.627400  1.0  -0.0264
  C  C369  1  0.367700  0.192700  0.668800  1.0  -0.1559
  C  C370  1  0.453900  0.186600  0.686400  1.0  0.0644
  C  C371  1  0.519800  0.217300  0.662000  1.0  -0.1517
  C  C372  1  0.498900  0.252000  0.620900  1.0  -0.0328
  C  C373  1  0.474100  0.147600  0.729800  1.0  0.0921
  C  C374  1  0.554500  0.121100  0.732000  1.0  -0.192
  C  C375  1  0.569200  0.083500  0.773300  1.0  0.1726
  C  C376  1  0.434500  0.099500  0.809300  1.0  0.1877
  C  C377  1  0.413400  0.137100  0.770000  1.0  -0.2195
  C  C378  1  0.391100  0.295700  0.557900  1.0  0.6704
  C  C379  1  0.603800  0.116100  0.235100  1.0  -0.1246
  C  C380  1  0.520100  0.135800  0.235600  1.0  -0.0197
  C  C381  1  0.496700  0.178700  0.268500  1.0  -0.1751
  C  C382  1  0.558300  0.203100  0.300000  1.0  0.0067
  C  C383  1  0.644900  0.183900  0.299100  1.0  -0.1041
  C  C384  1  0.667400  0.140900  0.266400  1.0  -0.0449
  C  C385  1  0.532200  0.246400  0.338100  1.0  0.0973
  C  C386  1  0.453000  0.246800  0.363800  1.0  -0.1986
  C  C387  1  0.434500  0.285800  0.401500  1.0  0.1803
  C  C388  1  0.567300  0.325600  0.388700  1.0  0.1706
  C  C389  1  0.590100  0.287800  0.350000  1.0  -0.231
  C  C390  1  0.626700  0.068700  0.200900  1.0  0.6748
  C  C391  1  0.320600  0.439400  0.437600  1.0  0.0998
  C  C392  1  0.403600  0.466800  0.416400  1.0  0.6982
  C  C393  1  0.265000  0.422000  0.391900  1.0  -0.3541
  C  C394  1  0.088100  0.453300  0.589300  1.0  0.6874
  C  C395  1  0.172900  0.422400  0.577600  1.0  0.1655
  C  C396  1  0.198000  0.391300  0.629100  1.0  -0.3542
  C  C397  1  0.586500  0.602800  0.742200  1.0  -0.1772
  C  C398  1  0.651300  0.627400  0.772100  1.0  -0.0248
  C  C399  1  0.632300  0.668800  0.807300  1.0  -0.1597
  C  C400  1  0.546100  0.686400  0.813400  1.0  0.0641
  C  C401  1  0.480200  0.662000  0.782700  1.0  -0.1518
  C  C402  1  0.501100  0.620900  0.748000  1.0  -0.0378
  C  C403  1  0.525900  0.729800  0.852400  1.0  0.0933
  C  C404  1  0.445500  0.732000  0.878900  1.0  -0.1928
  C  C405  1  0.430800  0.773300  0.916500  1.0  0.1748
  C  C406  1  0.565500  0.809300  0.900500  1.0  0.1792
  C  C407  1  0.586600  0.770000  0.862900  1.0  -0.219
  C  C408  1  0.608900  0.557900  0.704300  1.0  0.6682
  C  C409  1  0.396200  0.235100  0.883900  1.0  -0.1245
  C  C410  1  0.479900  0.235600  0.864200  1.0  -0.0197
  C  C411  1  0.503300  0.268500  0.821300  1.0  -0.175
  C  C412  1  0.441700  0.300000  0.796900  1.0  0.009
  C  C413  1  0.355100  0.299100  0.816100  1.0  -0.1039
  C  C414  1  0.332600  0.266400  0.859100  1.0  -0.0455
  C  C415  1  0.467800  0.338100  0.753600  1.0  0.0968
  C  C416  1  0.547000  0.363800  0.753200  1.0  -0.1962
  C  C417  1  0.565500  0.401500  0.714200  1.0  0.1745
  C  C418  1  0.432700  0.388700  0.674400  1.0  0.1787
  C  C419  1  0.409900  0.350000  0.712200  1.0  -0.2323
  C  C420  1  0.373300  0.200900  0.931300  1.0  0.6739
  C  C421  1  0.679400  0.437600  0.560600  1.0  0.1008
  C  C422  1  0.596400  0.416400  0.533200  1.0  0.6979
  C  C423  1  0.735000  0.391900  0.578000  1.0  -0.3532
  C  C424  1  0.911900  0.589300  0.546700  1.0  0.6881
  C  C425  1  0.827100  0.577600  0.577600  1.0  0.1647
  C  C426  1  0.802000  0.629100  0.608700  1.0  -0.3519
  C  C427  1  0.586500  0.397200  0.257800  1.0  -0.1749
  C  C428  1  0.651300  0.372600  0.227900  1.0  -0.0244
  C  C429  1  0.632300  0.331200  0.192700  1.0  -0.1595
  C  C430  1  0.546100  0.313600  0.186600  1.0  0.063
  C  C431  1  0.480200  0.338000  0.217300  1.0  -0.1522
  C  C432  1  0.501100  0.379100  0.252000  1.0  -0.0355
  C  C433  1  0.525900  0.270200  0.147600  1.0  0.0934
  C  C434  1  0.445500  0.268000  0.121100  1.0  -0.1949
  C  C435  1  0.430800  0.226700  0.083500  1.0  0.1751
  C  C436  1  0.565500  0.190700  0.099500  1.0  0.1787
  C  C437  1  0.586600  0.230000  0.137100  1.0  -0.2186
  C  C438  1  0.608900  0.442100  0.295700  1.0  0.6686
  C  C439  1  0.396200  0.764900  0.116100  1.0  -0.1246
  C  C440  1  0.479900  0.764400  0.135800  1.0  -0.0201
  C  C441  1  0.503300  0.731500  0.178700  1.0  -0.1734
  C  C442  1  0.441700  0.700000  0.203100  1.0  0.009
  C  C443  1  0.355100  0.700900  0.183900  1.0  -0.1022
  C  C444  1  0.332600  0.733600  0.140900  1.0  -0.0439
  C  C445  1  0.467800  0.661900  0.246400  1.0  0.096
  C  C446  1  0.547000  0.636200  0.246800  1.0  -0.1968
  C  C447  1  0.565500  0.598500  0.285800  1.0  0.1798
  C  C448  1  0.432700  0.611300  0.325600  1.0  0.1779
  C  C449  1  0.409900  0.650000  0.287800  1.0  -0.2311
  C  C450  1  0.373300  0.799100  0.068700  1.0  0.6758
  C  C451  1  0.679400  0.562400  0.439400  1.0  0.1009
  C  C452  1  0.596400  0.583600  0.466800  1.0  0.6973
  C  C453  1  0.735000  0.608100  0.422000  1.0  -0.3524
  C  C454  1  0.911900  0.410700  0.453300  1.0  0.6885
  C  C455  1  0.827100  0.422400  0.422400  1.0  0.1655
  C  C456  1  0.802000  0.370900  0.391300  1.0  -0.352
  N  N457  1  0.989800  0.572800  0.689500  1.0  -0.3211
  N  N458  1  0.009300  0.824800  0.085400  1.0  -0.326
  N  N459  1  0.989800  0.427200  0.310500  1.0  -0.3217
  N  N460  1  0.009300  0.175200  0.914600  1.0  -0.3208
  N  N461  1  0.010200  0.689500  0.427200  1.0  -0.3214
  N  N462  1  0.990700  0.085400  0.175200  1.0  -0.3216
  N  N463  1  0.010200  0.310500  0.572800  1.0  -0.3231
  N  N464  1  0.990700  0.914600  0.824800  1.0  -0.3219
  N  N465  1  0.510200  0.927200  0.189500  1.0  -0.3233
  N  N466  1  0.490700  0.675200  0.585400  1.0  -0.3226
  N  N467  1  0.510200  0.072800  0.810500  1.0  -0.3226
  N  N468  1  0.490700  0.324800  0.414600  1.0  -0.3207
  N  N469  1  0.489800  0.810500  0.927200  1.0  -0.3209
  N  N470  1  0.509300  0.414600  0.675200  1.0  -0.322
  N  N471  1  0.489800  0.189500  0.072800  1.0  -0.3217
  N  N472  1  0.509300  0.585400  0.324800  1.0  -0.3211
  O  O473  1  0.046400  0.817850  0.966280  1.0  -0.6177
  O  O474  1  0.190500  0.801030  0.951100  1.0  -0.5993
  O  O475  1  0.792500  0.555600  0.301400  1.0  -0.5927
  O  O476  1  0.934400  0.545500  0.321600  1.0  -0.6135
  O  O477  1  0.156500  0.896090  0.029010  1.0  -0.6759
  O  O478  1  0.022900  0.948860  0.070090  1.0  -0.6097
  O  O479  1  0.103800  0.007400  0.113300  1.0  -0.5681
  O  O480  1  0.407500  0.991700  0.877400  1.0  -0.5909
  O  O481  1  0.482100  0.938330  0.932090  1.0  -0.5828
  O  O482  1  0.341400  0.887420  0.965880  1.0  -0.6864
  O  O483  1  0.046400  0.182150  0.033720  1.0  -0.6173
  O  O484  1  0.190500  0.198970  0.048900  1.0  -0.6002
  O  O485  1  0.792500  0.444400  0.698600  1.0  -0.5922
  O  O486  1  0.934400  0.454500  0.678400  1.0  -0.6133
  O  O487  1  0.156500  0.103910  0.970990  1.0  -0.6741
  O  O488  1  0.022900  0.051140  0.929910  1.0  -0.61
  O  O489  1  0.103800  0.992600  0.886700  1.0  -0.5672
  O  O490  1  0.407500  0.008300  0.122600  1.0  -0.5911
  O  O491  1  0.482100  0.061670  0.067910  1.0  -0.5843
  O  O492  1  0.341400  0.112580  0.034120  1.0  -0.6854
  O  O493  1  0.953600  0.966280  0.182150  1.0  -0.6172
  O  O494  1  0.809500  0.951100  0.198970  1.0  -0.5998
  O  O495  1  0.207500  0.301400  0.444400  1.0  -0.5914
  O  O496  1  0.065600  0.321600  0.454500  1.0  -0.6163
  O  O497  1  0.843500  0.029010  0.103910  1.0  -0.6753
  O  O498  1  0.977100  0.070090  0.051140  1.0  -0.6091
  O  O499  1  0.896200  0.113300  0.992600  1.0  -0.568
  O  O500  1  0.592500  0.877400  0.008300  1.0  -0.5924
  O  O501  1  0.517900  0.932090  0.061670  1.0  -0.5839
  O  O502  1  0.658600  0.965880  0.112580  1.0  -0.6865
  O  O503  1  0.953600  0.033720  0.817850  1.0  -0.617
  O  O504  1  0.809500  0.048900  0.801030  1.0  -0.5995
  O  O505  1  0.207500  0.698600  0.555600  1.0  -0.5919
  O  O506  1  0.065600  0.678400  0.545500  1.0  -0.6163
  O  O507  1  0.843500  0.970990  0.896090  1.0  -0.6755
  O  O508  1  0.977100  0.929910  0.948860  1.0  -0.6089
  O  O509  1  0.896200  0.886700  0.007400  1.0  -0.5686
  O  O510  1  0.592500  0.122600  0.991700  1.0  -0.5908
  O  O511  1  0.517900  0.067910  0.938330  1.0  -0.5842
  O  O512  1  0.658600  0.034120  0.887420  1.0  -0.6861
  O  O513  1  0.453600  0.682150  0.466280  1.0  -0.6172
  O  O514  1  0.309500  0.698970  0.451100  1.0  -0.5992
  O  O515  1  0.707500  0.944400  0.801400  1.0  -0.5933
  O  O516  1  0.565600  0.954500  0.821600  1.0  -0.6138
  O  O517  1  0.343500  0.603910  0.529010  1.0  -0.6746
  O  O518  1  0.477100  0.551140  0.570090  1.0  -0.609
  O  O519  1  0.396200  0.492600  0.613300  1.0  -0.5679
  O  O520  1  0.092500  0.508300  0.377400  1.0  -0.5918
  O  O521  1  0.017900  0.561670  0.432090  1.0  -0.5831
  O  O522  1  0.158600  0.612580  0.465880  1.0  -0.6868
  O  O523  1  0.453600  0.317850  0.533720  1.0  -0.6186
  O  O524  1  0.309500  0.301030  0.548900  1.0  -0.5995
  O  O525  1  0.707500  0.055600  0.198600  1.0  -0.5921
  O  O526  1  0.565600  0.045500  0.178400  1.0  -0.6152
  O  O527  1  0.343500  0.396090  0.470990  1.0  -0.675
  O  O528  1  0.477100  0.448860  0.429910  1.0  -0.609
  O  O529  1  0.396200  0.507400  0.386700  1.0  -0.5677
  O  O530  1  0.092500  0.491700  0.622600  1.0  -0.5899
  O  O531  1  0.017900  0.438330  0.567910  1.0  -0.5828
  O  O532  1  0.158600  0.387420  0.534120  1.0  -0.6858
  O  O533  1  0.546400  0.533720  0.682150  1.0  -0.6165
  O  O534  1  0.690500  0.548900  0.698970  1.0  -0.5999
  O  O535  1  0.292500  0.198600  0.944400  1.0  -0.5899
  O  O536  1  0.434400  0.178400  0.954500  1.0  -0.6158
  O  O537  1  0.656500  0.470990  0.603910  1.0  -0.6747
  O  O538  1  0.522900  0.429910  0.551140  1.0  -0.6099
  O  O539  1  0.603800  0.386700  0.492600  1.0  -0.5674
  O  O540  1  0.907500  0.622600  0.508300  1.0  -0.5913
  O  O541  1  0.982100  0.567910  0.561670  1.0  -0.5863
  O  O542  1  0.841400  0.534120  0.612580  1.0  -0.6857
  O  O543  1  0.546400  0.466280  0.317850  1.0  -0.6169
  O  O544  1  0.690500  0.451100  0.301030  1.0  -0.5995
  O  O545  1  0.292500  0.801400  0.055600  1.0  -0.5915
  O  O546  1  0.434400  0.821600  0.045500  1.0  -0.6153
  O  O547  1  0.656500  0.529010  0.396090  1.0  -0.6761
  O  O548  1  0.522900  0.570090  0.448860  1.0  -0.6096
  O  O549  1  0.603800  0.613300  0.507400  1.0  -0.5689
  O  O550  1  0.907500  0.377400  0.491700  1.0  -0.5921
  O  O551  1  0.982100  0.432090  0.438330  1.0  -0.5846
  O  O552  1  0.841400  0.465880  0.387420  1.0  -0.6867
