# generated using pymatgen
data_AgH15C15N6O
_symmetry_space_group_name_H-M   'P 1'
_cell_length_a   31.30140000
_cell_length_b   31.30140000
_cell_length_c   12.79210000
_cell_angle_alpha   90.00000000
_cell_angle_beta   90.00000000
_cell_angle_gamma   120.00000000
_symmetry_Int_Tables_number   1
_chemical_formula_structural   AgH15C15N6O
_chemical_formula_sum   'Ag18 H270 C270 N108 O18'
_cell_volume   10854.25455098
_cell_formula_units_Z   18
loop_
 _symmetry_equiv_pos_site_id
 _symmetry_equiv_pos_as_xyz
  1  'x, y, z'
loop_
 _atom_site_type_symbol
 _atom_site_label
 _atom_site_symmetry_multiplicity
 _atom_site_fract_x
 _atom_site_fract_y
 _atom_site_fract_z
 _atom_site_occupancy
 _atom_site_charge
  Ag  Ag1  1  0.132680  0.538320  0.140920  1.0  0.3184
  Ag  Ag2  1  0.799350  0.871650  0.474250  1.0  0.2775
  Ag  Ag3  1  0.466020  0.204980  0.807590  1.0  0.2777
  Ag  Ag4  1  0.461680  0.594370  0.140920  1.0  0.2751
  Ag  Ag5  1  0.128350  0.927700  0.474250  1.0  0.3177
  Ag  Ag6  1  0.795020  0.261030  0.807590  1.0  0.3173
  Ag  Ag7  1  0.405630  0.867320  0.140920  1.0  0.2794
  Ag  Ag8  1  0.072300  0.200650  0.474250  1.0  0.2794
  Ag  Ag9  1  0.738970  0.533980  0.807590  1.0  0.3203
  Ag  Ag10  1  0.867320  0.461680  0.859080  1.0  0.318
  Ag  Ag11  1  0.533980  0.795020  0.192410  1.0  0.2775
  Ag  Ag12  1  0.200650  0.128350  0.525750  1.0  0.2774
  Ag  Ag13  1  0.538320  0.405630  0.859080  1.0  0.277
  Ag  Ag14  1  0.204980  0.738970  0.192410  1.0  0.318
  Ag  Ag15  1  0.871650  0.072300  0.525750  1.0  0.3184
  Ag  Ag16  1  0.594370  0.132680  0.859080  1.0  0.2796
  Ag  Ag17  1  0.261030  0.466020  0.192410  1.0  0.3203
  Ag  Ag18  1  0.927700  0.799350  0.525750  1.0  0.2797
  H  H19  1  0.066400  0.576200  0.487000  1.0  0.1036
  H  H20  1  0.035500  0.485500  0.500600  1.0  0.1097
  H  H21  1  0.060300  0.461700  0.334300  1.0  0.0873
  H  H22  1  0.106600  0.606100  0.964100  1.0  0.092
  H  H23  1  0.053700  0.642500  0.014700  1.0  0.1073
  H  H24  1  0.062000  0.654600  0.207600  1.0  0.1078
  H  H25  1  0.283500  0.704700  0.256900  1.0  0.0852
  H  H26  1  0.269800  0.635700  0.378600  1.0  0.1072
  H  H27  1  0.178400  0.584700  0.402600  1.0  0.1061
  H  H28  1  0.077400  0.642000  0.384800  1.0  0.0559
  H  H29  1  0.126600  0.655100  0.448200  1.0  0.057
  H  H30  1  0.143400  0.735100  0.480700  1.0  0.0779
  H  H31  1  0.091600  0.719300  0.425200  1.0  0.0873
  H  H32  1  0.174700  0.819100  0.510800  1.0  0.1167
  H  H33  1  0.126700  0.766400  0.219200  1.0  0.0903
  H  H34  1  0.733070  0.909530  0.820330  1.0  0.1036
  H  H35  1  0.702170  0.818830  0.833930  1.0  0.1097
  H  H36  1  0.726970  0.795030  0.667630  1.0  0.0873
  H  H37  1  0.773270  0.939430  0.297430  1.0  0.092
  H  H38  1  0.720370  0.975830  0.348030  1.0  0.1074
  H  H39  1  0.728670  0.987930  0.540930  1.0  0.1078
  H  H40  1  0.950170  0.038030  0.590230  1.0  0.0876
  H  H41  1  0.936470  0.969030  0.711930  1.0  0.1074
  H  H42  1  0.845070  0.918030  0.735930  1.0  0.1061
  H  H43  1  0.744070  0.975330  0.718130  1.0  0.0559
  H  H44  1  0.793270  0.988430  0.781530  1.0  0.057
  H  H45  1  0.810070  0.068430  0.814030  1.0  0.0778
  H  H46  1  0.758270  0.052630  0.758530  1.0  0.0873
  H  H47  1  0.841370  0.152430  0.844130  1.0  0.1168
  H  H48  1  0.793370  0.099730  0.552530  1.0  0.0902
  H  H49  1  0.399730  0.242870  0.153670  1.0  0.1036
  H  H50  1  0.368830  0.152170  0.167270  1.0  0.1097
  H  H51  1  0.393630  0.128370  0.000970  1.0  0.0873
  H  H52  1  0.439930  0.272770  0.630770  1.0  0.092
  H  H53  1  0.387030  0.309170  0.681370  1.0  0.1073
  H  H54  1  0.395330  0.321270  0.874270  1.0  0.1078
  H  H55  1  0.616830  0.371370  0.923570  1.0  0.0852
  H  H56  1  0.603130  0.302370  0.045270  1.0  0.1072
  H  H57  1  0.511730  0.251370  0.069270  1.0  0.1061
  H  H58  1  0.410730  0.308670  0.051470  1.0  0.0559
  H  H59  1  0.459930  0.321770  0.114870  1.0  0.057
  H  H60  1  0.476730  0.401770  0.147370  1.0  0.0779
  H  H61  1  0.424930  0.385970  0.091870  1.0  0.0873
  H  H62  1  0.508030  0.485770  0.177470  1.0  0.1168
  H  H63  1  0.460030  0.433070  0.885870  1.0  0.0903
  H  H64  1  0.423800  0.490200  0.487000  1.0  0.1034
  H  H65  1  0.514500  0.550000  0.500600  1.0  0.1108
  H  H66  1  0.538300  0.598600  0.334300  1.0  0.086
  H  H67  1  0.393900  0.500500  0.964100  1.0  0.0928
  H  H68  1  0.357500  0.411200  0.014700  1.0  0.1088
  H  H69  1  0.345400  0.407400  0.207600  1.0  0.1093
  H  H70  1  0.295300  0.578800  0.256900  1.0  0.0869
  H  H71  1  0.364300  0.634100  0.378600  1.0  0.1067
  H  H72  1  0.415300  0.593700  0.402600  1.0  0.1073
  H  H73  1  0.358000  0.435400  0.384800  1.0  0.0524
  H  H74  1  0.344900  0.471500  0.448200  1.0  0.0572
  H  H75  1  0.264900  0.408300  0.480700  1.0  0.0784
  H  H76  1  0.280700  0.372300  0.425200  1.0  0.0901
  H  H77  1  0.180900  0.355600  0.510800  1.0  0.1176
  H  H78  1  0.233600  0.360300  0.219200  1.0  0.0901
  H  H79  1  0.090470  0.823530  0.820330  1.0  0.1034
  H  H80  1  0.181170  0.883330  0.833930  1.0  0.1108
  H  H81  1  0.204970  0.931930  0.667630  1.0  0.086
  H  H82  1  0.060570  0.833830  0.297430  1.0  0.0928
  H  H83  1  0.024170  0.744530  0.348030  1.0  0.1088
  H  H84  1  0.012070  0.740730  0.540930  1.0  0.1093
  H  H85  1  0.961970  0.912130  0.590230  1.0  0.0846
  H  H86  1  0.030970  0.967430  0.711930  1.0  0.1068
  H  H87  1  0.081970  0.927030  0.735930  1.0  0.1073
  H  H88  1  0.024670  0.768730  0.718130  1.0  0.0524
  H  H89  1  0.011570  0.804830  0.781530  1.0  0.0572
  H  H90  1  0.931570  0.741630  0.814030  1.0  0.0786
  H  H91  1  0.947370  0.705630  0.758530  1.0  0.09
  H  H92  1  0.847570  0.688930  0.844130  1.0  0.1176
  H  H93  1  0.900270  0.693630  0.552530  1.0  0.0902
  H  H94  1  0.757130  0.156870  0.153670  1.0  0.1034
  H  H95  1  0.847830  0.216670  0.167270  1.0  0.1108
  H  H96  1  0.871630  0.265270  0.000970  1.0  0.086
  H  H97  1  0.727230  0.167170  0.630770  1.0  0.0928
  H  H98  1  0.690830  0.077870  0.681370  1.0  0.1088
  H  H99  1  0.678730  0.074070  0.874270  1.0  0.1093
  H  H100  1  0.628630  0.245470  0.923570  1.0  0.0869
  H  H101  1  0.697630  0.300770  0.045270  1.0  0.1067
  H  H102  1  0.748630  0.260370  0.069270  1.0  0.1073
  H  H103  1  0.691330  0.102070  0.051470  1.0  0.0524
  H  H104  1  0.678230  0.138170  0.114870  1.0  0.0572
  H  H105  1  0.598230  0.074970  0.147370  1.0  0.0784
  H  H106  1  0.614030  0.038970  0.091870  1.0  0.09
  H  H107  1  0.514230  0.022270  0.177470  1.0  0.1176
  H  H108  1  0.566930  0.026970  0.885870  1.0  0.0902
  H  H109  1  0.509800  0.933600  0.487000  1.0  0.104
  H  H110  1  0.450000  0.964500  0.500600  1.0  0.1092
  H  H111  1  0.401400  0.939700  0.334300  1.0  0.0867
  H  H112  1  0.499500  0.893400  0.964100  1.0  0.0926
  H  H113  1  0.588800  0.946300  0.014700  1.0  0.1076
  H  H114  1  0.592600  0.938000  0.207600  1.0  0.1089
  H  H115  1  0.421200  0.716500  0.256900  1.0  0.085
  H  H116  1  0.365900  0.730200  0.378600  1.0  0.1078
  H  H117  1  0.406300  0.821600  0.402600  1.0  0.1078
  H  H118  1  0.564600  0.922600  0.384800  1.0  0.0528
  H  H119  1  0.528500  0.873400  0.448200  1.0  0.0569
  H  H120  1  0.591700  0.856600  0.480700  1.0  0.0787
  H  H121  1  0.627700  0.908400  0.425200  1.0  0.0902
  H  H122  1  0.644400  0.825300  0.510800  1.0  0.1176
  H  H123  1  0.639700  0.873300  0.219200  1.0  0.0913
  H  H124  1  0.176470  0.266930  0.820330  1.0  0.104
  H  H125  1  0.116670  0.297830  0.833930  1.0  0.1092
  H  H126  1  0.068070  0.273030  0.667630  1.0  0.0867
  H  H127  1  0.166170  0.226730  0.297430  1.0  0.0926
  H  H128  1  0.255470  0.279630  0.348030  1.0  0.1076
  H  H129  1  0.259270  0.271330  0.540930  1.0  0.1089
  H  H130  1  0.087870  0.049830  0.590230  1.0  0.085
  H  H131  1  0.032570  0.063530  0.711930  1.0  0.1078
  H  H132  1  0.072970  0.154930  0.735930  1.0  0.1078
  H  H133  1  0.231270  0.255930  0.718130  1.0  0.0528
  H  H134  1  0.195170  0.206730  0.781530  1.0  0.0569
  H  H135  1  0.258370  0.189930  0.814030  1.0  0.0785
  H  H136  1  0.294370  0.241730  0.758530  1.0  0.0903
  H  H137  1  0.311070  0.158630  0.844130  1.0  0.1176
  H  H138  1  0.306370  0.206630  0.552530  1.0  0.0913
  H  H139  1  0.843130  0.600270  0.153670  1.0  0.104
  H  H140  1  0.783330  0.631170  0.167270  1.0  0.1092
  H  H141  1  0.734730  0.606370  0.000970  1.0  0.0867
  H  H142  1  0.832830  0.560070  0.630770  1.0  0.0926
  H  H143  1  0.922130  0.612970  0.681370  1.0  0.1076
  H  H144  1  0.925930  0.604670  0.874270  1.0  0.1089
  H  H145  1  0.754530  0.383170  0.923570  1.0  0.085
  H  H146  1  0.699230  0.396870  0.045270  1.0  0.1078
  H  H147  1  0.739630  0.488270  0.069270  1.0  0.1078
  H  H148  1  0.897930  0.589270  0.051470  1.0  0.0528
  H  H149  1  0.861830  0.540070  0.114870  1.0  0.0569
  H  H150  1  0.925030  0.523270  0.147370  1.0  0.0787
  H  H151  1  0.961030  0.575070  0.091870  1.0  0.0902
  H  H152  1  0.977730  0.491970  0.177470  1.0  0.1176
  H  H153  1  0.973030  0.539970  0.885870  1.0  0.0912
  H  H154  1  0.933600  0.423800  0.513000  1.0  0.104
  H  H155  1  0.964500  0.514500  0.499400  1.0  0.1085
  H  H156  1  0.939700  0.538300  0.665700  1.0  0.0876
  H  H157  1  0.893400  0.393900  0.035900  1.0  0.0919
  H  H158  1  0.946300  0.357500  0.985300  1.0  0.1067
  H  H159  1  0.938000  0.345400  0.792400  1.0  0.1073
  H  H160  1  0.716500  0.295300  0.743100  1.0  0.0853
  H  H161  1  0.730200  0.364300  0.621400  1.0  0.1073
  H  H162  1  0.821600  0.415300  0.597400  1.0  0.1061
  H  H163  1  0.922600  0.358000  0.615200  1.0  0.0563
  H  H164  1  0.873400  0.344900  0.551800  1.0  0.058
  H  H165  1  0.856600  0.264900  0.519300  1.0  0.0781
  H  H166  1  0.908400  0.280700  0.574800  1.0  0.0869
  H  H167  1  0.825300  0.180900  0.489200  1.0  0.1182
  H  H168  1  0.873300  0.233600  0.780800  1.0  0.0904
  H  H169  1  0.600270  0.757130  0.846330  1.0  0.104
  H  H170  1  0.631170  0.847830  0.832730  1.0  0.1085
  H  H171  1  0.606370  0.871630  0.999030  1.0  0.0876
  H  H172  1  0.560070  0.727230  0.369230  1.0  0.0919
  H  H173  1  0.612970  0.690830  0.318630  1.0  0.1068
  H  H174  1  0.604670  0.678730  0.125730  1.0  0.1073
  H  H175  1  0.383170  0.628630  0.076430  1.0  0.0853
  H  H176  1  0.396870  0.697630  0.954730  1.0  0.1073
  H  H177  1  0.488270  0.748630  0.930730  1.0  0.1061
  H  H178  1  0.589270  0.691330  0.948530  1.0  0.0563
  H  H179  1  0.540070  0.678230  0.885130  1.0  0.058
  H  H180  1  0.523270  0.598230  0.852630  1.0  0.0781
  H  H181  1  0.575070  0.614030  0.908130  1.0  0.0869
  H  H182  1  0.491970  0.514230  0.822530  1.0  0.1183
  H  H183  1  0.539970  0.566930  0.114130  1.0  0.0904
  H  H184  1  0.266930  0.090470  0.179670  1.0  0.104
  H  H185  1  0.297830  0.181170  0.166070  1.0  0.1085
  H  H186  1  0.273030  0.204970  0.332370  1.0  0.0876
  H  H187  1  0.226730  0.060570  0.702570  1.0  0.0919
  H  H188  1  0.279630  0.024170  0.651970  1.0  0.1068
  H  H189  1  0.271330  0.012070  0.459070  1.0  0.1073
  H  H190  1  0.049830  0.961970  0.409770  1.0  0.088
  H  H191  1  0.063530  0.030970  0.288070  1.0  0.1077
  H  H192  1  0.154930  0.081970  0.264070  1.0  0.1061
  H  H193  1  0.255930  0.024670  0.281870  1.0  0.0563
  H  H194  1  0.206730  0.011570  0.218470  1.0  0.058
  H  H195  1  0.189930  0.931570  0.185970  1.0  0.078
  H  H196  1  0.241730  0.947370  0.241470  1.0  0.0869
  H  H197  1  0.158630  0.847570  0.155870  1.0  0.1182
  H  H198  1  0.206630  0.900270  0.447470  1.0  0.0903
  H  H199  1  0.576200  0.509800  0.513000  1.0  0.1031
  H  H200  1  0.485500  0.450000  0.499400  1.0  0.1101
  H  H201  1  0.461700  0.401400  0.665700  1.0  0.0857
  H  H202  1  0.606100  0.499500  0.035900  1.0  0.0905
  H  H203  1  0.642500  0.588800  0.985300  1.0  0.1089
  H  H204  1  0.654600  0.592600  0.792400  1.0  0.1092
  H  H205  1  0.704700  0.421200  0.743100  1.0  0.0869
  H  H206  1  0.635700  0.365900  0.621400  1.0  0.1066
  H  H207  1  0.584700  0.406300  0.597400  1.0  0.1067
  H  H208  1  0.642000  0.564600  0.615200  1.0  0.0524
  H  H209  1  0.655100  0.528500  0.551800  1.0  0.0582
  H  H210  1  0.735100  0.591700  0.519300  1.0  0.0785
  H  H211  1  0.719300  0.627700  0.574800  1.0  0.0904
  H  H212  1  0.819100  0.644400  0.489200  1.0  0.1184
  H  H213  1  0.766400  0.639700  0.780800  1.0  0.0898
  H  H214  1  0.242870  0.843130  0.846330  1.0  0.1031
  H  H215  1  0.152170  0.783330  0.832730  1.0  0.1101
  H  H216  1  0.128370  0.734730  0.999030  1.0  0.0857
  H  H217  1  0.272770  0.832830  0.369230  1.0  0.0905
  H  H218  1  0.309170  0.922130  0.318630  1.0  0.1089
  H  H219  1  0.321270  0.925930  0.125730  1.0  0.1092
  H  H220  1  0.371370  0.754530  0.076430  1.0  0.0869
  H  H221  1  0.302370  0.699230  0.954730  1.0  0.1066
  H  H222  1  0.251370  0.739630  0.930730  1.0  0.1067
  H  H223  1  0.308670  0.897930  0.948530  1.0  0.0524
  H  H224  1  0.321770  0.861830  0.885130  1.0  0.0582
  H  H225  1  0.401770  0.925030  0.852630  1.0  0.0785
  H  H226  1  0.385970  0.961030  0.908130  1.0  0.0904
  H  H227  1  0.485770  0.977730  0.822530  1.0  0.1184
  H  H228  1  0.433070  0.973030  0.114130  1.0  0.0898
  H  H229  1  0.909530  0.176470  0.179670  1.0  0.1031
  H  H230  1  0.818830  0.116670  0.166070  1.0  0.1101
  H  H231  1  0.795030  0.068070  0.332370  1.0  0.0857
  H  H232  1  0.939430  0.166170  0.702570  1.0  0.0905
  H  H233  1  0.975830  0.255470  0.651970  1.0  0.109
  H  H234  1  0.987930  0.259270  0.459070  1.0  0.1092
  H  H235  1  0.038030  0.087870  0.409770  1.0  0.0844
  H  H236  1  0.969030  0.032570  0.288070  1.0  0.1063
  H  H237  1  0.918030  0.072970  0.264070  1.0  0.1067
  H  H238  1  0.975330  0.231270  0.281870  1.0  0.0524
  H  H239  1  0.988430  0.195170  0.218470  1.0  0.0582
  H  H240  1  0.068430  0.258370  0.185970  1.0  0.0786
  H  H241  1  0.052630  0.294370  0.241470  1.0  0.0904
  H  H242  1  0.152430  0.311070  0.155870  1.0  0.1184
  H  H243  1  0.099730  0.306370  0.447470  1.0  0.0898
  H  H244  1  0.490200  0.066400  0.513000  1.0  0.1039
  H  H245  1  0.550000  0.035500  0.499400  1.0  0.1097
  H  H246  1  0.598600  0.060300  0.665700  1.0  0.0857
  H  H247  1  0.500500  0.106600  0.035900  1.0  0.0914
  H  H248  1  0.411200  0.053700  0.985300  1.0  0.1082
  H  H249  1  0.407400  0.062000  0.792400  1.0  0.109
  H  H250  1  0.578800  0.283500  0.743100  1.0  0.085
  H  H251  1  0.634100  0.269800  0.621400  1.0  0.1074
  H  H252  1  0.593700  0.178400  0.597400  1.0  0.1073
  H  H253  1  0.435400  0.077400  0.615200  1.0  0.0517
  H  H254  1  0.471500  0.126600  0.551800  1.0  0.0583
  H  H255  1  0.408300  0.143400  0.519300  1.0  0.0796
  H  H256  1  0.372300  0.091600  0.574800  1.0  0.0873
  H  H257  1  0.355600  0.174700  0.489200  1.0  0.1182
  H  H258  1  0.360300  0.126700  0.780800  1.0  0.0907
  H  H259  1  0.156870  0.399730  0.846330  1.0  0.1039
  H  H260  1  0.216670  0.368830  0.832730  1.0  0.1097
  H  H261  1  0.265270  0.393630  0.999030  1.0  0.0857
  H  H262  1  0.167170  0.439930  0.369230  1.0  0.0914
  H  H263  1  0.077870  0.387030  0.318630  1.0  0.1083
  H  H264  1  0.074070  0.395330  0.125730  1.0  0.109
  H  H265  1  0.245470  0.616830  0.076430  1.0  0.085
  H  H266  1  0.300770  0.603130  0.954730  1.0  0.1074
  H  H267  1  0.260370  0.511730  0.930730  1.0  0.1073
  H  H268  1  0.102070  0.410730  0.948530  1.0  0.0517
  H  H269  1  0.138170  0.459930  0.885130  1.0  0.0583
  H  H270  1  0.074970  0.476730  0.852630  1.0  0.0796
  H  H271  1  0.038970  0.424930  0.908130  1.0  0.0873
  H  H272  1  0.022270  0.508030  0.822530  1.0  0.1182
  H  H273  1  0.026970  0.460030  0.114130  1.0  0.0907
  H  H274  1  0.823530  0.733070  0.179670  1.0  0.1039
  H  H275  1  0.883330  0.702170  0.166070  1.0  0.1097
  H  H276  1  0.931930  0.726970  0.332370  1.0  0.0857
  H  H277  1  0.833830  0.773270  0.702570  1.0  0.0914
  H  H278  1  0.744530  0.720370  0.651970  1.0  0.1082
  H  H279  1  0.740730  0.728670  0.459070  1.0  0.109
  H  H280  1  0.912130  0.950170  0.409770  1.0  0.085
  H  H281  1  0.967430  0.936470  0.288070  1.0  0.1074
  H  H282  1  0.927030  0.845070  0.264070  1.0  0.1073
  H  H283  1  0.768730  0.744070  0.281870  1.0  0.0517
  H  H284  1  0.804830  0.793270  0.218470  1.0  0.0583
  H  H285  1  0.741630  0.810070  0.185970  1.0  0.0794
  H  H286  1  0.705630  0.758270  0.241470  1.0  0.0873
  H  H287  1  0.688930  0.841370  0.155870  1.0  0.1182
  H  H288  1  0.693630  0.793370  0.447470  1.0  0.0907
  C  C289  1  0.122630  0.622020  0.304300  1.0  0.119
  C  C290  1  0.070500  0.556200  0.436600  1.0  -0.1167
  C  C291  1  0.053400  0.506700  0.444200  1.0  -0.1237
  C  C292  1  0.067700  0.494180  0.351700  1.0  0.0475
  C  C293  1  0.102500  0.614480  0.033300  1.0  0.0508
  C  C294  1  0.072900  0.634910  0.060400  1.0  -0.1457
  C  C295  1  0.077570  0.641440  0.165000  1.0  -0.1087
  C  C296  1  0.252200  0.679700  0.281400  1.0  0.0434
  C  C297  1  0.245200  0.641200  0.348600  1.0  -0.121
  C  C298  1  0.195400  0.613700  0.361500  1.0  -0.1108
  C  C299  1  0.113310  0.655140  0.378000  1.0  0.024
  C  C300  1  0.127400  0.733870  0.413000  1.0  -0.0206
  C  C301  1  0.148470  0.785190  0.369300  1.0  0.0767
  C  C302  1  0.171610  0.824790  0.439000  1.0  -0.1333
  C  C303  1  0.143120  0.793540  0.265600  1.0  -0.1111
  C  C304  1  0.789300  0.955350  0.637630  1.0  0.119
  C  C305  1  0.737170  0.889530  0.769930  1.0  -0.1167
  C  C306  1  0.720070  0.840030  0.777530  1.0  -0.1237
  C  C307  1  0.734370  0.827510  0.685030  1.0  0.0476
  C  C308  1  0.769170  0.947810  0.366630  1.0  0.0508
  C  C309  1  0.739570  0.968240  0.393730  1.0  -0.1457
  C  C310  1  0.744240  0.974770  0.498330  1.0  -0.1087
  C  C311  1  0.918870  0.013030  0.614730  1.0  0.0434
  C  C312  1  0.911870  0.974530  0.681930  1.0  -0.121
  C  C313  1  0.862070  0.947030  0.694830  1.0  -0.1108
  C  C314  1  0.779980  0.988470  0.711330  1.0  0.024
  C  C315  1  0.794070  0.067200  0.746330  1.0  -0.0206
  C  C316  1  0.815140  0.118520  0.702630  1.0  0.077
  C  C317  1  0.838280  0.158120  0.772330  1.0  -0.1333
  C  C318  1  0.809790  0.126870  0.598930  1.0  -0.1112
  C  C319  1  0.455960  0.288690  0.970970  1.0  0.119
  C  C320  1  0.403830  0.222870  0.103270  1.0  -0.1167
  C  C321  1  0.386730  0.173370  0.110870  1.0  -0.1237
  C  C322  1  0.401030  0.160850  0.018370  1.0  0.0475
  C  C323  1  0.435830  0.281150  0.699970  1.0  0.051
  C  C324  1  0.406230  0.301580  0.727070  1.0  -0.1457
  C  C325  1  0.410900  0.308110  0.831670  1.0  -0.1087
  C  C326  1  0.585530  0.346370  0.948070  1.0  0.0434
  C  C327  1  0.578530  0.307870  0.015270  1.0  -0.121
  C  C328  1  0.528730  0.280370  0.028170  1.0  -0.1108
  C  C329  1  0.446640  0.321810  0.044670  1.0  0.024
  C  C330  1  0.460730  0.400540  0.079670  1.0  -0.0206
  C  C331  1  0.481800  0.451860  0.035970  1.0  0.0618
  C  C332  1  0.504940  0.491460  0.105670  1.0  -0.1328
  C  C333  1  0.476450  0.460210  0.932270  1.0  -0.1113
  C  C334  1  0.377980  0.500610  0.304300  1.0  0.1193
  C  C335  1  0.443800  0.514300  0.436600  1.0  -0.1175
  C  C336  1  0.493300  0.546700  0.444200  1.0  -0.1205
  C  C337  1  0.505820  0.573520  0.351700  1.0  0.0493
  C  C338  1  0.385520  0.488020  0.033300  1.0  0.0536
  C  C339  1  0.365090  0.437990  0.060400  1.0  -0.1488
  C  C340  1  0.358560  0.436130  0.165000  1.0  -0.1077
  C  C341  1  0.320300  0.572500  0.281400  1.0  0.0446
  C  C342  1  0.358800  0.604000  0.348600  1.0  -0.1256
  C  C343  1  0.386300  0.581700  0.361500  1.0  -0.1142
  C  C344  1  0.344860  0.458170  0.378000  1.0  0.0272
  C  C345  1  0.266130  0.393530  0.413000  1.0  -0.0199
  C  C346  1  0.214810  0.363280  0.369300  1.0  0.0776
  C  C347  1  0.175210  0.346820  0.439000  1.0  -0.1302
  C  C348  1  0.206460  0.349580  0.265600  1.0  -0.1145
  C  C349  1  0.044650  0.833940  0.637630  1.0  0.1193
  C  C350  1  0.110470  0.847630  0.769930  1.0  -0.1175
  C  C351  1  0.159970  0.880030  0.777530  1.0  -0.1205
  C  C352  1  0.172490  0.906850  0.685030  1.0  0.0493
  C  C353  1  0.052190  0.821350  0.366630  1.0  0.0539
  C  C354  1  0.031760  0.771320  0.393730  1.0  -0.1488
  C  C355  1  0.025230  0.769460  0.498330  1.0  -0.1077
  C  C356  1  0.986970  0.905830  0.614730  1.0  0.0446
  C  C357  1  0.025470  0.937330  0.681930  1.0  -0.1256
  C  C358  1  0.052970  0.915030  0.694830  1.0  -0.1142
  C  C359  1  0.011530  0.791500  0.711330  1.0  0.0272
  C  C360  1  0.932800  0.726860  0.746330  1.0  -0.0199
  C  C361  1  0.881480  0.696610  0.702630  1.0  0.0776
  C  C362  1  0.841880  0.680150  0.772330  1.0  -0.1302
  C  C363  1  0.873130  0.682910  0.598930  1.0  -0.1144
  C  C364  1  0.711310  0.167280  0.970970  1.0  0.1193
  C  C365  1  0.777130  0.180970  0.103270  1.0  -0.1175
  C  C366  1  0.826630  0.213370  0.110870  1.0  -0.1204
  C  C367  1  0.839150  0.240190  0.018370  1.0  0.0492
  C  C368  1  0.718850  0.154690  0.699970  1.0  0.0537
  C  C369  1  0.698420  0.104660  0.727070  1.0  -0.1489
  C  C370  1  0.691890  0.102800  0.831670  1.0  -0.1078
  C  C371  1  0.653630  0.239170  0.948070  1.0  0.0446
  C  C372  1  0.692130  0.270670  0.015270  1.0  -0.1256
  C  C373  1  0.719630  0.248370  0.028170  1.0  -0.1142
  C  C374  1  0.678190  0.124840  0.044670  1.0  0.0272
  C  C375  1  0.599460  0.060200  0.079670  1.0  -0.0199
  C  C376  1  0.548140  0.029950  0.035970  1.0  0.0623
  C  C377  1  0.508540  0.013490  0.105670  1.0  -0.1306
  C  C378  1  0.539790  0.016250  0.932270  1.0  -0.1152
  C  C379  1  0.499390  0.877370  0.304300  1.0  0.119
  C  C380  1  0.485700  0.929500  0.436600  1.0  -0.1165
  C  C381  1  0.453300  0.946600  0.444200  1.0  -0.121
  C  C382  1  0.426480  0.932300  0.351700  1.0  0.0486
  C  C383  1  0.511980  0.897500  0.033300  1.0  0.0515
  C  C384  1  0.562010  0.927100  0.060400  1.0  -0.1461
  C  C385  1  0.563870  0.922430  0.165000  1.0  -0.1098
  C  C386  1  0.427500  0.747800  0.281400  1.0  0.0456
  C  C387  1  0.396000  0.754800  0.348600  1.0  -0.125
  C  C388  1  0.418300  0.804600  0.361500  1.0  -0.1123
  C  C389  1  0.541830  0.886690  0.378000  1.0  0.0274
  C  C390  1  0.606470  0.872600  0.413000  1.0  -0.0204
  C  C391  1  0.636720  0.851530  0.369300  1.0  0.0622
  C  C392  1  0.653180  0.828390  0.439000  1.0  -0.1316
  C  C393  1  0.650420  0.856880  0.265600  1.0  -0.1138
  C  C394  1  0.166060  0.210700  0.637630  1.0  0.119
  C  C395  1  0.152370  0.262830  0.769930  1.0  -0.1165
  C  C396  1  0.119970  0.279930  0.777530  1.0  -0.121
  C  C397  1  0.093150  0.265630  0.685030  1.0  0.0486
  C  C398  1  0.178650  0.230830  0.366630  1.0  0.0515
  C  C399  1  0.228680  0.260430  0.393730  1.0  -0.146
  C  C400  1  0.230540  0.255760  0.498330  1.0  -0.1098
  C  C401  1  0.094170  0.081130  0.614730  1.0  0.0456
  C  C402  1  0.062670  0.088130  0.681930  1.0  -0.125
  C  C403  1  0.084970  0.137930  0.694830  1.0  -0.1123
  C  C404  1  0.208500  0.220020  0.711330  1.0  0.0274
  C  C405  1  0.273140  0.205930  0.746330  1.0  -0.0204
  C  C406  1  0.303390  0.184860  0.702630  1.0  0.0622
  C  C407  1  0.319850  0.161720  0.772330  1.0  -0.1318
  C  C408  1  0.317090  0.190210  0.598930  1.0  -0.1138
  C  C409  1  0.832720  0.544040  0.970970  1.0  0.119
  C  C410  1  0.819030  0.596170  0.103270  1.0  -0.1165
  C  C411  1  0.786630  0.613270  0.110870  1.0  -0.121
  C  C412  1  0.759810  0.598970  0.018370  1.0  0.0486
  C  C413  1  0.845310  0.564170  0.699970  1.0  0.0515
  C  C414  1  0.895340  0.593770  0.727070  1.0  -0.1459
  C  C415  1  0.897200  0.589100  0.831670  1.0  -0.1098
  C  C416  1  0.760830  0.414470  0.948070  1.0  0.0456
  C  C417  1  0.729330  0.421470  0.015270  1.0  -0.125
  C  C418  1  0.751630  0.471270  0.028170  1.0  -0.1123
  C  C419  1  0.875160  0.553360  0.044670  1.0  0.0274
  C  C420  1  0.939800  0.539270  0.079670  1.0  -0.0204
  C  C421  1  0.970050  0.518200  0.035970  1.0  0.0776
  C  C422  1  0.986510  0.495060  0.105670  1.0  -0.1322
  C  C423  1  0.983750  0.523550  0.932270  1.0  -0.1131
  C  C424  1  0.877370  0.377980  0.695700  1.0  0.1182
  C  C425  1  0.929500  0.443800  0.563400  1.0  -0.119
  C  C426  1  0.946600  0.493300  0.555800  1.0  -0.1244
  C  C427  1  0.932300  0.505820  0.648300  1.0  0.0487
  C  C428  1  0.897500  0.385520  0.966700  1.0  0.0493
  C  C429  1  0.927100  0.365090  0.939600  1.0  -0.1459
  C  C430  1  0.922430  0.358560  0.835000  1.0  -0.1067
  C  C431  1  0.747800  0.320300  0.718600  1.0  0.0432
  C  C432  1  0.754800  0.358800  0.651400  1.0  -0.122
  C  C433  1  0.804600  0.386300  0.638500  1.0  -0.1091
  C  C434  1  0.886690  0.344860  0.622000  1.0  0.0231
  C  C435  1  0.872600  0.266130  0.587000  1.0  -0.0192
  C  C436  1  0.851530  0.214810  0.630700  1.0  0.0754
  C  C437  1  0.828390  0.175210  0.561000  1.0  -0.1273
  C  C438  1  0.856880  0.206460  0.734400  1.0  -0.1112
  C  C439  1  0.544040  0.711310  0.029030  1.0  0.1182
  C  C440  1  0.596170  0.777130  0.896730  1.0  -0.119
  C  C441  1  0.613270  0.826630  0.889130  1.0  -0.1244
  C  C442  1  0.598970  0.839150  0.981630  1.0  0.0487
  C  C443  1  0.564170  0.718850  0.300030  1.0  0.0494
  C  C444  1  0.593770  0.698420  0.272930  1.0  -0.1459
  C  C445  1  0.589100  0.691890  0.168330  1.0  -0.1067
  C  C446  1  0.414470  0.653630  0.051930  1.0  0.0432
  C  C447  1  0.421470  0.692130  0.984730  1.0  -0.122
  C  C448  1  0.471270  0.719630  0.971830  1.0  -0.1091
  C  C449  1  0.553360  0.678190  0.955330  1.0  0.0231
  C  C450  1  0.539270  0.599460  0.920330  1.0  -0.0192
  C  C451  1  0.518200  0.548140  0.964030  1.0  0.0606
  C  C452  1  0.495060  0.508540  0.894330  1.0  -0.1267
  C  C453  1  0.523550  0.539790  0.067730  1.0  -0.111
  C  C454  1  0.210700  0.044650  0.362370  1.0  0.1182
  C  C455  1  0.262830  0.110470  0.230070  1.0  -0.119
  C  C456  1  0.279930  0.159970  0.222470  1.0  -0.1244
  C  C457  1  0.265630  0.172490  0.314970  1.0  0.0487
  C  C458  1  0.230830  0.052190  0.633370  1.0  0.0493
  C  C459  1  0.260430  0.031760  0.606270  1.0  -0.1459
  C  C460  1  0.255760  0.025230  0.501670  1.0  -0.1067
  C  C461  1  0.081130  0.986970  0.385270  1.0  0.0432
  C  C462  1  0.088130  0.025470  0.318070  1.0  -0.122
  C  C463  1  0.137930  0.052970  0.305170  1.0  -0.1091
  C  C464  1  0.220020  0.011530  0.288670  1.0  0.0231
  C  C465  1  0.205930  0.932800  0.253670  1.0  -0.0192
  C  C466  1  0.184860  0.881480  0.297370  1.0  0.0757
  C  C467  1  0.161720  0.841880  0.227670  1.0  -0.1273
  C  C468  1  0.190210  0.873130  0.401070  1.0  -0.1113
  C  C469  1  0.622020  0.499390  0.695700  1.0  0.1183
  C  C470  1  0.556200  0.485700  0.563400  1.0  -0.1181
  C  C471  1  0.506700  0.453300  0.555800  1.0  -0.1237
  C  C472  1  0.494180  0.426480  0.648300  1.0  0.0481
  C  C473  1  0.614480  0.511980  0.966700  1.0  0.0531
  C  C474  1  0.634910  0.562010  0.939600  1.0  -0.1496
  C  C475  1  0.641440  0.563870  0.835000  1.0  -0.1086
  C  C476  1  0.679700  0.427500  0.718600  1.0  0.0451
  C  C477  1  0.641200  0.396000  0.651400  1.0  -0.1264
  C  C478  1  0.613700  0.418300  0.638500  1.0  -0.111
  C  C479  1  0.655140  0.541830  0.622000  1.0  0.025
  C  C480  1  0.733870  0.606470  0.587000  1.0  -0.0209
  C  C481  1  0.785190  0.636720  0.630700  1.0  0.0764
  C  C482  1  0.824790  0.653180  0.561000  1.0  -0.1279
  C  C483  1  0.793540  0.650420  0.734400  1.0  -0.1133
  C  C484  1  0.288690  0.832720  0.029030  1.0  0.1183
  C  C485  1  0.222870  0.819030  0.896730  1.0  -0.1181
  C  C486  1  0.173370  0.786630  0.889130  1.0  -0.1237
  C  C487  1  0.160850  0.759810  0.981630  1.0  0.0479
  C  C488  1  0.281150  0.845310  0.300030  1.0  0.0532
  C  C489  1  0.301580  0.895340  0.272930  1.0  -0.1497
  C  C490  1  0.308110  0.897200  0.168330  1.0  -0.1086
  C  C491  1  0.346370  0.760830  0.051930  1.0  0.0451
  C  C492  1  0.307870  0.729330  0.984730  1.0  -0.1264
  C  C493  1  0.280370  0.751630  0.971830  1.0  -0.111
  C  C494  1  0.321810  0.875160  0.955330  1.0  0.025
  C  C495  1  0.400540  0.939800  0.920330  1.0  -0.0209
  C  C496  1  0.451860  0.970050  0.964030  1.0  0.0608
  C  C497  1  0.491460  0.986510  0.894330  1.0  -0.1282
  C  C498  1  0.460210  0.983750  0.067730  1.0  -0.1139
  C  C499  1  0.955350  0.166060  0.362370  1.0  0.1183
  C  C500  1  0.889530  0.152370  0.230070  1.0  -0.1181
  C  C501  1  0.840030  0.119970  0.222470  1.0  -0.1237
  C  C502  1  0.827510  0.093150  0.314970  1.0  0.048
  C  C503  1  0.947810  0.178650  0.633370  1.0  0.0533
  C  C504  1  0.968240  0.228680  0.606270  1.0  -0.1496
  C  C505  1  0.974770  0.230540  0.501670  1.0  -0.1086
  C  C506  1  0.013030  0.094170  0.385270  1.0  0.0451
  C  C507  1  0.974530  0.062670  0.318070  1.0  -0.1264
  C  C508  1  0.947030  0.084970  0.305170  1.0  -0.111
  C  C509  1  0.988470  0.208500  0.288670  1.0  0.025
  C  C510  1  0.067200  0.273140  0.253670  1.0  -0.0209
  C  C511  1  0.118520  0.303390  0.297370  1.0  0.0764
  C  C512  1  0.158120  0.319850  0.227670  1.0  -0.1279
  C  C513  1  0.126870  0.317090  0.401070  1.0  -0.1132
  C  C514  1  0.500610  0.122630  0.695700  1.0  0.118
  C  C515  1  0.514300  0.070500  0.563400  1.0  -0.1172
  C  C516  1  0.546700  0.053400  0.555800  1.0  -0.1235
  C  C517  1  0.573520  0.067700  0.648300  1.0  0.049
  C  C518  1  0.488020  0.102500  0.966700  1.0  0.0518
  C  C519  1  0.437990  0.072900  0.939600  1.0  -0.1471
  C  C520  1  0.436130  0.077570  0.835000  1.0  -0.1091
  C  C521  1  0.572500  0.252200  0.718600  1.0  0.0435
  C  C522  1  0.604000  0.245200  0.651400  1.0  -0.1243
  C  C523  1  0.581700  0.195400  0.638500  1.0  -0.108
  C  C524  1  0.458170  0.113310  0.622000  1.0  0.0251
  C  C525  1  0.393530  0.127400  0.587000  1.0  -0.0207
  C  C526  1  0.363280  0.148470  0.630700  1.0  0.0603
  C  C527  1  0.346820  0.171610  0.561000  1.0  -0.1293
  C  C528  1  0.349580  0.143120  0.734400  1.0  -0.1134
  C  C529  1  0.167280  0.455960  0.029030  1.0  0.118
  C  C530  1  0.180970  0.403830  0.896730  1.0  -0.1172
  C  C531  1  0.213370  0.386730  0.889130  1.0  -0.1236
  C  C532  1  0.240190  0.401030  0.981630  1.0  0.049
  C  C533  1  0.154690  0.435830  0.300030  1.0  0.0518
  C  C534  1  0.104660  0.406230  0.272930  1.0  -0.1469
  C  C535  1  0.102800  0.410900  0.168330  1.0  -0.1091
  C  C536  1  0.239170  0.585530  0.051930  1.0  0.0435
  C  C537  1  0.270670  0.578530  0.984730  1.0  -0.1243
  C  C538  1  0.248370  0.528730  0.971830  1.0  -0.108
  C  C539  1  0.124840  0.446640  0.955330  1.0  0.0251
  C  C540  1  0.060200  0.460730  0.920330  1.0  -0.0207
  C  C541  1  0.029950  0.481800  0.964030  1.0  0.0757
  C  C542  1  0.013490  0.504940  0.894330  1.0  -0.1298
  C  C543  1  0.016250  0.476450  0.067730  1.0  -0.1126
  C  C544  1  0.833940  0.789300  0.362370  1.0  0.118
  C  C545  1  0.847630  0.737170  0.230070  1.0  -0.1172
  C  C546  1  0.880030  0.720070  0.222470  1.0  -0.1235
  C  C547  1  0.906850  0.734370  0.314970  1.0  0.049
  C  C548  1  0.821350  0.769170  0.633370  1.0  0.0519
  C  C549  1  0.771320  0.739570  0.606270  1.0  -0.1471
  C  C550  1  0.769460  0.744240  0.501670  1.0  -0.1091
  C  C551  1  0.905830  0.918870  0.385270  1.0  0.0435
  C  C552  1  0.937330  0.911870  0.318070  1.0  -0.1242
  C  C553  1  0.915030  0.862070  0.305170  1.0  -0.108
  C  C554  1  0.791500  0.779980  0.288670  1.0  0.0251
  C  C555  1  0.726860  0.794070  0.253670  1.0  -0.0207
  C  C556  1  0.696610  0.815140  0.297370  1.0  0.0603
  C  C557  1  0.680150  0.838280  0.227670  1.0  -0.1295
  C  C558  1  0.682910  0.809790  0.401070  1.0  -0.1134
  N  N559  1  0.123920  0.608520  0.116600  1.0  -0.3269
  N  N560  1  0.108670  0.625610  0.198000  1.0  0.1009
  N  N561  1  0.094100  0.571320  0.344700  1.0  0.0944
  N  N562  1  0.092760  0.532930  0.291200  1.0  -0.2991
  N  N563  1  0.209550  0.676490  0.256300  1.0  -0.3202
  N  N564  1  0.174650  0.635180  0.305300  1.0  0.1167
  N  N565  1  0.790590  0.941850  0.449930  1.0  -0.3269
  N  N566  1  0.775340  0.958940  0.531330  1.0  0.1009
  N  N567  1  0.760770  0.904650  0.678030  1.0  0.0944
  N  N568  1  0.759430  0.866260  0.624530  1.0  -0.2991
  N  N569  1  0.876220  0.009820  0.589630  1.0  -0.3201
  N  N570  1  0.841320  0.968510  0.638630  1.0  0.1167
  N  N571  1  0.457250  0.275190  0.783270  1.0  -0.3269
  N  N572  1  0.442000  0.292280  0.864670  1.0  0.1009
  N  N573  1  0.427430  0.237990  0.011370  1.0  0.0944
  N  N574  1  0.426090  0.199600  0.957870  1.0  -0.2991
  N  N575  1  0.542880  0.343160  0.922970  1.0  -0.3202
  N  N576  1  0.507980  0.301850  0.971970  1.0  0.1167
  N  N577  1  0.391480  0.515400  0.116600  1.0  -0.3267
  N  N578  1  0.374390  0.483060  0.198000  1.0  0.1023
  N  N579  1  0.428680  0.522780  0.344700  1.0  0.0951
  N  N580  1  0.467070  0.559830  0.291200  1.0  -0.2998
  N  N581  1  0.323510  0.533060  0.256300  1.0  -0.3202
  N  N582  1  0.364820  0.539470  0.305300  1.0  0.1155
  N  N583  1  0.058150  0.848730  0.449930  1.0  -0.3269
  N  N584  1  0.041060  0.816390  0.531330  1.0  0.1023
  N  N585  1  0.095350  0.856110  0.678030  1.0  0.0951
  N  N586  1  0.133740  0.893160  0.624530  1.0  -0.2998
  N  N587  1  0.990180  0.866390  0.589630  1.0  -0.3202
  N  N588  1  0.031490  0.872800  0.638630  1.0  0.1155
  N  N589  1  0.724810  0.182070  0.783270  1.0  -0.3268
  N  N590  1  0.707720  0.149730  0.864670  1.0  0.1023
  N  N591  1  0.762010  0.189450  0.011370  1.0  0.0951
  N  N592  1  0.800400  0.226500  0.957870  1.0  -0.2998
  N  N593  1  0.656840  0.199730  0.922970  1.0  -0.3202
  N  N594  1  0.698150  0.206140  0.971970  1.0  0.1155
  N  N595  1  0.484600  0.876080  0.116600  1.0  -0.3279
  N  N596  1  0.516940  0.891330  0.198000  1.0  0.1021
  N  N597  1  0.477220  0.905900  0.344700  1.0  0.0946
  N  N598  1  0.440170  0.907240  0.291200  1.0  -0.2987
  N  N599  1  0.466940  0.790450  0.256300  1.0  -0.3206
  N  N600  1  0.460530  0.825350  0.305300  1.0  0.1168
  N  N601  1  0.151270  0.209410  0.449930  1.0  -0.3279
  N  N602  1  0.183610  0.224660  0.531330  1.0  0.1021
  N  N603  1  0.143890  0.239230  0.678030  1.0  0.0946
  N  N604  1  0.106840  0.240570  0.624530  1.0  -0.2986
  N  N605  1  0.133610  0.123780  0.589630  1.0  -0.3206
  N  N606  1  0.127200  0.158680  0.638630  1.0  0.1168
  N  N607  1  0.817930  0.542750  0.783270  1.0  -0.3279
  N  N608  1  0.850270  0.558000  0.864670  1.0  0.1021
  N  N609  1  0.810550  0.572570  0.011370  1.0  0.0946
  N  N610  1  0.773500  0.573910  0.957870  1.0  -0.2986
  N  N611  1  0.800270  0.457120  0.922970  1.0  -0.3206
  N  N612  1  0.793860  0.492020  0.971970  1.0  0.1168
  N  N613  1  0.876080  0.391480  0.883400  1.0  -0.3261
  N  N614  1  0.891330  0.374390  0.802000  1.0  0.1018
  N  N615  1  0.905900  0.428680  0.655300  1.0  0.0964
  N  N616  1  0.907240  0.467070  0.708800  1.0  -0.2995
  N  N617  1  0.790450  0.323510  0.743700  1.0  -0.3199
  N  N618  1  0.825350  0.364820  0.694700  1.0  0.1163
  N  N619  1  0.542750  0.724810  0.216730  1.0  -0.3261
  N  N620  1  0.558000  0.707720  0.135330  1.0  0.1018
  N  N621  1  0.572570  0.762010  0.988630  1.0  0.0964
  N  N622  1  0.573910  0.800400  0.042130  1.0  -0.2995
  N  N623  1  0.457120  0.656840  0.077030  1.0  -0.3199
  N  N624  1  0.492020  0.698150  0.028030  1.0  0.1163
  N  N625  1  0.209410  0.058150  0.550070  1.0  -0.3261
  N  N626  1  0.224660  0.041060  0.468670  1.0  0.1018
  N  N627  1  0.239230  0.095350  0.321970  1.0  0.0964
  N  N628  1  0.240570  0.133740  0.375470  1.0  -0.2995
  N  N629  1  0.123780  0.990180  0.410370  1.0  -0.3199
  N  N630  1  0.158680  0.031490  0.361370  1.0  0.1163
  N  N631  1  0.608520  0.484600  0.883400  1.0  -0.3255
  N  N632  1  0.625610  0.516940  0.802000  1.0  0.1026
  N  N633  1  0.571320  0.477220  0.655300  1.0  0.0963
  N  N634  1  0.532930  0.440170  0.708800  1.0  -0.3
  N  N635  1  0.676490  0.466940  0.743700  1.0  -0.3172
  N  N636  1  0.635180  0.460530  0.694700  1.0  0.115
  N  N637  1  0.275190  0.817930  0.216730  1.0  -0.3256
  N  N638  1  0.292280  0.850270  0.135330  1.0  0.1026
  N  N639  1  0.237990  0.810550  0.988630  1.0  0.0963
  N  N640  1  0.199600  0.773500  0.042130  1.0  -0.3
  N  N641  1  0.343160  0.800270  0.077030  1.0  -0.3172
  N  N642  1  0.301850  0.793860  0.028030  1.0  0.1149
  N  N643  1  0.941850  0.151270  0.550070  1.0  -0.3255
  N  N644  1  0.958940  0.183610  0.468670  1.0  0.1026
  N  N645  1  0.904650  0.143890  0.321970  1.0  0.0963
  N  N646  1  0.866260  0.106840  0.375470  1.0  -0.3
  N  N647  1  0.009820  0.133610  0.410370  1.0  -0.3173
  N  N648  1  0.968510  0.127200  0.361370  1.0  0.1149
  N  N649  1  0.515400  0.123920  0.883400  1.0  -0.3263
  N  N650  1  0.483060  0.108670  0.802000  1.0  0.1014
  N  N651  1  0.522780  0.094100  0.655300  1.0  0.0966
  N  N652  1  0.559830  0.092760  0.708800  1.0  -0.297
  N  N653  1  0.533060  0.209550  0.743700  1.0  -0.3213
  N  N654  1  0.539470  0.174650  0.694700  1.0  0.1149
  N  N655  1  0.182070  0.457250  0.216730  1.0  -0.3263
  N  N656  1  0.149730  0.442000  0.135330  1.0  0.1014
  N  N657  1  0.189450  0.427430  0.988630  1.0  0.0966
  N  N658  1  0.226500  0.426090  0.042130  1.0  -0.297
  N  N659  1  0.199730  0.542880  0.077030  1.0  -0.3213
  N  N660  1  0.206140  0.507980  0.028030  1.0  0.1149
  N  N661  1  0.848730  0.790590  0.550070  1.0  -0.3263
  N  N662  1  0.816390  0.775340  0.468670  1.0  0.1014
  N  N663  1  0.856110  0.760770  0.321970  1.0  0.0966
  N  N664  1  0.893160  0.759430  0.375470  1.0  -0.297
  N  N665  1  0.866390  0.876220  0.410370  1.0  -0.3212
  N  N666  1  0.872800  0.841320  0.361370  1.0  0.1149
  O  O667  1  0.136000  0.703670  0.339500  1.0  -0.4232
  O  O668  1  0.802670  0.037000  0.672830  1.0  -0.4232
  O  O669  1  0.469330  0.370340  0.006170  1.0  -0.4235
  O  O670  1  0.296330  0.432330  0.339500  1.0  -0.424
  O  O671  1  0.963000  0.765660  0.672830  1.0  -0.4239
  O  O672  1  0.629660  0.099000  0.006170  1.0  -0.4237
  O  O673  1  0.567670  0.864000  0.339500  1.0  -0.4233
  O  O674  1  0.234340  0.197330  0.672830  1.0  -0.4233
  O  O675  1  0.901000  0.530670  0.006170  1.0  -0.4231
  O  O676  1  0.864000  0.296330  0.660500  1.0  -0.4223
  O  O677  1  0.530670  0.629660  0.993830  1.0  -0.4226
  O  O678  1  0.197330  0.963000  0.327170  1.0  -0.4223
  O  O679  1  0.703670  0.567670  0.660500  1.0  -0.4204
  O  O680  1  0.370340  0.901000  0.993830  1.0  -0.4202
  O  O681  1  0.037000  0.234340  0.327170  1.0  -0.4204
  O  O682  1  0.432330  0.136000  0.660500  1.0  -0.423
  O  O683  1  0.099000  0.469330  0.993830  1.0  -0.4228
  O  O684  1  0.765660  0.802670  0.327170  1.0  -0.423
