# generated using pymatgen
data_SmH7(C5O2)3
_symmetry_space_group_name_H-M   'P 1'
_cell_length_a   24.58500000
_cell_length_b   13.17260000
_cell_length_c   14.82900000
_cell_angle_alpha   90.00000000
_cell_angle_beta   96.41900000
_cell_angle_gamma   90.00000000
_symmetry_Int_Tables_number   1
_chemical_formula_structural   SmH7(C5O2)3
_chemical_formula_sum   'Sm8 H56 C120 O48'
_cell_volume   4772.24109700
_cell_formula_units_Z   8
loop_
 _symmetry_equiv_pos_site_id
 _symmetry_equiv_pos_as_xyz
  1  'x, y, z'
loop_
 _atom_site_type_symbol
 _atom_site_label
 _atom_site_symmetry_multiplicity
 _atom_site_fract_x
 _atom_site_fract_y
 _atom_site_fract_z
 _atom_site_occupancy
 _atom_site_charge
  Sm  Sm1  1  0.328280  0.792400  0.030050  1.0  2.2374
  Sm  Sm2  1  0.828270  0.292400  0.030050  1.0  2.2429
  Sm  Sm3  1  0.671720  0.792400  0.469950  1.0  2.2355
  Sm  Sm4  1  0.171720  0.292400  0.469950  1.0  2.2355
  Sm  Sm5  1  0.671720  0.207600  0.969940  1.0  2.2444
  Sm  Sm6  1  0.171720  0.707600  0.969950  1.0  2.2381
  Sm  Sm7  1  0.328280  0.207600  0.530050  1.0  2.2372
  Sm  Sm8  1  0.828270  0.707600  0.530050  1.0  2.2428
  H  H9  1  0.498900  0.167300  0.120800  1.0  0.1006
  H  H10  1  0.417400  0.219100  0.168800  1.0  0.1105
  H  H11  1  0.450200  0.505400  0.104100  1.0  0.1068
  H  H12  1  0.532200  0.452800  0.058200  1.0  0.0941
  H  H13  1  0.367700  0.305000  0.270200  1.0  0.0985
  H  H14  1  0.227300  0.458400  0.212000  1.0  0.1102
  H  H15  1  0.353700  0.508700  0.068100  1.0  0.1024
  H  H16  1  0.998900  0.667300  0.120800  1.0  0.1006
  H  H17  1  0.917400  0.719100  0.168800  1.0  0.1105
  H  H18  1  0.950200  0.005400  0.104100  1.0  0.1068
  H  H19  1  0.032200  0.952800  0.058200  1.0  0.0941
  H  H20  1  0.867700  0.805000  0.270200  1.0  0.0986
  H  H21  1  0.727300  0.958400  0.212000  1.0  0.1102
  H  H22  1  0.853700  0.008700  0.068100  1.0  0.1024
  H  H23  1  0.501100  0.167300  0.379200  1.0  0.1009
  H  H24  1  0.582600  0.219100  0.331200  1.0  0.1113
  H  H25  1  0.549800  0.505400  0.395900  1.0  0.1077
  H  H26  1  0.467800  0.452800  0.441800  1.0  0.0942
  H  H27  1  0.632300  0.305000  0.229800  1.0  0.0988
  H  H28  1  0.772700  0.458400  0.288000  1.0  0.1094
  H  H29  1  0.646300  0.508700  0.431900  1.0  0.1026
  H  H30  1  0.001100  0.667300  0.379200  1.0  0.1009
  H  H31  1  0.082600  0.719100  0.331200  1.0  0.1113
  H  H32  1  0.049800  0.005400  0.395900  1.0  0.1077
  H  H33  1  0.967800  0.952800  0.441800  1.0  0.0942
  H  H34  1  0.132300  0.805000  0.229800  1.0  0.0987
  H  H35  1  0.272700  0.958400  0.288000  1.0  0.1094
  H  H36  1  0.146300  0.008700  0.431900  1.0  0.1026
  H  H37  1  0.501100  0.832700  0.879200  1.0  0.1019
  H  H38  1  0.582600  0.780900  0.831200  1.0  0.1117
  H  H39  1  0.549800  0.494600  0.895900  1.0  0.1072
  H  H40  1  0.467800  0.547200  0.941800  1.0  0.0941
  H  H41  1  0.632300  0.695000  0.729800  1.0  0.099
  H  H42  1  0.772700  0.541600  0.788000  1.0  0.1092
  H  H43  1  0.646300  0.491300  0.931900  1.0  0.1031
  H  H44  1  0.001100  0.332700  0.879200  1.0  0.1019
  H  H45  1  0.082600  0.280900  0.831200  1.0  0.1117
  H  H46  1  0.049800  0.994600  0.895900  1.0  0.1072
  H  H47  1  0.967800  0.047200  0.941800  1.0  0.0941
  H  H48  1  0.132300  0.195000  0.729800  1.0  0.099
  H  H49  1  0.272700  0.041600  0.788000  1.0  0.1092
  H  H50  1  0.146300  0.991300  0.931900  1.0  0.103
  H  H51  1  0.498900  0.832700  0.620800  1.0  0.1013
  H  H52  1  0.417400  0.780900  0.668800  1.0  0.1113
  H  H53  1  0.450200  0.494600  0.604100  1.0  0.1063
  H  H54  1  0.532200  0.547200  0.558200  1.0  0.094
  H  H55  1  0.367700  0.695000  0.770200  1.0  0.098
  H  H56  1  0.227300  0.541600  0.712000  1.0  0.1104
  H  H57  1  0.353700  0.491300  0.568100  1.0  0.1027
  H  H58  1  0.998900  0.332700  0.620800  1.0  0.1013
  H  H59  1  0.917400  0.280900  0.668800  1.0  0.1113
  H  H60  1  0.950200  0.994600  0.604100  1.0  0.1063
  H  H61  1  0.032200  0.047200  0.558200  1.0  0.094
  H  H62  1  0.867700  0.195000  0.770200  1.0  0.098
  H  H63  1  0.727300  0.041600  0.712000  1.0  0.1104
  H  H64  1  0.853700  0.991300  0.568100  1.0  0.1027
  C  C65  1  0.573770  0.271300  0.041400  1.0  0.6638
  C  C66  1  0.523190  0.304200  0.081200  1.0  -0.1782
  C  C67  1  0.488980  0.235300  0.116400  1.0  -0.0419
  C  C68  1  0.439990  0.266500  0.145100  1.0  -0.1389
  C  C69  1  0.424090  0.367500  0.139120  1.0  0.0458
  C  C70  1  0.459470  0.436900  0.107000  1.0  -0.1444
  C  C71  1  0.508670  0.405100  0.078900  1.0  -0.0546
  C  C72  1  0.369360  0.399400  0.162870  1.0  0.0095
  C  C73  1  0.347070  0.352700  0.234980  1.0  -0.057
  C  C74  1  0.294530  0.376300  0.255010  1.0  -0.1679
  C  C75  1  0.263140  0.445300  0.201270  1.0  0.0107
  C  C76  1  0.285410  0.495020  0.131250  1.0  -0.1349
  C  C77  1  0.338580  0.473400  0.113470  1.0  -0.061
  C  C78  1  0.251200  0.569900  0.074610  1.0  0.7282
  C  C79  1  0.273100  0.325900  0.334920  1.0  0.7903
  C  C80  1  0.073770  0.771300  0.041400  1.0  0.6638
  C  C81  1  0.023190  0.804200  0.081200  1.0  -0.1782
  C  C82  1  0.988980  0.735300  0.116400  1.0  -0.0419
  C  C83  1  0.939990  0.766500  0.145100  1.0  -0.1389
  C  C84  1  0.924090  0.867500  0.139120  1.0  0.0458
  C  C85  1  0.959470  0.936900  0.107000  1.0  -0.1444
  C  C86  1  0.008670  0.905100  0.078900  1.0  -0.0546
  C  C87  1  0.869360  0.899400  0.162870  1.0  0.0095
  C  C88  1  0.847070  0.852700  0.234980  1.0  -0.057
  C  C89  1  0.794530  0.876300  0.255010  1.0  -0.1679
  C  C90  1  0.763140  0.945300  0.201270  1.0  0.0107
  C  C91  1  0.785410  0.995020  0.131250  1.0  -0.1349
  C  C92  1  0.838580  0.973400  0.113470  1.0  -0.061
  C  C93  1  0.751200  0.069900  0.074610  1.0  0.7282
  C  C94  1  0.773100  0.825900  0.334920  1.0  0.7903
  C  C95  1  0.426230  0.271300  0.458600  1.0  0.6645
  C  C96  1  0.476810  0.304200  0.418800  1.0  -0.1792
  C  C97  1  0.511020  0.235300  0.383600  1.0  -0.0428
  C  C98  1  0.560010  0.266500  0.354900  1.0  -0.1394
  C  C99  1  0.575910  0.367500  0.360880  1.0  0.0459
  C  C100  1  0.540530  0.436900  0.393000  1.0  -0.1444
  C  C101  1  0.491330  0.405100  0.421100  1.0  -0.0528
  C  C102  1  0.630640  0.399400  0.337130  1.0  0.0086
  C  C103  1  0.652930  0.352700  0.265020  1.0  -0.0572
  C  C104  1  0.705470  0.376300  0.244990  1.0  -0.1678
  C  C105  1  0.736860  0.445300  0.298730  1.0  0.014
  C  C106  1  0.714590  0.495020  0.368750  1.0  -0.1359
  C  C107  1  0.661420  0.473400  0.386530  1.0  -0.0621
  C  C108  1  0.748800  0.569900  0.425390  1.0  0.7285
  C  C109  1  0.726900  0.325900  0.165080  1.0  0.7898
  C  C110  1  0.926230  0.771300  0.458600  1.0  0.6645
  C  C111  1  0.976810  0.804200  0.418800  1.0  -0.179
  C  C112  1  0.011020  0.735300  0.383600  1.0  -0.0428
  C  C113  1  0.060010  0.766500  0.354900  1.0  -0.1394
  C  C114  1  0.075910  0.867500  0.360880  1.0  0.0459
  C  C115  1  0.040530  0.936900  0.393000  1.0  -0.1444
  C  C116  1  0.991330  0.905100  0.421100  1.0  -0.0528
  C  C117  1  0.130640  0.899400  0.337130  1.0  0.0086
  C  C118  1  0.152930  0.852700  0.265020  1.0  -0.0572
  C  C119  1  0.205470  0.876300  0.244990  1.0  -0.1678
  C  C120  1  0.236860  0.945300  0.298730  1.0  0.014
  C  C121  1  0.214590  0.995020  0.368750  1.0  -0.1359
  C  C122  1  0.161420  0.973400  0.386530  1.0  -0.0621
  C  C123  1  0.248800  0.069900  0.425390  1.0  0.7285
  C  C124  1  0.226900  0.825900  0.165080  1.0  0.7897
  C  C125  1  0.426230  0.728700  0.958600  1.0  0.6648
  C  C126  1  0.476810  0.695800  0.918800  1.0  -0.178
  C  C127  1  0.511020  0.764700  0.883600  1.0  -0.0424
  C  C128  1  0.560010  0.733500  0.854900  1.0  -0.1384
  C  C129  1  0.575910  0.632500  0.860880  1.0  0.0459
  C  C130  1  0.540530  0.563100  0.893000  1.0  -0.1432
  C  C131  1  0.491330  0.594900  0.921100  1.0  -0.052
  C  C132  1  0.630640  0.600600  0.837130  1.0  0.0086
  C  C133  1  0.652930  0.647300  0.765020  1.0  -0.0577
  C  C134  1  0.705470  0.623700  0.744990  1.0  -0.1676
  C  C135  1  0.736860  0.554700  0.798730  1.0  0.0141
  C  C136  1  0.714590  0.504980  0.868750  1.0  -0.1358
  C  C137  1  0.661420  0.526600  0.886530  1.0  -0.0624
  C  C138  1  0.748800  0.430100  0.925390  1.0  0.7284
  C  C139  1  0.726900  0.674100  0.665080  1.0  0.7902
  C  C140  1  0.926230  0.228700  0.958600  1.0  0.6648
  C  C141  1  0.976810  0.195800  0.918800  1.0  -0.178
  C  C142  1  0.011020  0.264700  0.883600  1.0  -0.0424
  C  C143  1  0.060010  0.233500  0.854900  1.0  -0.1384
  C  C144  1  0.075910  0.132500  0.860880  1.0  0.0459
  C  C145  1  0.040530  0.063100  0.893000  1.0  -0.1432
  C  C146  1  0.991330  0.094900  0.921100  1.0  -0.052
  C  C147  1  0.130640  0.100600  0.837130  1.0  0.0086
  C  C148  1  0.152930  0.147300  0.765020  1.0  -0.0577
  C  C149  1  0.205470  0.123700  0.744990  1.0  -0.1676
  C  C150  1  0.236860  0.054700  0.798730  1.0  0.0141
  C  C151  1  0.214590  0.004980  0.868750  1.0  -0.1358
  C  C152  1  0.161420  0.026600  0.886530  1.0  -0.0624
  C  C153  1  0.248800  0.930100  0.925390  1.0  0.7284
  C  C154  1  0.226900  0.174100  0.665080  1.0  0.7902
  C  C155  1  0.573770  0.728700  0.541400  1.0  0.6652
  C  C156  1  0.523190  0.695800  0.581200  1.0  -0.1771
  C  C157  1  0.488980  0.764700  0.616400  1.0  -0.0415
  C  C158  1  0.439990  0.733500  0.645100  1.0  -0.1385
  C  C159  1  0.424090  0.632500  0.639120  1.0  0.0455
  C  C160  1  0.459470  0.563100  0.607000  1.0  -0.1435
  C  C161  1  0.508670  0.594900  0.578900  1.0  -0.0537
  C  C162  1  0.369360  0.600600  0.662870  1.0  0.0095
  C  C163  1  0.347070  0.647300  0.734980  1.0  -0.0574
  C  C164  1  0.294530  0.623700  0.755010  1.0  -0.1677
  C  C165  1  0.263140  0.554700  0.701270  1.0  0.011
  C  C166  1  0.285410  0.504980  0.631250  1.0  -0.1352
  C  C167  1  0.338580  0.526600  0.613470  1.0  -0.061
  C  C168  1  0.251200  0.430100  0.574610  1.0  0.7278
  C  C169  1  0.273100  0.674100  0.834920  1.0  0.7908
  C  C170  1  0.073770  0.228700  0.541400  1.0  0.6652
  C  C171  1  0.023190  0.195800  0.581200  1.0  -0.1771
  C  C172  1  0.988980  0.264700  0.616400  1.0  -0.0415
  C  C173  1  0.939990  0.233500  0.645100  1.0  -0.1385
  C  C174  1  0.924090  0.132500  0.639120  1.0  0.0455
  C  C175  1  0.959470  0.063100  0.607000  1.0  -0.1435
  C  C176  1  0.008670  0.094900  0.578900  1.0  -0.0537
  C  C177  1  0.869360  0.100600  0.662870  1.0  0.0095
  C  C178  1  0.847070  0.147300  0.734980  1.0  -0.0574
  C  C179  1  0.794530  0.123700  0.755010  1.0  -0.1677
  C  C180  1  0.763140  0.054700  0.701270  1.0  0.011
  C  C181  1  0.785410  0.004980  0.631250  1.0  -0.1352
  C  C182  1  0.838580  0.026600  0.613470  1.0  -0.061
  C  C183  1  0.751200  0.930100  0.574610  1.0  0.7278
  C  C184  1  0.773100  0.174100  0.834920  1.0  0.7909
  O  O185  1  0.587290  0.178320  0.044500  1.0  -0.7266
  O  O186  1  0.601480  0.335260  0.004810  1.0  -0.6403
  O  O187  1  0.274130  0.644830  0.040060  1.0  -0.846
  O  O188  1  0.200820  0.557260  0.061790  1.0  -0.6188
  O  O189  1  0.225900  0.349450  0.352570  1.0  -0.709
  O  O190  1  0.304060  0.263520  0.377930  1.0  -0.6962
  O  O191  1  0.087290  0.678320  0.044500  1.0  -0.7268
  O  O192  1  0.101480  0.835260  0.004810  1.0  -0.6404
  O  O193  1  0.774130  0.144830  0.040060  1.0  -0.846
  O  O194  1  0.700820  0.057260  0.061790  1.0  -0.6189
  O  O195  1  0.725900  0.849450  0.352570  1.0  -0.709
  O  O196  1  0.804060  0.763520  0.377930  1.0  -0.6962
  O  O197  1  0.412710  0.178320  0.455500  1.0  -0.7292
  O  O198  1  0.398520  0.335260  0.495190  1.0  -0.6389
  O  O199  1  0.725870  0.644830  0.459940  1.0  -0.8461
  O  O200  1  0.799180  0.557260  0.438210  1.0  -0.6196
  O  O201  1  0.774100  0.349450  0.147430  1.0  -0.7072
  O  O202  1  0.695940  0.263520  0.122070  1.0  -0.6958
  O  O203  1  0.912710  0.678320  0.455500  1.0  -0.7294
  O  O204  1  0.898520  0.835260  0.495190  1.0  -0.6389
  O  O205  1  0.225870  0.144830  0.459940  1.0  -0.8461
  O  O206  1  0.299180  0.057260  0.438210  1.0  -0.6196
  O  O207  1  0.274100  0.849450  0.147430  1.0  -0.7072
  O  O208  1  0.195940  0.763520  0.122070  1.0  -0.6958
  O  O209  1  0.412710  0.821680  0.955500  1.0  -0.7255
  O  O210  1  0.398520  0.664740  0.995190  1.0  -0.6388
  O  O211  1  0.725870  0.355170  0.959940  1.0  -0.8468
  O  O212  1  0.799180  0.442740  0.938210  1.0  -0.6192
  O  O213  1  0.774100  0.650550  0.647430  1.0  -0.7072
  O  O214  1  0.695940  0.736480  0.622070  1.0  -0.6944
  O  O215  1  0.912710  0.321680  0.955500  1.0  -0.7257
  O  O216  1  0.898520  0.164740  0.995190  1.0  -0.6388
  O  O217  1  0.225870  0.855170  0.959940  1.0  -0.8468
  O  O218  1  0.299180  0.942740  0.938210  1.0  -0.6193
  O  O219  1  0.274100  0.150550  0.647430  1.0  -0.7072
  O  O220  1  0.195940  0.236480  0.622070  1.0  -0.6944
  O  O221  1  0.587290  0.821680  0.544500  1.0  -0.7262
  O  O222  1  0.601480  0.664740  0.504810  1.0  -0.6401
  O  O223  1  0.274130  0.355170  0.540060  1.0  -0.8466
  O  O224  1  0.200820  0.442740  0.561790  1.0  -0.6209
  O  O225  1  0.225900  0.650550  0.852570  1.0  -0.7083
  O  O226  1  0.304060  0.736480  0.877930  1.0  -0.6952
  O  O227  1  0.087290  0.321680  0.544500  1.0  -0.7264
  O  O228  1  0.101480  0.164740  0.504810  1.0  -0.6401
  O  O229  1  0.774130  0.855170  0.540060  1.0  -0.8466
  O  O230  1  0.700820  0.942740  0.561790  1.0  -0.6209
  O  O231  1  0.725900  0.150550  0.852570  1.0  -0.7083
  O  O232  1  0.804060  0.236480  0.877930  1.0  -0.6952
