# generated using pymatgen
data_CeH7(C5O2)3
_symmetry_space_group_name_H-M   'P 1'
_cell_length_a   24.59100000
_cell_length_b   13.80400000
_cell_length_c   14.75200000
_cell_angle_alpha   90.00000000
_cell_angle_beta   97.13500000
_cell_angle_gamma   90.00000000
_symmetry_Int_Tables_number   1
_chemical_formula_structural   CeH7(C5O2)3
_chemical_formula_sum   'Ce8 H56 C120 O48'
_cell_volume   4968.85000382
_cell_formula_units_Z   8
loop_
 _symmetry_equiv_pos_site_id
 _symmetry_equiv_pos_as_xyz
  1  'x, y, z'
loop_
 _atom_site_type_symbol
 _atom_site_label
 _atom_site_symmetry_multiplicity
 _atom_site_fract_x
 _atom_site_fract_y
 _atom_site_fract_z
 _atom_site_occupancy
 _atom_site_charge
  Ce  Ce1  1  0.169060  0.211310  0.470520  1.0  2.2163
  Ce  Ce2  1  0.669060  0.711310  0.470520  1.0  2.2163
  Ce  Ce3  1  0.830940  0.211310  0.029480  1.0  2.2143
  Ce  Ce4  1  0.330940  0.711310  0.029480  1.0  2.2143
  Ce  Ce5  1  0.830940  0.788690  0.529480  1.0  2.2156
  Ce  Ce6  1  0.330940  0.288690  0.529480  1.0  2.2156
  Ce  Ce7  1  0.169060  0.788690  0.970520  1.0  2.2178
  Ce  Ce8  1  0.669060  0.288690  0.970520  1.0  2.2178
  H  H9  1  0.146800  0.483500  0.426500  1.0  0.1072
  H  H10  1  0.273800  0.536400  0.286900  1.0  0.1084
  H  H11  1  0.133900  0.684300  0.229000  1.0  0.104
  H  H12  1  0.050200  0.491800  0.393500  1.0  0.1046
  H  H13  1  0.085600  0.763800  0.332000  1.0  0.1097
  H  H14  1  0.969300  0.544500  0.441200  1.0  0.0951
  H  H15  1  0.004600  0.815600  0.378500  1.0  0.1066
  H  H16  1  0.646800  0.983500  0.426500  1.0  0.1072
  H  H17  1  0.773800  0.036400  0.286900  1.0  0.1084
  H  H18  1  0.633900  0.184300  0.229000  1.0  0.104
  H  H19  1  0.550200  0.991800  0.393500  1.0  0.1046
  H  H20  1  0.585600  0.263800  0.332000  1.0  0.1097
  H  H21  1  0.469300  0.044500  0.441200  1.0  0.0951
  H  H22  1  0.504600  0.315600  0.378500  1.0  0.1066
  H  H23  1  0.853200  0.483500  0.073500  1.0  0.1073
  H  H24  1  0.726200  0.536400  0.213100  1.0  0.1083
  H  H25  1  0.866100  0.684300  0.271000  1.0  0.103
  H  H26  1  0.949800  0.491800  0.106500  1.0  0.104
  H  H27  1  0.914400  0.763800  0.168000  1.0  0.1093
  H  H28  1  0.030700  0.544500  0.058800  1.0  0.0955
  H  H29  1  0.995400  0.815600  0.121500  1.0  0.1063
  H  H30  1  0.353200  0.983500  0.073500  1.0  0.1073
  H  H31  1  0.226200  0.036400  0.213100  1.0  0.1083
  H  H32  1  0.366100  0.184300  0.271000  1.0  0.103
  H  H33  1  0.449800  0.991800  0.106500  1.0  0.104
  H  H34  1  0.414400  0.263800  0.168000  1.0  0.1093
  H  H35  1  0.530700  0.044500  0.058800  1.0  0.0955
  H  H36  1  0.495400  0.315600  0.121500  1.0  0.1063
  H  H37  1  0.853200  0.516500  0.573500  1.0  0.1071
  H  H38  1  0.726200  0.463600  0.713100  1.0  0.1079
  H  H39  1  0.866100  0.315700  0.771000  1.0  0.1036
  H  H40  1  0.949800  0.508200  0.606500  1.0  0.1036
  H  H41  1  0.914400  0.236200  0.668000  1.0  0.1086
  H  H42  1  0.030700  0.455500  0.558800  1.0  0.0953
  H  H43  1  0.995400  0.184400  0.621500  1.0  0.1056
  H  H44  1  0.353200  0.016500  0.573500  1.0  0.1071
  H  H45  1  0.226200  0.963600  0.713100  1.0  0.1079
  H  H46  1  0.366100  0.815700  0.771000  1.0  0.1036
  H  H47  1  0.449800  0.008200  0.606500  1.0  0.1036
  H  H48  1  0.414400  0.736200  0.668000  1.0  0.1086
  H  H49  1  0.530700  0.955500  0.558800  1.0  0.0953
  H  H50  1  0.495400  0.684400  0.621500  1.0  0.1056
  H  H51  1  0.146800  0.516500  0.926500  1.0  0.107
  H  H52  1  0.273800  0.463600  0.786900  1.0  0.1088
  H  H53  1  0.133900  0.315700  0.729000  1.0  0.104
  H  H54  1  0.050200  0.508200  0.893500  1.0  0.1043
  H  H55  1  0.085600  0.236200  0.832000  1.0  0.1098
  H  H56  1  0.969300  0.455500  0.941200  1.0  0.0949
  H  H57  1  0.004600  0.184400  0.878500  1.0  0.106
  H  H58  1  0.646800  0.016500  0.926500  1.0  0.107
  H  H59  1  0.773800  0.963600  0.786900  1.0  0.1088
  H  H60  1  0.633900  0.815700  0.729000  1.0  0.104
  H  H61  1  0.550200  0.008200  0.893500  1.0  0.1043
  H  H62  1  0.585600  0.736200  0.832000  1.0  0.1098
  H  H63  1  0.469300  0.955500  0.941200  1.0  0.0949
  H  H64  1  0.504600  0.684400  0.878500  1.0  0.106
  C  C65  1  0.249660  0.424600  0.421650  1.0  0.7467
  C  C66  1  0.215100  0.498000  0.365300  1.0  -0.1348
  C  C67  1  0.162210  0.518500  0.382200  1.0  -0.054
  C  C68  1  0.237780  0.548400  0.296900  1.0  0.0094
  C  C69  1  0.131810  0.591100  0.333600  1.0  0.0108
  C  C70  1  0.206890  0.616000  0.244300  1.0  -0.1504
  C  C71  1  0.077190  0.622500  0.358700  1.0  0.0373
  C  C72  1  0.154360  0.637600  0.263600  1.0  -0.0765
  C  C73  1  0.228880  0.668800  0.166500  1.0  0.766
  C  C74  1  0.041640  0.557400  0.391100  1.0  -0.1399
  C  C75  1  0.062450  0.719000  0.354500  1.0  -0.119
  C  C76  1  0.993000  0.589300  0.420200  1.0  -0.0929
  C  C77  1  0.013920  0.750400  0.383100  1.0  -0.058
  C  C78  1  0.979380  0.685800  0.418300  1.0  -0.1405
  C  C79  1  0.929220  0.719300  0.457800  1.0  0.6861
  C  C80  1  0.749660  0.924600  0.421650  1.0  0.7467
  C  C81  1  0.715100  0.998000  0.365300  1.0  -0.1348
  C  C82  1  0.662210  0.018500  0.382200  1.0  -0.054
  C  C83  1  0.737780  0.048400  0.296900  1.0  0.0094
  C  C84  1  0.631810  0.091100  0.333600  1.0  0.0108
  C  C85  1  0.706890  0.116000  0.244300  1.0  -0.1504
  C  C86  1  0.577190  0.122500  0.358700  1.0  0.0373
  C  C87  1  0.654360  0.137600  0.263600  1.0  -0.0765
  C  C88  1  0.728880  0.168800  0.166500  1.0  0.766
  C  C89  1  0.541640  0.057400  0.391100  1.0  -0.1399
  C  C90  1  0.562450  0.219000  0.354500  1.0  -0.119
  C  C91  1  0.493000  0.089300  0.420200  1.0  -0.0929
  C  C92  1  0.513920  0.250400  0.383100  1.0  -0.058
  C  C93  1  0.479380  0.185800  0.418300  1.0  -0.1405
  C  C94  1  0.429220  0.219300  0.457800  1.0  0.6861
  C  C95  1  0.750340  0.424600  0.078350  1.0  0.7463
  C  C96  1  0.784900  0.498000  0.134700  1.0  -0.1344
  C  C97  1  0.837790  0.518500  0.117800  1.0  -0.0531
  C  C98  1  0.762220  0.548400  0.203100  1.0  0.0076
  C  C99  1  0.868190  0.591100  0.166400  1.0  0.0107
  C  C100  1  0.793110  0.616000  0.255700  1.0  -0.1506
  C  C101  1  0.922810  0.622500  0.141300  1.0  0.0363
  C  C102  1  0.845640  0.637600  0.236400  1.0  -0.0757
  C  C103  1  0.771120  0.668800  0.333500  1.0  0.7682
  C  C104  1  0.958360  0.557400  0.108900  1.0  -0.1406
  C  C105  1  0.937550  0.719000  0.145500  1.0  -0.1188
  C  C106  1  0.007000  0.589300  0.079800  1.0  -0.0951
  C  C107  1  0.986080  0.750400  0.116900  1.0  -0.0584
  C  C108  1  0.020620  0.685800  0.081700  1.0  -0.1393
  C  C109  1  0.070780  0.719300  0.042200  1.0  0.6858
  C  C110  1  0.250340  0.924600  0.078350  1.0  0.7463
  C  C111  1  0.284900  0.998000  0.134700  1.0  -0.1344
  C  C112  1  0.337790  0.018500  0.117800  1.0  -0.0531
  C  C113  1  0.262220  0.048400  0.203100  1.0  0.0076
  C  C114  1  0.368190  0.091100  0.166400  1.0  0.0107
  C  C115  1  0.293110  0.116000  0.255700  1.0  -0.1506
  C  C116  1  0.422810  0.122500  0.141300  1.0  0.0363
  C  C117  1  0.345640  0.137600  0.236400  1.0  -0.0757
  C  C118  1  0.271120  0.168800  0.333500  1.0  0.7682
  C  C119  1  0.458360  0.057400  0.108900  1.0  -0.1406
  C  C120  1  0.437550  0.219000  0.145500  1.0  -0.1188
  C  C121  1  0.507000  0.089300  0.079800  1.0  -0.0951
  C  C122  1  0.486080  0.250400  0.116900  1.0  -0.0584
  C  C123  1  0.520620  0.185800  0.081700  1.0  -0.1393
  C  C124  1  0.570780  0.219300  0.042200  1.0  0.6858
  C  C125  1  0.750340  0.575400  0.578350  1.0  0.7465
  C  C126  1  0.784900  0.502000  0.634700  1.0  -0.1342
  C  C127  1  0.837790  0.481500  0.617800  1.0  -0.0529
  C  C128  1  0.762220  0.451600  0.703100  1.0  0.0072
  C  C129  1  0.868190  0.408900  0.666400  1.0  0.0107
  C  C130  1  0.793110  0.384000  0.755700  1.0  -0.1518
  C  C131  1  0.922810  0.377500  0.641300  1.0  0.0364
  C  C132  1  0.845640  0.362400  0.736400  1.0  -0.0745
  C  C133  1  0.771120  0.331200  0.833500  1.0  0.7682
  C  C134  1  0.958360  0.442600  0.608900  1.0  -0.1419
  C  C135  1  0.937550  0.281000  0.645500  1.0  -0.1177
  C  C136  1  0.007000  0.410700  0.579800  1.0  -0.0964
  C  C137  1  0.986080  0.249600  0.616900  1.0  -0.0598
  C  C138  1  0.020620  0.314200  0.581700  1.0  -0.139
  C  C139  1  0.070780  0.280700  0.542200  1.0  0.6839
  C  C140  1  0.250340  0.075400  0.578350  1.0  0.7465
  C  C141  1  0.284900  0.002000  0.634700  1.0  -0.1342
  C  C142  1  0.337790  0.981500  0.617800  1.0  -0.0529
  C  C143  1  0.262220  0.951600  0.703100  1.0  0.0072
  C  C144  1  0.368190  0.908900  0.666400  1.0  0.0107
  C  C145  1  0.293110  0.884000  0.755700  1.0  -0.1518
  C  C146  1  0.422810  0.877500  0.641300  1.0  0.0364
  C  C147  1  0.345640  0.862400  0.736400  1.0  -0.0745
  C  C148  1  0.271120  0.831200  0.833500  1.0  0.7682
  C  C149  1  0.458360  0.942600  0.608900  1.0  -0.1419
  C  C150  1  0.437550  0.781000  0.645500  1.0  -0.1177
  C  C151  1  0.507000  0.910700  0.579800  1.0  -0.0964
  C  C152  1  0.486080  0.749600  0.616900  1.0  -0.0598
  C  C153  1  0.520620  0.814200  0.581700  1.0  -0.139
  C  C154  1  0.570780  0.780700  0.542200  1.0  0.6839
  C  C155  1  0.249660  0.575400  0.921650  1.0  0.7471
  C  C156  1  0.215100  0.502000  0.865300  1.0  -0.1352
  C  C157  1  0.162210  0.481500  0.882200  1.0  -0.0537
  C  C158  1  0.237780  0.451600  0.796900  1.0  0.0091
  C  C159  1  0.131810  0.408900  0.833600  1.0  0.0109
  C  C160  1  0.206890  0.384000  0.744300  1.0  -0.1515
  C  C161  1  0.077190  0.377500  0.858700  1.0  0.0371
  C  C162  1  0.154360  0.362400  0.763600  1.0  -0.0748
  C  C163  1  0.228880  0.331200  0.666500  1.0  0.7656
  C  C164  1  0.041640  0.442600  0.891100  1.0  -0.141
  C  C165  1  0.062450  0.281000  0.854500  1.0  -0.1167
  C  C166  1  0.993000  0.410700  0.920200  1.0  -0.0941
  C  C167  1  0.013920  0.249600  0.883100  1.0  -0.0596
  C  C168  1  0.979380  0.314200  0.918300  1.0  -0.1399
  C  C169  1  0.929220  0.280700  0.957800  1.0  0.6859
  C  C170  1  0.749660  0.075400  0.921650  1.0  0.7471
  C  C171  1  0.715100  0.002000  0.865300  1.0  -0.1352
  C  C172  1  0.662210  0.981500  0.882200  1.0  -0.0537
  C  C173  1  0.737780  0.951600  0.796900  1.0  0.0091
  C  C174  1  0.631810  0.908900  0.833600  1.0  0.0109
  C  C175  1  0.706890  0.884000  0.744300  1.0  -0.1515
  C  C176  1  0.577190  0.877500  0.858700  1.0  0.0371
  C  C177  1  0.654360  0.862400  0.763600  1.0  -0.0748
  C  C178  1  0.728880  0.831200  0.666500  1.0  0.7656
  C  C179  1  0.541640  0.942600  0.891100  1.0  -0.141
  C  C180  1  0.562450  0.781000  0.854500  1.0  -0.1167
  C  C181  1  0.493000  0.910700  0.920200  1.0  -0.0941
  C  C182  1  0.513920  0.749600  0.883100  1.0  -0.0596
  C  C183  1  0.479380  0.814200  0.918300  1.0  -0.1399
  C  C184  1  0.429220  0.780700  0.957800  1.0  0.6859
  O  O185  1  0.083310  0.192070  0.547700  1.0  -0.711
  O  O186  1  0.098180  0.339390  0.502760  1.0  -0.6181
  O  O187  1  0.274160  0.145100  0.543270  1.0  -0.8565
  O  O188  1  0.199780  0.065290  0.567300  1.0  -0.6829
  O  O189  1  0.223290  0.148130  0.349540  1.0  -0.6898
  O  O190  1  0.198200  0.271100  0.624130  1.0  -0.6791
  O  O191  1  0.583310  0.692070  0.547700  1.0  -0.711
  O  O192  1  0.598180  0.839390  0.502760  1.0  -0.6181
  O  O193  1  0.774160  0.645100  0.543270  1.0  -0.8565
  O  O194  1  0.699780  0.565290  0.567300  1.0  -0.6829
  O  O195  1  0.723290  0.648130  0.349540  1.0  -0.6898
  O  O196  1  0.698200  0.771100  0.624130  1.0  -0.6791
  O  O197  1  0.916690  0.192070  0.952300  1.0  -0.7125
  O  O198  1  0.901820  0.339390  0.997240  1.0  -0.617
  O  O199  1  0.725840  0.145100  0.956730  1.0  -0.8565
  O  O200  1  0.800220  0.065290  0.932700  1.0  -0.6838
  O  O201  1  0.776710  0.148130  0.150460  1.0  -0.6882
  O  O202  1  0.801800  0.271100  0.875870  1.0  -0.6799
  O  O203  1  0.416690  0.692070  0.952300  1.0  -0.7125
  O  O204  1  0.401820  0.839390  0.997240  1.0  -0.617
  O  O205  1  0.225840  0.645100  0.956730  1.0  -0.8565
  O  O206  1  0.300220  0.565290  0.932700  1.0  -0.6838
  O  O207  1  0.276710  0.648130  0.150460  1.0  -0.6882
  O  O208  1  0.301800  0.771100  0.875870  1.0  -0.6799
  O  O209  1  0.916690  0.807930  0.452300  1.0  -0.7119
  O  O210  1  0.901820  0.660610  0.497240  1.0  -0.6161
  O  O211  1  0.725840  0.854900  0.456730  1.0  -0.8568
  O  O212  1  0.800220  0.934710  0.432700  1.0  -0.685
  O  O213  1  0.776710  0.851870  0.650460  1.0  -0.6888
  O  O214  1  0.801800  0.728900  0.375870  1.0  -0.6795
  O  O215  1  0.416690  0.307930  0.452300  1.0  -0.7119
  O  O216  1  0.401820  0.160610  0.497240  1.0  -0.6161
  O  O217  1  0.225840  0.354900  0.456730  1.0  -0.8568
  O  O218  1  0.300220  0.434710  0.432700  1.0  -0.685
  O  O219  1  0.276710  0.351870  0.650460  1.0  -0.6888
  O  O220  1  0.301800  0.228900  0.375870  1.0  -0.6795
  O  O221  1  0.083310  0.807930  0.047700  1.0  -0.7125
  O  O222  1  0.098180  0.660610  0.002760  1.0  -0.6173
  O  O223  1  0.274160  0.854900  0.043270  1.0  -0.8568
  O  O224  1  0.199780  0.934710  0.067300  1.0  -0.6838
  O  O225  1  0.223290  0.851870  0.849540  1.0  -0.6907
  O  O226  1  0.198200  0.728900  0.124130  1.0  -0.6783
  O  O227  1  0.583310  0.307930  0.047700  1.0  -0.7125
  O  O228  1  0.598180  0.160610  0.002760  1.0  -0.6173
  O  O229  1  0.774160  0.354900  0.043270  1.0  -0.8568
  O  O230  1  0.699780  0.434710  0.067300  1.0  -0.6838
  O  O231  1  0.723290  0.351870  0.849540  1.0  -0.6907
  O  O232  1  0.698200  0.228900  0.124130  1.0  -0.6783
