# generated using pymatgen
data_LaH9C15O7
_symmetry_space_group_name_H-M   'P 1'
_cell_length_a   24.79500000
_cell_length_b   13.65100000
_cell_length_c   14.93600000
_cell_angle_alpha   90.00000000
_cell_angle_beta   97.07700000
_cell_angle_gamma   90.00000000
_symmetry_Int_Tables_number   1
_chemical_formula_structural   LaH9C15O7
_chemical_formula_sum   'La8 H72 C120 O56'
_cell_volume   5016.97033081
_cell_formula_units_Z   8
loop_
 _symmetry_equiv_pos_site_id
 _symmetry_equiv_pos_as_xyz
  1  'x, y, z'
loop_
 _atom_site_type_symbol
 _atom_site_label
 _atom_site_symmetry_multiplicity
 _atom_site_fract_x
 _atom_site_fract_y
 _atom_site_fract_z
 _atom_site_occupancy
 _atom_site_charge
  La  La1  1  0.830910  0.210180  0.530280  1.0  2.165
  La  La2  1  0.330910  0.710180  0.530280  1.0  2.165
  La  La3  1  0.169090  0.210180  0.969720  1.0  2.1633
  La  La4  1  0.669090  0.710180  0.969720  1.0  2.1633
  La  La5  1  0.169090  0.789820  0.469720  1.0  2.1639
  La  La6  1  0.669090  0.289820  0.469720  1.0  2.1639
  La  La7  1  0.830910  0.789820  0.030280  1.0  2.1658
  La  La8  1  0.330910  0.289820  0.030280  1.0  2.1658
  H  H9  1  0.996200  0.820200  0.623300  1.0  0.1107
  H  H10  1  0.914100  0.768400  0.666900  1.0  0.1129
  H  H11  1  0.948300  0.494700  0.603200  1.0  0.1045
  H  H12  1  0.029700  0.544800  0.558100  1.0  0.1221
  H  H13  1  0.866500  0.685900  0.771400  1.0  0.0989
  H  H14  1  0.727200  0.539400  0.711600  1.0  0.1153
  H  H15  1  0.852800  0.486400  0.572300  1.0  0.1125
  H  H16  1  0.855600  0.021000  0.563800  1.0  0.3035
  H  H17  1  0.907200  0.101400  0.619600  1.0  0.3944
  H  H18  1  0.496200  0.320200  0.623300  1.0  0.1107
  H  H19  1  0.414100  0.268400  0.666900  1.0  0.1129
  H  H20  1  0.448300  0.994700  0.603200  1.0  0.1045
  H  H21  1  0.529700  0.044800  0.558100  1.0  0.1221
  H  H22  1  0.366500  0.185900  0.771400  1.0  0.0989
  H  H23  1  0.227200  0.039400  0.711600  1.0  0.1153
  H  H24  1  0.352800  0.986400  0.572300  1.0  0.1125
  H  H25  1  0.355600  0.521000  0.563800  1.0  0.3035
  H  H26  1  0.407200  0.601400  0.619600  1.0  0.3944
  H  H27  1  0.003800  0.820200  0.876700  1.0  0.111
  H  H28  1  0.085900  0.768400  0.833100  1.0  0.1145
  H  H29  1  0.051700  0.494700  0.896800  1.0  0.1049
  H  H30  1  0.970300  0.544800  0.941900  1.0  0.1218
  H  H31  1  0.133500  0.685900  0.728600  1.0  0.1004
  H  H32  1  0.272800  0.539400  0.788400  1.0  0.1142
  H  H33  1  0.147200  0.486400  0.927700  1.0  0.1113
  H  H34  1  0.144400  0.021000  0.936200  1.0  0.3028
  H  H35  1  0.092800  0.101400  0.880400  1.0  0.3932
  H  H36  1  0.503800  0.320200  0.876700  1.0  0.111
  H  H37  1  0.585900  0.268400  0.833100  1.0  0.1145
  H  H38  1  0.551700  0.994700  0.896800  1.0  0.1049
  H  H39  1  0.470300  0.044800  0.941900  1.0  0.1218
  H  H40  1  0.633500  0.185900  0.728600  1.0  0.1004
  H  H41  1  0.772800  0.039400  0.788400  1.0  0.1142
  H  H42  1  0.647200  0.986400  0.927700  1.0  0.1113
  H  H43  1  0.644400  0.521000  0.936200  1.0  0.3028
  H  H44  1  0.592800  0.601400  0.880400  1.0  0.3932
  H  H45  1  0.003800  0.179800  0.376700  1.0  0.1106
  H  H46  1  0.085900  0.231600  0.333100  1.0  0.1143
  H  H47  1  0.051700  0.505300  0.396800  1.0  0.1049
  H  H48  1  0.970300  0.455200  0.441900  1.0  0.1214
  H  H49  1  0.133500  0.314100  0.228600  1.0  0.1002
  H  H50  1  0.272800  0.460600  0.288400  1.0  0.1142
  H  H51  1  0.147200  0.513600  0.427700  1.0  0.111
  H  H52  1  0.144400  0.979000  0.436200  1.0  0.3041
  H  H53  1  0.092800  0.898600  0.380400  1.0  0.3942
  H  H54  1  0.503800  0.679800  0.376700  1.0  0.1106
  H  H55  1  0.585900  0.731600  0.333100  1.0  0.1143
  H  H56  1  0.551700  0.005300  0.396800  1.0  0.1049
  H  H57  1  0.470300  0.955200  0.441900  1.0  0.1214
  H  H58  1  0.633500  0.814100  0.228600  1.0  0.1002
  H  H59  1  0.772800  0.960600  0.288400  1.0  0.1142
  H  H60  1  0.647200  0.013600  0.427700  1.0  0.111
  H  H61  1  0.644400  0.479000  0.436200  1.0  0.3041
  H  H62  1  0.592800  0.398600  0.380400  1.0  0.3942
  H  H63  1  0.996200  0.179800  0.123300  1.0  0.1104
  H  H64  1  0.914100  0.231600  0.166900  1.0  0.1122
  H  H65  1  0.948300  0.505300  0.103200  1.0  0.1045
  H  H66  1  0.029700  0.455200  0.058100  1.0  0.1216
  H  H67  1  0.866500  0.314100  0.271400  1.0  0.0999
  H  H68  1  0.727200  0.460600  0.211600  1.0  0.1151
  H  H69  1  0.852800  0.513600  0.072300  1.0  0.112
  H  H70  1  0.855600  0.979000  0.063800  1.0  0.3064
  H  H71  1  0.907200  0.898600  0.119600  1.0  0.3942
  H  H72  1  0.496200  0.679800  0.123300  1.0  0.1104
  H  H73  1  0.414100  0.731600  0.166900  1.0  0.1122
  H  H74  1  0.448300  0.005300  0.103200  1.0  0.1045
  H  H75  1  0.529700  0.955200  0.058100  1.0  0.1216
  H  H76  1  0.366500  0.814100  0.271400  1.0  0.0999
  H  H77  1  0.227200  0.960600  0.211600  1.0  0.1151
  H  H78  1  0.352800  0.013600  0.072300  1.0  0.112
  H  H79  1  0.355600  0.479000  0.063800  1.0  0.3064
  H  H80  1  0.407200  0.398600  0.119600  1.0  0.3942
  C  C81  1  0.070000  0.721700  0.541600  1.0  0.7062
  C  C82  1  0.019700  0.688800  0.581400  1.0  -0.1421
  C  C83  1  0.986300  0.754700  0.617400  1.0  -0.0555
  C  C84  1  0.937200  0.723000  0.645100  1.0  -0.118
  C  C85  1  0.922700  0.625200  0.640500  1.0  0.013
  C  C86  1  0.957600  0.560700  0.607100  1.0  -0.1199
  C  C87  1  0.006300  0.590600  0.578700  1.0  -0.1104
  C  C88  1  0.868400  0.594600  0.665400  1.0  0.0215
  C  C89  1  0.845800  0.640500  0.735600  1.0  -0.0696
  C  C90  1  0.793100  0.620400  0.753700  1.0  -0.1547
  C  C91  1  0.762800  0.552000  0.701300  1.0  0.0064
  C  C92  1  0.784800  0.501800  0.633400  1.0  -0.1293
  C  C93  1  0.837700  0.521600  0.616400  1.0  -0.052
  C  C94  1  0.749900  0.428500  0.576600  1.0  0.734
  C  C95  1  0.771600  0.671800  0.831500  1.0  0.7689
  C  C96  1  0.570000  0.221700  0.541600  1.0  0.7062
  C  C97  1  0.519700  0.188800  0.581400  1.0  -0.1421
  C  C98  1  0.486300  0.254700  0.617400  1.0  -0.0555
  C  C99  1  0.437200  0.223000  0.645100  1.0  -0.118
  C  C100  1  0.422700  0.125200  0.640500  1.0  0.013
  C  C101  1  0.457600  0.060700  0.607100  1.0  -0.1199
  C  C102  1  0.506300  0.090600  0.578700  1.0  -0.1104
  C  C103  1  0.368400  0.094600  0.665400  1.0  0.0215
  C  C104  1  0.345800  0.140500  0.735600  1.0  -0.0696
  C  C105  1  0.293100  0.120400  0.753700  1.0  -0.1547
  C  C106  1  0.262800  0.052000  0.701300  1.0  0.0064
  C  C107  1  0.284800  0.001800  0.633400  1.0  -0.1293
  C  C108  1  0.337700  0.021600  0.616400  1.0  -0.052
  C  C109  1  0.249900  0.928500  0.576600  1.0  0.734
  C  C110  1  0.271600  0.171800  0.831500  1.0  0.7689
  C  C111  1  0.930000  0.721700  0.958400  1.0  0.706
  C  C112  1  0.980300  0.688800  0.918600  1.0  -0.1432
  C  C113  1  0.013700  0.754700  0.882600  1.0  -0.0548
  C  C114  1  0.062800  0.723000  0.854900  1.0  -0.1168
  C  C115  1  0.077300  0.625200  0.859500  1.0  0.0135
  C  C116  1  0.042400  0.560700  0.892900  1.0  -0.1192
  C  C117  1  0.993700  0.590600  0.921300  1.0  -0.1102
  C  C118  1  0.131600  0.594600  0.834600  1.0  0.0214
  C  C119  1  0.154200  0.640500  0.764400  1.0  -0.0682
  C  C120  1  0.206900  0.620400  0.746300  1.0  -0.155
  C  C121  1  0.237200  0.552000  0.798700  1.0  0.0064
  C  C122  1  0.215200  0.501800  0.866600  1.0  -0.1296
  C  C123  1  0.162300  0.521600  0.883600  1.0  -0.0537
  C  C124  1  0.250100  0.428500  0.923400  1.0  0.7335
  C  C125  1  0.228400  0.671800  0.668500  1.0  0.7913
  C  C126  1  0.430000  0.221700  0.958400  1.0  0.706
  C  C127  1  0.480300  0.188800  0.918600  1.0  -0.1432
  C  C128  1  0.513700  0.254700  0.882600  1.0  -0.0548
  C  C129  1  0.562800  0.223000  0.854900  1.0  -0.1168
  C  C130  1  0.577300  0.125200  0.859500  1.0  0.0135
  C  C131  1  0.542400  0.060700  0.892900  1.0  -0.1192
  C  C132  1  0.493700  0.090600  0.921300  1.0  -0.1102
  C  C133  1  0.631600  0.094600  0.834600  1.0  0.0214
  C  C134  1  0.654200  0.140500  0.764400  1.0  -0.0682
  C  C135  1  0.706900  0.120400  0.746300  1.0  -0.155
  C  C136  1  0.737200  0.052000  0.798700  1.0  0.0064
  C  C137  1  0.715200  0.001800  0.866600  1.0  -0.1296
  C  C138  1  0.662300  0.021600  0.883600  1.0  -0.0537
  C  C139  1  0.750100  0.928500  0.923400  1.0  0.7335
  C  C140  1  0.728400  0.171800  0.668500  1.0  0.7913
  C  C141  1  0.930000  0.278300  0.458400  1.0  0.7074
  C  C142  1  0.980300  0.311200  0.418600  1.0  -0.1437
  C  C143  1  0.013700  0.245300  0.382600  1.0  -0.0547
  C  C144  1  0.062800  0.277000  0.354900  1.0  -0.117
  C  C145  1  0.077300  0.374800  0.359500  1.0  0.0134
  C  C146  1  0.042400  0.439300  0.392900  1.0  -0.1197
  C  C147  1  0.993700  0.409400  0.421300  1.0  -0.1104
  C  C148  1  0.131600  0.405400  0.334600  1.0  0.0214
  C  C149  1  0.154200  0.359500  0.264400  1.0  -0.0674
  C  C150  1  0.206900  0.379600  0.246300  1.0  -0.155
  C  C151  1  0.237200  0.448000  0.298700  1.0  0.0068
  C  C152  1  0.215200  0.498200  0.366600  1.0  -0.1298
  C  C153  1  0.162300  0.478400  0.383600  1.0  -0.053
  C  C154  1  0.250100  0.571500  0.423400  1.0  0.7338
  C  C155  1  0.228400  0.328200  0.168500  1.0  0.7677
  C  C156  1  0.430000  0.778300  0.458400  1.0  0.7074
  C  C157  1  0.480300  0.811200  0.418600  1.0  -0.1437
  C  C158  1  0.513700  0.745300  0.382600  1.0  -0.0547
  C  C159  1  0.562800  0.777000  0.354900  1.0  -0.117
  C  C160  1  0.577300  0.874800  0.359500  1.0  0.0134
  C  C161  1  0.542400  0.939300  0.392900  1.0  -0.1197
  C  C162  1  0.493700  0.909400  0.421300  1.0  -0.1104
  C  C163  1  0.631600  0.905400  0.334600  1.0  0.0214
  C  C164  1  0.654200  0.859500  0.264400  1.0  -0.0674
  C  C165  1  0.706900  0.879600  0.246300  1.0  -0.155
  C  C166  1  0.737200  0.948000  0.298700  1.0  0.0068
  C  C167  1  0.715200  0.998200  0.366600  1.0  -0.1298
  C  C168  1  0.662300  0.978400  0.383600  1.0  -0.053
  C  C169  1  0.750100  0.071500  0.423400  1.0  0.7338
  C  C170  1  0.728400  0.828200  0.168500  1.0  0.7677
  C  C171  1  0.070000  0.278300  0.041600  1.0  0.7063
  C  C172  1  0.019700  0.311200  0.081400  1.0  -0.142
  C  C173  1  0.986300  0.245300  0.117400  1.0  -0.0558
  C  C174  1  0.937200  0.277000  0.145100  1.0  -0.1179
  C  C175  1  0.922700  0.374800  0.140500  1.0  0.013
  C  C176  1  0.957600  0.439300  0.107100  1.0  -0.1205
  C  C177  1  0.006300  0.409400  0.078700  1.0  -0.1105
  C  C178  1  0.868400  0.405400  0.165400  1.0  0.0215
  C  C179  1  0.845800  0.359500  0.235600  1.0  -0.069
  C  C180  1  0.793100  0.379600  0.253700  1.0  -0.1549
  C  C181  1  0.762800  0.448000  0.201300  1.0  0.0101
  C  C182  1  0.784800  0.498200  0.133400  1.0  -0.1291
  C  C183  1  0.837700  0.478400  0.116400  1.0  -0.0517
  C  C184  1  0.749900  0.571500  0.076600  1.0  0.7342
  C  C185  1  0.771600  0.328200  0.331500  1.0  0.7669
  C  C186  1  0.570000  0.778300  0.041600  1.0  0.7063
  C  C187  1  0.519700  0.811200  0.081400  1.0  -0.142
  C  C188  1  0.486300  0.745300  0.117400  1.0  -0.0558
  C  C189  1  0.437200  0.777000  0.145100  1.0  -0.1179
  C  C190  1  0.422700  0.874800  0.140500  1.0  0.013
  C  C191  1  0.457600  0.939300  0.107100  1.0  -0.1205
  C  C192  1  0.506300  0.909400  0.078700  1.0  -0.1105
  C  C193  1  0.368400  0.905400  0.165400  1.0  0.0215
  C  C194  1  0.345800  0.859500  0.235600  1.0  -0.069
  C  C195  1  0.293100  0.879600  0.253700  1.0  -0.1549
  C  C196  1  0.262800  0.948000  0.201300  1.0  0.0101
  C  C197  1  0.284800  0.998200  0.133400  1.0  -0.1291
  C  C198  1  0.337700  0.978400  0.116400  1.0  -0.0517
  C  C199  1  0.249900  0.071500  0.076600  1.0  0.7342
  C  C200  1  0.271600  0.828200  0.331500  1.0  0.7669
  O  O201  1  0.082650  0.811500  0.547000  1.0  -0.6887
  O  O202  1  0.097420  0.661300  0.503800  1.0  -0.6341
  O  O203  1  0.772970  0.357900  0.541600  1.0  -0.8422
  O  O204  1  0.700080  0.439500  0.566000  1.0  -0.6833
  O  O205  1  0.723690  0.650000  0.847800  1.0  -0.7068
  O  O206  1  0.802410  0.731500  0.875400  1.0  -0.6909
  O  O207  1  0.881500  0.062500  0.607900  1.0  -0.6944
  O  O208  1  0.582650  0.311500  0.547000  1.0  -0.6886
  O  O209  1  0.597420  0.161300  0.503800  1.0  -0.6341
  O  O210  1  0.272970  0.857900  0.541600  1.0  -0.8422
  O  O211  1  0.200080  0.939500  0.566000  1.0  -0.6833
  O  O212  1  0.223690  0.150000  0.847800  1.0  -0.7068
  O  O213  1  0.302410  0.231500  0.875400  1.0  -0.6909
  O  O214  1  0.381500  0.562500  0.607900  1.0  -0.6944
  O  O215  1  0.917350  0.811500  0.953000  1.0  -0.6894
  O  O216  1  0.902580  0.661300  0.996200  1.0  -0.6336
  O  O217  1  0.227030  0.357900  0.958400  1.0  -0.8435
  O  O218  1  0.299920  0.439500  0.934000  1.0  -0.6859
  O  O219  1  0.276310  0.650000  0.652200  1.0  -0.7072
  O  O220  1  0.197590  0.731500  0.624600  1.0  -0.6895
  O  O221  1  0.118500  0.062500  0.892100  1.0  -0.6996
  O  O222  1  0.417350  0.311500  0.953000  1.0  -0.6894
  O  O223  1  0.402580  0.161300  0.996200  1.0  -0.6336
  O  O224  1  0.727030  0.857900  0.958400  1.0  -0.8435
  O  O225  1  0.799920  0.939500  0.934000  1.0  -0.6859
  O  O226  1  0.776310  0.150000  0.652200  1.0  -0.7072
  O  O227  1  0.697590  0.231500  0.624600  1.0  -0.6895
  O  O228  1  0.618500  0.562500  0.892100  1.0  -0.6996
  O  O229  1  0.917350  0.188500  0.453000  1.0  -0.6873
  O  O230  1  0.902580  0.338700  0.496200  1.0  -0.6343
  O  O231  1  0.227030  0.642100  0.458400  1.0  -0.8441
  O  O232  1  0.299920  0.560500  0.434000  1.0  -0.6863
  O  O233  1  0.276310  0.350000  0.152200  1.0  -0.7067
  O  O234  1  0.197590  0.268500  0.124600  1.0  -0.6903
  O  O235  1  0.118500  0.937500  0.392100  1.0  -0.7007
  O  O236  1  0.417350  0.688500  0.453000  1.0  -0.6873
  O  O237  1  0.402580  0.838700  0.496200  1.0  -0.6343
  O  O238  1  0.727030  0.142100  0.458400  1.0  -0.8441
  O  O239  1  0.799920  0.060500  0.434000  1.0  -0.6863
  O  O240  1  0.776310  0.850000  0.152200  1.0  -0.7067
  O  O241  1  0.697590  0.768500  0.124600  1.0  -0.6903
  O  O242  1  0.618500  0.437500  0.392100  1.0  -0.7007
  O  O243  1  0.082650  0.188500  0.047000  1.0  -0.6861
  O  O244  1  0.097420  0.338700  0.003800  1.0  -0.6344
  O  O245  1  0.772970  0.642100  0.041600  1.0  -0.8426
  O  O246  1  0.700080  0.560500  0.066000  1.0  -0.6832
  O  O247  1  0.723690  0.350000  0.347800  1.0  -0.7068
  O  O248  1  0.802410  0.268500  0.375400  1.0  -0.6907
  O  O249  1  0.881500  0.937500  0.107900  1.0  -0.6961
  O  O250  1  0.582650  0.688500  0.047000  1.0  -0.6861
  O  O251  1  0.597420  0.838700  0.003800  1.0  -0.6344
  O  O252  1  0.272970  0.142100  0.041600  1.0  -0.8426
  O  O253  1  0.200080  0.060500  0.066000  1.0  -0.6832
  O  O254  1  0.223690  0.850000  0.347800  1.0  -0.7068
  O  O255  1  0.302410  0.768500  0.375400  1.0  -0.6907
  O  O256  1  0.381500  0.437500  0.107900  1.0  -0.6961
