# generated using pymatgen
data_CdH14C19N2O5
_symmetry_space_group_name_H-M   'P 1'
_cell_length_a   11.73680000
_cell_length_b   11.73680000
_cell_length_c   15.46200000
_cell_angle_alpha   82.00110000
_cell_angle_beta   82.00110000
_cell_angle_gamma   76.69060000
_symmetry_Int_Tables_number   1
_chemical_formula_structural   CdH14C19N2O5
_chemical_formula_sum   'Cd4 H56 C76 N8 O20'
_cell_volume   2039.83511521
_cell_formula_units_Z   4
loop_
 _symmetry_equiv_pos_site_id
 _symmetry_equiv_pos_as_xyz
  1  'x, y, z'
loop_
 _atom_site_type_symbol
 _atom_site_label
 _atom_site_symmetry_multiplicity
 _atom_site_fract_x
 _atom_site_fract_y
 _atom_site_fract_z
 _atom_site_occupancy
 _atom_site_charge
  Cd  Cd1  1  0.971960  0.464230  0.128450  1.0  0.988
  Cd  Cd2  1  0.535770  0.028040  0.371550  1.0  0.9873
  Cd  Cd3  1  0.028040  0.535770  0.871550  1.0  0.9869
  Cd  Cd4  1  0.464230  0.971960  0.628450  1.0  0.9876
  H  H5  1  0.884900  0.404700  0.453600  1.0  0.1146
  H  H6  1  0.767400  0.362600  0.581200  1.0  0.1013
  H  H7  1  0.577300  0.342900  0.576600  1.0  0.1245
  H  H8  1  0.615500  0.422900  0.315400  1.0  0.1214
  H  H9  1  0.315200  0.346000  0.495600  1.0  0.1224
  H  H10  1  0.395900  0.383100  0.554500  1.0  0.0766
  H  H11  1  0.817800  0.283200  0.116100  1.0  0.0617
  H  H12  1  0.810500  0.090300  0.124500  1.0  0.1145
  H  H13  1  0.809500  0.918300  0.109100  1.0  0.1296
  H  H14  1  0.810200  0.722800  0.115900  1.0  0.0873
  H  H15  1  0.133400  0.635200  0.166100  1.0  0.0815
  H  H16  1  0.143600  0.827800  0.160600  1.0  0.12
  H  H17  1  0.153600  0.008400  0.131000  1.0  0.1215
  H  H18  1  0.150400  0.203800  0.124900  1.0  0.0766
  H  H19  1  0.595300  0.115100  0.046400  1.0  0.1156
  H  H20  1  0.637400  0.232600  0.918800  1.0  0.1011
  H  H21  1  0.657100  0.422700  0.923400  1.0  0.1248
  H  H22  1  0.577100  0.384500  0.184600  1.0  0.1211
  H  H23  1  0.654000  0.684800  0.004400  1.0  0.1239
  H  H24  1  0.616900  0.604100  0.945500  1.0  0.0778
  H  H25  1  0.716800  0.182200  0.383900  1.0  0.0611
  H  H26  1  0.909700  0.189500  0.375500  1.0  0.1142
  H  H27  1  0.081700  0.190500  0.390900  1.0  0.1309
  H  H28  1  0.277200  0.189800  0.384100  1.0  0.0868
  H  H29  1  0.364800  0.866600  0.333900  1.0  0.0814
  H  H30  1  0.172200  0.856400  0.339400  1.0  0.12
  H  H31  1  0.991600  0.846400  0.369000  1.0  0.1234
  H  H32  1  0.796200  0.849600  0.375100  1.0  0.0746
  H  H33  1  0.115100  0.595300  0.546400  1.0  0.1146
  H  H34  1  0.232600  0.637400  0.418800  1.0  0.1008
  H  H35  1  0.422700  0.657100  0.423400  1.0  0.1255
  H  H36  1  0.384500  0.577100  0.684600  1.0  0.12
  H  H37  1  0.684800  0.654000  0.504400  1.0  0.1228
  H  H38  1  0.604100  0.616900  0.445500  1.0  0.077
  H  H39  1  0.182200  0.716800  0.883900  1.0  0.0611
  H  H40  1  0.189500  0.909700  0.875500  1.0  0.1138
  H  H41  1  0.190500  0.081700  0.890900  1.0  0.1291
  H  H42  1  0.189800  0.277200  0.884100  1.0  0.0877
  H  H43  1  0.866600  0.364800  0.833900  1.0  0.0805
  H  H44  1  0.856400  0.172200  0.839400  1.0  0.1202
  H  H45  1  0.846400  0.991600  0.869000  1.0  0.1216
  H  H46  1  0.849600  0.796200  0.875100  1.0  0.0768
  H  H47  1  0.404700  0.884900  0.953600  1.0  0.1153
  H  H48  1  0.362600  0.767400  0.081200  1.0  0.1012
  H  H49  1  0.342900  0.577300  0.076600  1.0  0.1242
  H  H50  1  0.422900  0.615500  0.815400  1.0  0.1218
  H  H51  1  0.346000  0.315200  0.995600  1.0  0.1197
  H  H52  1  0.383100  0.395900  0.054500  1.0  0.0777
  H  H53  1  0.283200  0.817800  0.616100  1.0  0.0608
  H  H54  1  0.090300  0.810500  0.624500  1.0  0.1135
  H  H55  1  0.918300  0.809500  0.609100  1.0  0.1305
  H  H56  1  0.722800  0.810200  0.615900  1.0  0.0868
  H  H57  1  0.635200  0.133400  0.666100  1.0  0.0807
  H  H58  1  0.827800  0.143600  0.660600  1.0  0.1204
  H  H59  1  0.008400  0.153600  0.631000  1.0  0.1235
  H  H60  1  0.203800  0.150400  0.624900  1.0  0.0754
  C  C61  1  0.837200  0.441660  0.286580  1.0  0.6354
  C  C62  1  0.761610  0.417250  0.371270  1.0  -0.09
  C  C63  1  0.807600  0.399140  0.451310  1.0  -0.1247
  C  C64  1  0.737480  0.372880  0.527340  1.0  -0.0596
  C  C65  1  0.623280  0.361520  0.524850  1.0  -0.2446
  C  C66  1  0.577690  0.377830  0.445350  1.0  0.265
  C  C67  1  0.646960  0.408340  0.368860  1.0  -0.1745
  C  C68  1  0.395450  0.332610  0.509960  1.0  -0.0677
  C  C69  1  0.432700  0.205660  0.547940  1.0  0.6395
  C  C70  1  0.887920  0.227120  0.119100  1.0  0.1923
  C  C71  1  0.882760  0.110360  0.123700  1.0  -0.1913
  C  C72  1  0.981150  0.024810  0.127170  1.0  0.0873
  C  C73  1  0.977780  0.898500  0.131860  1.0  0.0922
  C  C74  1  0.877850  0.862650  0.119800  1.0  -0.1911
  C  C75  1  0.879170  0.744370  0.123700  1.0  0.1861
  C  C76  1  0.067630  0.693230  0.153000  1.0  0.1824
  C  C77  1  0.074210  0.809210  0.150200  1.0  -0.2037
  C  C78  1  0.082480  0.062680  0.127800  1.0  -0.2031
  C  C79  1  0.079710  0.181310  0.123800  1.0  0.1826
  C  C80  1  0.558340  0.162800  0.213420  1.0  0.635
  C  C81  1  0.582750  0.238390  0.128730  1.0  -0.0909
  C  C82  1  0.600860  0.192400  0.048690  1.0  -0.1324
  C  C83  1  0.627120  0.262520  0.972660  1.0  -0.0525
  C  C84  1  0.638480  0.376720  0.975150  1.0  -0.2456
  C  C85  1  0.622170  0.422310  0.054650  1.0  0.2655
  C  C86  1  0.591660  0.353040  0.131140  1.0  -0.1716
  C  C87  1  0.667390  0.604550  0.990040  1.0  -0.0682
  C  C88  1  0.794340  0.567300  0.952060  1.0  0.6375
  C  C89  1  0.772880  0.112080  0.380900  1.0  0.1925
  C  C90  1  0.889640  0.117240  0.376300  1.0  -0.1912
  C  C91  1  0.975190  0.018850  0.372830  1.0  0.089
  C  C92  1  0.101500  0.022220  0.368140  1.0  0.0906
  C  C93  1  0.137350  0.122150  0.380200  1.0  -0.1954
  C  C94  1  0.255630  0.120830  0.376300  1.0  0.1836
  C  C95  1  0.306770  0.932370  0.347000  1.0  0.1845
  C  C96  1  0.190790  0.925790  0.349800  1.0  -0.2021
  C  C97  1  0.937320  0.917520  0.372200  1.0  -0.2051
  C  C98  1  0.818690  0.920290  0.376200  1.0  0.1794
  C  C99  1  0.162800  0.558340  0.713420  1.0  0.6367
  C  C100  1  0.238390  0.582750  0.628730  1.0  -0.0869
  C  C101  1  0.192400  0.600860  0.548690  1.0  -0.1309
  C  C102  1  0.262520  0.627120  0.472660  1.0  -0.0549
  C  C103  1  0.376720  0.638480  0.475150  1.0  -0.2458
  C  C104  1  0.422310  0.622170  0.554650  1.0  0.2652
  C  C105  1  0.353040  0.591660  0.631140  1.0  -0.1764
  C  C106  1  0.604550  0.667390  0.490040  1.0  -0.064
  C  C107  1  0.567300  0.794340  0.452060  1.0  0.6386
  C  C108  1  0.112080  0.772880  0.880900  1.0  0.1924
  C  C109  1  0.117240  0.889640  0.876300  1.0  -0.1915
  C  C110  1  0.018850  0.975190  0.872830  1.0  0.0887
  C  C111  1  0.022220  0.101500  0.868140  1.0  0.0925
  C  C112  1  0.122150  0.137350  0.880200  1.0  -0.1926
  C  C113  1  0.120830  0.255630  0.876300  1.0  0.1851
  C  C114  1  0.932370  0.306770  0.847000  1.0  0.183
  C  C115  1  0.925790  0.190790  0.849800  1.0  -0.2016
  C  C116  1  0.917520  0.937320  0.872200  1.0  -0.2023
  C  C117  1  0.920290  0.818690  0.876200  1.0  0.1826
  C  C118  1  0.441660  0.837200  0.786580  1.0  0.6347
  C  C119  1  0.417250  0.761610  0.871270  1.0  -0.0876
  C  C120  1  0.399140  0.807600  0.951310  1.0  -0.1325
  C  C121  1  0.372880  0.737480  0.027340  1.0  -0.0533
  C  C122  1  0.361520  0.623280  0.024850  1.0  -0.2455
  C  C123  1  0.377830  0.577690  0.945350  1.0  0.2661
  C  C124  1  0.408340  0.646960  0.868860  1.0  -0.1688
  C  C125  1  0.332610  0.395450  0.009960  1.0  -0.0686
  C  C126  1  0.205660  0.432700  0.047940  1.0  0.6361
  C  C127  1  0.227120  0.887920  0.619100  1.0  0.1927
  C  C128  1  0.110360  0.882760  0.623700  1.0  -0.1919
  C  C129  1  0.024810  0.981150  0.627170  1.0  0.0903
  C  C130  1  0.898500  0.977780  0.631860  1.0  0.0901
  C  C131  1  0.862650  0.877850  0.619800  1.0  -0.1946
  C  C132  1  0.744370  0.879170  0.623700  1.0  0.1837
  C  C133  1  0.693230  0.067630  0.653000  1.0  0.184
  C  C134  1  0.809210  0.074210  0.650200  1.0  -0.2014
  C  C135  1  0.062680  0.082480  0.627800  1.0  -0.2066
  C  C136  1  0.181310  0.079710  0.623800  1.0  0.1795
  N  N137  1  0.984340  0.264500  0.118590  1.0  -0.3271
  N  N138  1  0.972410  0.660030  0.137850  1.0  -0.3365
  N  N139  1  0.735500  0.015660  0.381410  1.0  -0.3239
  N  N140  1  0.339970  0.027590  0.362150  1.0  -0.3338
  N  N141  1  0.015660  0.735500  0.881410  1.0  -0.327
  N  N142  1  0.027590  0.339970  0.862150  1.0  -0.336
  N  N143  1  0.264500  0.984340  0.618590  1.0  -0.3222
  N  N144  1  0.660030  0.972410  0.637850  1.0  -0.333
  O  O145  1  0.788440  0.484640  0.218390  1.0  -0.6034
  O  O146  1  0.947330  0.413330  0.285080  1.0  -0.6138
  O  O147  1  0.467990  0.365770  0.433570  1.0  -0.2321
  O  O148  1  0.478990  0.126970  0.499180  1.0  -0.6358
  O  O149  1  0.410140  0.182120  0.629390  1.0  -0.6029
  O  O150  1  0.515360  0.211560  0.281610  1.0  -0.6048
  O  O151  1  0.586670  0.052670  0.214920  1.0  -0.6179
  O  O152  1  0.634230  0.532010  0.066430  1.0  -0.2369
  O  O153  1  0.873030  0.521010  0.000820  1.0  -0.6338
  O  O154  1  0.817880  0.589860  0.870610  1.0  -0.5999
  O  O155  1  0.211560  0.515360  0.781610  1.0  -0.6039
  O  O156  1  0.052670  0.586670  0.714920  1.0  -0.6137
  O  O157  1  0.532010  0.634230  0.566430  1.0  -0.2317
  O  O158  1  0.521010  0.873030  0.500820  1.0  -0.6373
  O  O159  1  0.589860  0.817880  0.370610  1.0  -0.6013
  O  O160  1  0.484640  0.788440  0.718390  1.0  -0.6051
  O  O161  1  0.413330  0.947330  0.785080  1.0  -0.6163
  O  O162  1  0.365770  0.467990  0.933570  1.0  -0.2371
  O  O163  1  0.126970  0.478990  0.999180  1.0  -0.6331
  O  O164  1  0.182120  0.410140  0.129390  1.0  -0.6019
