# generated using pymatgen
data_Zn7H6C30(NO2)12
_symmetry_space_group_name_H-M   'P 1'
_cell_length_a   25.97600000
_cell_length_b   25.97600000
_cell_length_c   25.97600000
_cell_angle_alpha   90.00000000
_cell_angle_beta   90.00000000
_cell_angle_gamma   90.00000000
_symmetry_Int_Tables_number   1
_chemical_formula_structural   Zn7H6C30(NO2)12
_chemical_formula_sum   'Zn56 H48 C240 N96 O192'
_cell_volume   17527.37291418
_cell_formula_units_Z   8
loop_
 _symmetry_equiv_pos_site_id
 _symmetry_equiv_pos_as_xyz
  1  'x, y, z'
loop_
 _atom_site_type_symbol
 _atom_site_label
 _atom_site_symmetry_multiplicity
 _atom_site_fract_x
 _atom_site_fract_y
 _atom_site_fract_z
 _atom_site_occupancy
 _atom_site_charge
  Zn  Zn1  1  0.378850  0.621150  0.878850  1.0  0.7975
  Zn  Zn2  1  0.621150  0.378850  0.878850  1.0  0.7966
  Zn  Zn3  1  0.621150  0.621150  0.121150  1.0  0.7962
  Zn  Zn4  1  0.378850  0.378850  0.121150  1.0  0.7981
  Zn  Zn5  1  0.878850  0.378850  0.621150  1.0  0.7981
  Zn  Zn6  1  0.878850  0.878850  0.121150  1.0  0.7981
  Zn  Zn7  1  0.878850  0.621150  0.378850  1.0  0.7975
  Zn  Zn8  1  0.878850  0.121150  0.878850  1.0  0.7975
  Zn  Zn9  1  0.121150  0.621150  0.621150  1.0  0.7962
  Zn  Zn10  1  0.121150  0.121150  0.121150  1.0  0.7962
  Zn  Zn11  1  0.121150  0.378850  0.378850  1.0  0.7966
  Zn  Zn12  1  0.121150  0.878850  0.878850  1.0  0.7966
  Zn  Zn13  1  0.621150  0.878850  0.378850  1.0  0.7966
  Zn  Zn14  1  0.378850  0.878850  0.621150  1.0  0.7981
  Zn  Zn15  1  0.621150  0.121150  0.621150  1.0  0.7962
  Zn  Zn16  1  0.378850  0.121150  0.378850  1.0  0.7975
  Zn  Zn17  1  0.621150  0.378850  0.121150  1.0  0.7966
  Zn  Zn18  1  0.378850  0.621150  0.121150  1.0  0.7976
  Zn  Zn19  1  0.378850  0.378850  0.878850  1.0  0.798
  Zn  Zn20  1  0.621150  0.621150  0.878850  1.0  0.7961
  Zn  Zn21  1  0.121150  0.621150  0.378850  1.0  0.7961
  Zn  Zn22  1  0.121150  0.121150  0.878850  1.0  0.7961
  Zn  Zn23  1  0.121150  0.378850  0.621150  1.0  0.7966
  Zn  Zn24  1  0.121150  0.878850  0.121150  1.0  0.7966
  Zn  Zn25  1  0.878850  0.378850  0.378850  1.0  0.798
  Zn  Zn26  1  0.878850  0.878850  0.878850  1.0  0.798
  Zn  Zn27  1  0.878850  0.621150  0.621150  1.0  0.7976
  Zn  Zn28  1  0.878850  0.121150  0.121150  1.0  0.7976
  Zn  Zn29  1  0.378850  0.121150  0.621150  1.0  0.7976
  Zn  Zn30  1  0.621150  0.121150  0.378850  1.0  0.7961
  Zn  Zn31  1  0.378850  0.878850  0.378850  1.0  0.798
  Zn  Zn32  1  0.621150  0.878850  0.621150  1.0  0.7966
  Zn  Zn33  1  0.250000  0.500000  0.750000  1.0  1.1388
  Zn  Zn34  1  0.250000  0.000000  0.250000  1.0  1.1388
  Zn  Zn35  1  0.750000  0.500000  0.750000  1.0  1.1388
  Zn  Zn36  1  0.750000  0.000000  0.250000  1.0  1.1388
  Zn  Zn37  1  0.750000  0.500000  0.250000  1.0  1.1388
  Zn  Zn38  1  0.750000  0.000000  0.750000  1.0  1.1388
  Zn  Zn39  1  0.250000  0.500000  0.250000  1.0  1.1388
  Zn  Zn40  1  0.250000  0.000000  0.750000  1.0  1.1388
  Zn  Zn41  1  0.750000  0.250000  0.500000  1.0  1.1388
  Zn  Zn42  1  0.750000  0.750000  0.000000  1.0  1.1388
  Zn  Zn43  1  0.750000  0.750000  0.500000  1.0  1.1388
  Zn  Zn44  1  0.750000  0.250000  0.000000  1.0  1.1388
  Zn  Zn45  1  0.250000  0.750000  0.500000  1.0  1.1388
  Zn  Zn46  1  0.250000  0.250000  0.000000  1.0  1.1388
  Zn  Zn47  1  0.250000  0.250000  0.500000  1.0  1.1388
  Zn  Zn48  1  0.250000  0.750000  0.000000  1.0  1.1388
  Zn  Zn49  1  0.500000  0.750000  0.250000  1.0  1.1388
  Zn  Zn50  1  0.000000  0.750000  0.750000  1.0  1.1388
  Zn  Zn51  1  0.500000  0.750000  0.750000  1.0  1.1388
  Zn  Zn52  1  0.000000  0.750000  0.250000  1.0  1.1388
  Zn  Zn53  1  0.500000  0.250000  0.750000  1.0  1.1388
  Zn  Zn54  1  0.000000  0.250000  0.250000  1.0  1.1388
  Zn  Zn55  1  0.500000  0.250000  0.250000  1.0  1.1388
  Zn  Zn56  1  0.000000  0.250000  0.750000  1.0  1.1388
  H  H57  1  0.392200  0.500000  0.931900  1.0  0.0838
  H  H58  1  0.392200  0.000000  0.431900  1.0  0.0838
  H  H59  1  0.892200  0.500000  0.431900  1.0  0.0838
  H  H60  1  0.892200  0.000000  0.931900  1.0  0.0838
  H  H61  1  0.607800  0.500000  0.931900  1.0  0.0842
  H  H62  1  0.607800  0.000000  0.431900  1.0  0.0842
  H  H63  1  0.107800  0.500000  0.431900  1.0  0.0842
  H  H64  1  0.107800  0.000000  0.931900  1.0  0.0842
  H  H65  1  0.607800  0.500000  0.068100  1.0  0.0844
  H  H66  1  0.607800  0.000000  0.568100  1.0  0.0844
  H  H67  1  0.107800  0.500000  0.568100  1.0  0.0844
  H  H68  1  0.107800  0.000000  0.068100  1.0  0.0844
  H  H69  1  0.392200  0.500000  0.068100  1.0  0.0843
  H  H70  1  0.392200  0.000000  0.568100  1.0  0.0843
  H  H71  1  0.892200  0.500000  0.568100  1.0  0.0843
  H  H72  1  0.892200  0.000000  0.068100  1.0  0.0843
  H  H73  1  0.931900  0.392200  0.500000  1.0  0.0846
  H  H74  1  0.931900  0.892200  0.000000  1.0  0.0846
  H  H75  1  0.431900  0.392200  0.000000  1.0  0.0846
  H  H76  1  0.431900  0.892200  0.500000  1.0  0.0846
  H  H77  1  0.931900  0.607800  0.500000  1.0  0.0848
  H  H78  1  0.931900  0.107800  0.000000  1.0  0.0848
  H  H79  1  0.431900  0.607800  0.000000  1.0  0.0848
  H  H80  1  0.431900  0.107800  0.500000  1.0  0.0848
  H  H81  1  0.068100  0.607800  0.500000  1.0  0.0841
  H  H82  1  0.068100  0.107800  0.000000  1.0  0.0841
  H  H83  1  0.568100  0.607800  0.000000  1.0  0.0841
  H  H84  1  0.568100  0.107800  0.500000  1.0  0.0841
  H  H85  1  0.068100  0.392200  0.500000  1.0  0.0842
  H  H86  1  0.068100  0.892200  0.000000  1.0  0.0842
  H  H87  1  0.568100  0.392200  0.000000  1.0  0.0842
  H  H88  1  0.568100  0.892200  0.500000  1.0  0.0842
  H  H89  1  0.500000  0.931900  0.392200  1.0  0.0868
  H  H90  1  0.500000  0.431900  0.892200  1.0  0.0868
  H  H91  1  0.000000  0.931900  0.892200  1.0  0.0868
  H  H92  1  0.000000  0.431900  0.392200  1.0  0.0868
  H  H93  1  0.500000  0.931900  0.607800  1.0  0.0866
  H  H94  1  0.500000  0.431900  0.107800  1.0  0.0866
  H  H95  1  0.000000  0.931900  0.107800  1.0  0.0866
  H  H96  1  0.000000  0.431900  0.607800  1.0  0.0866
  H  H97  1  0.500000  0.068100  0.607800  1.0  0.0859
  H  H98  1  0.500000  0.568100  0.107800  1.0  0.0859
  H  H99  1  0.000000  0.068100  0.107800  1.0  0.0859
  H  H100  1  0.000000  0.568100  0.607800  1.0  0.0859
  H  H101  1  0.500000  0.068100  0.392200  1.0  0.0862
  H  H102  1  0.500000  0.568100  0.892200  1.0  0.0862
  H  H103  1  0.000000  0.068100  0.892200  1.0  0.0862
  H  H104  1  0.000000  0.568100  0.392200  1.0  0.0862
  C  C105  1  0.348400  0.526600  0.826000  1.0  0.0129
  C  C106  1  0.334400  0.567500  0.790200  1.0  0.74
  C  C107  1  0.348400  0.026600  0.326000  1.0  0.0129
  C  C108  1  0.334400  0.067500  0.290200  1.0  0.74
  C  C109  1  0.848400  0.526600  0.326000  1.0  0.0129
  C  C110  1  0.834400  0.567500  0.290200  1.0  0.74
  C  C111  1  0.848400  0.026600  0.826000  1.0  0.0129
  C  C112  1  0.834400  0.067500  0.790200  1.0  0.74
  C  C113  1  0.651600  0.473400  0.826000  1.0  0.0123
  C  C114  1  0.665600  0.432500  0.790200  1.0  0.7418
  C  C115  1  0.651600  0.973400  0.326000  1.0  0.0123
  C  C116  1  0.665600  0.932500  0.290200  1.0  0.7418
  C  C117  1  0.151600  0.473400  0.326000  1.0  0.0123
  C  C118  1  0.165600  0.432500  0.290200  1.0  0.7418
  C  C119  1  0.151600  0.973400  0.826000  1.0  0.0123
  C  C120  1  0.165600  0.932500  0.790200  1.0  0.7418
  C  C121  1  0.651600  0.526600  0.174000  1.0  0.0131
  C  C122  1  0.665600  0.567500  0.209800  1.0  0.7425
  C  C123  1  0.651600  0.026600  0.674000  1.0  0.0131
  C  C124  1  0.665600  0.067500  0.709800  1.0  0.7425
  C  C125  1  0.151600  0.526600  0.674000  1.0  0.0131
  C  C126  1  0.165600  0.567500  0.709800  1.0  0.7425
  C  C127  1  0.151600  0.026600  0.174000  1.0  0.0131
  C  C128  1  0.165600  0.067500  0.209800  1.0  0.7425
  C  C129  1  0.348400  0.473400  0.174000  1.0  0.0129
  C  C130  1  0.334400  0.432500  0.209800  1.0  0.7437
  C  C131  1  0.348400  0.973400  0.674000  1.0  0.0129
  C  C132  1  0.334400  0.932500  0.709800  1.0  0.7437
  C  C133  1  0.848400  0.473400  0.674000  1.0  0.0129
  C  C134  1  0.834400  0.432500  0.709800  1.0  0.7437
  C  C135  1  0.848400  0.973400  0.174000  1.0  0.0129
  C  C136  1  0.834400  0.932500  0.209800  1.0  0.7437
  C  C137  1  0.826000  0.348400  0.526600  1.0  0.0132
  C  C138  1  0.790200  0.334400  0.567500  1.0  0.7415
  C  C139  1  0.826000  0.848400  0.026600  1.0  0.0132
  C  C140  1  0.790200  0.834400  0.067500  1.0  0.7415
  C  C141  1  0.326000  0.348400  0.026600  1.0  0.0132
  C  C142  1  0.290200  0.334400  0.067500  1.0  0.7415
  C  C143  1  0.326000  0.848400  0.526600  1.0  0.0132
  C  C144  1  0.290200  0.834400  0.567500  1.0  0.7415
  C  C145  1  0.826000  0.651600  0.473400  1.0  0.0135
  C  C146  1  0.790200  0.665600  0.432500  1.0  0.7416
  C  C147  1  0.826000  0.151600  0.973400  1.0  0.0135
  C  C148  1  0.790200  0.165600  0.932500  1.0  0.7416
  C  C149  1  0.326000  0.651600  0.973400  1.0  0.0135
  C  C150  1  0.290200  0.665600  0.932500  1.0  0.7416
  C  C151  1  0.326000  0.151600  0.473400  1.0  0.0135
  C  C152  1  0.290200  0.165600  0.432500  1.0  0.7416
  C  C153  1  0.174000  0.651600  0.526600  1.0  0.0131
  C  C154  1  0.209800  0.665600  0.567500  1.0  0.7419
  C  C155  1  0.174000  0.151600  0.026600  1.0  0.0131
  C  C156  1  0.209800  0.165600  0.067500  1.0  0.7419
  C  C157  1  0.674000  0.651600  0.026600  1.0  0.0131
  C  C158  1  0.709800  0.665600  0.067500  1.0  0.7419
  C  C159  1  0.674000  0.151600  0.526600  1.0  0.0131
  C  C160  1  0.709800  0.165600  0.567500  1.0  0.7419
  C  C161  1  0.174000  0.348400  0.473400  1.0  0.0132
  C  C162  1  0.209800  0.334400  0.432500  1.0  0.742
  C  C163  1  0.174000  0.848400  0.973400  1.0  0.0132
  C  C164  1  0.209800  0.834400  0.932500  1.0  0.742
  C  C165  1  0.674000  0.348400  0.973400  1.0  0.0132
  C  C166  1  0.709800  0.334400  0.932500  1.0  0.742
  C  C167  1  0.674000  0.848400  0.473400  1.0  0.0132
  C  C168  1  0.709800  0.834400  0.432500  1.0  0.742
  C  C169  1  0.526600  0.826000  0.348400  1.0  0.0126
  C  C170  1  0.567500  0.790200  0.334400  1.0  0.7374
  C  C171  1  0.526600  0.326000  0.848400  1.0  0.0126
  C  C172  1  0.567500  0.290200  0.834400  1.0  0.7374
  C  C173  1  0.026600  0.826000  0.848400  1.0  0.0126
  C  C174  1  0.067500  0.790200  0.834400  1.0  0.7374
  C  C175  1  0.026600  0.326000  0.348400  1.0  0.0126
  C  C176  1  0.067500  0.290200  0.334400  1.0  0.7374
  C  C177  1  0.473400  0.826000  0.651600  1.0  0.0122
  C  C178  1  0.432500  0.790200  0.665600  1.0  0.7371
  C  C179  1  0.473400  0.326000  0.151600  1.0  0.0122
  C  C180  1  0.432500  0.290200  0.165600  1.0  0.7371
  C  C181  1  0.973400  0.826000  0.151600  1.0  0.0122
  C  C182  1  0.932500  0.790200  0.165600  1.0  0.7371
  C  C183  1  0.973400  0.326000  0.651600  1.0  0.0122
  C  C184  1  0.932500  0.290200  0.665600  1.0  0.7371
  C  C185  1  0.526600  0.174000  0.651600  1.0  0.0127
  C  C186  1  0.567500  0.209800  0.665600  1.0  0.736
  C  C187  1  0.526600  0.674000  0.151600  1.0  0.0127
  C  C188  1  0.567500  0.709800  0.165600  1.0  0.736
  C  C189  1  0.026600  0.174000  0.151600  1.0  0.0127
  C  C190  1  0.067500  0.209800  0.165600  1.0  0.736
  C  C191  1  0.026600  0.674000  0.651600  1.0  0.0127
  C  C192  1  0.067500  0.709800  0.665600  1.0  0.736
  C  C193  1  0.473400  0.174000  0.348400  1.0  0.0123
  C  C194  1  0.432500  0.209800  0.334400  1.0  0.7341
  C  C195  1  0.473400  0.674000  0.848400  1.0  0.0123
  C  C196  1  0.432500  0.709800  0.834400  1.0  0.7341
  C  C197  1  0.973400  0.174000  0.848400  1.0  0.0123
  C  C198  1  0.932500  0.209800  0.834400  1.0  0.7341
  C  C199  1  0.973400  0.674000  0.348400  1.0  0.0123
  C  C200  1  0.932500  0.709800  0.334400  1.0  0.7341
  C  C201  1  0.651600  0.473400  0.174000  1.0  0.0134
  C  C202  1  0.665600  0.432500  0.209800  1.0  0.745
  C  C203  1  0.651600  0.973400  0.674000  1.0  0.0134
  C  C204  1  0.665600  0.932500  0.709800  1.0  0.745
  C  C205  1  0.151600  0.473400  0.674000  1.0  0.0134
  C  C206  1  0.165600  0.432500  0.709800  1.0  0.745
  C  C207  1  0.151600  0.973400  0.174000  1.0  0.0134
  C  C208  1  0.165600  0.932500  0.209800  1.0  0.745
  C  C209  1  0.348400  0.526600  0.174000  1.0  0.013
  C  C210  1  0.334400  0.567500  0.209800  1.0  0.7407
  C  C211  1  0.348400  0.026600  0.674000  1.0  0.013
  C  C212  1  0.334400  0.067500  0.709800  1.0  0.7407
  C  C213  1  0.848400  0.526600  0.674000  1.0  0.013
  C  C214  1  0.834400  0.567500  0.709800  1.0  0.7407
  C  C215  1  0.848400  0.026600  0.174000  1.0  0.013
  C  C216  1  0.834400  0.067500  0.209800  1.0  0.7407
  C  C217  1  0.348400  0.473400  0.826000  1.0  0.0125
  C  C218  1  0.334400  0.432500  0.790200  1.0  0.7419
  C  C219  1  0.348400  0.973400  0.326000  1.0  0.0125
  C  C220  1  0.334400  0.932500  0.290200  1.0  0.7419
  C  C221  1  0.848400  0.473400  0.326000  1.0  0.0125
  C  C222  1  0.834400  0.432500  0.290200  1.0  0.7419
  C  C223  1  0.848400  0.973400  0.826000  1.0  0.0125
  C  C224  1  0.834400  0.932500  0.790200  1.0  0.7419
  C  C225  1  0.651600  0.526600  0.826000  1.0  0.013
  C  C226  1  0.665600  0.567500  0.790200  1.0  0.7401
  C  C227  1  0.651600  0.026600  0.326000  1.0  0.013
  C  C228  1  0.665600  0.067500  0.290200  1.0  0.7401
  C  C229  1  0.151600  0.526600  0.326000  1.0  0.013
  C  C230  1  0.165600  0.567500  0.290200  1.0  0.7401
  C  C231  1  0.151600  0.026600  0.826000  1.0  0.013
  C  C232  1  0.165600  0.067500  0.790200  1.0  0.7401
  C  C233  1  0.174000  0.651600  0.473400  1.0  0.0134
  C  C234  1  0.209800  0.665600  0.432500  1.0  0.7414
  C  C235  1  0.174000  0.151600  0.973400  1.0  0.0134
  C  C236  1  0.209800  0.165600  0.932500  1.0  0.7414
  C  C237  1  0.674000  0.651600  0.973400  1.0  0.0134
  C  C238  1  0.709800  0.665600  0.932500  1.0  0.7414
  C  C239  1  0.674000  0.151600  0.473400  1.0  0.0134
  C  C240  1  0.709800  0.165600  0.432500  1.0  0.7414
  C  C241  1  0.174000  0.348400  0.526600  1.0  0.0133
  C  C242  1  0.209800  0.334400  0.567500  1.0  0.7425
  C  C243  1  0.174000  0.848400  0.026600  1.0  0.0133
  C  C244  1  0.209800  0.834400  0.067500  1.0  0.7425
  C  C245  1  0.674000  0.348400  0.026600  1.0  0.0133
  C  C246  1  0.709800  0.334400  0.067500  1.0  0.7425
  C  C247  1  0.674000  0.848400  0.526600  1.0  0.0133
  C  C248  1  0.709800  0.834400  0.567500  1.0  0.7425
  C  C249  1  0.826000  0.348400  0.473400  1.0  0.0133
  C  C250  1  0.790200  0.334400  0.432500  1.0  0.742
  C  C251  1  0.826000  0.848400  0.973400  1.0  0.0133
  C  C252  1  0.790200  0.834400  0.932500  1.0  0.742
  C  C253  1  0.326000  0.348400  0.973400  1.0  0.0133
  C  C254  1  0.290200  0.334400  0.932500  1.0  0.742
  C  C255  1  0.326000  0.848400  0.473400  1.0  0.0133
  C  C256  1  0.290200  0.834400  0.432500  1.0  0.742
  C  C257  1  0.826000  0.651600  0.526600  1.0  0.0135
  C  C258  1  0.790200  0.665600  0.567500  1.0  0.7408
  C  C259  1  0.826000  0.151600  0.026600  1.0  0.0135
  C  C260  1  0.790200  0.165600  0.067500  1.0  0.7408
  C  C261  1  0.326000  0.651600  0.026600  1.0  0.0135
  C  C262  1  0.290200  0.665600  0.067500  1.0  0.7408
  C  C263  1  0.326000  0.151600  0.526600  1.0  0.0135
  C  C264  1  0.290200  0.165600  0.567500  1.0  0.7408
  C  C265  1  0.473400  0.174000  0.651600  1.0  0.0124
  C  C266  1  0.432500  0.209800  0.665600  1.0  0.7347
  C  C267  1  0.473400  0.674000  0.151600  1.0  0.0124
  C  C268  1  0.432500  0.709800  0.165600  1.0  0.7347
  C  C269  1  0.973400  0.174000  0.151600  1.0  0.0124
  C  C270  1  0.932500  0.209800  0.165600  1.0  0.7347
  C  C271  1  0.973400  0.674000  0.651600  1.0  0.0124
  C  C272  1  0.932500  0.709800  0.665600  1.0  0.7347
  C  C273  1  0.526600  0.174000  0.348400  1.0  0.0127
  C  C274  1  0.567500  0.209800  0.334400  1.0  0.7358
  C  C275  1  0.526600  0.674000  0.848400  1.0  0.0127
  C  C276  1  0.567500  0.709800  0.834400  1.0  0.7358
  C  C277  1  0.026600  0.174000  0.848400  1.0  0.0127
  C  C278  1  0.067500  0.209800  0.834400  1.0  0.7358
  C  C279  1  0.026600  0.674000  0.348400  1.0  0.0127
  C  C280  1  0.067500  0.709800  0.334400  1.0  0.7358
  C  C281  1  0.473400  0.826000  0.348400  1.0  0.0123
  C  C282  1  0.432500  0.790200  0.334400  1.0  0.7369
  C  C283  1  0.473400  0.326000  0.848400  1.0  0.0123
  C  C284  1  0.432500  0.290200  0.834400  1.0  0.7369
  C  C285  1  0.973400  0.826000  0.848400  1.0  0.0123
  C  C286  1  0.932500  0.790200  0.834400  1.0  0.7369
  C  C287  1  0.973400  0.326000  0.348400  1.0  0.0123
  C  C288  1  0.932500  0.290200  0.334400  1.0  0.7369
  C  C289  1  0.526600  0.826000  0.651600  1.0  0.0129
  C  C290  1  0.567500  0.790200  0.665600  1.0  0.7375
  C  C291  1  0.526600  0.326000  0.151600  1.0  0.0129
  C  C292  1  0.567500  0.290200  0.165600  1.0  0.7375
  C  C293  1  0.026600  0.826000  0.151600  1.0  0.0129
  C  C294  1  0.067500  0.790200  0.165600  1.0  0.7375
  C  C295  1  0.026600  0.326000  0.651600  1.0  0.0129
  C  C296  1  0.067500  0.290200  0.665600  1.0  0.7375
  C  C297  1  0.379000  0.500000  0.897700  1.0  0.3119
  C  C298  1  0.379000  0.000000  0.397700  1.0  0.3119
  C  C299  1  0.879000  0.500000  0.397700  1.0  0.3119
  C  C300  1  0.879000  0.000000  0.897700  1.0  0.3119
  C  C301  1  0.621000  0.500000  0.897700  1.0  0.3131
  C  C302  1  0.621000  0.000000  0.397700  1.0  0.3131
  C  C303  1  0.121000  0.500000  0.397700  1.0  0.3131
  C  C304  1  0.121000  0.000000  0.897700  1.0  0.3131
  C  C305  1  0.621000  0.500000  0.102300  1.0  0.3135
  C  C306  1  0.621000  0.000000  0.602300  1.0  0.3135
  C  C307  1  0.121000  0.500000  0.602300  1.0  0.3135
  C  C308  1  0.121000  0.000000  0.102300  1.0  0.3135
  C  C309  1  0.379000  0.500000  0.102300  1.0  0.3125
  C  C310  1  0.379000  0.000000  0.602300  1.0  0.3125
  C  C311  1  0.879000  0.500000  0.602300  1.0  0.3125
  C  C312  1  0.879000  0.000000  0.102300  1.0  0.3125
  C  C313  1  0.897700  0.379000  0.500000  1.0  0.3125
  C  C314  1  0.897700  0.879000  0.000000  1.0  0.3125
  C  C315  1  0.397700  0.379000  0.000000  1.0  0.3125
  C  C316  1  0.397700  0.879000  0.500000  1.0  0.3125
  C  C317  1  0.897700  0.621000  0.500000  1.0  0.3125
  C  C318  1  0.897700  0.121000  0.000000  1.0  0.3125
  C  C319  1  0.397700  0.621000  0.000000  1.0  0.3125
  C  C320  1  0.397700  0.121000  0.500000  1.0  0.3125
  C  C321  1  0.102300  0.621000  0.500000  1.0  0.312
  C  C322  1  0.102300  0.121000  0.000000  1.0  0.312
  C  C323  1  0.602300  0.621000  0.000000  1.0  0.312
  C  C324  1  0.602300  0.121000  0.500000  1.0  0.312
  C  C325  1  0.102300  0.379000  0.500000  1.0  0.3114
  C  C326  1  0.102300  0.879000  0.000000  1.0  0.3114
  C  C327  1  0.602300  0.379000  0.000000  1.0  0.3114
  C  C328  1  0.602300  0.879000  0.500000  1.0  0.3114
  C  C329  1  0.500000  0.897700  0.379000  1.0  0.3095
  C  C330  1  0.500000  0.397700  0.879000  1.0  0.3095
  C  C331  1  0.000000  0.897700  0.879000  1.0  0.3095
  C  C332  1  0.000000  0.397700  0.379000  1.0  0.3095
  C  C333  1  0.500000  0.897700  0.621000  1.0  0.3101
  C  C334  1  0.500000  0.397700  0.121000  1.0  0.3101
  C  C335  1  0.000000  0.897700  0.121000  1.0  0.3101
  C  C336  1  0.000000  0.397700  0.621000  1.0  0.3101
  C  C337  1  0.500000  0.102300  0.621000  1.0  0.311
  C  C338  1  0.500000  0.602300  0.121000  1.0  0.311
  C  C339  1  0.000000  0.102300  0.121000  1.0  0.311
  C  C340  1  0.000000  0.602300  0.621000  1.0  0.311
  C  C341  1  0.500000  0.102300  0.379000  1.0  0.3109
  C  C342  1  0.500000  0.602300  0.879000  1.0  0.3109
  C  C343  1  0.000000  0.102300  0.879000  1.0  0.3109
  C  C344  1  0.000000  0.602300  0.379000  1.0  0.3109
  N  N345  1  0.368900  0.543000  0.871700  1.0  -0.417
  N  N346  1  0.368900  0.043000  0.371700  1.0  -0.417
  N  N347  1  0.868900  0.543000  0.371700  1.0  -0.417
  N  N348  1  0.868900  0.043000  0.871700  1.0  -0.417
  N  N349  1  0.631100  0.457000  0.871700  1.0  -0.4152
  N  N350  1  0.631100  0.957000  0.371700  1.0  -0.4152
  N  N351  1  0.131100  0.457000  0.371700  1.0  -0.4152
  N  N352  1  0.131100  0.957000  0.871700  1.0  -0.4152
  N  N353  1  0.631100  0.543000  0.128300  1.0  -0.4153
  N  N354  1  0.631100  0.043000  0.628300  1.0  -0.4153
  N  N355  1  0.131100  0.543000  0.628300  1.0  -0.4153
  N  N356  1  0.131100  0.043000  0.128300  1.0  -0.4153
  N  N357  1  0.368900  0.457000  0.128300  1.0  -0.4152
  N  N358  1  0.368900  0.957000  0.628300  1.0  -0.4152
  N  N359  1  0.868900  0.457000  0.628300  1.0  -0.4152
  N  N360  1  0.868900  0.957000  0.128300  1.0  -0.4152
  N  N361  1  0.871700  0.368900  0.543000  1.0  -0.4129
  N  N362  1  0.871700  0.868900  0.043000  1.0  -0.4129
  N  N363  1  0.371700  0.368900  0.043000  1.0  -0.4129
  N  N364  1  0.371700  0.868900  0.543000  1.0  -0.4129
  N  N365  1  0.871700  0.631100  0.457000  1.0  -0.4127
  N  N366  1  0.871700  0.131100  0.957000  1.0  -0.4127
  N  N367  1  0.371700  0.631100  0.957000  1.0  -0.4127
  N  N368  1  0.371700  0.131100  0.457000  1.0  -0.4127
  N  N369  1  0.128300  0.631100  0.543000  1.0  -0.4137
  N  N370  1  0.128300  0.131100  0.043000  1.0  -0.4137
  N  N371  1  0.628300  0.631100  0.043000  1.0  -0.4137
  N  N372  1  0.628300  0.131100  0.543000  1.0  -0.4137
  N  N373  1  0.128300  0.368900  0.457000  1.0  -0.4132
  N  N374  1  0.128300  0.868900  0.957000  1.0  -0.4132
  N  N375  1  0.628300  0.368900  0.957000  1.0  -0.4132
  N  N376  1  0.628300  0.868900  0.457000  1.0  -0.4132
  N  N377  1  0.543000  0.871700  0.368900  1.0  -0.4164
  N  N378  1  0.543000  0.371700  0.868900  1.0  -0.4164
  N  N379  1  0.043000  0.871700  0.868900  1.0  -0.4164
  N  N380  1  0.043000  0.371700  0.368900  1.0  -0.4164
  N  N381  1  0.457000  0.871700  0.631100  1.0  -0.4169
  N  N382  1  0.457000  0.371700  0.131100  1.0  -0.4169
  N  N383  1  0.957000  0.871700  0.131100  1.0  -0.4169
  N  N384  1  0.957000  0.371700  0.631100  1.0  -0.4169
  N  N385  1  0.543000  0.128300  0.631100  1.0  -0.4166
  N  N386  1  0.543000  0.628300  0.131100  1.0  -0.4166
  N  N387  1  0.043000  0.128300  0.131100  1.0  -0.4166
  N  N388  1  0.043000  0.628300  0.631100  1.0  -0.4166
  N  N389  1  0.457000  0.128300  0.368900  1.0  -0.4175
  N  N390  1  0.457000  0.628300  0.868900  1.0  -0.4175
  N  N391  1  0.957000  0.128300  0.868900  1.0  -0.4175
  N  N392  1  0.957000  0.628300  0.368900  1.0  -0.4175
  N  N393  1  0.631100  0.457000  0.128300  1.0  -0.4148
  N  N394  1  0.631100  0.957000  0.628300  1.0  -0.4148
  N  N395  1  0.131100  0.457000  0.628300  1.0  -0.4148
  N  N396  1  0.131100  0.957000  0.128300  1.0  -0.4148
  N  N397  1  0.368900  0.543000  0.128300  1.0  -0.4161
  N  N398  1  0.368900  0.043000  0.628300  1.0  -0.4161
  N  N399  1  0.868900  0.543000  0.628300  1.0  -0.4161
  N  N400  1  0.868900  0.043000  0.128300  1.0  -0.4161
  N  N401  1  0.368900  0.457000  0.871700  1.0  -0.4155
  N  N402  1  0.368900  0.957000  0.371700  1.0  -0.4155
  N  N403  1  0.868900  0.457000  0.371700  1.0  -0.4155
  N  N404  1  0.868900  0.957000  0.871700  1.0  -0.4155
  N  N405  1  0.631100  0.543000  0.871700  1.0  -0.4162
  N  N406  1  0.631100  0.043000  0.371700  1.0  -0.4162
  N  N407  1  0.131100  0.543000  0.371700  1.0  -0.4162
  N  N408  1  0.131100  0.043000  0.871700  1.0  -0.4162
  N  N409  1  0.128300  0.631100  0.457000  1.0  -0.4132
  N  N410  1  0.128300  0.131100  0.957000  1.0  -0.4132
  N  N411  1  0.628300  0.631100  0.957000  1.0  -0.4132
  N  N412  1  0.628300  0.131100  0.457000  1.0  -0.4132
  N  N413  1  0.128300  0.368900  0.543000  1.0  -0.4137
  N  N414  1  0.128300  0.868900  0.043000  1.0  -0.4137
  N  N415  1  0.628300  0.368900  0.043000  1.0  -0.4137
  N  N416  1  0.628300  0.868900  0.543000  1.0  -0.4137
  N  N417  1  0.871700  0.368900  0.457000  1.0  -0.4125
  N  N418  1  0.871700  0.868900  0.957000  1.0  -0.4125
  N  N419  1  0.371700  0.368900  0.957000  1.0  -0.4125
  N  N420  1  0.371700  0.868900  0.457000  1.0  -0.4125
  N  N421  1  0.871700  0.631100  0.543000  1.0  -0.4133
  N  N422  1  0.871700  0.131100  0.043000  1.0  -0.4133
  N  N423  1  0.371700  0.631100  0.043000  1.0  -0.4133
  N  N424  1  0.371700  0.131100  0.543000  1.0  -0.4133
  N  N425  1  0.457000  0.128300  0.631100  1.0  -0.4175
  N  N426  1  0.457000  0.628300  0.131100  1.0  -0.4175
  N  N427  1  0.957000  0.128300  0.131100  1.0  -0.4175
  N  N428  1  0.957000  0.628300  0.631100  1.0  -0.4175
  N  N429  1  0.543000  0.128300  0.368900  1.0  -0.4168
  N  N430  1  0.543000  0.628300  0.868900  1.0  -0.4168
  N  N431  1  0.043000  0.128300  0.868900  1.0  -0.4168
  N  N432  1  0.043000  0.628300  0.368900  1.0  -0.4168
  N  N433  1  0.457000  0.871700  0.368900  1.0  -0.4172
  N  N434  1  0.457000  0.371700  0.868900  1.0  -0.4172
  N  N435  1  0.957000  0.871700  0.868900  1.0  -0.4172
  N  N436  1  0.957000  0.371700  0.368900  1.0  -0.4172
  N  N437  1  0.543000  0.871700  0.631100  1.0  -0.4163
  N  N438  1  0.543000  0.371700  0.131100  1.0  -0.4163
  N  N439  1  0.043000  0.871700  0.131100  1.0  -0.4163
  N  N440  1  0.043000  0.371700  0.631100  1.0  -0.4163
  O  O441  1  0.348800  0.611600  0.799000  1.0  -0.5718
  O  O442  1  0.307700  0.555200  0.752600  1.0  -0.5124
  O  O443  1  0.348800  0.111600  0.299000  1.0  -0.5718
  O  O444  1  0.307700  0.055200  0.252600  1.0  -0.5124
  O  O445  1  0.848800  0.611600  0.299000  1.0  -0.5718
  O  O446  1  0.807700  0.555200  0.252600  1.0  -0.5124
  O  O447  1  0.848800  0.111600  0.799000  1.0  -0.5718
  O  O448  1  0.807700  0.055200  0.752600  1.0  -0.5124
  O  O449  1  0.651200  0.388400  0.799000  1.0  -0.5707
  O  O450  1  0.692300  0.444800  0.752600  1.0  -0.5109
  O  O451  1  0.651200  0.888400  0.299000  1.0  -0.5707
  O  O452  1  0.692300  0.944800  0.252600  1.0  -0.5109
  O  O453  1  0.151200  0.388400  0.299000  1.0  -0.5707
  O  O454  1  0.192300  0.444800  0.252600  1.0  -0.5109
  O  O455  1  0.151200  0.888400  0.799000  1.0  -0.5707
  O  O456  1  0.192300  0.944800  0.752600  1.0  -0.5109
  O  O457  1  0.651200  0.611600  0.201000  1.0  -0.5694
  O  O458  1  0.692300  0.555200  0.247400  1.0  -0.5121
  O  O459  1  0.651200  0.111600  0.701000  1.0  -0.5694
  O  O460  1  0.692300  0.055200  0.747400  1.0  -0.5121
  O  O461  1  0.151200  0.611600  0.701000  1.0  -0.5694
  O  O462  1  0.192300  0.555200  0.747400  1.0  -0.5121
  O  O463  1  0.151200  0.111600  0.201000  1.0  -0.5694
  O  O464  1  0.192300  0.055200  0.247400  1.0  -0.5121
  O  O465  1  0.348800  0.388400  0.201000  1.0  -0.573
  O  O466  1  0.307700  0.444800  0.247400  1.0  -0.5131
  O  O467  1  0.348800  0.888400  0.701000  1.0  -0.573
  O  O468  1  0.307700  0.944800  0.747400  1.0  -0.5131
  O  O469  1  0.848800  0.388400  0.701000  1.0  -0.573
  O  O470  1  0.807700  0.444800  0.747400  1.0  -0.5131
  O  O471  1  0.848800  0.888400  0.201000  1.0  -0.573
  O  O472  1  0.807700  0.944800  0.247400  1.0  -0.5131
  O  O473  1  0.799000  0.348800  0.611600  1.0  -0.5712
  O  O474  1  0.752600  0.307700  0.555200  1.0  -0.5173
  O  O475  1  0.799000  0.848800  0.111600  1.0  -0.5712
  O  O476  1  0.752600  0.807700  0.055200  1.0  -0.5173
  O  O477  1  0.299000  0.348800  0.111600  1.0  -0.5712
  O  O478  1  0.252600  0.307700  0.055200  1.0  -0.5173
  O  O479  1  0.299000  0.848800  0.611600  1.0  -0.5712
  O  O480  1  0.252600  0.807700  0.555200  1.0  -0.5173
  O  O481  1  0.799000  0.651200  0.388400  1.0  -0.5696
  O  O482  1  0.752600  0.692300  0.444800  1.0  -0.5166
  O  O483  1  0.799000  0.151200  0.888400  1.0  -0.5696
  O  O484  1  0.752600  0.192300  0.944800  1.0  -0.5166
  O  O485  1  0.299000  0.651200  0.888400  1.0  -0.5696
  O  O486  1  0.252600  0.692300  0.944800  1.0  -0.5166
  O  O487  1  0.299000  0.151200  0.388400  1.0  -0.5696
  O  O488  1  0.252600  0.192300  0.444800  1.0  -0.5166
  O  O489  1  0.201000  0.651200  0.611600  1.0  -0.5683
  O  O490  1  0.247400  0.692300  0.555200  1.0  -0.5169
  O  O491  1  0.201000  0.151200  0.111600  1.0  -0.5683
  O  O492  1  0.247400  0.192300  0.055200  1.0  -0.5169
  O  O493  1  0.701000  0.651200  0.111600  1.0  -0.5683
  O  O494  1  0.747400  0.692300  0.055200  1.0  -0.5169
  O  O495  1  0.701000  0.151200  0.611600  1.0  -0.5683
  O  O496  1  0.747400  0.192300  0.555200  1.0  -0.5169
  O  O497  1  0.201000  0.348800  0.388400  1.0  -0.5671
  O  O498  1  0.247400  0.307700  0.444800  1.0  -0.5157
  O  O499  1  0.201000  0.848800  0.888400  1.0  -0.5671
  O  O500  1  0.247400  0.807700  0.944800  1.0  -0.5157
  O  O501  1  0.701000  0.348800  0.888400  1.0  -0.5671
  O  O502  1  0.747400  0.307700  0.944800  1.0  -0.5157
  O  O503  1  0.701000  0.848800  0.388400  1.0  -0.5671
  O  O504  1  0.747400  0.807700  0.444800  1.0  -0.5157
  O  O505  1  0.611600  0.799000  0.348800  1.0  -0.5731
  O  O506  1  0.555200  0.752600  0.307700  1.0  -0.5165
  O  O507  1  0.611600  0.299000  0.848800  1.0  -0.5731
  O  O508  1  0.555200  0.252600  0.807700  1.0  -0.5165
  O  O509  1  0.111600  0.799000  0.848800  1.0  -0.5731
  O  O510  1  0.055200  0.752600  0.807700  1.0  -0.5165
  O  O511  1  0.111600  0.299000  0.348800  1.0  -0.5731
  O  O512  1  0.055200  0.252600  0.307700  1.0  -0.5165
  O  O513  1  0.388400  0.799000  0.651200  1.0  -0.5728
  O  O514  1  0.444800  0.752600  0.692300  1.0  -0.517
  O  O515  1  0.388400  0.299000  0.151200  1.0  -0.5728
  O  O516  1  0.444800  0.252600  0.192300  1.0  -0.517
  O  O517  1  0.888400  0.799000  0.151200  1.0  -0.5728
  O  O518  1  0.944800  0.752600  0.192300  1.0  -0.517
  O  O519  1  0.888400  0.299000  0.651200  1.0  -0.5728
  O  O520  1  0.944800  0.252600  0.692300  1.0  -0.517
  O  O521  1  0.611600  0.201000  0.651200  1.0  -0.5719
  O  O522  1  0.555200  0.247400  0.692300  1.0  -0.5171
  O  O523  1  0.611600  0.701000  0.151200  1.0  -0.5719
  O  O524  1  0.555200  0.747400  0.192300  1.0  -0.5171
  O  O525  1  0.111600  0.201000  0.151200  1.0  -0.5719
  O  O526  1  0.055200  0.247400  0.192300  1.0  -0.5171
  O  O527  1  0.111600  0.701000  0.651200  1.0  -0.5719
  O  O528  1  0.055200  0.747400  0.692300  1.0  -0.5171
  O  O529  1  0.388400  0.201000  0.348800  1.0  -0.5733
  O  O530  1  0.444800  0.247400  0.307700  1.0  -0.5185
  O  O531  1  0.388400  0.701000  0.848800  1.0  -0.5733
  O  O532  1  0.444800  0.747400  0.807700  1.0  -0.5185
  O  O533  1  0.888400  0.201000  0.848800  1.0  -0.5733
  O  O534  1  0.944800  0.247400  0.807700  1.0  -0.5185
  O  O535  1  0.888400  0.701000  0.348800  1.0  -0.5733
  O  O536  1  0.944800  0.747400  0.307700  1.0  -0.5185
  O  O537  1  0.651200  0.388400  0.201000  1.0  -0.5718
  O  O538  1  0.692300  0.444800  0.247400  1.0  -0.5117
  O  O539  1  0.651200  0.888400  0.701000  1.0  -0.5718
  O  O540  1  0.692300  0.944800  0.747400  1.0  -0.5117
  O  O541  1  0.151200  0.388400  0.701000  1.0  -0.5718
  O  O542  1  0.192300  0.444800  0.747400  1.0  -0.5117
  O  O543  1  0.151200  0.888400  0.201000  1.0  -0.5718
  O  O544  1  0.192300  0.944800  0.247400  1.0  -0.5117
  O  O545  1  0.348800  0.611600  0.201000  1.0  -0.5711
  O  O546  1  0.307700  0.555200  0.247400  1.0  -0.5133
  O  O547  1  0.348800  0.111600  0.701000  1.0  -0.5711
  O  O548  1  0.307700  0.055200  0.747400  1.0  -0.5133
  O  O549  1  0.848800  0.611600  0.701000  1.0  -0.5711
  O  O550  1  0.807700  0.555200  0.747400  1.0  -0.5133
  O  O551  1  0.848800  0.111600  0.201000  1.0  -0.5711
  O  O552  1  0.807700  0.055200  0.247400  1.0  -0.5133
  O  O553  1  0.348800  0.388400  0.799000  1.0  -0.5722
  O  O554  1  0.307700  0.444800  0.752600  1.0  -0.5116
  O  O555  1  0.348800  0.888400  0.299000  1.0  -0.5722
  O  O556  1  0.307700  0.944800  0.252600  1.0  -0.5116
  O  O557  1  0.848800  0.388400  0.299000  1.0  -0.5722
  O  O558  1  0.807700  0.444800  0.252600  1.0  -0.5116
  O  O559  1  0.848800  0.888400  0.799000  1.0  -0.5722
  O  O560  1  0.807700  0.944800  0.752600  1.0  -0.5116
  O  O561  1  0.651200  0.611600  0.799000  1.0  -0.5705
  O  O562  1  0.692300  0.555200  0.752600  1.0  -0.5116
  O  O563  1  0.651200  0.111600  0.299000  1.0  -0.5705
  O  O564  1  0.692300  0.055200  0.252600  1.0  -0.5116
  O  O565  1  0.151200  0.611600  0.299000  1.0  -0.5705
  O  O566  1  0.192300  0.555200  0.252600  1.0  -0.5116
  O  O567  1  0.151200  0.111600  0.799000  1.0  -0.5705
  O  O568  1  0.192300  0.055200  0.752600  1.0  -0.5116
  O  O569  1  0.201000  0.651200  0.388400  1.0  -0.5676
  O  O570  1  0.247400  0.692300  0.444800  1.0  -0.5156
  O  O571  1  0.201000  0.151200  0.888400  1.0  -0.5676
  O  O572  1  0.247400  0.192300  0.944800  1.0  -0.5156
  O  O573  1  0.701000  0.651200  0.888400  1.0  -0.5676
  O  O574  1  0.747400  0.692300  0.944800  1.0  -0.5156
  O  O575  1  0.701000  0.151200  0.388400  1.0  -0.5676
  O  O576  1  0.747400  0.192300  0.444800  1.0  -0.5156
  O  O577  1  0.201000  0.348800  0.611600  1.0  -0.5675
  O  O578  1  0.247400  0.307700  0.555200  1.0  -0.5169
  O  O579  1  0.201000  0.848800  0.111600  1.0  -0.5675
  O  O580  1  0.247400  0.807700  0.055200  1.0  -0.5169
  O  O581  1  0.701000  0.348800  0.111600  1.0  -0.5675
  O  O582  1  0.747400  0.307700  0.055200  1.0  -0.5169
  O  O583  1  0.701000  0.848800  0.611600  1.0  -0.5675
  O  O584  1  0.747400  0.807700  0.555200  1.0  -0.5169
  O  O585  1  0.799000  0.348800  0.388400  1.0  -0.5694
  O  O586  1  0.752600  0.307700  0.444800  1.0  -0.5165
  O  O587  1  0.799000  0.848800  0.888400  1.0  -0.5694
  O  O588  1  0.752600  0.807700  0.944800  1.0  -0.5165
  O  O589  1  0.299000  0.348800  0.888400  1.0  -0.5694
  O  O590  1  0.252600  0.307700  0.944800  1.0  -0.5165
  O  O591  1  0.299000  0.848800  0.388400  1.0  -0.5694
  O  O592  1  0.252600  0.807700  0.444800  1.0  -0.5165
  O  O593  1  0.799000  0.651200  0.611600  1.0  -0.5719
  O  O594  1  0.752600  0.692300  0.555200  1.0  -0.5174
  O  O595  1  0.799000  0.151200  0.111600  1.0  -0.5719
  O  O596  1  0.752600  0.192300  0.055200  1.0  -0.5174
  O  O597  1  0.299000  0.651200  0.111600  1.0  -0.5719
  O  O598  1  0.252600  0.692300  0.055200  1.0  -0.5174
  O  O599  1  0.299000  0.151200  0.611600  1.0  -0.5719
  O  O600  1  0.252600  0.192300  0.555200  1.0  -0.5174
  O  O601  1  0.388400  0.201000  0.651200  1.0  -0.5731
  O  O602  1  0.444800  0.247400  0.692300  1.0  -0.518
  O  O603  1  0.388400  0.701000  0.151200  1.0  -0.5731
  O  O604  1  0.444800  0.747400  0.192300  1.0  -0.518
  O  O605  1  0.888400  0.201000  0.151200  1.0  -0.5731
  O  O606  1  0.944800  0.247400  0.192300  1.0  -0.518
  O  O607  1  0.888400  0.701000  0.651200  1.0  -0.5731
  O  O608  1  0.944800  0.747400  0.692300  1.0  -0.518
  O  O609  1  0.611600  0.201000  0.348800  1.0  -0.5723
  O  O610  1  0.555200  0.247400  0.307700  1.0  -0.5171
  O  O611  1  0.611600  0.701000  0.848800  1.0  -0.5723
  O  O612  1  0.555200  0.747400  0.807700  1.0  -0.5171
  O  O613  1  0.111600  0.201000  0.848800  1.0  -0.5723
  O  O614  1  0.055200  0.247400  0.807700  1.0  -0.5171
  O  O615  1  0.111600  0.701000  0.348800  1.0  -0.5723
  O  O616  1  0.055200  0.747400  0.307700  1.0  -0.5171
  O  O617  1  0.388400  0.799000  0.348800  1.0  -0.5733
  O  O618  1  0.444800  0.752600  0.307700  1.0  -0.5172
  O  O619  1  0.388400  0.299000  0.848800  1.0  -0.5733
  O  O620  1  0.444800  0.252600  0.807700  1.0  -0.5172
  O  O621  1  0.888400  0.799000  0.848800  1.0  -0.5733
  O  O622  1  0.944800  0.752600  0.807700  1.0  -0.5172
  O  O623  1  0.888400  0.299000  0.348800  1.0  -0.5733
  O  O624  1  0.944800  0.252600  0.307700  1.0  -0.5172
  O  O625  1  0.611600  0.799000  0.651200  1.0  -0.5728
  O  O626  1  0.555200  0.752600  0.692300  1.0  -0.5165
  O  O627  1  0.611600  0.299000  0.151200  1.0  -0.5728
  O  O628  1  0.555200  0.252600  0.192300  1.0  -0.5165
  O  O629  1  0.111600  0.799000  0.151200  1.0  -0.5728
  O  O630  1  0.055200  0.752600  0.192300  1.0  -0.5165
  O  O631  1  0.111600  0.299000  0.651200  1.0  -0.5728
  O  O632  1  0.055200  0.252600  0.692300  1.0  -0.5165
