# generated using pymatgen
data_Mn7H6C30(NO2)12
_symmetry_space_group_name_H-M   'P 1'
_cell_length_a   26.29100000
_cell_length_b   26.29100000
_cell_length_c   26.29100000
_cell_angle_alpha   90.00000000
_cell_angle_beta   90.00000000
_cell_angle_gamma   90.00000000
_symmetry_Int_Tables_number   1
_chemical_formula_structural   Mn7H6C30(NO2)12
_chemical_formula_sum   'Mn56 H48 C240 N96 O192'
_cell_volume   18172.77776017
_cell_formula_units_Z   8
loop_
 _symmetry_equiv_pos_site_id
 _symmetry_equiv_pos_as_xyz
  1  'x, y, z'
loop_
 _atom_site_type_symbol
 _atom_site_label
 _atom_site_symmetry_multiplicity
 _atom_site_fract_x
 _atom_site_fract_y
 _atom_site_fract_z
 _atom_site_occupancy
 _atom_site_charge
  Mn  Mn1  1  0.124150  0.375850  0.124150  1.0  0.8996
  Mn  Mn2  1  0.875850  0.624150  0.124150  1.0  0.8999
  Mn  Mn3  1  0.375850  0.124150  0.124150  1.0  0.8999
  Mn  Mn4  1  0.875850  0.375850  0.875850  1.0  0.9004
  Mn  Mn5  1  0.375850  0.375850  0.375850  1.0  0.9004
  Mn  Mn6  1  0.124150  0.624150  0.875850  1.0  0.9
  Mn  Mn7  1  0.124150  0.124150  0.375850  1.0  0.9
  Mn  Mn8  1  0.124150  0.875850  0.624150  1.0  0.8996
  Mn  Mn9  1  0.875850  0.875850  0.375850  1.0  0.9004
  Mn  Mn10  1  0.875850  0.124150  0.624150  1.0  0.8999
  Mn  Mn11  1  0.375850  0.624150  0.624150  1.0  0.8999
  Mn  Mn12  1  0.624150  0.124150  0.875850  1.0  0.9
  Mn  Mn13  1  0.624150  0.624150  0.375850  1.0  0.9
  Mn  Mn14  1  0.375850  0.875850  0.875850  1.0  0.9004
  Mn  Mn15  1  0.624150  0.875850  0.124150  1.0  0.8996
  Mn  Mn16  1  0.624150  0.375850  0.624150  1.0  0.8996
  Mn  Mn17  1  0.875850  0.624150  0.875850  1.0  0.9003
  Mn  Mn18  1  0.875850  0.124150  0.375850  1.0  0.9003
  Mn  Mn19  1  0.375850  0.124150  0.875850  1.0  0.9003
  Mn  Mn20  1  0.124150  0.375850  0.875850  1.0  0.8999
  Mn  Mn21  1  0.124150  0.624150  0.124150  1.0  0.8996
  Mn  Mn22  1  0.875850  0.375850  0.124150  1.0  0.9001
  Mn  Mn23  1  0.375850  0.375850  0.624150  1.0  0.9001
  Mn  Mn24  1  0.875850  0.875850  0.624150  1.0  0.9001
  Mn  Mn25  1  0.375850  0.875850  0.124150  1.0  0.9001
  Mn  Mn26  1  0.375850  0.624150  0.375850  1.0  0.9003
  Mn  Mn27  1  0.124150  0.124150  0.624150  1.0  0.8996
  Mn  Mn28  1  0.124150  0.875850  0.375850  1.0  0.8999
  Mn  Mn29  1  0.624150  0.875850  0.875850  1.0  0.8999
  Mn  Mn30  1  0.624150  0.375850  0.375850  1.0  0.8999
  Mn  Mn31  1  0.624150  0.124150  0.124150  1.0  0.8996
  Mn  Mn32  1  0.624150  0.624150  0.624150  1.0  0.8996
  Mn  Mn33  1  0.250000  0.250000  0.000000  1.0  1.197
  Mn  Mn34  1  0.250000  0.750000  0.500000  1.0  1.197
  Mn  Mn35  1  0.750000  0.750000  0.000000  1.0  1.197
  Mn  Mn36  1  0.750000  0.250000  0.500000  1.0  1.197
  Mn  Mn37  1  0.750000  0.250000  0.000000  1.0  1.197
  Mn  Mn38  1  0.750000  0.750000  0.500000  1.0  1.197
  Mn  Mn39  1  0.250000  0.250000  0.500000  1.0  1.197
  Mn  Mn40  1  0.250000  0.750000  0.000000  1.0  1.197
  Mn  Mn41  1  0.000000  0.250000  0.250000  1.0  1.197
  Mn  Mn42  1  0.500000  0.250000  0.750000  1.0  1.197
  Mn  Mn43  1  0.000000  0.750000  0.750000  1.0  1.197
  Mn  Mn44  1  0.500000  0.750000  0.250000  1.0  1.197
  Mn  Mn45  1  0.000000  0.750000  0.250000  1.0  1.197
  Mn  Mn46  1  0.500000  0.750000  0.750000  1.0  1.197
  Mn  Mn47  1  0.500000  0.250000  0.250000  1.0  1.197
  Mn  Mn48  1  0.000000  0.250000  0.750000  1.0  1.197
  Mn  Mn49  1  0.250000  0.000000  0.250000  1.0  1.197
  Mn  Mn50  1  0.250000  0.500000  0.750000  1.0  1.197
  Mn  Mn51  1  0.750000  0.000000  0.750000  1.0  1.197
  Mn  Mn52  1  0.750000  0.500000  0.250000  1.0  1.197
  Mn  Mn53  1  0.250000  0.000000  0.750000  1.0  1.197
  Mn  Mn54  1  0.250000  0.500000  0.250000  1.0  1.197
  Mn  Mn55  1  0.750000  0.000000  0.250000  1.0  1.197
  Mn  Mn56  1  0.750000  0.500000  0.750000  1.0  1.197
  H  H57  1  0.104700  0.426800  0.000000  1.0  0.0861
  H  H58  1  0.104700  0.926800  0.500000  1.0  0.0861
  H  H59  1  0.604700  0.426800  0.500000  1.0  0.0861
  H  H60  1  0.604700  0.926800  0.000000  1.0  0.0861
  H  H61  1  0.895300  0.573200  0.000000  1.0  0.0868
  H  H62  1  0.895300  0.073200  0.500000  1.0  0.0868
  H  H63  1  0.395300  0.573200  0.500000  1.0  0.0868
  H  H64  1  0.395300  0.073200  0.000000  1.0  0.0868
  H  H65  1  0.895300  0.426800  0.000000  1.0  0.0858
  H  H66  1  0.895300  0.926800  0.500000  1.0  0.0858
  H  H67  1  0.395300  0.426800  0.500000  1.0  0.0858
  H  H68  1  0.395300  0.926800  0.000000  1.0  0.0858
  H  H69  1  0.104700  0.573200  0.000000  1.0  0.0871
  H  H70  1  0.104700  0.073200  0.500000  1.0  0.0871
  H  H71  1  0.604700  0.573200  0.500000  1.0  0.0871
  H  H72  1  0.604700  0.073200  0.000000  1.0  0.0871
  H  H73  1  0.000000  0.104700  0.426800  1.0  0.0847
  H  H74  1  0.000000  0.604700  0.926800  1.0  0.0847
  H  H75  1  0.500000  0.104700  0.926800  1.0  0.0847
  H  H76  1  0.500000  0.604700  0.426800  1.0  0.0847
  H  H77  1  0.000000  0.895300  0.573200  1.0  0.0842
  H  H78  1  0.000000  0.395300  0.073200  1.0  0.0842
  H  H79  1  0.500000  0.895300  0.073200  1.0  0.0842
  H  H80  1  0.500000  0.395300  0.573200  1.0  0.0842
  H  H81  1  0.000000  0.895300  0.426800  1.0  0.0843
  H  H82  1  0.000000  0.395300  0.926800  1.0  0.0843
  H  H83  1  0.500000  0.895300  0.926800  1.0  0.0843
  H  H84  1  0.500000  0.395300  0.426800  1.0  0.0843
  H  H85  1  0.000000  0.104700  0.573200  1.0  0.0847
  H  H86  1  0.000000  0.604700  0.073200  1.0  0.0847
  H  H87  1  0.500000  0.104700  0.073200  1.0  0.0847
  H  H88  1  0.500000  0.604700  0.573200  1.0  0.0847
  H  H89  1  0.426800  0.000000  0.104700  1.0  0.0851
  H  H90  1  0.426800  0.500000  0.604700  1.0  0.0851
  H  H91  1  0.926800  0.000000  0.604700  1.0  0.0851
  H  H92  1  0.926800  0.500000  0.104700  1.0  0.0851
  H  H93  1  0.573200  0.000000  0.895300  1.0  0.0852
  H  H94  1  0.573200  0.500000  0.395300  1.0  0.0852
  H  H95  1  0.073200  0.000000  0.395300  1.0  0.0852
  H  H96  1  0.073200  0.500000  0.895300  1.0  0.0852
  H  H97  1  0.426800  0.000000  0.895300  1.0  0.0851
  H  H98  1  0.426800  0.500000  0.395300  1.0  0.0851
  H  H99  1  0.926800  0.000000  0.395300  1.0  0.0851
  H  H100  1  0.926800  0.500000  0.895300  1.0  0.0851
  H  H101  1  0.573200  0.000000  0.104700  1.0  0.0854
  H  H102  1  0.573200  0.500000  0.604700  1.0  0.0854
  H  H103  1  0.073200  0.000000  0.604700  1.0  0.0854
  H  H104  1  0.073200  0.500000  0.104700  1.0  0.0854
  C  C105  1  0.150400  0.324800  0.026100  1.0  0.057
  C  C106  1  0.165800  0.288300  0.065600  1.0  0.6972
  C  C107  1  0.150400  0.824800  0.526100  1.0  0.057
  C  C108  1  0.165800  0.788300  0.565600  1.0  0.6972
  C  C109  1  0.650400  0.324800  0.526100  1.0  0.057
  C  C110  1  0.665800  0.288300  0.565600  1.0  0.6972
  C  C111  1  0.650400  0.824800  0.026100  1.0  0.057
  C  C112  1  0.665800  0.788300  0.065600  1.0  0.6972
  C  C113  1  0.849600  0.675200  0.026100  1.0  0.0558
  C  C114  1  0.834200  0.711700  0.065600  1.0  0.6955
  C  C115  1  0.849600  0.175200  0.526100  1.0  0.0558
  C  C116  1  0.834200  0.211700  0.565600  1.0  0.6955
  C  C117  1  0.349600  0.675200  0.526100  1.0  0.0558
  C  C118  1  0.334200  0.711700  0.565600  1.0  0.6955
  C  C119  1  0.349600  0.175200  0.026100  1.0  0.0558
  C  C120  1  0.334200  0.211700  0.065600  1.0  0.6955
  C  C121  1  0.849600  0.324800  0.973900  1.0  0.056
  C  C122  1  0.834200  0.288300  0.934400  1.0  0.6965
  C  C123  1  0.849600  0.824800  0.473900  1.0  0.056
  C  C124  1  0.834200  0.788300  0.434400  1.0  0.6965
  C  C125  1  0.349600  0.324800  0.473900  1.0  0.056
  C  C126  1  0.334200  0.288300  0.434400  1.0  0.6965
  C  C127  1  0.349600  0.824800  0.973900  1.0  0.056
  C  C128  1  0.334200  0.788300  0.934400  1.0  0.6965
  C  C129  1  0.150400  0.675200  0.973900  1.0  0.0567
  C  C130  1  0.165800  0.711700  0.934400  1.0  0.6952
  C  C131  1  0.150400  0.175200  0.473900  1.0  0.0567
  C  C132  1  0.165800  0.211700  0.434400  1.0  0.6952
  C  C133  1  0.650400  0.675200  0.473900  1.0  0.0567
  C  C134  1  0.665800  0.711700  0.434400  1.0  0.6952
  C  C135  1  0.650400  0.175200  0.973900  1.0  0.0567
  C  C136  1  0.665800  0.211700  0.934400  1.0  0.6952
  C  C137  1  0.026100  0.150400  0.324800  1.0  0.0575
  C  C138  1  0.065600  0.165800  0.288300  1.0  0.6977
  C  C139  1  0.026100  0.650400  0.824800  1.0  0.0575
  C  C140  1  0.065600  0.665800  0.788300  1.0  0.6977
  C  C141  1  0.526100  0.150400  0.824800  1.0  0.0575
  C  C142  1  0.565600  0.165800  0.788300  1.0  0.6977
  C  C143  1  0.526100  0.650400  0.324800  1.0  0.0575
  C  C144  1  0.565600  0.665800  0.288300  1.0  0.6977
  C  C145  1  0.026100  0.849600  0.675200  1.0  0.059
  C  C146  1  0.065600  0.834200  0.711700  1.0  0.7026
  C  C147  1  0.026100  0.349600  0.175200  1.0  0.059
  C  C148  1  0.065600  0.334200  0.211700  1.0  0.7026
  C  C149  1  0.526100  0.849600  0.175200  1.0  0.059
  C  C150  1  0.565600  0.834200  0.211700  1.0  0.7026
  C  C151  1  0.526100  0.349600  0.675200  1.0  0.059
  C  C152  1  0.565600  0.334200  0.711700  1.0  0.7026
  C  C153  1  0.973900  0.849600  0.324800  1.0  0.057
  C  C154  1  0.934400  0.834200  0.288300  1.0  0.6999
  C  C155  1  0.973900  0.349600  0.824800  1.0  0.057
  C  C156  1  0.934400  0.334200  0.788300  1.0  0.6999
  C  C157  1  0.473900  0.849600  0.824800  1.0  0.057
  C  C158  1  0.434400  0.834200  0.788300  1.0  0.6999
  C  C159  1  0.473900  0.349600  0.324800  1.0  0.057
  C  C160  1  0.434400  0.334200  0.288300  1.0  0.6999
  C  C161  1  0.973900  0.150400  0.675200  1.0  0.0583
  C  C162  1  0.934400  0.165800  0.711700  1.0  0.7002
  C  C163  1  0.973900  0.650400  0.175200  1.0  0.0583
  C  C164  1  0.934400  0.665800  0.211700  1.0  0.7002
  C  C165  1  0.473900  0.150400  0.175200  1.0  0.0583
  C  C166  1  0.434400  0.165800  0.211700  1.0  0.7002
  C  C167  1  0.473900  0.650400  0.675200  1.0  0.0583
  C  C168  1  0.434400  0.665800  0.711700  1.0  0.7002
  C  C169  1  0.324800  0.026100  0.150400  1.0  0.0562
  C  C170  1  0.288300  0.065600  0.165800  1.0  0.6986
  C  C171  1  0.324800  0.526100  0.650400  1.0  0.0562
  C  C172  1  0.288300  0.565600  0.665800  1.0  0.6986
  C  C173  1  0.824800  0.026100  0.650400  1.0  0.0562
  C  C174  1  0.788300  0.065600  0.665800  1.0  0.6986
  C  C175  1  0.824800  0.526100  0.150400  1.0  0.0562
  C  C176  1  0.788300  0.565600  0.165800  1.0  0.6986
  C  C177  1  0.675200  0.026100  0.849600  1.0  0.0581
  C  C178  1  0.711700  0.065600  0.834200  1.0  0.6989
  C  C179  1  0.675200  0.526100  0.349600  1.0  0.0581
  C  C180  1  0.711700  0.565600  0.334200  1.0  0.6989
  C  C181  1  0.175200  0.026100  0.349600  1.0  0.0581
  C  C182  1  0.211700  0.065600  0.334200  1.0  0.6989
  C  C183  1  0.175200  0.526100  0.849600  1.0  0.0581
  C  C184  1  0.211700  0.565600  0.834200  1.0  0.6989
  C  C185  1  0.324800  0.973900  0.849600  1.0  0.0558
  C  C186  1  0.288300  0.934400  0.834200  1.0  0.6983
  C  C187  1  0.324800  0.473900  0.349600  1.0  0.0558
  C  C188  1  0.288300  0.434400  0.334200  1.0  0.6983
  C  C189  1  0.824800  0.973900  0.349600  1.0  0.0558
  C  C190  1  0.788300  0.934400  0.334200  1.0  0.6983
  C  C191  1  0.824800  0.473900  0.849600  1.0  0.0558
  C  C192  1  0.788300  0.434400  0.834200  1.0  0.6983
  C  C193  1  0.675200  0.973900  0.150400  1.0  0.0583
  C  C194  1  0.711700  0.934400  0.165800  1.0  0.6993
  C  C195  1  0.675200  0.473900  0.650400  1.0  0.0583
  C  C196  1  0.711700  0.434400  0.665800  1.0  0.6993
  C  C197  1  0.175200  0.973900  0.650400  1.0  0.0583
  C  C198  1  0.211700  0.934400  0.665800  1.0  0.6993
  C  C199  1  0.175200  0.473900  0.150400  1.0  0.0583
  C  C200  1  0.211700  0.434400  0.165800  1.0  0.6993
  C  C201  1  0.849600  0.675200  0.973900  1.0  0.056
  C  C202  1  0.834200  0.711700  0.934400  1.0  0.6949
  C  C203  1  0.849600  0.175200  0.473900  1.0  0.056
  C  C204  1  0.834200  0.211700  0.434400  1.0  0.6949
  C  C205  1  0.349600  0.675200  0.473900  1.0  0.056
  C  C206  1  0.334200  0.711700  0.434400  1.0  0.6949
  C  C207  1  0.349600  0.175200  0.973900  1.0  0.056
  C  C208  1  0.334200  0.211700  0.934400  1.0  0.6949
  C  C209  1  0.150400  0.324800  0.973900  1.0  0.0571
  C  C210  1  0.165800  0.288300  0.934400  1.0  0.6942
  C  C211  1  0.150400  0.824800  0.473900  1.0  0.0571
  C  C212  1  0.165800  0.788300  0.434400  1.0  0.6942
  C  C213  1  0.650400  0.324800  0.473900  1.0  0.0571
  C  C214  1  0.665800  0.288300  0.434400  1.0  0.6942
  C  C215  1  0.650400  0.824800  0.973900  1.0  0.0571
  C  C216  1  0.665800  0.788300  0.934400  1.0  0.6942
  C  C217  1  0.150400  0.675200  0.026100  1.0  0.0569
  C  C218  1  0.165800  0.711700  0.065600  1.0  0.6937
  C  C219  1  0.150400  0.175200  0.526100  1.0  0.0569
  C  C220  1  0.165800  0.211700  0.565600  1.0  0.6937
  C  C221  1  0.650400  0.675200  0.526100  1.0  0.0569
  C  C222  1  0.665800  0.711700  0.565600  1.0  0.6937
  C  C223  1  0.650400  0.175200  0.026100  1.0  0.0569
  C  C224  1  0.665800  0.211700  0.065600  1.0  0.6937
  C  C225  1  0.849600  0.324800  0.026100  1.0  0.0562
  C  C226  1  0.834200  0.288300  0.065600  1.0  0.6961
  C  C227  1  0.849600  0.824800  0.526100  1.0  0.0562
  C  C228  1  0.834200  0.788300  0.565600  1.0  0.6961
  C  C229  1  0.349600  0.324800  0.526100  1.0  0.0562
  C  C230  1  0.334200  0.288300  0.565600  1.0  0.6961
  C  C231  1  0.349600  0.824800  0.026100  1.0  0.0562
  C  C232  1  0.334200  0.788300  0.065600  1.0  0.6961
  C  C233  1  0.973900  0.849600  0.675200  1.0  0.0588
  C  C234  1  0.934400  0.834200  0.711700  1.0  0.6994
  C  C235  1  0.973900  0.349600  0.175200  1.0  0.0588
  C  C236  1  0.934400  0.334200  0.211700  1.0  0.6994
  C  C237  1  0.473900  0.849600  0.175200  1.0  0.0588
  C  C238  1  0.434400  0.834200  0.211700  1.0  0.6994
  C  C239  1  0.473900  0.349600  0.675200  1.0  0.0588
  C  C240  1  0.434400  0.334200  0.711700  1.0  0.6994
  C  C241  1  0.973900  0.150400  0.324800  1.0  0.0574
  C  C242  1  0.934400  0.165800  0.288300  1.0  0.698
  C  C243  1  0.973900  0.650400  0.824800  1.0  0.0574
  C  C244  1  0.934400  0.665800  0.788300  1.0  0.698
  C  C245  1  0.473900  0.150400  0.824800  1.0  0.0574
  C  C246  1  0.434400  0.165800  0.788300  1.0  0.698
  C  C247  1  0.473900  0.650400  0.324800  1.0  0.0574
  C  C248  1  0.434400  0.665800  0.288300  1.0  0.698
  C  C249  1  0.026100  0.150400  0.675200  1.0  0.0588
  C  C250  1  0.065600  0.165800  0.711700  1.0  0.7007
  C  C251  1  0.026100  0.650400  0.175200  1.0  0.0588
  C  C252  1  0.065600  0.665800  0.211700  1.0  0.7007
  C  C253  1  0.526100  0.150400  0.175200  1.0  0.0588
  C  C254  1  0.565600  0.165800  0.211700  1.0  0.7007
  C  C255  1  0.526100  0.650400  0.675200  1.0  0.0588
  C  C256  1  0.565600  0.665800  0.711700  1.0  0.7007
  C  C257  1  0.026100  0.849600  0.324800  1.0  0.0573
  C  C258  1  0.065600  0.834200  0.288300  1.0  0.6969
  C  C259  1  0.026100  0.349600  0.824800  1.0  0.0573
  C  C260  1  0.065600  0.334200  0.788300  1.0  0.6969
  C  C261  1  0.526100  0.849600  0.824800  1.0  0.0573
  C  C262  1  0.565600  0.834200  0.788300  1.0  0.6969
  C  C263  1  0.526100  0.349600  0.324800  1.0  0.0573
  C  C264  1  0.565600  0.334200  0.288300  1.0  0.6969
  C  C265  1  0.675200  0.973900  0.849600  1.0  0.0585
  C  C266  1  0.711700  0.934400  0.834200  1.0  0.6975
  C  C267  1  0.675200  0.473900  0.349600  1.0  0.0585
  C  C268  1  0.711700  0.434400  0.334200  1.0  0.6975
  C  C269  1  0.175200  0.973900  0.349600  1.0  0.0585
  C  C270  1  0.211700  0.934400  0.334200  1.0  0.6975
  C  C271  1  0.175200  0.473900  0.849600  1.0  0.0585
  C  C272  1  0.211700  0.434400  0.834200  1.0  0.6975
  C  C273  1  0.324800  0.973900  0.150400  1.0  0.0561
  C  C274  1  0.288300  0.934400  0.165800  1.0  0.6973
  C  C275  1  0.324800  0.473900  0.650400  1.0  0.0561
  C  C276  1  0.288300  0.434400  0.665800  1.0  0.6973
  C  C277  1  0.824800  0.973900  0.650400  1.0  0.0561
  C  C278  1  0.788300  0.934400  0.665800  1.0  0.6973
  C  C279  1  0.824800  0.473900  0.150400  1.0  0.0561
  C  C280  1  0.788300  0.434400  0.165800  1.0  0.6973
  C  C281  1  0.675200  0.026100  0.150400  1.0  0.0583
  C  C282  1  0.711700  0.065600  0.165800  1.0  0.6975
  C  C283  1  0.675200  0.526100  0.650400  1.0  0.0583
  C  C284  1  0.711700  0.565600  0.665800  1.0  0.6975
  C  C285  1  0.175200  0.026100  0.650400  1.0  0.0583
  C  C286  1  0.211700  0.065600  0.665800  1.0  0.6975
  C  C287  1  0.175200  0.526100  0.150400  1.0  0.0583
  C  C288  1  0.211700  0.565600  0.165800  1.0  0.6975
  C  C289  1  0.324800  0.026100  0.849600  1.0  0.0562
  C  C290  1  0.288300  0.065600  0.834200  1.0  0.6968
  C  C291  1  0.324800  0.526100  0.349600  1.0  0.0562
  C  C292  1  0.288300  0.565600  0.334200  1.0  0.6968
  C  C293  1  0.824800  0.026100  0.349600  1.0  0.0562
  C  C294  1  0.788300  0.065600  0.334200  1.0  0.6968
  C  C295  1  0.824800  0.526100  0.849600  1.0  0.0562
  C  C296  1  0.788300  0.565600  0.834200  1.0  0.6968
  C  C297  1  0.118600  0.393400  0.000000  1.0  0.2857
  C  C298  1  0.118600  0.893400  0.500000  1.0  0.2857
  C  C299  1  0.618600  0.393400  0.500000  1.0  0.2857
  C  C300  1  0.618600  0.893400  0.000000  1.0  0.2857
  C  C301  1  0.881400  0.606600  0.000000  1.0  0.2859
  C  C302  1  0.881400  0.106600  0.500000  1.0  0.2859
  C  C303  1  0.381400  0.606600  0.500000  1.0  0.2859
  C  C304  1  0.381400  0.106600  0.000000  1.0  0.2859
  C  C305  1  0.881400  0.393400  0.000000  1.0  0.2854
  C  C306  1  0.881400  0.893400  0.500000  1.0  0.2854
  C  C307  1  0.381400  0.393400  0.500000  1.0  0.2854
  C  C308  1  0.381400  0.893400  0.000000  1.0  0.2854
  C  C309  1  0.118600  0.606600  0.000000  1.0  0.2862
  C  C310  1  0.118600  0.106600  0.500000  1.0  0.2862
  C  C311  1  0.618600  0.606600  0.500000  1.0  0.2862
  C  C312  1  0.618600  0.106600  0.000000  1.0  0.2862
  C  C313  1  0.000000  0.118600  0.393400  1.0  0.2866
  C  C314  1  0.000000  0.618600  0.893400  1.0  0.2866
  C  C315  1  0.500000  0.118600  0.893400  1.0  0.2866
  C  C316  1  0.500000  0.618600  0.393400  1.0  0.2866
  C  C317  1  0.000000  0.881400  0.606600  1.0  0.2867
  C  C318  1  0.000000  0.381400  0.106600  1.0  0.2867
  C  C319  1  0.500000  0.881400  0.106600  1.0  0.2867
  C  C320  1  0.500000  0.381400  0.606600  1.0  0.2867
  C  C321  1  0.000000  0.881400  0.393400  1.0  0.2864
  C  C322  1  0.000000  0.381400  0.893400  1.0  0.2864
  C  C323  1  0.500000  0.881400  0.893400  1.0  0.2864
  C  C324  1  0.500000  0.381400  0.393400  1.0  0.2864
  C  C325  1  0.000000  0.118600  0.606600  1.0  0.2866
  C  C326  1  0.000000  0.618600  0.106600  1.0  0.2866
  C  C327  1  0.500000  0.118600  0.106600  1.0  0.2866
  C  C328  1  0.500000  0.618600  0.606600  1.0  0.2866
  C  C329  1  0.393400  0.000000  0.118600  1.0  0.289
  C  C330  1  0.393400  0.500000  0.618600  1.0  0.289
  C  C331  1  0.893400  0.000000  0.618600  1.0  0.289
  C  C332  1  0.893400  0.500000  0.118600  1.0  0.289
  C  C333  1  0.606600  0.000000  0.881400  1.0  0.2875
  C  C334  1  0.606600  0.500000  0.381400  1.0  0.2875
  C  C335  1  0.106600  0.000000  0.381400  1.0  0.2875
  C  C336  1  0.106600  0.500000  0.881400  1.0  0.2875
  C  C337  1  0.393400  0.000000  0.881400  1.0  0.2888
  C  C338  1  0.393400  0.500000  0.381400  1.0  0.2888
  C  C339  1  0.893400  0.000000  0.381400  1.0  0.2888
  C  C340  1  0.893400  0.500000  0.881400  1.0  0.2888
  C  C341  1  0.606600  0.000000  0.118600  1.0  0.2877
  C  C342  1  0.606600  0.500000  0.618600  1.0  0.2877
  C  C343  1  0.106600  0.000000  0.618600  1.0  0.2877
  C  C344  1  0.106600  0.500000  0.118600  1.0  0.2877
  N  N345  1  0.128700  0.369100  0.043100  1.0  -0.431
  N  N346  1  0.128700  0.869100  0.543100  1.0  -0.431
  N  N347  1  0.628700  0.369100  0.543100  1.0  -0.431
  N  N348  1  0.628700  0.869100  0.043100  1.0  -0.431
  N  N349  1  0.871300  0.630900  0.043100  1.0  -0.4311
  N  N350  1  0.871300  0.130900  0.543100  1.0  -0.4311
  N  N351  1  0.371300  0.630900  0.543100  1.0  -0.4311
  N  N352  1  0.371300  0.130900  0.043100  1.0  -0.4311
  N  N353  1  0.871300  0.369100  0.956900  1.0  -0.4316
  N  N354  1  0.871300  0.869100  0.456900  1.0  -0.4316
  N  N355  1  0.371300  0.369100  0.456900  1.0  -0.4316
  N  N356  1  0.371300  0.869100  0.956900  1.0  -0.4316
  N  N357  1  0.128700  0.630900  0.956900  1.0  -0.4329
  N  N358  1  0.128700  0.130900  0.456900  1.0  -0.4329
  N  N359  1  0.628700  0.630900  0.456900  1.0  -0.4329
  N  N360  1  0.628700  0.130900  0.956900  1.0  -0.4329
  N  N361  1  0.043100  0.128700  0.369100  1.0  -0.4339
  N  N362  1  0.043100  0.628700  0.869100  1.0  -0.4339
  N  N363  1  0.543100  0.128700  0.869100  1.0  -0.4339
  N  N364  1  0.543100  0.628700  0.369100  1.0  -0.4339
  N  N365  1  0.043100  0.871300  0.630900  1.0  -0.4335
  N  N366  1  0.043100  0.371300  0.130900  1.0  -0.4335
  N  N367  1  0.543100  0.871300  0.130900  1.0  -0.4335
  N  N368  1  0.543100  0.371300  0.630900  1.0  -0.4335
  N  N369  1  0.956900  0.871300  0.369100  1.0  -0.4336
  N  N370  1  0.956900  0.371300  0.869100  1.0  -0.4336
  N  N371  1  0.456900  0.871300  0.869100  1.0  -0.4336
  N  N372  1  0.456900  0.371300  0.369100  1.0  -0.4336
  N  N373  1  0.956900  0.128700  0.630900  1.0  -0.4336
  N  N374  1  0.956900  0.628700  0.130900  1.0  -0.4336
  N  N375  1  0.456900  0.128700  0.130900  1.0  -0.4336
  N  N376  1  0.456900  0.628700  0.630900  1.0  -0.4336
  N  N377  1  0.369100  0.043100  0.128700  1.0  -0.4327
  N  N378  1  0.369100  0.543100  0.628700  1.0  -0.4327
  N  N379  1  0.869100  0.043100  0.628700  1.0  -0.4327
  N  N380  1  0.869100  0.543100  0.128700  1.0  -0.4327
  N  N381  1  0.630900  0.043100  0.871300  1.0  -0.4332
  N  N382  1  0.630900  0.543100  0.371300  1.0  -0.4332
  N  N383  1  0.130900  0.043100  0.371300  1.0  -0.4332
  N  N384  1  0.130900  0.543100  0.871300  1.0  -0.4332
  N  N385  1  0.369100  0.956900  0.871300  1.0  -0.4312
  N  N386  1  0.369100  0.456900  0.371300  1.0  -0.4312
  N  N387  1  0.869100  0.956900  0.371300  1.0  -0.4312
  N  N388  1  0.869100  0.456900  0.871300  1.0  -0.4312
  N  N389  1  0.630900  0.956900  0.128700  1.0  -0.4315
  N  N390  1  0.630900  0.456900  0.628700  1.0  -0.4315
  N  N391  1  0.130900  0.956900  0.628700  1.0  -0.4315
  N  N392  1  0.130900  0.456900  0.128700  1.0  -0.4315
  N  N393  1  0.871300  0.630900  0.956900  1.0  -0.4325
  N  N394  1  0.871300  0.130900  0.456900  1.0  -0.4325
  N  N395  1  0.371300  0.630900  0.456900  1.0  -0.4325
  N  N396  1  0.371300  0.130900  0.956900  1.0  -0.4325
  N  N397  1  0.128700  0.369100  0.956900  1.0  -0.432
  N  N398  1  0.128700  0.869100  0.456900  1.0  -0.432
  N  N399  1  0.628700  0.369100  0.456900  1.0  -0.432
  N  N400  1  0.628700  0.869100  0.956900  1.0  -0.432
  N  N401  1  0.128700  0.630900  0.043100  1.0  -0.4312
  N  N402  1  0.128700  0.130900  0.543100  1.0  -0.4312
  N  N403  1  0.628700  0.630900  0.543100  1.0  -0.4312
  N  N404  1  0.628700  0.130900  0.043100  1.0  -0.4312
  N  N405  1  0.871300  0.369100  0.043100  1.0  -0.4309
  N  N406  1  0.871300  0.869100  0.543100  1.0  -0.4309
  N  N407  1  0.371300  0.369100  0.543100  1.0  -0.4309
  N  N408  1  0.371300  0.869100  0.043100  1.0  -0.4309
  N  N409  1  0.956900  0.871300  0.630900  1.0  -0.4333
  N  N410  1  0.956900  0.371300  0.130900  1.0  -0.4333
  N  N411  1  0.456900  0.871300  0.130900  1.0  -0.4333
  N  N412  1  0.456900  0.371300  0.630900  1.0  -0.4333
  N  N413  1  0.956900  0.128700  0.369100  1.0  -0.4338
  N  N414  1  0.956900  0.628700  0.869100  1.0  -0.4338
  N  N415  1  0.456900  0.128700  0.869100  1.0  -0.4338
  N  N416  1  0.456900  0.628700  0.369100  1.0  -0.4338
  N  N417  1  0.043100  0.128700  0.630900  1.0  -0.4337
  N  N418  1  0.043100  0.628700  0.130900  1.0  -0.4337
  N  N419  1  0.543100  0.128700  0.130900  1.0  -0.4337
  N  N420  1  0.543100  0.628700  0.630900  1.0  -0.4337
  N  N421  1  0.043100  0.871300  0.369100  1.0  -0.4336
  N  N422  1  0.043100  0.371300  0.869100  1.0  -0.4336
  N  N423  1  0.543100  0.871300  0.869100  1.0  -0.4336
  N  N424  1  0.543100  0.371300  0.369100  1.0  -0.4336
  N  N425  1  0.630900  0.956900  0.871300  1.0  -0.4316
  N  N426  1  0.630900  0.456900  0.371300  1.0  -0.4316
  N  N427  1  0.130900  0.956900  0.371300  1.0  -0.4316
  N  N428  1  0.130900  0.456900  0.871300  1.0  -0.4316
  N  N429  1  0.369100  0.956900  0.128700  1.0  -0.4314
  N  N430  1  0.369100  0.456900  0.628700  1.0  -0.4314
  N  N431  1  0.869100  0.956900  0.628700  1.0  -0.4314
  N  N432  1  0.869100  0.456900  0.128700  1.0  -0.4314
  N  N433  1  0.630900  0.043100  0.128700  1.0  -0.4329
  N  N434  1  0.630900  0.543100  0.628700  1.0  -0.4329
  N  N435  1  0.130900  0.043100  0.628700  1.0  -0.4329
  N  N436  1  0.130900  0.543100  0.128700  1.0  -0.4329
  N  N437  1  0.369100  0.043100  0.871300  1.0  -0.4329
  N  N438  1  0.369100  0.543100  0.371300  1.0  -0.4329
  N  N439  1  0.869100  0.043100  0.371300  1.0  -0.4329
  N  N440  1  0.869100  0.543100  0.871300  1.0  -0.4329
  O  O441  1  0.152000  0.298500  0.110700  1.0  -0.561
  O  O442  1  0.191500  0.249800  0.055100  1.0  -0.5463
  O  O443  1  0.152000  0.798500  0.610700  1.0  -0.561
  O  O444  1  0.191500  0.749800  0.555100  1.0  -0.5463
  O  O445  1  0.652000  0.298500  0.610700  1.0  -0.561
  O  O446  1  0.691500  0.249800  0.555100  1.0  -0.5463
  O  O447  1  0.652000  0.798500  0.110700  1.0  -0.561
  O  O448  1  0.691500  0.749800  0.055100  1.0  -0.5463
  O  O449  1  0.848000  0.701500  0.110700  1.0  -0.5614
  O  O450  1  0.808500  0.750200  0.055100  1.0  -0.5462
  O  O451  1  0.848000  0.201500  0.610700  1.0  -0.5614
  O  O452  1  0.808500  0.250200  0.555100  1.0  -0.5462
  O  O453  1  0.348000  0.701500  0.610700  1.0  -0.5614
  O  O454  1  0.308500  0.750200  0.555100  1.0  -0.5462
  O  O455  1  0.348000  0.201500  0.110700  1.0  -0.5614
  O  O456  1  0.308500  0.250200  0.055100  1.0  -0.5462
  O  O457  1  0.848000  0.298500  0.889300  1.0  -0.5599
  O  O458  1  0.808500  0.249800  0.944900  1.0  -0.5457
  O  O459  1  0.848000  0.798500  0.389300  1.0  -0.5599
  O  O460  1  0.808500  0.749800  0.444900  1.0  -0.5457
  O  O461  1  0.348000  0.298500  0.389300  1.0  -0.5599
  O  O462  1  0.308500  0.249800  0.444900  1.0  -0.5457
  O  O463  1  0.348000  0.798500  0.889300  1.0  -0.5599
  O  O464  1  0.308500  0.749800  0.944900  1.0  -0.5457
  O  O465  1  0.152000  0.701500  0.889300  1.0  -0.5617
  O  O466  1  0.191500  0.750200  0.944900  1.0  -0.5474
  O  O467  1  0.152000  0.201500  0.389300  1.0  -0.5617
  O  O468  1  0.191500  0.250200  0.444900  1.0  -0.5474
  O  O469  1  0.652000  0.701500  0.389300  1.0  -0.5617
  O  O470  1  0.691500  0.750200  0.444900  1.0  -0.5474
  O  O471  1  0.652000  0.201500  0.889300  1.0  -0.5617
  O  O472  1  0.691500  0.250200  0.944900  1.0  -0.5474
  O  O473  1  0.110700  0.152000  0.298500  1.0  -0.5608
  O  O474  1  0.055100  0.191500  0.249800  1.0  -0.5474
  O  O475  1  0.110700  0.652000  0.798500  1.0  -0.5608
  O  O476  1  0.055100  0.691500  0.749800  1.0  -0.5474
  O  O477  1  0.610700  0.152000  0.798500  1.0  -0.5608
  O  O478  1  0.555100  0.191500  0.749800  1.0  -0.5474
  O  O479  1  0.610700  0.652000  0.298500  1.0  -0.5608
  O  O480  1  0.555100  0.691500  0.249800  1.0  -0.5474
  O  O481  1  0.110700  0.848000  0.701500  1.0  -0.5583
  O  O482  1  0.055100  0.808500  0.750200  1.0  -0.5449
  O  O483  1  0.110700  0.348000  0.201500  1.0  -0.5583
  O  O484  1  0.055100  0.308500  0.250200  1.0  -0.5449
  O  O485  1  0.610700  0.848000  0.201500  1.0  -0.5583
  O  O486  1  0.555100  0.808500  0.250200  1.0  -0.5449
  O  O487  1  0.610700  0.348000  0.701500  1.0  -0.5583
  O  O488  1  0.555100  0.308500  0.750200  1.0  -0.5449
  O  O489  1  0.889300  0.848000  0.298500  1.0  -0.5603
  O  O490  1  0.944900  0.808500  0.249800  1.0  -0.5479
  O  O491  1  0.889300  0.348000  0.798500  1.0  -0.5603
  O  O492  1  0.944900  0.308500  0.749800  1.0  -0.5479
  O  O493  1  0.389300  0.848000  0.798500  1.0  -0.5603
  O  O494  1  0.444900  0.808500  0.749800  1.0  -0.5479
  O  O495  1  0.389300  0.348000  0.298500  1.0  -0.5603
  O  O496  1  0.444900  0.308500  0.249800  1.0  -0.5479
  O  O497  1  0.889300  0.152000  0.701500  1.0  -0.5609
  O  O498  1  0.944900  0.191500  0.750200  1.0  -0.5458
  O  O499  1  0.889300  0.652000  0.201500  1.0  -0.5609
  O  O500  1  0.944900  0.691500  0.250200  1.0  -0.5458
  O  O501  1  0.389300  0.152000  0.201500  1.0  -0.5609
  O  O502  1  0.444900  0.191500  0.250200  1.0  -0.5458
  O  O503  1  0.389300  0.652000  0.701500  1.0  -0.5609
  O  O504  1  0.444900  0.691500  0.750200  1.0  -0.5458
  O  O505  1  0.298500  0.110700  0.152000  1.0  -0.5645
  O  O506  1  0.249800  0.055100  0.191500  1.0  -0.5463
  O  O507  1  0.298500  0.610700  0.652000  1.0  -0.5645
  O  O508  1  0.249800  0.555100  0.691500  1.0  -0.5463
  O  O509  1  0.798500  0.110700  0.652000  1.0  -0.5645
  O  O510  1  0.749800  0.055100  0.691500  1.0  -0.5463
  O  O511  1  0.798500  0.610700  0.152000  1.0  -0.5645
  O  O512  1  0.749800  0.555100  0.191500  1.0  -0.5463
  O  O513  1  0.701500  0.110700  0.848000  1.0  -0.5613
  O  O514  1  0.750200  0.055100  0.808500  1.0  -0.5441
  O  O515  1  0.701500  0.610700  0.348000  1.0  -0.5613
  O  O516  1  0.750200  0.555100  0.308500  1.0  -0.5441
  O  O517  1  0.201500  0.110700  0.348000  1.0  -0.5613
  O  O518  1  0.250200  0.055100  0.308500  1.0  -0.5441
  O  O519  1  0.201500  0.610700  0.848000  1.0  -0.5613
  O  O520  1  0.250200  0.555100  0.808500  1.0  -0.5441
  O  O521  1  0.298500  0.889300  0.848000  1.0  -0.5641
  O  O522  1  0.249800  0.944900  0.808500  1.0  -0.545
  O  O523  1  0.298500  0.389300  0.348000  1.0  -0.5641
  O  O524  1  0.249800  0.444900  0.308500  1.0  -0.545
  O  O525  1  0.798500  0.889300  0.348000  1.0  -0.5641
  O  O526  1  0.749800  0.944900  0.308500  1.0  -0.545
  O  O527  1  0.798500  0.389300  0.848000  1.0  -0.5641
  O  O528  1  0.749800  0.444900  0.808500  1.0  -0.545
  O  O529  1  0.701500  0.889300  0.152000  1.0  -0.5646
  O  O530  1  0.750200  0.944900  0.191500  1.0  -0.5461
  O  O531  1  0.701500  0.389300  0.652000  1.0  -0.5646
  O  O532  1  0.750200  0.444900  0.691500  1.0  -0.5461
  O  O533  1  0.201500  0.889300  0.652000  1.0  -0.5646
  O  O534  1  0.250200  0.944900  0.691500  1.0  -0.5461
  O  O535  1  0.201500  0.389300  0.152000  1.0  -0.5646
  O  O536  1  0.250200  0.444900  0.191500  1.0  -0.5461
  O  O537  1  0.848000  0.701500  0.889300  1.0  -0.5624
  O  O538  1  0.808500  0.750200  0.944900  1.0  -0.5459
  O  O539  1  0.848000  0.201500  0.389300  1.0  -0.5624
  O  O540  1  0.808500  0.250200  0.444900  1.0  -0.5459
  O  O541  1  0.348000  0.701500  0.389300  1.0  -0.5624
  O  O542  1  0.308500  0.750200  0.444900  1.0  -0.5459
  O  O543  1  0.348000  0.201500  0.889300  1.0  -0.5624
  O  O544  1  0.308500  0.250200  0.944900  1.0  -0.5459
  O  O545  1  0.152000  0.298500  0.889300  1.0  -0.5597
  O  O546  1  0.191500  0.249800  0.944900  1.0  -0.5455
  O  O547  1  0.152000  0.798500  0.389300  1.0  -0.5597
  O  O548  1  0.191500  0.749800  0.444900  1.0  -0.5455
  O  O549  1  0.652000  0.298500  0.389300  1.0  -0.5597
  O  O550  1  0.691500  0.249800  0.444900  1.0  -0.5455
  O  O551  1  0.652000  0.798500  0.889300  1.0  -0.5597
  O  O552  1  0.691500  0.749800  0.944900  1.0  -0.5455
  O  O553  1  0.152000  0.701500  0.110700  1.0  -0.5614
  O  O554  1  0.191500  0.750200  0.055100  1.0  -0.5475
  O  O555  1  0.152000  0.201500  0.610700  1.0  -0.5614
  O  O556  1  0.191500  0.250200  0.555100  1.0  -0.5475
  O  O557  1  0.652000  0.701500  0.610700  1.0  -0.5614
  O  O558  1  0.691500  0.750200  0.555100  1.0  -0.5475
  O  O559  1  0.652000  0.201500  0.110700  1.0  -0.5614
  O  O560  1  0.691500  0.250200  0.055100  1.0  -0.5475
  O  O561  1  0.848000  0.298500  0.110700  1.0  -0.561
  O  O562  1  0.808500  0.249800  0.055100  1.0  -0.5465
  O  O563  1  0.848000  0.798500  0.610700  1.0  -0.561
  O  O564  1  0.808500  0.749800  0.555100  1.0  -0.5465
  O  O565  1  0.348000  0.298500  0.610700  1.0  -0.561
  O  O566  1  0.308500  0.249800  0.555100  1.0  -0.5465
  O  O567  1  0.348000  0.798500  0.110700  1.0  -0.561
  O  O568  1  0.308500  0.749800  0.055100  1.0  -0.5465
  O  O569  1  0.889300  0.848000  0.701500  1.0  -0.5603
  O  O570  1  0.944900  0.808500  0.750200  1.0  -0.5453
  O  O571  1  0.889300  0.348000  0.201500  1.0  -0.5603
  O  O572  1  0.944900  0.308500  0.250200  1.0  -0.5453
  O  O573  1  0.389300  0.848000  0.201500  1.0  -0.5603
  O  O574  1  0.444900  0.808500  0.250200  1.0  -0.5453
  O  O575  1  0.389300  0.348000  0.701500  1.0  -0.5603
  O  O576  1  0.444900  0.308500  0.750200  1.0  -0.5453
  O  O577  1  0.889300  0.152000  0.298500  1.0  -0.561
  O  O578  1  0.944900  0.191500  0.249800  1.0  -0.5473
  O  O579  1  0.889300  0.652000  0.798500  1.0  -0.561
  O  O580  1  0.944900  0.691500  0.749800  1.0  -0.5473
  O  O581  1  0.389300  0.152000  0.798500  1.0  -0.561
  O  O582  1  0.444900  0.191500  0.749800  1.0  -0.5473
  O  O583  1  0.389300  0.652000  0.298500  1.0  -0.561
  O  O584  1  0.444900  0.691500  0.249800  1.0  -0.5473
  O  O585  1  0.110700  0.152000  0.701500  1.0  -0.5586
  O  O586  1  0.055100  0.191500  0.750200  1.0  -0.5455
  O  O587  1  0.110700  0.652000  0.201500  1.0  -0.5586
  O  O588  1  0.055100  0.691500  0.250200  1.0  -0.5455
  O  O589  1  0.610700  0.152000  0.201500  1.0  -0.5586
  O  O590  1  0.555100  0.191500  0.250200  1.0  -0.5455
  O  O591  1  0.610700  0.652000  0.701500  1.0  -0.5586
  O  O592  1  0.555100  0.691500  0.750200  1.0  -0.5455
  O  O593  1  0.110700  0.848000  0.298500  1.0  -0.5605
  O  O594  1  0.055100  0.808500  0.249800  1.0  -0.5479
  O  O595  1  0.110700  0.348000  0.798500  1.0  -0.5605
  O  O596  1  0.055100  0.308500  0.749800  1.0  -0.5479
  O  O597  1  0.610700  0.848000  0.798500  1.0  -0.5605
  O  O598  1  0.555100  0.808500  0.749800  1.0  -0.5479
  O  O599  1  0.610700  0.348000  0.298500  1.0  -0.5605
  O  O600  1  0.555100  0.308500  0.249800  1.0  -0.5479
  O  O601  1  0.701500  0.889300  0.848000  1.0  -0.5651
  O  O602  1  0.750200  0.944900  0.808500  1.0  -0.5451
  O  O603  1  0.701500  0.389300  0.348000  1.0  -0.5651
  O  O604  1  0.750200  0.444900  0.308500  1.0  -0.5451
  O  O605  1  0.201500  0.889300  0.348000  1.0  -0.5651
  O  O606  1  0.250200  0.944900  0.308500  1.0  -0.5451
  O  O607  1  0.201500  0.389300  0.848000  1.0  -0.5651
  O  O608  1  0.250200  0.444900  0.808500  1.0  -0.5451
  O  O609  1  0.298500  0.889300  0.152000  1.0  -0.5641
  O  O610  1  0.249800  0.944900  0.191500  1.0  -0.5459
  O  O611  1  0.298500  0.389300  0.652000  1.0  -0.5641
  O  O612  1  0.249800  0.444900  0.691500  1.0  -0.5459
  O  O613  1  0.798500  0.889300  0.652000  1.0  -0.5641
  O  O614  1  0.749800  0.944900  0.691500  1.0  -0.5459
  O  O615  1  0.798500  0.389300  0.152000  1.0  -0.5641
  O  O616  1  0.749800  0.444900  0.191500  1.0  -0.5459
  O  O617  1  0.701500  0.110700  0.152000  1.0  -0.5602
  O  O618  1  0.750200  0.055100  0.191500  1.0  -0.5452
  O  O619  1  0.701500  0.610700  0.652000  1.0  -0.5602
  O  O620  1  0.750200  0.555100  0.691500  1.0  -0.5452
  O  O621  1  0.201500  0.110700  0.652000  1.0  -0.5602
  O  O622  1  0.250200  0.055100  0.691500  1.0  -0.5452
  O  O623  1  0.201500  0.610700  0.152000  1.0  -0.5602
  O  O624  1  0.250200  0.555100  0.191500  1.0  -0.5452
  O  O625  1  0.298500  0.110700  0.848000  1.0  -0.5655
  O  O626  1  0.249800  0.055100  0.808500  1.0  -0.5457
  O  O627  1  0.298500  0.610700  0.348000  1.0  -0.5655
  O  O628  1  0.249800  0.555100  0.308500  1.0  -0.5457
  O  O629  1  0.798500  0.110700  0.348000  1.0  -0.5655
  O  O630  1  0.749800  0.055100  0.308500  1.0  -0.5457
  O  O631  1  0.798500  0.610700  0.848000  1.0  -0.5655
  O  O632  1  0.749800  0.555100  0.808500  1.0  -0.5457
