# generated using pymatgen
data_Co7H6C30(NO2)12
_symmetry_space_group_name_H-M   'P 1'
_cell_length_a   25.92800000
_cell_length_b   25.92800000
_cell_length_c   25.92800000
_cell_angle_alpha   90.00000000
_cell_angle_beta   90.00000000
_cell_angle_gamma   90.00000000
_symmetry_Int_Tables_number   1
_chemical_formula_structural   Co7H6C30(NO2)12
_chemical_formula_sum   'Co56 H48 C240 N96 O192'
_cell_volume   17430.38797875
_cell_formula_units_Z   8
loop_
 _symmetry_equiv_pos_site_id
 _symmetry_equiv_pos_as_xyz
  1  'x, y, z'
loop_
 _atom_site_type_symbol
 _atom_site_label
 _atom_site_symmetry_multiplicity
 _atom_site_fract_x
 _atom_site_fract_y
 _atom_site_fract_z
 _atom_site_occupancy
 _atom_site_charge
  Co  Co1  1  0.122870  0.122870  0.377130  1.0  0.9398
  Co  Co2  1  0.877130  0.877130  0.377130  1.0  0.9414
  Co  Co3  1  0.377130  0.377130  0.377130  1.0  0.9414
  Co  Co4  1  0.877130  0.122870  0.622870  1.0  0.9406
  Co  Co5  1  0.377130  0.122870  0.122870  1.0  0.9406
  Co  Co6  1  0.122870  0.877130  0.622870  1.0  0.9399
  Co  Co7  1  0.122870  0.377130  0.122870  1.0  0.9399
  Co  Co8  1  0.377130  0.622870  0.622870  1.0  0.9406
  Co  Co9  1  0.377130  0.877130  0.877130  1.0  0.9414
  Co  Co10  1  0.622870  0.877130  0.122870  1.0  0.9399
  Co  Co11  1  0.622870  0.377130  0.622870  1.0  0.9399
  Co  Co12  1  0.622870  0.122870  0.877130  1.0  0.9398
  Co  Co13  1  0.622870  0.622870  0.377130  1.0  0.9398
  Co  Co14  1  0.877130  0.377130  0.877130  1.0  0.9414
  Co  Co15  1  0.122870  0.622870  0.877130  1.0  0.9398
  Co  Co16  1  0.877130  0.622870  0.122870  1.0  0.9406
  Co  Co17  1  0.877130  0.877130  0.622870  1.0  0.9412
  Co  Co18  1  0.877130  0.377130  0.122870  1.0  0.9412
  Co  Co19  1  0.377130  0.877130  0.122870  1.0  0.9412
  Co  Co20  1  0.122870  0.122870  0.622870  1.0  0.9396
  Co  Co21  1  0.122870  0.877130  0.377130  1.0  0.9402
  Co  Co22  1  0.877130  0.122870  0.377130  1.0  0.9408
  Co  Co23  1  0.377130  0.622870  0.377130  1.0  0.9408
  Co  Co24  1  0.622870  0.877130  0.877130  1.0  0.9402
  Co  Co25  1  0.622870  0.377130  0.377130  1.0  0.9402
  Co  Co26  1  0.122870  0.377130  0.877130  1.0  0.9402
  Co  Co27  1  0.622870  0.122870  0.122870  1.0  0.9396
  Co  Co28  1  0.622870  0.622870  0.622870  1.0  0.9396
  Co  Co29  1  0.377130  0.122870  0.877130  1.0  0.9408
  Co  Co30  1  0.377130  0.377130  0.622870  1.0  0.9412
  Co  Co31  1  0.877130  0.622870  0.877130  1.0  0.9408
  Co  Co32  1  0.122870  0.622870  0.122870  1.0  0.9396
  Co  Co33  1  0.000000  0.250000  0.250000  1.0  1.0394
  Co  Co34  1  0.500000  0.250000  0.750000  1.0  1.0394
  Co  Co35  1  0.000000  0.750000  0.250000  1.0  1.0394
  Co  Co36  1  0.500000  0.750000  0.750000  1.0  1.0394
  Co  Co37  1  0.500000  0.250000  0.250000  1.0  1.0394
  Co  Co38  1  0.000000  0.250000  0.750000  1.0  1.0394
  Co  Co39  1  0.000000  0.750000  0.750000  1.0  1.0394
  Co  Co40  1  0.500000  0.750000  0.250000  1.0  1.0394
  Co  Co41  1  0.250000  0.000000  0.250000  1.0  1.0394
  Co  Co42  1  0.250000  0.500000  0.750000  1.0  1.0394
  Co  Co43  1  0.250000  0.000000  0.750000  1.0  1.0394
  Co  Co44  1  0.250000  0.500000  0.250000  1.0  1.0394
  Co  Co45  1  0.750000  0.000000  0.250000  1.0  1.0394
  Co  Co46  1  0.750000  0.500000  0.750000  1.0  1.0394
  Co  Co47  1  0.750000  0.000000  0.750000  1.0  1.0394
  Co  Co48  1  0.750000  0.500000  0.250000  1.0  1.0394
  Co  Co49  1  0.250000  0.250000  0.000000  1.0  1.0394
  Co  Co50  1  0.250000  0.750000  0.500000  1.0  1.0394
  Co  Co51  1  0.750000  0.250000  0.000000  1.0  1.0394
  Co  Co52  1  0.750000  0.750000  0.500000  1.0  1.0394
  Co  Co53  1  0.250000  0.250000  0.500000  1.0  1.0394
  Co  Co54  1  0.250000  0.750000  0.000000  1.0  1.0394
  Co  Co55  1  0.750000  0.750000  0.000000  1.0  1.0394
  Co  Co56  1  0.750000  0.250000  0.500000  1.0  1.0394
  H  H57  1  0.000000  0.108300  0.435100  1.0  0.1009
  H  H58  1  0.000000  0.608300  0.935100  1.0  0.1009
  H  H59  1  0.500000  0.108300  0.935100  1.0  0.1009
  H  H60  1  0.500000  0.608300  0.435100  1.0  0.1009
  H  H61  1  0.000000  0.891700  0.435100  1.0  0.1007
  H  H62  1  0.000000  0.391700  0.935100  1.0  0.1007
  H  H63  1  0.500000  0.891700  0.935100  1.0  0.1007
  H  H64  1  0.500000  0.391700  0.435100  1.0  0.1007
  H  H65  1  0.000000  0.108300  0.564900  1.0  0.1021
  H  H66  1  0.000000  0.608300  0.064900  1.0  0.1021
  H  H67  1  0.500000  0.108300  0.064900  1.0  0.1021
  H  H68  1  0.500000  0.608300  0.564900  1.0  0.1021
  H  H69  1  0.000000  0.891700  0.564900  1.0  0.102
  H  H70  1  0.000000  0.391700  0.064900  1.0  0.102
  H  H71  1  0.500000  0.891700  0.064900  1.0  0.102
  H  H72  1  0.500000  0.391700  0.564900  1.0  0.102
  H  H73  1  0.435100  0.000000  0.108300  1.0  0.1007
  H  H74  1  0.435100  0.500000  0.608300  1.0  0.1007
  H  H75  1  0.935100  0.000000  0.608300  1.0  0.1007
  H  H76  1  0.935100  0.500000  0.108300  1.0  0.1007
  H  H77  1  0.435100  0.000000  0.891700  1.0  0.1012
  H  H78  1  0.435100  0.500000  0.391700  1.0  0.1012
  H  H79  1  0.935100  0.000000  0.391700  1.0  0.1012
  H  H80  1  0.935100  0.500000  0.891700  1.0  0.1012
  H  H81  1  0.564900  0.000000  0.108300  1.0  0.1005
  H  H82  1  0.564900  0.500000  0.608300  1.0  0.1005
  H  H83  1  0.064900  0.000000  0.608300  1.0  0.1005
  H  H84  1  0.064900  0.500000  0.108300  1.0  0.1005
  H  H85  1  0.564900  0.000000  0.891700  1.0  0.1008
  H  H86  1  0.564900  0.500000  0.391700  1.0  0.1008
  H  H87  1  0.064900  0.000000  0.391700  1.0  0.1008
  H  H88  1  0.064900  0.500000  0.891700  1.0  0.1008
  H  H89  1  0.108300  0.435100  0.000000  1.0  0.1039
  H  H90  1  0.108300  0.935100  0.500000  1.0  0.1039
  H  H91  1  0.608300  0.435100  0.500000  1.0  0.1039
  H  H92  1  0.608300  0.935100  0.000000  1.0  0.1039
  H  H93  1  0.891700  0.435100  0.000000  1.0  0.1039
  H  H94  1  0.891700  0.935100  0.500000  1.0  0.1039
  H  H95  1  0.391700  0.435100  0.500000  1.0  0.1039
  H  H96  1  0.391700  0.935100  0.000000  1.0  0.1039
  H  H97  1  0.108300  0.564900  0.000000  1.0  0.1038
  H  H98  1  0.108300  0.064900  0.500000  1.0  0.1038
  H  H99  1  0.608300  0.564900  0.500000  1.0  0.1038
  H  H100  1  0.608300  0.064900  0.000000  1.0  0.1038
  H  H101  1  0.891700  0.564900  0.000000  1.0  0.1041
  H  H102  1  0.891700  0.064900  0.500000  1.0  0.1041
  H  H103  1  0.391700  0.564900  0.500000  1.0  0.1041
  H  H104  1  0.391700  0.064900  0.000000  1.0  0.1041
  C  C105  1  0.027200  0.151500  0.329200  1.0  0.0122
  C  C106  1  0.066400  0.164900  0.291300  1.0  0.7501
  C  C107  1  0.027200  0.651500  0.829200  1.0  0.0122
  C  C108  1  0.066400  0.664900  0.791300  1.0  0.7501
  C  C109  1  0.527200  0.151500  0.829200  1.0  0.0122
  C  C110  1  0.566400  0.164900  0.791300  1.0  0.7501
  C  C111  1  0.527200  0.651500  0.329200  1.0  0.0122
  C  C112  1  0.566400  0.664900  0.291300  1.0  0.7501
  C  C113  1  0.972800  0.848500  0.329200  1.0  0.0121
  C  C114  1  0.933600  0.835100  0.291300  1.0  0.7511
  C  C115  1  0.972800  0.348500  0.829200  1.0  0.0121
  C  C116  1  0.933600  0.335100  0.791300  1.0  0.7511
  C  C117  1  0.472800  0.848500  0.829200  1.0  0.0121
  C  C118  1  0.433600  0.835100  0.791300  1.0  0.7511
  C  C119  1  0.472800  0.348500  0.329200  1.0  0.0121
  C  C120  1  0.433600  0.335100  0.291300  1.0  0.7511
  C  C121  1  0.972800  0.151500  0.670800  1.0  0.0131
  C  C122  1  0.933600  0.164900  0.708700  1.0  0.7518
  C  C123  1  0.972800  0.651500  0.170800  1.0  0.0131
  C  C124  1  0.933600  0.664900  0.208700  1.0  0.7518
  C  C125  1  0.472800  0.151500  0.170800  1.0  0.0131
  C  C126  1  0.433600  0.164900  0.208700  1.0  0.7518
  C  C127  1  0.472800  0.651500  0.670800  1.0  0.0131
  C  C128  1  0.433600  0.664900  0.708700  1.0  0.7518
  C  C129  1  0.027200  0.848500  0.670800  1.0  0.0134
  C  C130  1  0.066400  0.835100  0.708700  1.0  0.7542
  C  C131  1  0.027200  0.348500  0.170800  1.0  0.0134
  C  C132  1  0.066400  0.335100  0.208700  1.0  0.7542
  C  C133  1  0.527200  0.848500  0.170800  1.0  0.0134
  C  C134  1  0.566400  0.835100  0.208700  1.0  0.7542
  C  C135  1  0.527200  0.348500  0.670800  1.0  0.0134
  C  C136  1  0.566400  0.335100  0.708700  1.0  0.7542
  C  C137  1  0.329200  0.027200  0.151500  1.0  0.0119
  C  C138  1  0.291300  0.066400  0.164900  1.0  0.7465
  C  C139  1  0.329200  0.527200  0.651500  1.0  0.0119
  C  C140  1  0.291300  0.566400  0.664900  1.0  0.7465
  C  C141  1  0.829200  0.027200  0.651500  1.0  0.0119
  C  C142  1  0.791300  0.066400  0.664900  1.0  0.7465
  C  C143  1  0.829200  0.527200  0.151500  1.0  0.0119
  C  C144  1  0.791300  0.566400  0.164900  1.0  0.7465
  C  C145  1  0.329200  0.972800  0.848500  1.0  0.0113
  C  C146  1  0.291300  0.933600  0.835100  1.0  0.7473
  C  C147  1  0.329200  0.472800  0.348500  1.0  0.0113
  C  C148  1  0.291300  0.433600  0.335100  1.0  0.7473
  C  C149  1  0.829200  0.972800  0.348500  1.0  0.0113
  C  C150  1  0.791300  0.933600  0.335100  1.0  0.7473
  C  C151  1  0.829200  0.472800  0.848500  1.0  0.0113
  C  C152  1  0.791300  0.433600  0.835100  1.0  0.7473
  C  C153  1  0.670800  0.972800  0.151500  1.0  0.0109
  C  C154  1  0.708700  0.933600  0.164900  1.0  0.7485
  C  C155  1  0.670800  0.472800  0.651500  1.0  0.0109
  C  C156  1  0.708700  0.433600  0.664900  1.0  0.7485
  C  C157  1  0.170800  0.972800  0.651500  1.0  0.0109
  C  C158  1  0.208700  0.933600  0.664900  1.0  0.7485
  C  C159  1  0.170800  0.472800  0.151500  1.0  0.0109
  C  C160  1  0.208700  0.433600  0.164900  1.0  0.7485
  C  C161  1  0.670800  0.027200  0.848500  1.0  0.0111
  C  C162  1  0.708700  0.066400  0.835100  1.0  0.7472
  C  C163  1  0.670800  0.527200  0.348500  1.0  0.0111
  C  C164  1  0.708700  0.566400  0.335100  1.0  0.7472
  C  C165  1  0.170800  0.027200  0.348500  1.0  0.0111
  C  C166  1  0.208700  0.066400  0.335100  1.0  0.7472
  C  C167  1  0.170800  0.527200  0.848500  1.0  0.0111
  C  C168  1  0.208700  0.566400  0.835100  1.0  0.7472
  C  C169  1  0.151500  0.329200  0.027200  1.0  0.011
  C  C170  1  0.164900  0.291300  0.066400  1.0  0.7456
  C  C171  1  0.151500  0.829200  0.527200  1.0  0.011
  C  C172  1  0.164900  0.791300  0.566400  1.0  0.7456
  C  C173  1  0.651500  0.329200  0.527200  1.0  0.011
  C  C174  1  0.664900  0.291300  0.566400  1.0  0.7456
  C  C175  1  0.651500  0.829200  0.027200  1.0  0.011
  C  C176  1  0.664900  0.791300  0.066400  1.0  0.7456
  C  C177  1  0.848500  0.329200  0.972800  1.0  0.011
  C  C178  1  0.835100  0.291300  0.933600  1.0  0.7429
  C  C179  1  0.848500  0.829200  0.472800  1.0  0.011
  C  C180  1  0.835100  0.791300  0.433600  1.0  0.7429
  C  C181  1  0.348500  0.329200  0.472800  1.0  0.011
  C  C182  1  0.335100  0.291300  0.433600  1.0  0.7429
  C  C183  1  0.348500  0.829200  0.972800  1.0  0.011
  C  C184  1  0.335100  0.791300  0.933600  1.0  0.7429
  C  C185  1  0.151500  0.670800  0.972800  1.0  0.0111
  C  C186  1  0.164900  0.708700  0.933600  1.0  0.7438
  C  C187  1  0.151500  0.170800  0.472800  1.0  0.0111
  C  C188  1  0.164900  0.208700  0.433600  1.0  0.7438
  C  C189  1  0.651500  0.670800  0.472800  1.0  0.0111
  C  C190  1  0.664900  0.708700  0.433600  1.0  0.7438
  C  C191  1  0.651500  0.170800  0.972800  1.0  0.0111
  C  C192  1  0.664900  0.208700  0.933600  1.0  0.7438
  C  C193  1  0.848500  0.670800  0.027200  1.0  0.0115
  C  C194  1  0.835100  0.708700  0.066400  1.0  0.7423
  C  C195  1  0.848500  0.170800  0.527200  1.0  0.0115
  C  C196  1  0.835100  0.208700  0.566400  1.0  0.7423
  C  C197  1  0.348500  0.670800  0.527200  1.0  0.0115
  C  C198  1  0.335100  0.708700  0.566400  1.0  0.7423
  C  C199  1  0.348500  0.170800  0.027200  1.0  0.0115
  C  C200  1  0.335100  0.208700  0.066400  1.0  0.7423
  C  C201  1  0.972800  0.848500  0.670800  1.0  0.0139
  C  C202  1  0.933600  0.835100  0.708700  1.0  0.7516
  C  C203  1  0.972800  0.348500  0.170800  1.0  0.0139
  C  C204  1  0.933600  0.335100  0.208700  1.0  0.7516
  C  C205  1  0.472800  0.848500  0.170800  1.0  0.0139
  C  C206  1  0.433600  0.835100  0.208700  1.0  0.7516
  C  C207  1  0.472800  0.348500  0.670800  1.0  0.0139
  C  C208  1  0.433600  0.335100  0.708700  1.0  0.7516
  C  C209  1  0.027200  0.151500  0.670800  1.0  0.0134
  C  C210  1  0.066400  0.164900  0.708700  1.0  0.7545
  C  C211  1  0.027200  0.651500  0.170800  1.0  0.0134
  C  C212  1  0.066400  0.664900  0.208700  1.0  0.7545
  C  C213  1  0.527200  0.151500  0.170800  1.0  0.0134
  C  C214  1  0.566400  0.164900  0.208700  1.0  0.7545
  C  C215  1  0.527200  0.651500  0.670800  1.0  0.0134
  C  C216  1  0.566400  0.664900  0.708700  1.0  0.7545
  C  C217  1  0.027200  0.848500  0.329200  1.0  0.0124
  C  C218  1  0.066400  0.835100  0.291300  1.0  0.7505
  C  C219  1  0.027200  0.348500  0.829200  1.0  0.0124
  C  C220  1  0.066400  0.335100  0.791300  1.0  0.7505
  C  C221  1  0.527200  0.848500  0.829200  1.0  0.0124
  C  C222  1  0.566400  0.835100  0.791300  1.0  0.7505
  C  C223  1  0.527200  0.348500  0.329200  1.0  0.0124
  C  C224  1  0.566400  0.335100  0.291300  1.0  0.7505
  C  C225  1  0.972800  0.151500  0.329200  1.0  0.0127
  C  C226  1  0.933600  0.164900  0.291300  1.0  0.751
  C  C227  1  0.972800  0.651500  0.829200  1.0  0.0127
  C  C228  1  0.933600  0.664900  0.791300  1.0  0.751
  C  C229  1  0.472800  0.151500  0.829200  1.0  0.0127
  C  C230  1  0.433600  0.164900  0.791300  1.0  0.751
  C  C231  1  0.472800  0.651500  0.329200  1.0  0.0127
  C  C232  1  0.433600  0.664900  0.291300  1.0  0.751
  C  C233  1  0.670800  0.972800  0.848500  1.0  0.0114
  C  C234  1  0.708700  0.933600  0.835100  1.0  0.7481
  C  C235  1  0.670800  0.472800  0.348500  1.0  0.0114
  C  C236  1  0.708700  0.433600  0.335100  1.0  0.7481
  C  C237  1  0.170800  0.972800  0.348500  1.0  0.0114
  C  C238  1  0.208700  0.933600  0.335100  1.0  0.7481
  C  C239  1  0.170800  0.472800  0.848500  1.0  0.0114
  C  C240  1  0.208700  0.433600  0.835100  1.0  0.7481
  C  C241  1  0.670800  0.027200  0.151500  1.0  0.0113
  C  C242  1  0.708700  0.066400  0.164900  1.0  0.7475
  C  C243  1  0.670800  0.527200  0.651500  1.0  0.0113
  C  C244  1  0.708700  0.566400  0.664900  1.0  0.7475
  C  C245  1  0.170800  0.027200  0.651500  1.0  0.0113
  C  C246  1  0.208700  0.066400  0.664900  1.0  0.7475
  C  C247  1  0.170800  0.527200  0.151500  1.0  0.0113
  C  C248  1  0.208700  0.566400  0.164900  1.0  0.7475
  C  C249  1  0.329200  0.027200  0.848500  1.0  0.0123
  C  C250  1  0.291300  0.066400  0.835100  1.0  0.7464
  C  C251  1  0.329200  0.527200  0.348500  1.0  0.0123
  C  C252  1  0.291300  0.566400  0.335100  1.0  0.7464
  C  C253  1  0.829200  0.027200  0.348500  1.0  0.0123
  C  C254  1  0.791300  0.066400  0.335100  1.0  0.7464
  C  C255  1  0.829200  0.527200  0.848500  1.0  0.0123
  C  C256  1  0.791300  0.566400  0.835100  1.0  0.7464
  C  C257  1  0.329200  0.972800  0.151500  1.0  0.012
  C  C258  1  0.291300  0.933600  0.164900  1.0  0.7473
  C  C259  1  0.329200  0.472800  0.651500  1.0  0.012
  C  C260  1  0.291300  0.433600  0.664900  1.0  0.7473
  C  C261  1  0.829200  0.972800  0.651500  1.0  0.012
  C  C262  1  0.791300  0.933600  0.664900  1.0  0.7473
  C  C263  1  0.829200  0.472800  0.151500  1.0  0.012
  C  C264  1  0.791300  0.433600  0.164900  1.0  0.7473
  C  C265  1  0.848500  0.670800  0.972800  1.0  0.0117
  C  C266  1  0.835100  0.708700  0.933600  1.0  0.7431
  C  C267  1  0.848500  0.170800  0.472800  1.0  0.0117
  C  C268  1  0.835100  0.208700  0.433600  1.0  0.7431
  C  C269  1  0.348500  0.670800  0.472800  1.0  0.0117
  C  C270  1  0.335100  0.708700  0.433600  1.0  0.7431
  C  C271  1  0.348500  0.170800  0.972800  1.0  0.0117
  C  C272  1  0.335100  0.208700  0.933600  1.0  0.7431
  C  C273  1  0.151500  0.670800  0.027200  1.0  0.0115
  C  C274  1  0.164900  0.708700  0.066400  1.0  0.7437
  C  C275  1  0.151500  0.170800  0.527200  1.0  0.0115
  C  C276  1  0.164900  0.208700  0.566400  1.0  0.7437
  C  C277  1  0.651500  0.670800  0.527200  1.0  0.0115
  C  C278  1  0.664900  0.708700  0.566400  1.0  0.7437
  C  C279  1  0.651500  0.170800  0.027200  1.0  0.0115
  C  C280  1  0.664900  0.208700  0.066400  1.0  0.7437
  C  C281  1  0.848500  0.329200  0.027200  1.0  0.0114
  C  C282  1  0.835100  0.291300  0.066400  1.0  0.7445
  C  C283  1  0.848500  0.829200  0.527200  1.0  0.0114
  C  C284  1  0.835100  0.791300  0.566400  1.0  0.7445
  C  C285  1  0.348500  0.329200  0.527200  1.0  0.0114
  C  C286  1  0.335100  0.291300  0.566400  1.0  0.7445
  C  C287  1  0.348500  0.829200  0.027200  1.0  0.0114
  C  C288  1  0.335100  0.791300  0.066400  1.0  0.7445
  C  C289  1  0.151500  0.329200  0.972800  1.0  0.0115
  C  C290  1  0.164900  0.291300  0.933600  1.0  0.7436
  C  C291  1  0.151500  0.829200  0.472800  1.0  0.0115
  C  C292  1  0.164900  0.791300  0.433600  1.0  0.7436
  C  C293  1  0.651500  0.329200  0.472800  1.0  0.0115
  C  C294  1  0.664900  0.291300  0.433600  1.0  0.7436
  C  C295  1  0.651500  0.829200  0.972800  1.0  0.0115
  C  C296  1  0.664900  0.791300  0.933600  1.0  0.7436
  C  C297  1  0.000000  0.121500  0.400900  1.0  0.3198
  C  C298  1  0.000000  0.621500  0.900900  1.0  0.3198
  C  C299  1  0.500000  0.121500  0.900900  1.0  0.3198
  C  C300  1  0.500000  0.621500  0.400900  1.0  0.3198
  C  C301  1  0.000000  0.878500  0.400900  1.0  0.3195
  C  C302  1  0.000000  0.378500  0.900900  1.0  0.3195
  C  C303  1  0.500000  0.878500  0.900900  1.0  0.3195
  C  C304  1  0.500000  0.378500  0.400900  1.0  0.3195
  C  C305  1  0.000000  0.121500  0.599100  1.0  0.3187
  C  C306  1  0.000000  0.621500  0.099100  1.0  0.3187
  C  C307  1  0.500000  0.121500  0.099100  1.0  0.3187
  C  C308  1  0.500000  0.621500  0.599100  1.0  0.3187
  C  C309  1  0.000000  0.878500  0.599100  1.0  0.3187
  C  C310  1  0.000000  0.378500  0.099100  1.0  0.3187
  C  C311  1  0.500000  0.878500  0.099100  1.0  0.3187
  C  C312  1  0.500000  0.378500  0.599100  1.0  0.3187
  C  C313  1  0.400900  0.000000  0.121500  1.0  0.3205
  C  C314  1  0.400900  0.500000  0.621500  1.0  0.3205
  C  C315  1  0.900900  0.000000  0.621500  1.0  0.3205
  C  C316  1  0.900900  0.500000  0.121500  1.0  0.3205
  C  C317  1  0.400900  0.000000  0.878500  1.0  0.3205
  C  C318  1  0.400900  0.500000  0.378500  1.0  0.3205
  C  C319  1  0.900900  0.000000  0.378500  1.0  0.3205
  C  C320  1  0.900900  0.500000  0.878500  1.0  0.3205
  C  C321  1  0.599100  0.000000  0.121500  1.0  0.3204
  C  C322  1  0.599100  0.500000  0.621500  1.0  0.3204
  C  C323  1  0.099100  0.000000  0.621500  1.0  0.3204
  C  C324  1  0.099100  0.500000  0.121500  1.0  0.3204
  C  C325  1  0.599100  0.000000  0.878500  1.0  0.3202
  C  C326  1  0.599100  0.500000  0.378500  1.0  0.3202
  C  C327  1  0.099100  0.000000  0.378500  1.0  0.3202
  C  C328  1  0.099100  0.500000  0.878500  1.0  0.3202
  C  C329  1  0.121500  0.400900  0.000000  1.0  0.3172
  C  C330  1  0.121500  0.900900  0.500000  1.0  0.3172
  C  C331  1  0.621500  0.400900  0.500000  1.0  0.3172
  C  C332  1  0.621500  0.900900  0.000000  1.0  0.3172
  C  C333  1  0.878500  0.400900  0.000000  1.0  0.3167
  C  C334  1  0.878500  0.900900  0.500000  1.0  0.3167
  C  C335  1  0.378500  0.400900  0.500000  1.0  0.3167
  C  C336  1  0.378500  0.900900  0.000000  1.0  0.3167
  C  C337  1  0.121500  0.599100  0.000000  1.0  0.3184
  C  C338  1  0.121500  0.099100  0.500000  1.0  0.3184
  C  C339  1  0.621500  0.599100  0.500000  1.0  0.3184
  C  C340  1  0.621500  0.099100  0.000000  1.0  0.3184
  C  C341  1  0.878500  0.599100  0.000000  1.0  0.3175
  C  C342  1  0.878500  0.099100  0.500000  1.0  0.3175
  C  C343  1  0.378500  0.599100  0.500000  1.0  0.3175
  C  C344  1  0.378500  0.099100  0.000000  1.0  0.3175
  N  N345  1  0.043600  0.131500  0.375040  1.0  -0.4612
  N  N346  1  0.043600  0.631500  0.875040  1.0  -0.4612
  N  N347  1  0.543600  0.131500  0.875040  1.0  -0.4612
  N  N348  1  0.543600  0.631500  0.375040  1.0  -0.4612
  N  N349  1  0.956400  0.868500  0.375040  1.0  -0.4614
  N  N350  1  0.956400  0.368500  0.875040  1.0  -0.4614
  N  N351  1  0.456400  0.868500  0.875040  1.0  -0.4614
  N  N352  1  0.456400  0.368500  0.375040  1.0  -0.4614
  N  N353  1  0.956400  0.131500  0.624960  1.0  -0.4612
  N  N354  1  0.956400  0.631500  0.124960  1.0  -0.4612
  N  N355  1  0.456400  0.131500  0.124960  1.0  -0.4612
  N  N356  1  0.456400  0.631500  0.624960  1.0  -0.4612
  N  N357  1  0.043600  0.868500  0.624960  1.0  -0.4608
  N  N358  1  0.043600  0.368500  0.124960  1.0  -0.4608
  N  N359  1  0.543600  0.868500  0.124960  1.0  -0.4608
  N  N360  1  0.543600  0.368500  0.624960  1.0  -0.4608
  N  N361  1  0.375040  0.043600  0.131500  1.0  -0.4598
  N  N362  1  0.375040  0.543600  0.631500  1.0  -0.4598
  N  N363  1  0.875040  0.043600  0.631500  1.0  -0.4598
  N  N364  1  0.875040  0.543600  0.131500  1.0  -0.4598
  N  N365  1  0.375040  0.956400  0.868500  1.0  -0.4607
  N  N366  1  0.375040  0.456400  0.368500  1.0  -0.4607
  N  N367  1  0.875040  0.956400  0.368500  1.0  -0.4607
  N  N368  1  0.875040  0.456400  0.868500  1.0  -0.4607
  N  N369  1  0.624960  0.956400  0.131500  1.0  -0.4607
  N  N370  1  0.624960  0.456400  0.631500  1.0  -0.4607
  N  N371  1  0.124960  0.956400  0.631500  1.0  -0.4607
  N  N372  1  0.124960  0.456400  0.131500  1.0  -0.4607
  N  N373  1  0.624960  0.043600  0.868500  1.0  -0.4603
  N  N374  1  0.624960  0.543600  0.368500  1.0  -0.4603
  N  N375  1  0.124960  0.043600  0.368500  1.0  -0.4603
  N  N376  1  0.124960  0.543600  0.868500  1.0  -0.4603
  N  N377  1  0.131500  0.375040  0.043600  1.0  -0.4601
  N  N378  1  0.131500  0.875040  0.543600  1.0  -0.4601
  N  N379  1  0.631500  0.375040  0.543600  1.0  -0.4601
  N  N380  1  0.631500  0.875040  0.043600  1.0  -0.4601
  N  N381  1  0.868500  0.375040  0.956400  1.0  -0.4603
  N  N382  1  0.868500  0.875040  0.456400  1.0  -0.4603
  N  N383  1  0.368500  0.375040  0.456400  1.0  -0.4603
  N  N384  1  0.368500  0.875040  0.956400  1.0  -0.4603
  N  N385  1  0.131500  0.624960  0.956400  1.0  -0.4604
  N  N386  1  0.131500  0.124960  0.456400  1.0  -0.4604
  N  N387  1  0.631500  0.624960  0.456400  1.0  -0.4604
  N  N388  1  0.631500  0.124960  0.956400  1.0  -0.4604
  N  N389  1  0.868500  0.624960  0.043600  1.0  -0.4612
  N  N390  1  0.868500  0.124960  0.543600  1.0  -0.4612
  N  N391  1  0.368500  0.624960  0.543600  1.0  -0.4612
  N  N392  1  0.368500  0.124960  0.043600  1.0  -0.4612
  N  N393  1  0.956400  0.868500  0.624960  1.0  -0.4607
  N  N394  1  0.956400  0.368500  0.124960  1.0  -0.4607
  N  N395  1  0.456400  0.868500  0.124960  1.0  -0.4607
  N  N396  1  0.456400  0.368500  0.624960  1.0  -0.4607
  N  N397  1  0.043600  0.131500  0.624960  1.0  -0.4609
  N  N398  1  0.043600  0.631500  0.124960  1.0  -0.4609
  N  N399  1  0.543600  0.131500  0.124960  1.0  -0.4609
  N  N400  1  0.543600  0.631500  0.624960  1.0  -0.4609
  N  N401  1  0.043600  0.868500  0.375040  1.0  -0.4603
  N  N402  1  0.043600  0.368500  0.875040  1.0  -0.4603
  N  N403  1  0.543600  0.868500  0.875040  1.0  -0.4603
  N  N404  1  0.543600  0.368500  0.375040  1.0  -0.4603
  N  N405  1  0.956400  0.131500  0.375040  1.0  -0.4611
  N  N406  1  0.956400  0.631500  0.875040  1.0  -0.4611
  N  N407  1  0.456400  0.131500  0.875040  1.0  -0.4611
  N  N408  1  0.456400  0.631500  0.375040  1.0  -0.4611
  N  N409  1  0.624960  0.956400  0.868500  1.0  -0.4608
  N  N410  1  0.624960  0.456400  0.368500  1.0  -0.4608
  N  N411  1  0.124960  0.956400  0.368500  1.0  -0.4608
  N  N412  1  0.124960  0.456400  0.868500  1.0  -0.4608
  N  N413  1  0.624960  0.043600  0.131500  1.0  -0.4595
  N  N414  1  0.624960  0.543600  0.631500  1.0  -0.4595
  N  N415  1  0.124960  0.043600  0.631500  1.0  -0.4595
  N  N416  1  0.124960  0.543600  0.131500  1.0  -0.4595
  N  N417  1  0.375040  0.043600  0.868500  1.0  -0.4597
  N  N418  1  0.375040  0.543600  0.368500  1.0  -0.4597
  N  N419  1  0.875040  0.043600  0.368500  1.0  -0.4597
  N  N420  1  0.875040  0.543600  0.868500  1.0  -0.4597
  N  N421  1  0.375040  0.956400  0.131500  1.0  -0.4601
  N  N422  1  0.375040  0.456400  0.631500  1.0  -0.4601
  N  N423  1  0.875040  0.956400  0.631500  1.0  -0.4601
  N  N424  1  0.875040  0.456400  0.131500  1.0  -0.4601
  N  N425  1  0.868500  0.624960  0.956400  1.0  -0.4607
  N  N426  1  0.868500  0.124960  0.456400  1.0  -0.4607
  N  N427  1  0.368500  0.624960  0.456400  1.0  -0.4607
  N  N428  1  0.368500  0.124960  0.956400  1.0  -0.4607
  N  N429  1  0.131500  0.624960  0.043600  1.0  -0.4602
  N  N430  1  0.131500  0.124960  0.543600  1.0  -0.4602
  N  N431  1  0.631500  0.624960  0.543600  1.0  -0.4602
  N  N432  1  0.631500  0.124960  0.043600  1.0  -0.4602
  N  N433  1  0.868500  0.375040  0.043600  1.0  -0.4605
  N  N434  1  0.868500  0.875040  0.543600  1.0  -0.4605
  N  N435  1  0.368500  0.375040  0.543600  1.0  -0.4605
  N  N436  1  0.368500  0.875040  0.043600  1.0  -0.4605
  N  N437  1  0.131500  0.375040  0.956400  1.0  -0.4593
  N  N438  1  0.131500  0.875040  0.456400  1.0  -0.4593
  N  N439  1  0.631500  0.375040  0.456400  1.0  -0.4593
  N  N440  1  0.631500  0.875040  0.956400  1.0  -0.4593
  O  O441  1  0.111150  0.148890  0.299570  1.0  -0.5454
  O  O442  1  0.055640  0.193200  0.253100  1.0  -0.5392
  O  O443  1  0.111150  0.648890  0.799570  1.0  -0.5454
  O  O444  1  0.055640  0.693200  0.753100  1.0  -0.5392
  O  O445  1  0.611150  0.148890  0.799570  1.0  -0.5454
  O  O446  1  0.555640  0.193200  0.753100  1.0  -0.5392
  O  O447  1  0.611150  0.648890  0.299570  1.0  -0.5454
  O  O448  1  0.555640  0.693200  0.253100  1.0  -0.5392
  O  O449  1  0.888850  0.851110  0.299570  1.0  -0.5453
  O  O450  1  0.944360  0.806800  0.253100  1.0  -0.54
  O  O451  1  0.888850  0.351110  0.799570  1.0  -0.5453
  O  O452  1  0.944360  0.306800  0.753100  1.0  -0.54
  O  O453  1  0.388850  0.851110  0.799570  1.0  -0.5453
  O  O454  1  0.444360  0.806800  0.753100  1.0  -0.54
  O  O455  1  0.388850  0.351110  0.299570  1.0  -0.5453
  O  O456  1  0.444360  0.306800  0.253100  1.0  -0.54
  O  O457  1  0.888850  0.148890  0.700430  1.0  -0.5472
  O  O458  1  0.944360  0.193200  0.746900  1.0  -0.5374
  O  O459  1  0.888850  0.648890  0.200430  1.0  -0.5472
  O  O460  1  0.944360  0.693200  0.246900  1.0  -0.5374
  O  O461  1  0.388850  0.148890  0.200430  1.0  -0.5472
  O  O462  1  0.444360  0.193200  0.246900  1.0  -0.5374
  O  O463  1  0.388850  0.648890  0.700430  1.0  -0.5472
  O  O464  1  0.444360  0.693200  0.746900  1.0  -0.5374
  O  O465  1  0.111150  0.851110  0.700430  1.0  -0.5454
  O  O466  1  0.055640  0.806800  0.746900  1.0  -0.5357
  O  O467  1  0.111150  0.351110  0.200430  1.0  -0.5454
  O  O468  1  0.055640  0.306800  0.246900  1.0  -0.5357
  O  O469  1  0.611150  0.851110  0.200430  1.0  -0.5454
  O  O470  1  0.555640  0.806800  0.246900  1.0  -0.5357
  O  O471  1  0.611150  0.351110  0.700430  1.0  -0.5454
  O  O472  1  0.555640  0.306800  0.746900  1.0  -0.5357
  O  O473  1  0.299570  0.111150  0.148890  1.0  -0.5494
  O  O474  1  0.253100  0.055640  0.193200  1.0  -0.5352
  O  O475  1  0.299570  0.611150  0.648890  1.0  -0.5494
  O  O476  1  0.253100  0.555640  0.693200  1.0  -0.5352
  O  O477  1  0.799570  0.111150  0.648890  1.0  -0.5494
  O  O478  1  0.753100  0.055640  0.693200  1.0  -0.5352
  O  O479  1  0.799570  0.611150  0.148890  1.0  -0.5494
  O  O480  1  0.753100  0.555640  0.193200  1.0  -0.5352
  O  O481  1  0.299570  0.888850  0.851110  1.0  -0.5468
  O  O482  1  0.253100  0.944360  0.806800  1.0  -0.5345
  O  O483  1  0.299570  0.388850  0.351110  1.0  -0.5468
  O  O484  1  0.253100  0.444360  0.306800  1.0  -0.5345
  O  O485  1  0.799570  0.888850  0.351110  1.0  -0.5468
  O  O486  1  0.753100  0.944360  0.306800  1.0  -0.5345
  O  O487  1  0.799570  0.388850  0.851110  1.0  -0.5468
  O  O488  1  0.753100  0.444360  0.806800  1.0  -0.5345
  O  O489  1  0.700430  0.888850  0.148890  1.0  -0.5466
  O  O490  1  0.746900  0.944360  0.193200  1.0  -0.5378
  O  O491  1  0.700430  0.388850  0.648890  1.0  -0.5466
  O  O492  1  0.746900  0.444360  0.693200  1.0  -0.5378
  O  O493  1  0.200430  0.888850  0.648890  1.0  -0.5466
  O  O494  1  0.246900  0.944360  0.693200  1.0  -0.5378
  O  O495  1  0.200430  0.388850  0.148890  1.0  -0.5466
  O  O496  1  0.246900  0.444360  0.193200  1.0  -0.5378
  O  O497  1  0.700430  0.111150  0.851110  1.0  -0.544
  O  O498  1  0.746900  0.055640  0.806800  1.0  -0.5368
  O  O499  1  0.700430  0.611150  0.351110  1.0  -0.544
  O  O500  1  0.746900  0.555640  0.306800  1.0  -0.5368
  O  O501  1  0.200430  0.111150  0.351110  1.0  -0.544
  O  O502  1  0.246900  0.055640  0.306800  1.0  -0.5368
  O  O503  1  0.200430  0.611150  0.851110  1.0  -0.544
  O  O504  1  0.246900  0.555640  0.806800  1.0  -0.5368
  O  O505  1  0.148890  0.299570  0.111150  1.0  -0.5473
  O  O506  1  0.193200  0.253100  0.055640  1.0  -0.5354
  O  O507  1  0.148890  0.799570  0.611150  1.0  -0.5473
  O  O508  1  0.193200  0.753100  0.555640  1.0  -0.5354
  O  O509  1  0.648890  0.299570  0.611150  1.0  -0.5473
  O  O510  1  0.693200  0.253100  0.555640  1.0  -0.5354
  O  O511  1  0.648890  0.799570  0.111150  1.0  -0.5473
  O  O512  1  0.693200  0.753100  0.055640  1.0  -0.5354
  O  O513  1  0.851110  0.299570  0.888850  1.0  -0.5478
  O  O514  1  0.806800  0.253100  0.944360  1.0  -0.5353
  O  O515  1  0.851110  0.799570  0.388850  1.0  -0.5478
  O  O516  1  0.806800  0.753100  0.444360  1.0  -0.5353
  O  O517  1  0.351110  0.299570  0.388850  1.0  -0.5478
  O  O518  1  0.306800  0.253100  0.444360  1.0  -0.5353
  O  O519  1  0.351110  0.799570  0.888850  1.0  -0.5478
  O  O520  1  0.306800  0.753100  0.944360  1.0  -0.5353
  O  O521  1  0.148890  0.700430  0.888850  1.0  -0.548
  O  O522  1  0.193200  0.746900  0.944360  1.0  -0.5342
  O  O523  1  0.148890  0.200430  0.388850  1.0  -0.548
  O  O524  1  0.193200  0.246900  0.444360  1.0  -0.5342
  O  O525  1  0.648890  0.700430  0.388850  1.0  -0.548
  O  O526  1  0.693200  0.746900  0.444360  1.0  -0.5342
  O  O527  1  0.648890  0.200430  0.888850  1.0  -0.548
  O  O528  1  0.693200  0.246900  0.944360  1.0  -0.5342
  O  O529  1  0.851110  0.700430  0.111150  1.0  -0.547
  O  O530  1  0.806800  0.746900  0.055640  1.0  -0.5337
  O  O531  1  0.851110  0.200430  0.611150  1.0  -0.547
  O  O532  1  0.806800  0.246900  0.555640  1.0  -0.5337
  O  O533  1  0.351110  0.700430  0.611150  1.0  -0.547
  O  O534  1  0.306800  0.746900  0.555640  1.0  -0.5337
  O  O535  1  0.351110  0.200430  0.111150  1.0  -0.547
  O  O536  1  0.306800  0.246900  0.055640  1.0  -0.5337
  O  O537  1  0.888850  0.851110  0.700430  1.0  -0.5465
  O  O538  1  0.944360  0.806800  0.746900  1.0  -0.5374
  O  O539  1  0.888850  0.351110  0.200430  1.0  -0.5465
  O  O540  1  0.944360  0.306800  0.246900  1.0  -0.5374
  O  O541  1  0.388850  0.851110  0.200430  1.0  -0.5465
  O  O542  1  0.444360  0.806800  0.246900  1.0  -0.5374
  O  O543  1  0.388850  0.351110  0.700430  1.0  -0.5465
  O  O544  1  0.444360  0.306800  0.746900  1.0  -0.5374
  O  O545  1  0.111150  0.148890  0.700430  1.0  -0.5458
  O  O546  1  0.055640  0.193200  0.746900  1.0  -0.5356
  O  O547  1  0.111150  0.648890  0.200430  1.0  -0.5458
  O  O548  1  0.055640  0.693200  0.246900  1.0  -0.5356
  O  O549  1  0.611150  0.148890  0.200430  1.0  -0.5458
  O  O550  1  0.555640  0.193200  0.246900  1.0  -0.5356
  O  O551  1  0.611150  0.648890  0.700430  1.0  -0.5458
  O  O552  1  0.555640  0.693200  0.746900  1.0  -0.5356
  O  O553  1  0.111150  0.851110  0.299570  1.0  -0.5454
  O  O554  1  0.055640  0.806800  0.253100  1.0  -0.5399
  O  O555  1  0.111150  0.351110  0.799570  1.0  -0.5454
  O  O556  1  0.055640  0.306800  0.753100  1.0  -0.5399
  O  O557  1  0.611150  0.851110  0.799570  1.0  -0.5454
  O  O558  1  0.555640  0.806800  0.753100  1.0  -0.5399
  O  O559  1  0.611150  0.351110  0.299570  1.0  -0.5454
  O  O560  1  0.555640  0.306800  0.253100  1.0  -0.5399
  O  O561  1  0.888850  0.148890  0.299570  1.0  -0.546
  O  O562  1  0.944360  0.193200  0.253100  1.0  -0.5389
  O  O563  1  0.888850  0.648890  0.799570  1.0  -0.546
  O  O564  1  0.944360  0.693200  0.753100  1.0  -0.5389
  O  O565  1  0.388850  0.148890  0.799570  1.0  -0.546
  O  O566  1  0.444360  0.193200  0.753100  1.0  -0.5389
  O  O567  1  0.388850  0.648890  0.299570  1.0  -0.546
  O  O568  1  0.444360  0.693200  0.253100  1.0  -0.5389
  O  O569  1  0.700430  0.888850  0.851110  1.0  -0.547
  O  O570  1  0.746900  0.944360  0.806800  1.0  -0.5376
  O  O571  1  0.700430  0.388850  0.351110  1.0  -0.547
  O  O572  1  0.746900  0.444360  0.306800  1.0  -0.5376
  O  O573  1  0.200430  0.888850  0.351110  1.0  -0.547
  O  O574  1  0.246900  0.944360  0.306800  1.0  -0.5376
  O  O575  1  0.200430  0.388850  0.851110  1.0  -0.547
  O  O576  1  0.246900  0.444360  0.806800  1.0  -0.5376
  O  O577  1  0.700430  0.111150  0.148890  1.0  -0.5437
  O  O578  1  0.746900  0.055640  0.193200  1.0  -0.537
  O  O579  1  0.700430  0.611150  0.648890  1.0  -0.5437
  O  O580  1  0.746900  0.555640  0.693200  1.0  -0.537
  O  O581  1  0.200430  0.111150  0.648890  1.0  -0.5437
  O  O582  1  0.246900  0.055640  0.693200  1.0  -0.537
  O  O583  1  0.200430  0.611150  0.148890  1.0  -0.5437
  O  O584  1  0.246900  0.555640  0.193200  1.0  -0.537
  O  O585  1  0.299570  0.111150  0.851110  1.0  -0.5492
  O  O586  1  0.253100  0.055640  0.806800  1.0  -0.535
  O  O587  1  0.299570  0.611150  0.351110  1.0  -0.5492
  O  O588  1  0.253100  0.555640  0.306800  1.0  -0.535
  O  O589  1  0.799570  0.111150  0.351110  1.0  -0.5492
  O  O590  1  0.753100  0.055640  0.306800  1.0  -0.535
  O  O591  1  0.799570  0.611150  0.851110  1.0  -0.5492
  O  O592  1  0.753100  0.555640  0.806800  1.0  -0.535
  O  O593  1  0.299570  0.888850  0.148890  1.0  -0.5473
  O  O594  1  0.253100  0.944360  0.193200  1.0  -0.5348
  O  O595  1  0.299570  0.388850  0.648890  1.0  -0.5473
  O  O596  1  0.253100  0.444360  0.693200  1.0  -0.5348
  O  O597  1  0.799570  0.888850  0.648890  1.0  -0.5473
  O  O598  1  0.753100  0.944360  0.693200  1.0  -0.5348
  O  O599  1  0.799570  0.388850  0.148890  1.0  -0.5473
  O  O600  1  0.753100  0.444360  0.193200  1.0  -0.5348
  O  O601  1  0.851110  0.700430  0.888850  1.0  -0.5491
  O  O602  1  0.806800  0.746900  0.944360  1.0  -0.5338
  O  O603  1  0.851110  0.200430  0.388850  1.0  -0.5491
  O  O604  1  0.806800  0.246900  0.444360  1.0  -0.5338
  O  O605  1  0.351110  0.700430  0.388850  1.0  -0.5491
  O  O606  1  0.306800  0.746900  0.444360  1.0  -0.5338
  O  O607  1  0.351110  0.200430  0.888850  1.0  -0.5491
  O  O608  1  0.306800  0.246900  0.944360  1.0  -0.5338
  O  O609  1  0.148890  0.700430  0.111150  1.0  -0.546
  O  O610  1  0.193200  0.746900  0.055640  1.0  -0.5337
  O  O611  1  0.148890  0.200430  0.611150  1.0  -0.546
  O  O612  1  0.193200  0.246900  0.555640  1.0  -0.5337
  O  O613  1  0.648890  0.700430  0.611150  1.0  -0.546
  O  O614  1  0.693200  0.746900  0.555640  1.0  -0.5337
  O  O615  1  0.648890  0.200430  0.111150  1.0  -0.546
  O  O616  1  0.693200  0.246900  0.055640  1.0  -0.5337
  O  O617  1  0.851110  0.299570  0.111150  1.0  -0.5479
  O  O618  1  0.806800  0.253100  0.055640  1.0  -0.5355
  O  O619  1  0.851110  0.799570  0.611150  1.0  -0.5479
  O  O620  1  0.806800  0.753100  0.555640  1.0  -0.5355
  O  O621  1  0.351110  0.299570  0.611150  1.0  -0.5479
  O  O622  1  0.306800  0.253100  0.555640  1.0  -0.5355
  O  O623  1  0.351110  0.799570  0.111150  1.0  -0.5479
  O  O624  1  0.306800  0.753100  0.055640  1.0  -0.5355
  O  O625  1  0.148890  0.299570  0.888850  1.0  -0.5468
  O  O626  1  0.193200  0.253100  0.944360  1.0  -0.5352
  O  O627  1  0.148890  0.799570  0.388850  1.0  -0.5468
  O  O628  1  0.193200  0.753100  0.444360  1.0  -0.5352
  O  O629  1  0.648890  0.299570  0.388850  1.0  -0.5468
  O  O630  1  0.693200  0.253100  0.444360  1.0  -0.5352
  O  O631  1  0.648890  0.799570  0.888850  1.0  -0.5468
  O  O632  1  0.693200  0.753100  0.944360  1.0  -0.5352
