# generated using pymatgen
data_Eu4Cu5C74(N5O13)2
_symmetry_space_group_name_H-M   'P 1'
_cell_length_a   26.53100000
_cell_length_b   13.61700000
_cell_length_c   16.40670000
_cell_angle_alpha   90.00000000
_cell_angle_beta   98.04000000
_cell_angle_gamma   90.00000000
_symmetry_Int_Tables_number   1
_chemical_formula_structural   Eu4Cu5C74(N5O13)2
_chemical_formula_sum   'Eu8 Cu10 C148 N20 O52'
_cell_volume   5869.03028208
_cell_formula_units_Z   2
loop_
 _symmetry_equiv_pos_site_id
 _symmetry_equiv_pos_as_xyz
  1  'x, y, z'
loop_
 _atom_site_type_symbol
 _atom_site_label
 _atom_site_symmetry_multiplicity
 _atom_site_fract_x
 _atom_site_fract_y
 _atom_site_fract_z
 _atom_site_occupancy
 _atom_site_charge
  Eu  Eu1  1  0.752420  0.848800  0.189570  1.0  2.1441
  Eu  Eu2  1  0.749430  0.808000  0.473010  1.0  2.1095
  Eu  Eu3  1  0.247580  0.348800  0.310430  1.0  2.1437
  Eu  Eu4  1  0.250570  0.308000  0.026990  1.0  2.1093
  Eu  Eu5  1  0.247580  0.151200  0.810430  1.0  2.1434
  Eu  Eu6  1  0.250570  0.192000  0.526990  1.0  2.1096
  Eu  Eu7  1  0.752420  0.651200  0.689570  1.0  2.1438
  Eu  Eu8  1  0.749430  0.692000  0.973010  1.0  2.1099
  Cu  Cu9  1  0.985800  0.423000  0.672400  1.0  0.4215
  Cu  Cu10  1  0.472300  0.563400  0.379500  1.0  0.7145
  Cu  Cu11  1  0.014200  0.923000  0.827600  1.0  0.4214
  Cu  Cu12  1  0.527700  0.063400  0.120500  1.0  0.715
  Cu  Cu13  1  0.014200  0.577000  0.327600  1.0  0.4192
  Cu  Cu14  1  0.527700  0.436600  0.620500  1.0  0.7199
  Cu  Cu15  1  0.985800  0.077000  0.172400  1.0  0.4199
  Cu  Cu16  1  0.472300  0.936600  0.879500  1.0  0.7219
  Cu  Cu17  1  0.500000  0.000000  0.500000  1.0  0.7511
  Cu  Cu18  1  0.500000  0.500000  0.000000  1.0  0.7511
  C  C19  1  0.334900  0.095000  0.690000  1.0  0.6914
  C  C20  1  0.389500  0.066000  0.680100  1.0  -0.0794
  C  C21  1  0.405800  0.045000  0.605000  1.0  0.0162
  C  C22  1  0.491000  0.019000  0.673800  1.0  0.2085
  C  C23  1  0.474700  0.040000  0.749000  1.0  -0.0243
  C  C24  1  0.424000  0.063000  0.752200  1.0  0.0771
  C  C25  1  0.676600  0.851000  0.632000  1.0  0.7283
  C  C26  1  0.535100  0.968000  0.667200  1.0  0.1789
  C  C27  1  0.567600  0.934000  0.735200  1.0  -0.0082
  C  C28  1  0.614500  0.894000  0.725100  1.0  -0.0338
  C  C29  1  0.628900  0.888000  0.647000  1.0  0.1393
  C  C30  1  0.596500  0.922000  0.579000  1.0  0.0358
  C  C31  1  0.834300  0.897000  0.363000  1.0  0.6642
  C  C32  1  0.885900  0.935000  0.350200  1.0  -0.1399
  C  C33  1  0.893300  0.999000  0.287200  1.0  -0.0041
  C  C34  1  0.983200  0.002000  0.336200  1.0  0.1143
  C  C35  1  0.975800  0.938000  0.399200  1.0  -0.0019
  C  C36  1  0.927100  0.904000  0.406200  1.0  0.0082
  C  C37  1  0.167700  0.206000  0.329000  1.0  0.6494
  C  C38  1  0.031700  0.045000  0.333333  1.0  0.0938
  C  C39  1  0.084100  0.154000  0.266100  1.0  0.0573
  C  C40  1  0.122500  0.147000  0.332700  1.0  -0.0832
  C  C41  1  0.115500  0.088000  0.399600  1.0  -0.0211
  C  C42  1  0.070100  0.037000  0.399900  1.0  -0.0488
  C  C43  1  0.826700  0.616000  0.539000  1.0  0.6694
  C  C44  1  0.876500  0.578000  0.521800  1.0  -0.0399
  C  C45  1  0.902500  0.514000  0.578500  1.0  0.0273
  C  C46  1  0.951500  0.484000  0.569700  1.0  0.0113
  C  C47  1  0.974500  0.518000  0.504100  1.0  -0.0588
  C  C48  1  0.948600  0.583000  0.447400  1.0  0.0745
  C  C49  1  0.899600  0.613000  0.456300  1.0  -0.0025
  C  C50  1  0.667700  0.661000  0.493000  1.0  0.5949
  C  C51  1  0.618100  0.608000  0.500700  1.0  -0.0405
  C  C52  1  0.611700  0.538000  0.559900  1.0  0.0359
  C  C53  1  0.564700  0.493000  0.559500  1.0  0.0701
  C  C54  1  0.524200  0.517000  0.500000  1.0  0.147
  C  C55  1  0.530500  0.588000  0.440900  1.0  -0.0113
  C  C56  1  0.577500  0.633000  0.441300  1.0  0.015
  C  C57  1  0.665100  0.595000  0.810000  1.0  0.6931
  C  C58  1  0.610500  0.566000  0.819900  1.0  -0.0793
  C  C59  1  0.594200  0.545000  0.895000  1.0  0.0156
  C  C60  1  0.509000  0.519000  0.826200  1.0  0.2083
  C  C61  1  0.525300  0.540000  0.751000  1.0  -0.023
  C  C62  1  0.576000  0.563000  0.747800  1.0  0.0769
  C  C63  1  0.323400  0.351000  0.868000  1.0  0.7266
  C  C64  1  0.464900  0.468000  0.832800  1.0  0.1785
  C  C65  1  0.432400  0.434000  0.764800  1.0  -0.0042
  C  C66  1  0.385500  0.394000  0.774900  1.0  -0.0357
  C  C67  1  0.371100  0.388000  0.853000  1.0  0.1397
  C  C68  1  0.403500  0.422000  0.921000  1.0  0.0351
  C  C69  1  0.165700  0.397000  0.137000  1.0  0.6649
  C  C70  1  0.114100  0.435000  0.149800  1.0  -0.1397
  C  C71  1  0.106700  0.499000  0.212800  1.0  -0.0071
  C  C72  1  0.016800  0.502000  0.163800  1.0  0.1151
  C  C73  1  0.024200  0.438000  0.100800  1.0  -0.0014
  C  C74  1  0.072900  0.404000  0.093800  1.0  0.0088
  C  C75  1  0.832300  0.706000  0.171000  1.0  0.6495
  C  C76  1  0.968300  0.545000  0.166700  1.0  0.0934
  C  C77  1  0.915900  0.654000  0.233900  1.0  0.0564
  C  C78  1  0.877500  0.647000  0.167300  1.0  -0.0842
  C  C79  1  0.884500  0.588000  0.100400  1.0  -0.0232
  C  C80  1  0.929900  0.537000  0.100100  1.0  -0.0483
  C  C81  1  0.173300  0.116000  0.961000  1.0  0.6701
  C  C82  1  0.123500  0.078000  0.978200  1.0  -0.0401
  C  C83  1  0.097500  0.014000  0.921500  1.0  0.0246
  C  C84  1  0.048500  0.984000  0.930300  1.0  0.0119
  C  C85  1  0.025500  0.018000  0.995900  1.0  -0.0588
  C  C86  1  0.051400  0.083000  0.052600  1.0  0.0725
  C  C87  1  0.100400  0.113000  0.043700  1.0  -0.0063
  C  C88  1  0.332300  0.161000  0.007000  1.0  0.5948
  C  C89  1  0.381900  0.108000  0.999300  1.0  -0.0405
  C  C90  1  0.388300  0.038000  0.940100  1.0  0.036
  C  C91  1  0.435300  0.993000  0.940500  1.0  0.0689
  C  C92  1  0.475800  0.017000  0.000000  1.0  0.147
  C  C93  1  0.469500  0.088000  0.059100  1.0  -0.0112
  C  C94  1  0.422500  0.133000  0.058700  1.0  0.0156
  C  C95  1  0.665100  0.905000  0.310000  1.0  0.6932
  C  C96  1  0.610500  0.934000  0.319900  1.0  -0.0796
  C  C97  1  0.594200  0.955000  0.395000  1.0  0.0158
  C  C98  1  0.509000  0.981000  0.326200  1.0  0.2084
  C  C99  1  0.525300  0.960000  0.251000  1.0  -0.0235
  C  C100  1  0.576000  0.937000  0.247800  1.0  0.0761
  C  C101  1  0.323400  0.149000  0.368000  1.0  0.7267
  C  C102  1  0.464900  0.032000  0.332800  1.0  0.1784
  C  C103  1  0.432400  0.066000  0.264800  1.0  -0.0049
  C  C104  1  0.385500  0.106000  0.274900  1.0  -0.0355
  C  C105  1  0.371100  0.112000  0.353000  1.0  0.1391
  C  C106  1  0.403500  0.078000  0.421000  1.0  0.0344
  C  C107  1  0.165700  0.103000  0.637000  1.0  0.6652
  C  C108  1  0.114100  0.065000  0.649800  1.0  -0.1395
  C  C109  1  0.106700  0.001000  0.712800  1.0  -0.0075
  C  C110  1  0.016800  0.998000  0.663800  1.0  0.1147
  C  C111  1  0.024200  0.062000  0.600800  1.0  -0.0009
  C  C112  1  0.072900  0.096000  0.593800  1.0  0.0093
  C  C113  1  0.832300  0.794000  0.671000  1.0  0.6464
  C  C114  1  0.968300  0.955000  0.666667  1.0  0.0931
  C  C115  1  0.915900  0.846000  0.733900  1.0  0.0571
  C  C116  1  0.877500  0.853000  0.667300  1.0  -0.0837
  C  C117  1  0.884500  0.912000  0.600400  1.0  -0.0246
  C  C118  1  0.929900  0.963000  0.600100  1.0  -0.0489
  C  C119  1  0.173300  0.384000  0.461000  1.0  0.671
  C  C120  1  0.123500  0.422000  0.478200  1.0  -0.0403
  C  C121  1  0.097500  0.486000  0.421500  1.0  0.0249
  C  C122  1  0.048500  0.516000  0.430300  1.0  0.0095
  C  C123  1  0.025500  0.482000  0.495900  1.0  0.0739
  C  C124  1  0.100400  0.387000  0.543700  1.0  0.0268
  C  C125  1  0.332300  0.339000  0.507000  1.0  0.595
  C  C126  1  0.381900  0.392000  0.499300  1.0  -0.0413
  C  C127  1  0.388300  0.462000  0.440100  1.0  0.0369
  C  C128  1  0.435300  0.507000  0.440500  1.0  0.0676
  C  C129  1  0.475800  0.483000  0.500000  1.0  0.1889
  C  C130  1  0.422500  0.367000  0.558700  1.0  0.0346
  C  C131  1  0.334900  0.405000  0.190000  1.0  0.6911
  C  C132  1  0.389500  0.434000  0.180100  1.0  -0.0794
  C  C133  1  0.405800  0.455000  0.105000  1.0  0.0166
  C  C134  1  0.491000  0.481000  0.173800  1.0  0.2086
  C  C135  1  0.474700  0.460000  0.249000  1.0  -0.0246
  C  C136  1  0.424000  0.437000  0.252200  1.0  0.0771
  C  C137  1  0.676600  0.649000  0.132000  1.0  0.7281
  C  C138  1  0.535100  0.532000  0.167200  1.0  0.1785
  C  C139  1  0.567600  0.566000  0.235200  1.0  -0.0088
  C  C140  1  0.614500  0.606000  0.225100  1.0  -0.0343
  C  C141  1  0.628900  0.612000  0.147000  1.0  0.1385
  C  C142  1  0.596500  0.578000  0.079000  1.0  0.0355
  C  C143  1  0.834300  0.603000  0.863000  1.0  0.6648
  C  C144  1  0.885900  0.565000  0.850200  1.0  -0.1396
  C  C145  1  0.893300  0.501000  0.787200  1.0  -0.0062
  C  C146  1  0.983200  0.498000  0.836200  1.0  0.1143
  C  C147  1  0.975800  0.562000  0.899200  1.0  -0.003
  C  C148  1  0.927100  0.596000  0.906200  1.0  0.0078
  C  C149  1  0.167700  0.294000  0.829000  1.0  0.6469
  C  C150  1  0.031700  0.455000  0.833300  1.0  0.0932
  C  C151  1  0.084100  0.346000  0.766100  1.0  0.0583
  C  C152  1  0.122500  0.353000  0.832700  1.0  -0.0826
  C  C153  1  0.115500  0.412000  0.899600  1.0  -0.021
  C  C154  1  0.070100  0.463000  0.899900  1.0  -0.0477
  C  C155  1  0.826700  0.884000  0.039000  1.0  0.6698
  C  C156  1  0.876500  0.922000  0.021800  1.0  -0.0401
  C  C157  1  0.902500  0.986000  0.078500  1.0  0.0276
  C  C158  1  0.951500  0.016000  0.069700  1.0  0.0094
  C  C159  1  0.974500  0.982000  0.004100  1.0  0.0739
  C  C160  1  0.899600  0.887000  0.956300  1.0  0.0285
  C  C161  1  0.667700  0.839000  0.993000  1.0  0.5953
  C  C162  1  0.618100  0.892000  0.000700  1.0  -0.0412
  C  C163  1  0.611700  0.962000  0.059900  1.0  0.0362
  C  C164  1  0.564700  0.007000  0.059500  1.0  0.0684
  C  C165  1  0.524200  0.983000  0.000000  1.0  0.1889
  C  C166  1  0.577500  0.867000  0.941300  1.0  0.0333
  N  N167  1  0.456500  0.022000  0.601800  1.0  -0.2793
  N  N168  1  0.549600  0.962000  0.589100  1.0  -0.2559
  N  N169  1  0.941900  0.033000  0.280100  1.0  -0.2529
  N  N170  1  0.038700  0.104000  0.266400  1.0  -0.2688
  N  N171  1  0.051400  0.417000  0.552600  1.0  -0.3584
  N  N172  1  0.469500  0.412000  0.559100  1.0  -0.3453
  N  N173  1  0.543500  0.522000  0.898200  1.0  -0.2778
  N  N174  1  0.450400  0.462000  0.910900  1.0  -0.252
  N  N175  1  0.058100  0.533000  0.219900  1.0  -0.2525
  N  N176  1  0.961300  0.604000  0.233600  1.0  -0.2633
  N  N177  1  0.948600  0.917000  0.947400  1.0  -0.3598
  N  N178  1  0.530500  0.912000  0.940900  1.0  -0.3444
  N  N179  1  0.543500  0.978000  0.398200  1.0  -0.2782
  N  N180  1  0.450400  0.038000  0.410900  1.0  -0.2516
  N  N181  1  0.058100  0.967000  0.719900  1.0  -0.2526
  N  N182  1  0.961300  0.896000  0.733600  1.0  -0.2665
  N  N183  1  0.456500  0.478000  0.101800  1.0  -0.2791
  N  N184  1  0.549600  0.538000  0.089100  1.0  -0.2563
  N  N185  1  0.941900  0.467000  0.780100  1.0  -0.2521
  N  N186  1  0.038700  0.396000  0.766400  1.0  -0.2684
  O  O187  1  0.750700  0.739000  0.333000  1.0  -0.719
  O  O188  1  0.825300  0.857000  0.424500  1.0  -0.6275
  O  O189  1  0.173200  0.244000  0.268600  1.0  -0.6084
  O  O190  1  0.802000  0.661000  0.481600  1.0  -0.6826
  O  O191  1  0.798700  0.920000  0.302400  1.0  -0.6803
  O  O192  1  0.813300  0.588000  0.608700  1.0  -0.7144
  O  O193  1  0.320600  0.107000  0.757500  1.0  -0.6463
  O  O194  1  0.702100  0.801000  0.688600  1.0  -0.7158
  O  O195  1  0.704000  0.657000  0.557700  1.0  -0.8326
  O  O196  1  0.675000  0.704000  0.433800  1.0  -0.5773
  O  O197  1  0.203600  0.202000  0.392300  1.0  -0.844
  O  O198  1  0.688900  0.860000  0.560800  1.0  -0.7549
  O  O199  1  0.305400  0.101000  0.620300  1.0  -0.7386
  O  O200  1  0.249300  0.239000  0.167000  1.0  -0.7193
  O  O201  1  0.174700  0.357000  0.075500  1.0  -0.6278
  O  O202  1  0.826800  0.744000  0.231400  1.0  -0.6059
  O  O203  1  0.198000  0.161000  0.018400  1.0  -0.6835
  O  O204  1  0.201300  0.420000  0.197600  1.0  -0.6787
  O  O205  1  0.186700  0.088000  0.891300  1.0  -0.7145
  O  O206  1  0.679400  0.607000  0.742500  1.0  -0.6491
  O  O207  1  0.297900  0.301000  0.811400  1.0  -0.7146
  O  O208  1  0.296000  0.157000  0.942300  1.0  -0.8348
  O  O209  1  0.325000  0.204000  0.066200  1.0  -0.5801
  O  O210  1  0.796400  0.702000  0.107700  1.0  -0.845
  O  O211  1  0.311100  0.360000  0.939200  1.0  -0.7535
  O  O212  1  0.694600  0.601000  0.879700  1.0  -0.7383
  O  O213  1  0.249300  0.261000  0.667000  1.0  -0.7193
  O  O214  1  0.174700  0.143000  0.575500  1.0  -0.6281
  O  O215  1  0.826800  0.756000  0.731400  1.0  -0.6069
  O  O216  1  0.198000  0.339000  0.518400  1.0  -0.6857
  O  O217  1  0.201300  0.080000  0.697600  1.0  -0.6782
  O  O218  1  0.186700  0.412000  0.391300  1.0  -0.7159
  O  O219  1  0.679400  0.893000  0.242500  1.0  -0.6492
  O  O220  1  0.297900  0.199000  0.311400  1.0  -0.7148
  O  O221  1  0.296000  0.343000  0.442300  1.0  -0.8351
  O  O222  1  0.325000  0.296000  0.566200  1.0  -0.5805
  O  O223  1  0.796400  0.798000  0.607700  1.0  -0.8452
  O  O224  1  0.311100  0.140000  0.439200  1.0  -0.7526
  O  O225  1  0.694600  0.899000  0.379700  1.0  -0.7401
  O  O226  1  0.750700  0.761000  0.833000  1.0  -0.7191
  O  O227  1  0.825300  0.643000  0.924500  1.0  -0.6268
  O  O228  1  0.173200  0.256000  0.768600  1.0  -0.6086
  O  O229  1  0.802000  0.839000  0.981600  1.0  -0.684
  O  O230  1  0.798700  0.580000  0.802400  1.0  -0.681
  O  O231  1  0.813300  0.912000  0.108700  1.0  -0.7148
  O  O232  1  0.320600  0.393000  0.257500  1.0  -0.6465
  O  O233  1  0.702100  0.699000  0.188600  1.0  -0.7144
  O  O234  1  0.704000  0.843000  0.057700  1.0  -0.8338
  O  O235  1  0.675000  0.796000  0.933800  1.0  -0.5769
  O  O236  1  0.203600  0.298000  0.892300  1.0  -0.8446
  O  O237  1  0.688900  0.640000  0.060800  1.0  -0.7543
  O  O238  1  0.305400  0.399000  0.120300  1.0  -0.7391
