# generated using pymatgen
data_CuH3(C5O2)2
_symmetry_space_group_name_H-M   'P 1'
_cell_length_a   17.53110000
_cell_length_b   17.53110000
_cell_length_c   17.53110000
_cell_angle_alpha   62.68840000
_cell_angle_beta   62.68840000
_cell_angle_gamma   62.68840000
_symmetry_Int_Tables_number   1
_chemical_formula_structural   CuH3(C5O2)2
_chemical_formula_sum   'Cu6 H18 C60 O24'
_cell_volume   4037.82352773
_cell_formula_units_Z   6
loop_
 _symmetry_equiv_pos_site_id
 _symmetry_equiv_pos_as_xyz
  1  'x, y, z'
loop_
 _atom_site_type_symbol
 _atom_site_label
 _atom_site_symmetry_multiplicity
 _atom_site_fract_x
 _atom_site_fract_y
 _atom_site_fract_z
 _atom_site_occupancy
 _atom_site_charge
  Cu  Cu1  1  0.922720  0.500640  0.500640  1.0  0.9025
  Cu  Cu2  1  0.500640  0.922720  0.500640  1.0  0.8993
  Cu  Cu3  1  0.500640  0.500640  0.922720  1.0  0.899
  Cu  Cu4  1  0.499360  0.077280  0.499360  1.0  0.8995
  Cu  Cu5  1  0.077280  0.499360  0.499360  1.0  0.9033
  Cu  Cu6  1  0.499360  0.499360  0.077280  1.0  0.8998
  H  H7  1  0.000900  0.475000  0.779400  1.0  0.1173
  H  H8  1  0.779400  0.000900  0.475000  1.0  0.1166
  H  H9  1  0.475000  0.779400  0.000900  1.0  0.1153
  H  H10  1  0.525000  0.999100  0.220600  1.0  0.1171
  H  H11  1  0.999100  0.220600  0.525000  1.0  0.1165
  H  H12  1  0.220600  0.525000  0.999100  1.0  0.1169
  H  H13  1  0.999100  0.525000  0.220600  1.0  0.1162
  H  H14  1  0.220600  0.999100  0.525000  1.0  0.1169
  H  H15  1  0.525000  0.220600  0.999100  1.0  0.1163
  H  H16  1  0.475000  0.000900  0.779400  1.0  0.1181
  H  H17  1  0.000900  0.779400  0.475000  1.0  0.1169
  H  H18  1  0.779400  0.475000  0.000900  1.0  0.1155
  H  H19  1  0.775900  0.471300  0.775900  1.0  0.1104
  H  H20  1  0.775900  0.775900  0.471300  1.0  0.1101
  H  H21  1  0.471300  0.775900  0.775900  1.0  0.1104
  H  H22  1  0.528700  0.224100  0.224100  1.0  0.1106
  H  H23  1  0.224100  0.224100  0.528700  1.0  0.1102
  H  H24  1  0.224100  0.528700  0.224100  1.0  0.1105
  C  C25  1  0.939090  0.476990  0.666090  1.0  0.6776
  C  C26  1  0.895060  0.472460  0.764060  1.0  -0.1415
  C  C27  1  0.940070  0.474470  0.809470  1.0  -0.0417
  C  C28  1  0.666090  0.939090  0.476990  1.0  0.6757
  C  C29  1  0.764060  0.895060  0.472460  1.0  -0.1414
  C  C30  1  0.809470  0.940070  0.474470  1.0  -0.0461
  C  C31  1  0.476990  0.666090  0.939090  1.0  0.6767
  C  C32  1  0.472460  0.764060  0.895060  1.0  -0.1417
  C  C33  1  0.474470  0.809470  0.940070  1.0  -0.043
  C  C34  1  0.523010  0.060910  0.333910  1.0  0.6771
  C  C35  1  0.527540  0.104940  0.235940  1.0  -0.1412
  C  C36  1  0.525530  0.059930  0.190530  1.0  -0.045
  C  C37  1  0.060910  0.333910  0.523010  1.0  0.6766
  C  C38  1  0.104940  0.235940  0.527540  1.0  -0.1415
  C  C39  1  0.059930  0.190530  0.525530  1.0  -0.0438
  C  C40  1  0.333910  0.523010  0.060910  1.0  0.6762
  C  C41  1  0.235940  0.527540  0.104940  1.0  -0.1406
  C  C42  1  0.190530  0.525530  0.059930  1.0  -0.045
  C  C43  1  0.060910  0.523010  0.333910  1.0  0.6774
  C  C44  1  0.104940  0.527540  0.235940  1.0  -0.141
  C  C45  1  0.059930  0.525530  0.190530  1.0  -0.0415
  C  C46  1  0.333910  0.060910  0.523010  1.0  0.6761
  C  C47  1  0.235940  0.104940  0.527540  1.0  -0.1414
  C  C48  1  0.190530  0.059930  0.525530  1.0  -0.0461
  C  C49  1  0.523010  0.333910  0.060910  1.0  0.677
  C  C50  1  0.527540  0.235940  0.104940  1.0  -0.1404
  C  C51  1  0.525530  0.190530  0.059930  1.0  -0.045
  C  C52  1  0.476990  0.939090  0.666090  1.0  0.6774
  C  C53  1  0.472460  0.895060  0.764060  1.0  -0.1419
  C  C54  1  0.474470  0.940070  0.809470  1.0  -0.0441
  C  C55  1  0.939090  0.666090  0.476990  1.0  0.6766
  C  C56  1  0.895060  0.764060  0.472460  1.0  -0.1407
  C  C57  1  0.940070  0.809470  0.474470  1.0  -0.0432
  C  C58  1  0.666090  0.476990  0.939090  1.0  0.6755
  C  C59  1  0.764060  0.472460  0.895060  1.0  -0.1406
  C  C60  1  0.809470  0.474470  0.940070  1.0  -0.0437
  C  C61  1  0.807420  0.471920  0.807420  1.0  0.0125
  C  C62  1  0.898900  0.475800  0.898900  1.0  0.0888
  C  C63  1  0.943000  0.483300  0.943000  1.0  -0.0512
  C  C64  1  0.978900  0.496100  0.978900  1.0  -0.0249
  C  C65  1  0.807420  0.807420  0.471920  1.0  0.013
  C  C66  1  0.898900  0.898900  0.475800  1.0  0.0881
  C  C67  1  0.943000  0.943000  0.483300  1.0  -0.0512
  C  C68  1  0.978900  0.978900  0.496100  1.0  -0.0249
  C  C69  1  0.471920  0.807420  0.807420  1.0  0.0121
  C  C70  1  0.475800  0.898900  0.898900  1.0  0.0886
  C  C71  1  0.483300  0.943000  0.943000  1.0  -0.0524
  C  C72  1  0.496100  0.978900  0.978900  1.0  -0.0246
  C  C73  1  0.528080  0.192580  0.192580  1.0  0.0122
  C  C74  1  0.524200  0.101100  0.101100  1.0  0.0883
  C  C75  1  0.516700  0.057000  0.057000  1.0  -0.0522
  C  C76  1  0.503900  0.021100  0.021100  1.0  -0.0247
  C  C77  1  0.192580  0.192580  0.528080  1.0  0.0139
  C  C78  1  0.101100  0.101100  0.524200  1.0  0.087
  C  C79  1  0.057000  0.057000  0.516700  1.0  -0.0514
  C  C80  1  0.021100  0.021100  0.503900  1.0  -0.0251
  C  C81  1  0.192580  0.528080  0.192580  1.0  0.0117
  C  C82  1  0.101100  0.524200  0.101100  1.0  0.0895
  C  C83  1  0.057000  0.516700  0.057000  1.0  -0.0515
  C  C84  1  0.021100  0.503900  0.021100  1.0  -0.0244
  O  O85  1  0.018790  0.480540  0.629550  1.0  -0.5543
  O  O86  1  0.891880  0.478160  0.629150  1.0  -0.5716
  O  O87  1  0.629550  0.018790  0.480540  1.0  -0.5546
  O  O88  1  0.629150  0.891880  0.478160  1.0  -0.5719
  O  O89  1  0.480540  0.629550  0.018790  1.0  -0.5535
  O  O90  1  0.478160  0.629150  0.891880  1.0  -0.5717
  O  O91  1  0.519460  0.981210  0.370450  1.0  -0.5543
  O  O92  1  0.521840  0.108120  0.370850  1.0  -0.5718
  O  O93  1  0.981210  0.370450  0.519460  1.0  -0.5539
  O  O94  1  0.108120  0.370850  0.521840  1.0  -0.5724
  O  O95  1  0.370450  0.519460  0.981210  1.0  -0.554
  O  O96  1  0.370850  0.521840  0.108120  1.0  -0.5717
  O  O97  1  0.981210  0.519460  0.370450  1.0  -0.5539
  O  O98  1  0.108120  0.521840  0.370850  1.0  -0.5725
  O  O99  1  0.370450  0.981210  0.519460  1.0  -0.5549
  O  O100  1  0.370850  0.108120  0.521840  1.0  -0.5722
  O  O101  1  0.519460  0.370450  0.981210  1.0  -0.5529
  O  O102  1  0.521840  0.370850  0.108120  1.0  -0.5717
  O  O103  1  0.480540  0.018790  0.629550  1.0  -0.5539
  O  O104  1  0.478160  0.891880  0.629150  1.0  -0.5716
  O  O105  1  0.018790  0.629550  0.480540  1.0  -0.5541
  O  O106  1  0.891880  0.629150  0.478160  1.0  -0.5714
  O  O107  1  0.629550  0.480540  0.018790  1.0  -0.5537
  O  O108  1  0.629150  0.478160  0.891880  1.0  -0.5718
