# generated using pymatgen
data_CoH10C14NO4
_symmetry_space_group_name_H-M   'P 1'
_cell_length_a   21.56450000
_cell_length_b   21.56450000
_cell_length_c   9.43790000
_cell_angle_alpha   90.00000000
_cell_angle_beta   90.00000000
_cell_angle_gamma   120.00000000
_symmetry_Int_Tables_number   1
_chemical_formula_structural   CoH10C14NO4
_chemical_formula_sum   'Co6 H60 C84 N6 O24'
_cell_volume   3800.88551862
_cell_formula_units_Z   6
loop_
 _symmetry_equiv_pos_site_id
 _symmetry_equiv_pos_as_xyz
  1  'x, y, z'
loop_
 _atom_site_type_symbol
 _atom_site_label
 _atom_site_symmetry_multiplicity
 _atom_site_fract_x
 _atom_site_fract_y
 _atom_site_fract_z
 _atom_site_occupancy
 _atom_site_charge
  Co  Co1  1  0.000000  0.500000  0.358550  1.0  0.7903
  Co  Co2  1  0.500000  0.500000  0.358550  1.0  0.7903
  Co  Co3  1  0.500000  0.000000  0.358550  1.0  0.7903
  Co  Co4  1  0.500000  0.000000  0.641450  1.0  0.7896
  Co  Co5  1  0.500000  0.500000  0.641450  1.0  0.7896
  Co  Co6  1  0.000000  0.500000  0.641450  1.0  0.7896
  H  H7  1  0.915000  0.416700  0.101000  1.0  -0.0575
  H  H8  1  0.176400  0.459900  0.286400  1.0  0.0954
  H  H9  1  0.583300  0.498300  0.101000  1.0  -0.0511
  H  H10  1  0.540100  0.716500  0.286400  1.0  0.0938
  H  H11  1  0.501700  0.085000  0.101000  1.0  -0.0533
  H  H12  1  0.283500  0.823600  0.286400  1.0  0.0941
  H  H13  1  0.085000  0.583300  0.101000  1.0  -0.0535
  H  H14  1  0.823600  0.540100  0.286400  1.0  0.0947
  H  H15  1  0.416700  0.501700  0.101000  1.0  -0.0567
  H  H16  1  0.459900  0.283500  0.286400  1.0  0.0947
  H  H17  1  0.498300  0.915000  0.101000  1.0  -0.0574
  H  H18  1  0.716500  0.176400  0.286400  1.0  0.0949
  H  H19  1  0.416700  0.915000  0.899000  1.0  -0.0571
  H  H20  1  0.459900  0.176400  0.713600  1.0  0.0942
  H  H21  1  0.498300  0.583300  0.899000  1.0  -0.0518
  H  H22  1  0.716500  0.540100  0.713600  1.0  0.095
  H  H23  1  0.085000  0.501700  0.899000  1.0  -0.0507
  H  H24  1  0.823600  0.283500  0.713600  1.0  0.0946
  H  H25  1  0.583300  0.085000  0.899000  1.0  -0.0535
  H  H26  1  0.540100  0.823600  0.713600  1.0  0.0946
  H  H27  1  0.501700  0.416700  0.899000  1.0  -0.0564
  H  H28  1  0.283500  0.459900  0.713600  1.0  0.0953
  H  H29  1  0.915000  0.498300  0.899000  1.0  -0.0554
  H  H30  1  0.176400  0.716500  0.713600  1.0  0.0939
  H  H31  1  0.085000  0.583300  0.899000  1.0  -0.0535
  H  H32  1  0.823600  0.540100  0.713600  1.0  0.0949
  H  H33  1  0.416700  0.501700  0.899000  1.0  -0.0551
  H  H34  1  0.459900  0.283500  0.713600  1.0  0.0946
  H  H35  1  0.498300  0.915000  0.899000  1.0  -0.0559
  H  H36  1  0.716500  0.176400  0.713600  1.0  0.0942
  H  H37  1  0.915000  0.416700  0.899000  1.0  -0.056
  H  H38  1  0.176400  0.459900  0.713600  1.0  0.0953
  H  H39  1  0.583300  0.498300  0.899000  1.0  -0.0505
  H  H40  1  0.540100  0.716500  0.713600  1.0  0.094
  H  H41  1  0.501700  0.085000  0.899000  1.0  -0.0515
  H  H42  1  0.283500  0.823600  0.713600  1.0  0.0945
  H  H43  1  0.583300  0.085000  0.101000  1.0  -0.0536
  H  H44  1  0.540100  0.823600  0.286400  1.0  0.0951
  H  H45  1  0.501700  0.416700  0.101000  1.0  -0.0574
  H  H46  1  0.283500  0.459900  0.286400  1.0  0.0949
  H  H47  1  0.915000  0.498300  0.101000  1.0  -0.0569
  H  H48  1  0.176400  0.716500  0.286400  1.0  0.0937
  H  H49  1  0.416700  0.915000  0.101000  1.0  -0.0587
  H  H50  1  0.459900  0.176400  0.286400  1.0  0.0941
  H  H51  1  0.498300  0.583300  0.101000  1.0  -0.0535
  H  H52  1  0.716500  0.540100  0.286400  1.0  0.0955
  H  H53  1  0.085000  0.501700  0.101000  1.0  -0.0514
  H  H54  1  0.823600  0.283500  0.286400  1.0  0.0946
  H  H55  1  0.000000  0.418000  0.097000  1.0  0.0124
  H  H56  1  0.582000  0.582000  0.097000  1.0  0.015
  H  H57  1  0.418000  0.000000  0.097000  1.0  0.0118
  H  H58  1  0.000000  0.582000  0.097000  1.0  0.0147
  H  H59  1  0.418000  0.418000  0.097000  1.0  0.0115
  H  H60  1  0.582000  0.000000  0.097000  1.0  0.0187
  H  H61  1  0.418000  0.000000  0.903000  1.0  0.0166
  H  H62  1  0.582000  0.582000  0.903000  1.0  0.0194
  H  H63  1  0.000000  0.418000  0.903000  1.0  0.0177
  H  H64  1  0.582000  0.000000  0.903000  1.0  0.0229
  H  H65  1  0.418000  0.418000  0.903000  1.0  0.018
  H  H66  1  0.000000  0.582000  0.903000  1.0  0.0203
  C  C67  1  0.962900  0.426000  0.081200  1.0  0.1147
  C  C68  1  0.198360  0.460300  0.373900  1.0  -0.0635
  C  C69  1  0.574000  0.536900  0.081200  1.0  0.1185
  C  C70  1  0.539700  0.738060  0.373900  1.0  -0.0648
  C  C71  1  0.463100  0.037100  0.081200  1.0  0.1118
  C  C72  1  0.261940  0.801640  0.373900  1.0  -0.0639
  C  C73  1  0.037100  0.574000  0.081200  1.0  0.1203
  C  C74  1  0.801640  0.539700  0.373900  1.0  -0.0632
  C  C75  1  0.426000  0.463100  0.081200  1.0  0.1051
  C  C76  1  0.460300  0.261940  0.373900  1.0  -0.0638
  C  C77  1  0.536900  0.962900  0.081200  1.0  0.113
  C  C78  1  0.738060  0.198360  0.373900  1.0  -0.0642
  C  C79  1  0.426000  0.962900  0.918800  1.0  0.1061
  C  C80  1  0.460300  0.198360  0.626100  1.0  -0.0643
  C  C81  1  0.536900  0.574000  0.918800  1.0  0.1206
  C  C82  1  0.738060  0.539700  0.626100  1.0  -0.0641
  C  C83  1  0.037100  0.463100  0.918800  1.0  0.1161
  C  C84  1  0.801640  0.261940  0.626100  1.0  -0.0647
  C  C85  1  0.574000  0.037100  0.918800  1.0  0.1188
  C  C86  1  0.539700  0.801640  0.626100  1.0  -0.0646
  C  C87  1  0.463100  0.426000  0.918800  1.0  0.119
  C  C88  1  0.261940  0.460300  0.626100  1.0  -0.0637
  C  C89  1  0.962900  0.536900  0.918800  1.0  0.1133
  C  C90  1  0.198360  0.738060  0.626100  1.0  -0.065
  C  C91  1  0.037100  0.574000  0.918800  1.0  0.1208
  C  C92  1  0.801640  0.539700  0.626100  1.0  -0.0639
  C  C93  1  0.426000  0.463100  0.918800  1.0  0.1066
  C  C94  1  0.460300  0.261940  0.626100  1.0  -0.0648
  C  C95  1  0.536900  0.962900  0.918800  1.0  0.114
  C  C96  1  0.738060  0.198360  0.626100  1.0  -0.0645
  C  C97  1  0.962900  0.426000  0.918800  1.0  0.1183
  C  C98  1  0.198360  0.460300  0.626100  1.0  -0.0641
  C  C99  1  0.574000  0.536900  0.918800  1.0  0.1197
  C  C100  1  0.539700  0.738060  0.626100  1.0  -0.0646
  C  C101  1  0.463100  0.037100  0.918800  1.0  0.1135
  C  C102  1  0.261940  0.801640  0.626100  1.0  -0.0646
  C  C103  1  0.574000  0.037100  0.081200  1.0  0.1185
  C  C104  1  0.539700  0.801640  0.373900  1.0  -0.0642
  C  C105  1  0.463100  0.426000  0.081200  1.0  0.1154
  C  C106  1  0.261940  0.460300  0.373900  1.0  -0.0628
  C  C107  1  0.962900  0.536900  0.081200  1.0  0.1114
  C  C108  1  0.198360  0.738060  0.373900  1.0  -0.0642
  C  C109  1  0.426000  0.962900  0.081200  1.0  0.105
  C  C110  1  0.460300  0.198360  0.373900  1.0  -0.0639
  C  C111  1  0.536900  0.574000  0.081200  1.0  0.1202
  C  C112  1  0.738060  0.539700  0.373900  1.0  -0.0637
  C  C113  1  0.037100  0.463100  0.081200  1.0  0.1132
  C  C114  1  0.801640  0.261940  0.373900  1.0  -0.0645
  C  C115  1  0.923900  0.461950  0.080900  1.0  0.071
  C  C116  1  0.538050  0.461950  0.080900  1.0  0.0786
  C  C117  1  0.538050  0.076100  0.080900  1.0  0.0812
  C  C118  1  0.076100  0.538050  0.080900  1.0  0.0796
  C  C119  1  0.461950  0.538050  0.080900  1.0  0.0722
  C  C120  1  0.461950  0.923900  0.080900  1.0  0.0793
  C  C121  1  0.461950  0.923900  0.919100  1.0  0.0784
  C  C122  1  0.461950  0.538050  0.919100  1.0  0.0734
  C  C123  1  0.076100  0.538050  0.919100  1.0  0.0777
  C  C124  1  0.538050  0.076100  0.919100  1.0  0.0804
  C  C125  1  0.538050  0.461950  0.919100  1.0  0.0775
  C  C126  1  0.923900  0.461950  0.919100  1.0  0.0707
  C  C127  1  0.101600  0.469000  0.500000  1.0  0.6741
  C  C128  1  0.165900  0.460800  0.500000  1.0  -0.1524
  C  C129  1  0.531000  0.632600  0.500000  1.0  0.6743
  C  C130  1  0.539200  0.705100  0.500000  1.0  -0.1509
  C  C131  1  0.367400  0.898400  0.500000  1.0  0.6756
  C  C132  1  0.294900  0.834100  0.500000  1.0  -0.1489
  C  C133  1  0.898400  0.531000  0.500000  1.0  0.6746
  C  C134  1  0.834100  0.539200  0.500000  1.0  -0.1523
  C  C135  1  0.469000  0.367400  0.500000  1.0  0.6745
  C  C136  1  0.460800  0.294900  0.500000  1.0  -0.1514
  C  C137  1  0.632600  0.101600  0.500000  1.0  0.6763
  C  C138  1  0.705100  0.165900  0.500000  1.0  -0.1492
  C  C139  1  0.469000  0.101600  0.500000  1.0  0.6751
  C  C140  1  0.460800  0.165900  0.500000  1.0  -0.1493
  C  C141  1  0.632600  0.531000  0.500000  1.0  0.6742
  C  C142  1  0.705100  0.539200  0.500000  1.0  -0.152
  C  C143  1  0.898400  0.367400  0.500000  1.0  0.6746
  C  C144  1  0.834100  0.294900  0.500000  1.0  -0.1511
  C  C145  1  0.531000  0.898400  0.500000  1.0  0.6768
  C  C146  1  0.539200  0.834100  0.500000  1.0  -0.1496
  C  C147  1  0.367400  0.469000  0.500000  1.0  0.6737
  C  C148  1  0.294900  0.460800  0.500000  1.0  -0.152
  C  C149  1  0.101600  0.632600  0.500000  1.0  0.6743
  C  C150  1  0.165900  0.705100  0.500000  1.0  -0.1509
  N  N151  1  0.000000  0.500000  0.137200  1.0  0.0409
  N  N152  1  0.500000  0.500000  0.137200  1.0  0.0409
  N  N153  1  0.500000  0.000000  0.137200  1.0  0.0409
  N  N154  1  0.500000  0.000000  0.862800  1.0  0.0334
  N  N155  1  0.500000  0.500000  0.862800  1.0  0.0334
  N  N156  1  0.000000  0.500000  0.862800  1.0  0.0334
  O  O157  1  0.076480  0.473050  0.381800  1.0  -0.6069
  O  O158  1  0.526950  0.603430  0.381800  1.0  -0.6063
  O  O159  1  0.396570  0.923520  0.381800  1.0  -0.6078
  O  O160  1  0.923520  0.526950  0.381800  1.0  -0.6086
  O  O161  1  0.473050  0.396570  0.381800  1.0  -0.6052
  O  O162  1  0.603430  0.076480  0.381800  1.0  -0.607
  O  O163  1  0.473050  0.076480  0.618200  1.0  -0.606
  O  O164  1  0.603430  0.526950  0.618200  1.0  -0.6051
  O  O165  1  0.923520  0.396570  0.618200  1.0  -0.6046
  O  O166  1  0.526950  0.923520  0.618200  1.0  -0.6056
  O  O167  1  0.396570  0.473050  0.618200  1.0  -0.608
  O  O168  1  0.076480  0.603430  0.618200  1.0  -0.6041
  O  O169  1  0.923520  0.526950  0.618200  1.0  -0.6069
  O  O170  1  0.473050  0.396570  0.618200  1.0  -0.6047
  O  O171  1  0.603430  0.076480  0.618200  1.0  -0.6053
  O  O172  1  0.076480  0.473050  0.618200  1.0  -0.605
  O  O173  1  0.526950  0.603430  0.618200  1.0  -0.6046
  O  O174  1  0.396570  0.923520  0.618200  1.0  -0.606
  O  O175  1  0.526950  0.923520  0.381800  1.0  -0.6067
  O  O176  1  0.396570  0.473050  0.381800  1.0  -0.6085
  O  O177  1  0.076480  0.603430  0.381800  1.0  -0.605
  O  O178  1  0.473050  0.076480  0.381800  1.0  -0.607
  O  O179  1  0.603430  0.526950  0.381800  1.0  -0.6062
  O  O180  1  0.923520  0.396570  0.381800  1.0  -0.6044
