# generated using pymatgen
data_EuH4C8NO7
_symmetry_space_group_name_H-M   'P 1'
_cell_length_a   17.67260000
_cell_length_b   20.02320000
_cell_length_c   10.55530000
_cell_angle_alpha   90.00000000
_cell_angle_beta   91.12900000
_cell_angle_gamma   90.00000000
_symmetry_Int_Tables_number   1
_chemical_formula_structural   EuH4C8NO7
_chemical_formula_sum   'Eu8 H32 C64 N8 O56'
_cell_volume   3734.39450555
_cell_formula_units_Z   8
loop_
 _symmetry_equiv_pos_site_id
 _symmetry_equiv_pos_as_xyz
  1  'x, y, z'
loop_
 _atom_site_type_symbol
 _atom_site_label
 _atom_site_symmetry_multiplicity
 _atom_site_fract_x
 _atom_site_fract_y
 _atom_site_fract_z
 _atom_site_occupancy
 _atom_site_charge
  Eu  Eu1  1  0.491840  0.481900  0.753540  1.0  2.1717
  Eu  Eu2  1  0.000070  0.265630  0.322220  1.0  2.1682
  Eu  Eu3  1  0.508160  0.981900  0.746460  1.0  2.1716
  Eu  Eu4  1  0.999930  0.765630  0.177780  1.0  2.1685
  Eu  Eu5  1  0.508160  0.518100  0.246460  1.0  2.1708
  Eu  Eu6  1  0.999930  0.734370  0.677780  1.0  2.1709
  Eu  Eu7  1  0.491840  0.018100  0.253540  1.0  2.17
  Eu  Eu8  1  0.000070  0.234370  0.822220  1.0  2.1712
  H  H9  1  0.199600  0.326700  0.860600  1.0  0.1112
  H  H10  1  0.302900  0.396400  0.844300  1.0  0.1203
  H  H11  1  0.285000  0.445600  0.213700  1.0  0.1107
  H  H12  1  0.178800  0.378000  0.228100  1.0  0.1144
  H  H13  1  0.702600  0.389700  0.333200  1.0  0.1121
  H  H14  1  0.812600  0.327400  0.368900  1.0  0.111
  H  H15  1  0.785100  0.342200  0.744400  1.0  0.1152
  H  H16  1  0.674500  0.403200  0.712300  1.0  0.1189
  H  H17  1  0.800400  0.826700  0.639400  1.0  0.1109
  H  H18  1  0.697100  0.896400  0.655700  1.0  0.1202
  H  H19  1  0.715000  0.945600  0.286300  1.0  0.1108
  H  H20  1  0.821200  0.878000  0.271900  1.0  0.1142
  H  H21  1  0.297400  0.889700  0.166800  1.0  0.112
  H  H22  1  0.187400  0.827400  0.131100  1.0  0.1113
  H  H23  1  0.214900  0.842200  0.755600  1.0  0.1154
  H  H24  1  0.325500  0.903200  0.787700  1.0  0.1185
  H  H25  1  0.800400  0.673300  0.139400  1.0  0.1107
  H  H26  1  0.697100  0.603600  0.155700  1.0  0.1203
  H  H27  1  0.715000  0.554400  0.786300  1.0  0.1108
  H  H28  1  0.821200  0.622000  0.771900  1.0  0.1142
  H  H29  1  0.297400  0.610300  0.666800  1.0  0.112
  H  H30  1  0.187400  0.672600  0.631100  1.0  0.1115
  H  H31  1  0.214900  0.657800  0.255600  1.0  0.1155
  H  H32  1  0.325500  0.596800  0.287700  1.0  0.1183
  H  H33  1  0.199600  0.173300  0.360600  1.0  0.1112
  H  H34  1  0.302900  0.103600  0.344300  1.0  0.1201
  H  H35  1  0.285000  0.054400  0.713700  1.0  0.1109
  H  H36  1  0.178800  0.122000  0.728100  1.0  0.1144
  H  H37  1  0.702600  0.110300  0.833200  1.0  0.112
  H  H38  1  0.812600  0.172600  0.868900  1.0  0.1111
  H  H39  1  0.785100  0.157800  0.244400  1.0  0.1152
  H  H40  1  0.674500  0.096800  0.212300  1.0  0.1187
  C  C41  1  0.114600  0.296100  0.059500  1.0  0.7366
  C  C42  1  0.179600  0.343800  0.046600  1.0  -0.1197
  C  C43  1  0.217000  0.350800  0.932900  1.0  -0.0378
  C  C44  1  0.278400  0.391800  0.923100  1.0  -0.0786
  C  C45  1  0.305100  0.427000  0.029100  1.0  -0.1136
  C  C46  1  0.267600  0.421300  0.141600  1.0  -0.0538
  C  C47  1  0.204900  0.380700  0.150400  1.0  -0.0475
  C  C48  1  0.375700  0.469100  0.021000  1.0  0.7613
  C  C49  1  0.607500  0.443500  0.494100  1.0  0.7639
  C  C50  1  0.677800  0.402400  0.518200  1.0  -0.1201
  C  C51  1  0.719100  0.380100  0.417400  1.0  -0.0378
  C  C52  1  0.784700  0.343500  0.438600  1.0  -0.0545
  C  C53  1  0.809600  0.330500  0.560900  1.0  -0.1336
  C  C54  1  0.768300  0.352200  0.660500  1.0  -0.0269
  C  C55  1  0.702600  0.388200  0.641900  1.0  -0.0857
  C  C56  1  0.884600  0.295300  0.585200  1.0  0.7287
  C  C57  1  0.885400  0.796100  0.440500  1.0  0.7353
  C  C58  1  0.820400  0.843800  0.453400  1.0  -0.1201
  C  C59  1  0.783000  0.850800  0.567100  1.0  -0.0387
  C  C60  1  0.721600  0.891800  0.576900  1.0  -0.0783
  C  C61  1  0.694900  0.927000  0.470900  1.0  -0.1134
  C  C62  1  0.732400  0.921300  0.358400  1.0  -0.0559
  C  C63  1  0.795100  0.880700  0.349600  1.0  -0.0465
  C  C64  1  0.624300  0.969100  0.479000  1.0  0.7435
  C  C65  1  0.392500  0.943500  0.005900  1.0  0.7679
  C  C66  1  0.322200  0.902400  0.981800  1.0  -0.1206
  C  C67  1  0.280900  0.880100  0.082600  1.0  -0.0383
  C  C68  1  0.215300  0.843500  0.061400  1.0  -0.0537
  C  C69  1  0.190400  0.830500  0.939100  1.0  -0.1337
  C  C70  1  0.231700  0.852200  0.839500  1.0  -0.0263
  C  C71  1  0.297400  0.888200  0.858100  1.0  -0.0877
  C  C72  1  0.115400  0.795300  0.914800  1.0  0.7287
  C  C73  1  0.885400  0.703900  0.940500  1.0  0.7366
  C  C74  1  0.820400  0.656200  0.953400  1.0  -0.1199
  C  C75  1  0.783000  0.649200  0.067100  1.0  -0.0364
  C  C76  1  0.721600  0.608200  0.076900  1.0  -0.0784
  C  C77  1  0.694900  0.573000  0.970900  1.0  -0.1136
  C  C78  1  0.732400  0.578700  0.858400  1.0  -0.059
  C  C79  1  0.795100  0.619300  0.849600  1.0  -0.0464
  C  C80  1  0.624300  0.530900  0.979000  1.0  0.7611
  C  C81  1  0.392500  0.556500  0.505900  1.0  0.7646
  C  C82  1  0.322200  0.597600  0.481800  1.0  -0.1204
  C  C83  1  0.280900  0.619900  0.582600  1.0  -0.0381
  C  C84  1  0.215300  0.656500  0.561400  1.0  -0.0539
  C  C85  1  0.190400  0.669500  0.439100  1.0  -0.1336
  C  C86  1  0.231700  0.647800  0.339500  1.0  -0.0264
  C  C87  1  0.297400  0.611800  0.358100  1.0  -0.0869
  C  C88  1  0.115400  0.704700  0.414800  1.0  0.7288
  C  C89  1  0.114600  0.203900  0.559500  1.0  0.7229
  C  C90  1  0.179600  0.156200  0.546600  1.0  -0.1196
  C  C91  1  0.217000  0.149200  0.432900  1.0  -0.0358
  C  C92  1  0.278400  0.108200  0.423100  1.0  -0.0787
  C  C93  1  0.305100  0.073000  0.529100  1.0  -0.1141
  C  C94  1  0.267600  0.078700  0.641600  1.0  -0.0542
  C  C95  1  0.204900  0.119300  0.650400  1.0  -0.0476
  C  C96  1  0.375700  0.030900  0.521000  1.0  0.7613
  C  C97  1  0.607500  0.056500  0.994100  1.0  0.7653
  C  C98  1  0.677800  0.097600  0.018200  1.0  -0.1199
  C  C99  1  0.719100  0.119900  0.917400  1.0  -0.0375
  C  C100  1  0.784700  0.156500  0.938600  1.0  -0.0546
  C  C101  1  0.809600  0.169500  0.060900  1.0  -0.1342
  C  C102  1  0.768300  0.147800  0.160500  1.0  -0.0272
  C  C103  1  0.702600  0.111800  0.141900  1.0  -0.0861
  C  C104  1  0.884600  0.204700  0.085200  1.0  0.7285
  N  N105  1  0.525700  0.625000  0.761200  1.0  0.8849
  N  N106  1  0.024800  0.120600  0.311800  1.0  0.8864
  N  N107  1  0.474300  0.125000  0.738800  1.0  0.8861
  N  N108  1  0.975200  0.620600  0.188200  1.0  0.888
  N  N109  1  0.474300  0.375000  0.238800  1.0  0.8865
  N  N110  1  0.975200  0.879400  0.688200  1.0  0.8883
  N  N111  1  0.525700  0.875000  0.261200  1.0  0.8858
  N  N112  1  0.024800  0.379400  0.811800  1.0  0.8873
  O  O113  1  0.408200  0.472000  0.916000  1.0  -0.7386
  O  O114  1  0.399800  0.497500  0.120300  1.0  -0.7437
  O  O115  1  0.100400  0.258000  0.966900  1.0  -0.7334
  O  O116  1  0.080000  0.297500  0.161200  1.0  -0.7607
  O  O117  1  0.563300  0.452200  0.584100  1.0  -0.7542
  O  O118  1  0.596700  0.465700  0.384700  1.0  -0.7488
  O  O119  1  0.920200  0.275600  0.489700  1.0  -0.7075
  O  O120  1  0.906400  0.288700  0.697700  1.0  -0.7202
  O  O121  1  0.479600  0.599000  0.835900  1.0  -0.5789
  O  O122  1  0.553100  0.587700  0.678400  1.0  -0.5698
  O  O123  1  0.544400  0.683700  0.770600  1.0  -0.4365
  O  O124  1  0.984600  0.145500  0.396500  1.0  -0.5807
  O  O125  1  0.059400  0.161500  0.240600  1.0  -0.5893
  O  O126  1  0.030900  0.060200  0.297500  1.0  -0.4372
  O  O127  1  0.591800  0.972000  0.584000  1.0  -0.7388
  O  O128  1  0.600200  0.997500  0.379700  1.0  -0.7439
  O  O129  1  0.899600  0.758000  0.533100  1.0  -0.7401
  O  O130  1  0.920000  0.797500  0.338800  1.0  -0.7595
  O  O131  1  0.436700  0.952200  0.915900  1.0  -0.7549
  O  O132  1  0.403300  0.965700  0.115300  1.0  -0.7501
  O  O133  1  0.079800  0.775600  0.010300  1.0  -0.7069
  O  O134  1  0.093600  0.788700  0.802300  1.0  -0.7206
  O  O135  1  0.520400  0.099000  0.664100  1.0  -0.5721
  O  O136  1  0.446900  0.087700  0.821600  1.0  -0.5717
  O  O137  1  0.455600  0.183700  0.729400  1.0  -0.4358
  O  O138  1  0.015400  0.645500  0.103500  1.0  -0.582
  O  O139  1  0.940600  0.661500  0.259400  1.0  -0.5906
  O  O140  1  0.969100  0.560200  0.202500  1.0  -0.4375
  O  O141  1  0.591800  0.528000  0.084000  1.0  -0.7388
  O  O142  1  0.600200  0.502500  0.879700  1.0  -0.7434
  O  O143  1  0.899600  0.742000  0.033100  1.0  -0.7409
  O  O144  1  0.920000  0.702500  0.838800  1.0  -0.7594
  O  O145  1  0.436700  0.547800  0.415900  1.0  -0.7548
  O  O146  1  0.403300  0.534300  0.615300  1.0  -0.7481
  O  O147  1  0.079800  0.724400  0.510300  1.0  -0.7073
  O  O148  1  0.093600  0.711300  0.302300  1.0  -0.7203
  O  O149  1  0.520400  0.401000  0.164100  1.0  -0.5752
  O  O150  1  0.446900  0.412300  0.321600  1.0  -0.569
  O  O151  1  0.455600  0.316300  0.229400  1.0  -0.4358
  O  O152  1  0.015400  0.854500  0.603500  1.0  -0.5794
  O  O153  1  0.940600  0.838500  0.759400  1.0  -0.5898
  O  O154  1  0.969100  0.939800  0.702500  1.0  -0.4403
  O  O155  1  0.408200  0.028000  0.416000  1.0  -0.7388
  O  O156  1  0.399800  0.002500  0.620300  1.0  -0.7428
  O  O157  1  0.100400  0.242000  0.466900  1.0  -0.7318
  O  O158  1  0.080000  0.202500  0.661200  1.0  -0.76
  O  O159  1  0.563300  0.047800  0.084100  1.0  -0.7547
  O  O160  1  0.596700  0.034300  0.884700  1.0  -0.7486
  O  O161  1  0.920200  0.224400  0.989700  1.0  -0.707
  O  O162  1  0.906400  0.211300  0.197700  1.0  -0.7201
  O  O163  1  0.479600  0.901000  0.335900  1.0  -0.5757
  O  O164  1  0.553100  0.912300  0.178400  1.0  -0.5676
  O  O165  1  0.544400  0.816300  0.270600  1.0  -0.4361
  O  O166  1  0.984600  0.354500  0.896500  1.0  -0.5812
  O  O167  1  0.059400  0.338500  0.740600  1.0  -0.5906
  O  O168  1  0.030900  0.439800  0.797500  1.0  -0.4381
