# generated using pymatgen
data_V4P7H13O27
_symmetry_space_group_name_H-M   'P 1'
_cell_length_a   13.49850000
_cell_length_b   13.49850000
_cell_length_c   18.12000000
_cell_angle_alpha   90.00000000
_cell_angle_beta   90.00000000
_cell_angle_gamma   120.00000000
_symmetry_Int_Tables_number   1
_chemical_formula_structural   V4P7H13O27
_chemical_formula_sum   'V16 P28 H52 O108'
_cell_volume   2859.30080660
_cell_formula_units_Z   4
loop_
 _symmetry_equiv_pos_site_id
 _symmetry_equiv_pos_as_xyz
  1  'x, y, z'
loop_
 _atom_site_type_symbol
 _atom_site_label
 _atom_site_symmetry_multiplicity
 _atom_site_fract_x
 _atom_site_fract_y
 _atom_site_fract_z
 _atom_site_occupancy
 _atom_site_charge
  V  V1  1  0.292140  0.432970  0.958460  1.0  1.7107
  V  V2  1  0.567030  0.859170  0.958460  1.0  1.7305
  V  V3  1  0.140830  0.707860  0.958460  1.0  1.7276
  V  V4  1  0.432970  0.292140  0.541540  1.0  1.7232
  V  V5  1  0.859170  0.567030  0.541540  1.0  1.6918
  V  V6  1  0.707860  0.140830  0.541540  1.0  1.7237
  V  V7  1  0.707860  0.567030  0.041540  1.0  1.6922
  V  V8  1  0.432970  0.140830  0.041540  1.0  1.7225
  V  V9  1  0.859170  0.292140  0.041540  1.0  1.7241
  V  V10  1  0.567030  0.707860  0.458460  1.0  1.7307
  V  V11  1  0.140830  0.432970  0.458460  1.0  1.7111
  V  V12  1  0.292140  0.859170  0.458460  1.0  1.7275
  V  V13  1  0.000000  0.000000  0.000000  1.0  1.4405
  V  V14  1  0.000000  0.000000  0.500000  1.0  1.4405
  V  V15  1  0.000000  0.000000  0.750000  1.0  1.5747
  V  V16  1  0.000000  0.000000  0.250000  1.0  1.5747
  P  P17  1  0.160650  0.186340  0.870840  1.0  1.4143
  P  P18  1  0.503850  0.631150  0.053420  1.0  1.7382
  P  P19  1  0.813660  0.974310  0.870840  1.0  1.3883
  P  P20  1  0.368850  0.872700  0.053420  1.0  1.7399
  P  P21  1  0.025690  0.839350  0.870840  1.0  1.3971
  P  P22  1  0.127300  0.496150  0.053420  1.0  1.7334
  P  P23  1  0.186340  0.160650  0.629160  1.0  1.3912
  P  P24  1  0.631150  0.503850  0.446580  1.0  1.7336
  P  P25  1  0.974310  0.813660  0.629160  1.0  1.4159
  P  P26  1  0.872700  0.368850  0.446580  1.0  1.7382
  P  P27  1  0.839350  0.025690  0.629160  1.0  1.3972
  P  P28  1  0.496150  0.127300  0.446580  1.0  1.74
  P  P29  1  0.839350  0.813660  0.129160  1.0  1.408
  P  P30  1  0.496150  0.368850  0.946580  1.0  1.7385
  P  P31  1  0.186340  0.025690  0.129160  1.0  1.4064
  P  P32  1  0.631150  0.127300  0.946580  1.0  1.7395
  P  P33  1  0.974310  0.160650  0.129160  1.0  1.3993
  P  P34  1  0.872700  0.503850  0.946580  1.0  1.7337
  P  P35  1  0.813660  0.839350  0.370840  1.0  1.4056
  P  P36  1  0.368850  0.496150  0.553420  1.0  1.7342
  P  P37  1  0.025690  0.186340  0.370840  1.0  1.406
  P  P38  1  0.127300  0.631150  0.553420  1.0  1.7383
  P  P39  1  0.160650  0.974310  0.370840  1.0  1.3967
  P  P40  1  0.503850  0.872700  0.553420  1.0  1.7395
  P  P41  1  0.333333  0.666667  0.861580  1.0  1.5035
  P  P42  1  0.666667  0.333333  0.638420  1.0  1.5063
  P  P43  1  0.666667  0.333333  0.138420  1.0  1.5063
  P  P44  1  0.333333  0.666667  0.361580  1.0  1.5035
  H  H45  1  0.250000  0.259000  0.002000  1.0  0.1928
  H  H46  1  0.254000  0.380000  0.038000  1.0  0.2433
  H  H47  1  0.229000  0.193000  0.847100  1.0  0.1216
  H  H48  1  0.442800  0.657000  0.145500  1.0  0.4184
  H  H49  1  0.741000  0.991000  0.002000  1.0  0.1934
  H  H50  1  0.620000  0.874000  0.038000  1.0  0.2432
  H  H51  1  0.807000  0.036000  0.847100  1.0  0.1228
  H  H52  1  0.343000  0.785800  0.145500  1.0  0.4205
  H  H53  1  0.009000  0.750000  0.002000  1.0  0.1934
  H  H54  1  0.126000  0.746000  0.038000  1.0  0.2454
  H  H55  1  0.964000  0.771000  0.847100  1.0  0.1228
  H  H56  1  0.214200  0.557200  0.145500  1.0  0.4196
  H  H57  1  0.259000  0.250000  0.498000  1.0  0.1943
  H  H58  1  0.380000  0.254000  0.462000  1.0  0.2451
  H  H59  1  0.193000  0.229000  0.652900  1.0  0.1224
  H  H60  1  0.657000  0.442800  0.354500  1.0  0.4151
  H  H61  1  0.991000  0.741000  0.498000  1.0  0.1942
  H  H62  1  0.874000  0.620000  0.462000  1.0  0.2436
  H  H63  1  0.036000  0.807000  0.652900  1.0  0.1224
  H  H64  1  0.785800  0.343000  0.354500  1.0  0.4166
  H  H65  1  0.750000  0.009000  0.498000  1.0  0.1941
  H  H66  1  0.746000  0.126000  0.462000  1.0  0.2431
  H  H67  1  0.771000  0.964000  0.652900  1.0  0.1233
  H  H68  1  0.557200  0.214200  0.354500  1.0  0.4162
  H  H69  1  0.750000  0.741000  0.998000  1.0  0.1949
  H  H70  1  0.746000  0.620000  0.962000  1.0  0.244
  H  H71  1  0.771000  0.807000  0.152900  1.0  0.1226
  H  H72  1  0.557200  0.343000  0.854500  1.0  0.4148
  H  H73  1  0.259000  0.009000  0.998000  1.0  0.193
  H  H74  1  0.380000  0.126000  0.962000  1.0  0.2425
  H  H75  1  0.193000  0.964000  0.152900  1.0  0.1232
  H  H76  1  0.657000  0.214200  0.854500  1.0  0.4175
  H  H77  1  0.991000  0.250000  0.998000  1.0  0.1938
  H  H78  1  0.874000  0.254000  0.962000  1.0  0.2443
  H  H79  1  0.036000  0.229000  0.152900  1.0  0.1225
  H  H80  1  0.785800  0.442800  0.854500  1.0  0.4163
  H  H81  1  0.741000  0.750000  0.502000  1.0  0.1929
  H  H82  1  0.620000  0.746000  0.538000  1.0  0.2441
  H  H83  1  0.807000  0.771000  0.347100  1.0  0.1226
  H  H84  1  0.343000  0.557200  0.645500  1.0  0.4185
  H  H85  1  0.009000  0.259000  0.502000  1.0  0.1935
  H  H86  1  0.126000  0.380000  0.538000  1.0  0.2441
  H  H87  1  0.964000  0.193000  0.347100  1.0  0.1224
  H  H88  1  0.214200  0.657000  0.645500  1.0  0.4198
  H  H89  1  0.250000  0.991000  0.502000  1.0  0.1926
  H  H90  1  0.254000  0.874000  0.538000  1.0  0.2424
  H  H91  1  0.229000  0.036000  0.347100  1.0  0.1226
  H  H92  1  0.442800  0.785800  0.645500  1.0  0.4205
  H  H93  1  0.333333  0.666667  0.807500  1.0  0.1208
  H  H94  1  0.666667  0.333333  0.692500  1.0  0.1205
  H  H95  1  0.666667  0.333333  0.192500  1.0  0.1205
  H  H96  1  0.333333  0.666667  0.307500  1.0  0.1208
  O  O97  1  0.134700  0.108300  0.938080  1.0  -0.7273
  O  O98  1  0.066400  0.140800  0.812890  1.0  -0.8233
  O  O99  1  0.380300  0.546800  0.035080  1.0  -0.7412
  O  O100  1  0.189000  0.306900  0.892390  1.0  -0.7542
  O  O101  1  0.326800  0.551700  0.882250  1.0  -0.8625
  O  O102  1  0.571100  0.573400  0.075520  1.0  -0.847
  O  O103  1  0.565000  0.717100  0.991640  1.0  -0.7443
  O  O104  1  0.256000  0.310900  0.040970  1.0  -0.6964
  O  O105  1  0.500800  0.697400  0.121500  1.0  -0.6857
  O  O106  1  0.891700  0.026400  0.938080  1.0  -0.727
  O  O107  1  0.859200  0.925600  0.812890  1.0  -0.8244
  O  O108  1  0.453200  0.833500  0.035080  1.0  -0.7429
  O  O109  1  0.693100  0.882100  0.892390  1.0  -0.7517
  O  O110  1  0.448300  0.775100  0.882250  1.0  -0.8624
  O  O111  1  0.426600  0.997700  0.075520  1.0  -0.8449
  O  O112  1  0.282900  0.847900  0.991640  1.0  -0.7447
  O  O113  1  0.689100  0.945100  0.040970  1.0  -0.6972
  O  O114  1  0.302600  0.803400  0.121500  1.0  -0.6846
  O  O115  1  0.973600  0.865300  0.938080  1.0  -0.7263
  O  O116  1  0.074400  0.933600  0.812890  1.0  -0.822
  O  O117  1  0.166500  0.619700  0.035080  1.0  -0.7418
  O  O118  1  0.117900  0.811000  0.892390  1.0  -0.7513
  O  O119  1  0.224900  0.673200  0.882250  1.0  -0.8612
  O  O120  1  0.002300  0.428900  0.075520  1.0  -0.8451
  O  O121  1  0.152100  0.435000  0.991640  1.0  -0.7451
  O  O122  1  0.054900  0.744000  0.040970  1.0  -0.6961
  O  O123  1  0.196600  0.499200  0.121500  1.0  -0.6855
  O  O124  1  0.108300  0.134700  0.561920  1.0  -0.7264
  O  O125  1  0.140800  0.066400  0.687110  1.0  -0.8224
  O  O126  1  0.546800  0.380300  0.464920  1.0  -0.7434
  O  O127  1  0.306900  0.189000  0.607610  1.0  -0.749
  O  O128  1  0.551700  0.326800  0.617750  1.0  -0.8601
  O  O129  1  0.573400  0.571100  0.424480  1.0  -0.8456
  O  O130  1  0.717100  0.565000  0.508360  1.0  -0.7441
  O  O131  1  0.310900  0.256000  0.459030  1.0  -0.6992
  O  O132  1  0.697400  0.500800  0.378500  1.0  -0.6847
  O  O133  1  0.026400  0.891700  0.561920  1.0  -0.7275
  O  O134  1  0.925600  0.859200  0.687110  1.0  -0.8235
  O  O135  1  0.833500  0.453200  0.464920  1.0  -0.7421
  O  O136  1  0.882100  0.693100  0.607610  1.0  -0.7516
  O  O137  1  0.775100  0.448300  0.617750  1.0  -0.8614
  O  O138  1  0.997700  0.426600  0.424480  1.0  -0.8483
  O  O139  1  0.847900  0.282900  0.508360  1.0  -0.7438
  O  O140  1  0.945100  0.689100  0.459030  1.0  -0.6992
  O  O141  1  0.803400  0.302600  0.378500  1.0  -0.6834
  O  O142  1  0.865300  0.973600  0.561920  1.0  -0.727
  O  O143  1  0.933600  0.074400  0.687110  1.0  -0.825
  O  O144  1  0.619700  0.166500  0.464920  1.0  -0.7429
  O  O145  1  0.811000  0.117900  0.607610  1.0  -0.7526
  O  O146  1  0.673200  0.224900  0.617750  1.0  -0.8612
  O  O147  1  0.428900  0.002300  0.424480  1.0  -0.8451
  O  O148  1  0.435000  0.152100  0.508360  1.0  -0.7437
  O  O149  1  0.744000  0.054900  0.459030  1.0  -0.702
  O  O150  1  0.499200  0.196600  0.378500  1.0  -0.6829
  O  O151  1  0.865300  0.891700  0.061920  1.0  -0.7279
  O  O152  1  0.933600  0.859200  0.187110  1.0  -0.823
  O  O153  1  0.619700  0.453200  0.964920  1.0  -0.7435
  O  O154  1  0.811000  0.693100  0.107610  1.0  -0.7502
  O  O155  1  0.673200  0.448300  0.117750  1.0  -0.8621
  O  O156  1  0.428900  0.426600  0.924480  1.0  -0.8486
  O  O157  1  0.435000  0.282900  0.008360  1.0  -0.7432
  O  O158  1  0.744000  0.689100  0.959030  1.0  -0.6992
  O  O159  1  0.499200  0.302600  0.878500  1.0  -0.6839
  O  O160  1  0.108300  0.973600  0.061920  1.0  -0.7272
  O  O161  1  0.140800  0.074400  0.187110  1.0  -0.8248
  O  O162  1  0.546800  0.166500  0.964920  1.0  -0.7424
  O  O163  1  0.306900  0.117900  0.107610  1.0  -0.7521
  O  O164  1  0.551700  0.224900  0.117750  1.0  -0.8618
  O  O165  1  0.573400  0.002300  0.924480  1.0  -0.8446
  O  O166  1  0.717100  0.152100  0.008360  1.0  -0.7441
  O  O167  1  0.310900  0.054900  0.959030  1.0  -0.7026
  O  O168  1  0.697400  0.196600  0.878500  1.0  -0.6829
  O  O169  1  0.026400  0.134700  0.061920  1.0  -0.7262
  O  O170  1  0.925600  0.066400  0.187110  1.0  -0.824
  O  O171  1  0.833500  0.380300  0.964920  1.0  -0.7429
  O  O172  1  0.882100  0.189000  0.107610  1.0  -0.7491
  O  O173  1  0.775100  0.326800  0.117750  1.0  -0.8616
  O  O174  1  0.997700  0.571100  0.924480  1.0  -0.8457
  O  O175  1  0.847900  0.565000  0.008360  1.0  -0.7439
  O  O176  1  0.945100  0.256000  0.959030  1.0  -0.6998
  O  O177  1  0.803400  0.500800  0.878500  1.0  -0.6849
  O  O178  1  0.891700  0.865300  0.438080  1.0  -0.7259
  O  O179  1  0.859200  0.933600  0.312890  1.0  -0.8237
  O  O180  1  0.453200  0.619700  0.535080  1.0  -0.7415
  O  O181  1  0.693100  0.811000  0.392390  1.0  -0.7503
  O  O182  1  0.448300  0.673200  0.382250  1.0  -0.8627
  O  O183  1  0.426600  0.428900  0.575520  1.0  -0.8446
  O  O184  1  0.282900  0.435000  0.491640  1.0  -0.7448
  O  O185  1  0.689100  0.744000  0.540970  1.0  -0.6958
  O  O186  1  0.302600  0.499200  0.621500  1.0  -0.6872
  O  O187  1  0.973600  0.108300  0.438080  1.0  -0.7277
  O  O188  1  0.074400  0.140800  0.312890  1.0  -0.8222
  O  O189  1  0.166500  0.546800  0.535080  1.0  -0.7424
  O  O190  1  0.117900  0.306900  0.392390  1.0  -0.7537
  O  O191  1  0.224900  0.551700  0.382250  1.0  -0.8627
  O  O192  1  0.002300  0.573400  0.575520  1.0  -0.8474
  O  O193  1  0.152100  0.717100  0.491640  1.0  -0.7438
  O  O194  1  0.054900  0.310900  0.540970  1.0  -0.6973
  O  O195  1  0.196600  0.697400  0.621500  1.0  -0.6853
  O  O196  1  0.134700  0.026400  0.438080  1.0  -0.7273
  O  O197  1  0.066400  0.925600  0.312890  1.0  -0.8245
  O  O198  1  0.380300  0.833500  0.535080  1.0  -0.7423
  O  O199  1  0.189000  0.882100  0.392390  1.0  -0.7526
  O  O200  1  0.326800  0.775100  0.382250  1.0  -0.8622
  O  O201  1  0.571100  0.997700  0.575520  1.0  -0.8454
  O  O202  1  0.565000  0.847900  0.491640  1.0  -0.7446
  O  O203  1  0.256000  0.945100  0.540970  1.0  -0.6965
  O  O204  1  0.500800  0.803400  0.621500  1.0  -0.6838
