# generated using pymatgen
data_Mn(C3N2)3
_symmetry_space_group_name_H-M   'P 1'
_cell_length_a   14.43170000
_cell_length_b   17.56150000
_cell_length_c   7.48640000
_cell_angle_alpha   90.00000000
_cell_angle_beta   90.00000000
_cell_angle_gamma   90.00000000
_symmetry_Int_Tables_number   1
_chemical_formula_structural   Mn(C3N2)3
_chemical_formula_sum   'Mn4 C36 N24'
_cell_volume   1897.37043135
_cell_formula_units_Z   4
loop_
 _symmetry_equiv_pos_site_id
 _symmetry_equiv_pos_as_xyz
  1  'x, y, z'
loop_
 _atom_site_type_symbol
 _atom_site_label
 _atom_site_symmetry_multiplicity
 _atom_site_fract_x
 _atom_site_fract_y
 _atom_site_fract_z
 _atom_site_occupancy
 _atom_site_charge
  Mn  Mn1  1  0.250000  0.750000  0.500000  1.0  0.7455
  Mn  Mn2  1  0.750000  0.250000  0.500000  1.0  0.7455
  Mn  Mn3  1  0.750000  0.750000  0.500000  1.0  0.7455
  Mn  Mn4  1  0.250000  0.250000  0.500000  1.0  0.7455
  C  C5  1  0.103390  0.775300  0.168400  1.0  0.3085
  C  C6  1  0.603390  0.275300  0.168400  1.0  0.3085
  C  C7  1  0.896610  0.224700  0.168400  1.0  0.3062
  C  C8  1  0.396610  0.724700  0.168400  1.0  0.3076
  C  C9  1  0.896610  0.775300  0.831600  1.0  0.3066
  C  C10  1  0.396610  0.275300  0.831600  1.0  0.3066
  C  C11  1  0.103390  0.224700  0.831600  1.0  0.3095
  C  C12  1  0.603390  0.724700  0.831600  1.0  0.3095
  C  C13  1  0.896610  0.224700  0.831600  1.0  0.3073
  C  C14  1  0.396610  0.724700  0.831600  1.0  0.3073
  C  C15  1  0.103390  0.775300  0.831600  1.0  0.3092
  C  C16  1  0.603390  0.275300  0.831600  1.0  0.3092
  C  C17  1  0.103390  0.224700  0.168400  1.0  0.309
  C  C18  1  0.603390  0.724700  0.168400  1.0  0.309
  C  C19  1  0.896610  0.775300  0.168400  1.0  0.3072
  C  C20  1  0.396610  0.275300  0.168400  1.0  0.3072
  C  C21  1  0.051270  0.774480  0.000000  1.0  -0.1558
  C  C22  1  0.551270  0.274480  0.000000  1.0  -0.1558
  C  C23  1  0.948730  0.225520  0.000000  1.0  -0.1558
  C  C24  1  0.448730  0.725520  0.000000  1.0  -0.1558
  C  C25  1  0.948730  0.774480  0.000000  1.0  -0.1557
  C  C26  1  0.448730  0.274480  0.000000  1.0  -0.1557
  C  C27  1  0.051270  0.225520  0.000000  1.0  -0.1559
  C  C28  1  0.551270  0.725520  0.000000  1.0  -0.1559
  C  C29  1  0.318450  0.928600  0.500000  1.0  0.218
  C  C30  1  0.818450  0.428600  0.500000  1.0  0.218
  C  C31  1  0.681550  0.071400  0.500000  1.0  0.2197
  C  C32  1  0.181550  0.571400  0.500000  1.0  0.2197
  C  C33  1  0.681550  0.928600  0.500000  1.0  0.2204
  C  C34  1  0.181550  0.428600  0.500000  1.0  0.2204
  C  C35  1  0.318450  0.071400  0.500000  1.0  0.2173
  C  C36  1  0.818450  0.571400  0.500000  1.0  0.2173
  C  C37  1  0.362800  0.000000  0.500000  1.0  0.0221
  C  C38  1  0.862800  0.500000  0.500000  1.0  0.0221
  C  C39  1  0.637200  0.000000  0.500000  1.0  0.0212
  C  C40  1  0.137200  0.500000  0.500000  1.0  0.0212
  N  N41  1  0.144340  0.770770  0.286000  1.0  -0.3216
  N  N42  1  0.644340  0.270770  0.286000  1.0  -0.3216
  N  N43  1  0.855660  0.229230  0.286000  1.0  -0.3231
  N  N44  1  0.355660  0.729230  0.286000  1.0  -0.3231
  N  N45  1  0.855660  0.770770  0.714000  1.0  -0.3238
  N  N46  1  0.355660  0.270770  0.714000  1.0  -0.3238
  N  N47  1  0.144340  0.229230  0.714000  1.0  -0.3215
  N  N48  1  0.644340  0.729230  0.714000  1.0  -0.322
  N  N49  1  0.855660  0.229230  0.714000  1.0  -0.3231
  N  N50  1  0.355660  0.729230  0.714000  1.0  -0.3231
  N  N51  1  0.144340  0.770770  0.714000  1.0  -0.3215
  N  N52  1  0.644340  0.270770  0.714000  1.0  -0.3215
  N  N53  1  0.144340  0.229230  0.286000  1.0  -0.3208
  N  N54  1  0.644340  0.729230  0.286000  1.0  -0.3208
  N  N55  1  0.855660  0.770770  0.286000  1.0  -0.3235
  N  N56  1  0.355660  0.270770  0.286000  1.0  -0.323
  N  N57  1  0.284660  0.872510  0.500000  1.0  -0.418
  N  N58  1  0.784660  0.372510  0.500000  1.0  -0.418
  N  N59  1  0.715340  0.127490  0.500000  1.0  -0.4179
  N  N60  1  0.215340  0.627490  0.500000  1.0  -0.4179
  N  N61  1  0.715340  0.872510  0.500000  1.0  -0.4177
  N  N62  1  0.215340  0.372510  0.500000  1.0  -0.4177
  N  N63  1  0.284660  0.127490  0.500000  1.0  -0.4184
  N  N64  1  0.784660  0.627490  0.500000  1.0  -0.4184
