# generated using pymatgen
data_Zn5H8(C9O7)2
_symmetry_space_group_name_H-M   'P 1'
_cell_length_a   20.51380000
_cell_length_b   20.51380000
_cell_length_c   17.81000000
_cell_angle_alpha   90.00000000
_cell_angle_beta   90.00000000
_cell_angle_gamma   90.00000000
_symmetry_Int_Tables_number   1
_chemical_formula_structural   Zn5H8(C9O7)2
_chemical_formula_sum   'Zn40 H64 C144 O112'
_cell_volume   7494.73278974
_cell_formula_units_Z   8
loop_
 _symmetry_equiv_pos_site_id
 _symmetry_equiv_pos_as_xyz
  1  'x, y, z'
loop_
 _atom_site_type_symbol
 _atom_site_label
 _atom_site_symmetry_multiplicity
 _atom_site_fract_x
 _atom_site_fract_y
 _atom_site_fract_z
 _atom_site_occupancy
 _atom_site_charge
  Zn  Zn1  1  0.257480  0.119450  0.332390  1.0  1.0677
  Zn  Zn2  1  0.343200  0.080590  0.309640  1.0  0.8771
  Zn  Zn3  1  0.757480  0.619450  0.832390  1.0  1.0677
  Zn  Zn4  1  0.843200  0.580590  0.809640  1.0  0.8771
  Zn  Zn5  1  0.742520  0.880550  0.332390  1.0  1.0714
  Zn  Zn6  1  0.656800  0.919410  0.309640  1.0  0.8755
  Zn  Zn7  1  0.242520  0.380550  0.832390  1.0  1.0714
  Zn  Zn8  1  0.156800  0.419410  0.809640  1.0  0.8755
  Zn  Zn9  1  0.880550  0.257480  0.332390  1.0  1.0741
  Zn  Zn10  1  0.919410  0.343200  0.309640  1.0  0.8768
  Zn  Zn11  1  0.380550  0.757480  0.832390  1.0  1.0741
  Zn  Zn12  1  0.419410  0.843200  0.809640  1.0  0.8768
  Zn  Zn13  1  0.119450  0.742520  0.332390  1.0  1.0726
  Zn  Zn14  1  0.080590  0.656800  0.309640  1.0  0.8735
  Zn  Zn15  1  0.619450  0.242520  0.832390  1.0  1.0726
  Zn  Zn16  1  0.580590  0.156800  0.809640  1.0  0.8735
  Zn  Zn17  1  0.257480  0.880550  0.832390  1.0  1.0674
  Zn  Zn18  1  0.343200  0.919410  0.809640  1.0  0.8767
  Zn  Zn19  1  0.757480  0.380550  0.332390  1.0  1.0674
  Zn  Zn20  1  0.843200  0.419410  0.309640  1.0  0.8767
  Zn  Zn21  1  0.742520  0.119450  0.832390  1.0  1.072
  Zn  Zn22  1  0.656800  0.080590  0.809640  1.0  0.8778
  Zn  Zn23  1  0.242520  0.619450  0.332390  1.0  1.072
  Zn  Zn24  1  0.156800  0.580590  0.309640  1.0  0.8778
  Zn  Zn25  1  0.880550  0.742520  0.832390  1.0  1.0735
  Zn  Zn26  1  0.919410  0.656800  0.809640  1.0  0.8763
  Zn  Zn27  1  0.380550  0.242520  0.332390  1.0  1.0735
  Zn  Zn28  1  0.419410  0.156800  0.309640  1.0  0.8763
  Zn  Zn29  1  0.119450  0.257480  0.832390  1.0  1.0735
  Zn  Zn30  1  0.080590  0.343200  0.809640  1.0  0.8762
  Zn  Zn31  1  0.619450  0.757480  0.332390  1.0  1.0735
  Zn  Zn32  1  0.580590  0.843200  0.309640  1.0  0.8762
  Zn  Zn33  1  0.343690  0.156310  0.478020  1.0  1.0143
  Zn  Zn34  1  0.656310  0.843690  0.478020  1.0  1.0134
  Zn  Zn35  1  0.156310  0.343690  0.978020  1.0  1.0134
  Zn  Zn36  1  0.843690  0.343690  0.478020  1.0  1.013
  Zn  Zn37  1  0.156310  0.656310  0.478020  1.0  1.0147
  Zn  Zn38  1  0.343690  0.843690  0.978020  1.0  1.013
  Zn  Zn39  1  0.656310  0.156310  0.978020  1.0  1.0147
  Zn  Zn40  1  0.843690  0.656310  0.978020  1.0  1.0143
  H  H41  1  0.307400  0.007700  0.085400  1.0  0.0916
  H  H42  1  0.228900  0.085500  0.900100  1.0  0.0902
  H  H43  1  0.211300  0.178300  0.097400  1.0  0.091
  H  H44  1  0.807400  0.507700  0.585400  1.0  0.0916
  H  H45  1  0.728900  0.585500  0.400100  1.0  0.0902
  H  H46  1  0.711300  0.678300  0.597400  1.0  0.091
  H  H47  1  0.692600  0.992300  0.085400  1.0  0.0916
  H  H48  1  0.771100  0.914500  0.900100  1.0  0.0906
  H  H49  1  0.788700  0.821700  0.097400  1.0  0.0904
  H  H50  1  0.192600  0.492300  0.585400  1.0  0.0916
  H  H51  1  0.271100  0.414500  0.400100  1.0  0.0906
  H  H52  1  0.288700  0.321700  0.597400  1.0  0.0904
  H  H53  1  0.992300  0.307400  0.085400  1.0  0.0911
  H  H54  1  0.914500  0.228900  0.900100  1.0  0.0903
  H  H55  1  0.821700  0.211300  0.097400  1.0  0.0915
  H  H56  1  0.492300  0.807400  0.585400  1.0  0.0911
  H  H57  1  0.414500  0.728900  0.400100  1.0  0.0903
  H  H58  1  0.321700  0.711300  0.597400  1.0  0.0915
  H  H59  1  0.007700  0.692600  0.085400  1.0  0.0911
  H  H60  1  0.085500  0.771100  0.900100  1.0  0.0904
  H  H61  1  0.178300  0.788700  0.097400  1.0  0.0916
  H  H62  1  0.507700  0.192600  0.585400  1.0  0.0911
  H  H63  1  0.585500  0.271100  0.400100  1.0  0.0904
  H  H64  1  0.678300  0.288700  0.597400  1.0  0.0916
  H  H65  1  0.307400  0.992300  0.585400  1.0  0.0918
  H  H66  1  0.228900  0.914500  0.400100  1.0  0.0905
  H  H67  1  0.211300  0.821700  0.597400  1.0  0.091
  H  H68  1  0.807400  0.492300  0.085400  1.0  0.0918
  H  H69  1  0.728900  0.414500  0.900100  1.0  0.0905
  H  H70  1  0.711300  0.321700  0.097400  1.0  0.091
  H  H71  1  0.692600  0.007700  0.585400  1.0  0.0916
  H  H72  1  0.771100  0.085500  0.400100  1.0  0.0901
  H  H73  1  0.788700  0.178300  0.597400  1.0  0.0904
  H  H74  1  0.192600  0.507700  0.085400  1.0  0.0916
  H  H75  1  0.271100  0.585500  0.900100  1.0  0.0901
  H  H76  1  0.288700  0.678300  0.097400  1.0  0.0904
  H  H77  1  0.992300  0.692600  0.585400  1.0  0.0908
  H  H78  1  0.914500  0.771100  0.400100  1.0  0.0903
  H  H79  1  0.821700  0.788700  0.597400  1.0  0.0915
  H  H80  1  0.492300  0.192600  0.085400  1.0  0.0908
  H  H81  1  0.414500  0.271100  0.900100  1.0  0.0903
  H  H82  1  0.321700  0.288700  0.097400  1.0  0.0915
  H  H83  1  0.007700  0.307400  0.585400  1.0  0.0912
  H  H84  1  0.085500  0.228900  0.400100  1.0  0.0903
  H  H85  1  0.178300  0.211300  0.597400  1.0  0.0917
  H  H86  1  0.507700  0.807400  0.085400  1.0  0.0912
  H  H87  1  0.585500  0.728900  0.900100  1.0  0.0903
  H  H88  1  0.678300  0.711300  0.097400  1.0  0.0917
  H  H89  1  0.441200  0.058800  0.250100  1.0  0.3751
  H  H90  1  0.450700  0.049300  0.327200  1.0  0.3624
  H  H91  1  0.558800  0.941200  0.250100  1.0  0.376
  H  H92  1  0.549300  0.950700  0.327200  1.0  0.364
  H  H93  1  0.058800  0.441200  0.750100  1.0  0.376
  H  H94  1  0.049300  0.450700  0.827200  1.0  0.364
  H  H95  1  0.941200  0.441200  0.250100  1.0  0.3761
  H  H96  1  0.950700  0.450700  0.327200  1.0  0.3626
  H  H97  1  0.058800  0.558800  0.250100  1.0  0.375
  H  H98  1  0.049300  0.549300  0.327200  1.0  0.3639
  H  H99  1  0.441200  0.941200  0.750100  1.0  0.3761
  H  H100  1  0.450700  0.950700  0.827200  1.0  0.3626
  H  H101  1  0.558800  0.058800  0.750100  1.0  0.375
  H  H102  1  0.549300  0.049300  0.827200  1.0  0.3639
  H  H103  1  0.941200  0.558800  0.750100  1.0  0.3751
  H  H104  1  0.950700  0.549300  0.827200  1.0  0.3624
  C  C105  1  0.271300  0.093100  0.187300  1.0  0.6654
  C  C106  1  0.260700  0.093200  0.104000  1.0  -0.1635
  C  C107  1  0.283600  0.040540  0.062100  1.0  0.0003
  C  C108  1  0.270900  0.037110  0.985200  1.0  -0.1409
  C  C109  1  0.237400  0.087500  0.951300  1.0  0.0131
  C  C110  1  0.216000  0.141200  0.992100  1.0  -0.1823
  C  C111  1  0.226700  0.143400  0.069200  1.0  -0.0123
  C  C112  1  0.291400  0.978100  0.942400  1.0  0.6426
  C  C113  1  0.181100  0.196500  0.954500  1.0  0.6945
  C  C114  1  0.771300  0.593100  0.687300  1.0  0.6654
  C  C115  1  0.760700  0.593200  0.604000  1.0  -0.1635
  C  C116  1  0.783600  0.540540  0.562100  1.0  0.0003
  C  C117  1  0.770900  0.537110  0.485200  1.0  -0.1409
  C  C118  1  0.737400  0.587500  0.451300  1.0  0.0131
  C  C119  1  0.716000  0.641200  0.492100  1.0  -0.1823
  C  C120  1  0.726700  0.643400  0.569200  1.0  -0.0123
  C  C121  1  0.791400  0.478100  0.442400  1.0  0.6426
  C  C122  1  0.681100  0.696500  0.454500  1.0  0.6945
  C  C123  1  0.728700  0.906900  0.187300  1.0  0.6662
  C  C124  1  0.739300  0.906800  0.104000  1.0  -0.1648
  C  C125  1  0.716400  0.959460  0.062100  1.0  -0.0024
  C  C126  1  0.729100  0.962890  0.985200  1.0  -0.1402
  C  C127  1  0.762600  0.912500  0.951300  1.0  0.0111
  C  C128  1  0.784000  0.858800  0.992100  1.0  -0.1825
  C  C129  1  0.773300  0.856600  0.069200  1.0  -0.0118
  C  C130  1  0.708600  0.021900  0.942400  1.0  0.6428
  C  C131  1  0.818900  0.803500  0.954500  1.0  0.694
  C  C132  1  0.228700  0.406900  0.687300  1.0  0.6662
  C  C133  1  0.239300  0.406800  0.604000  1.0  -0.1648
  C  C134  1  0.216400  0.459460  0.562100  1.0  -0.0024
  C  C135  1  0.229100  0.462890  0.485200  1.0  -0.1402
  C  C136  1  0.262600  0.412500  0.451300  1.0  0.0111
  C  C137  1  0.284000  0.358800  0.492100  1.0  -0.1825
  C  C138  1  0.273300  0.356600  0.569200  1.0  -0.0118
  C  C139  1  0.208600  0.521900  0.442400  1.0  0.6428
  C  C140  1  0.318900  0.303500  0.454500  1.0  0.694
  C  C141  1  0.906900  0.271300  0.187300  1.0  0.6653
  C  C142  1  0.906800  0.260700  0.104000  1.0  -0.1642
  C  C143  1  0.959460  0.283600  0.062100  1.0  -0.0023
  C  C144  1  0.962890  0.270900  0.985200  1.0  -0.1405
  C  C145  1  0.912500  0.237400  0.951300  1.0  0.0117
  C  C146  1  0.858800  0.216000  0.992100  1.0  -0.1824
  C  C147  1  0.856600  0.226700  0.069200  1.0  -0.0158
  C  C148  1  0.021900  0.291400  0.942400  1.0  0.642
  C  C149  1  0.803500  0.181100  0.954500  1.0  0.6942
  C  C150  1  0.406900  0.771300  0.687300  1.0  0.6653
  C  C151  1  0.406800  0.760700  0.604000  1.0  -0.1642
  C  C152  1  0.459460  0.783600  0.562100  1.0  -0.0023
  C  C153  1  0.462890  0.770900  0.485200  1.0  -0.1405
  C  C154  1  0.412500  0.737400  0.451300  1.0  0.0117
  C  C155  1  0.358800  0.716000  0.492100  1.0  -0.1824
  C  C156  1  0.356600  0.726700  0.569200  1.0  -0.0158
  C  C157  1  0.521900  0.791400  0.442400  1.0  0.642
  C  C158  1  0.303500  0.681100  0.454500  1.0  0.6942
  C  C159  1  0.093100  0.728700  0.187300  1.0  0.6645
  C  C160  1  0.093200  0.739300  0.104000  1.0  -0.1637
  C  C161  1  0.040540  0.716400  0.062100  1.0  -0.002
  C  C162  1  0.037110  0.729100  0.985200  1.0  -0.1404
  C  C163  1  0.087500  0.762600  0.951300  1.0  0.0125
  C  C164  1  0.141200  0.784000  0.992100  1.0  -0.1805
  C  C165  1  0.143400  0.773300  0.069200  1.0  -0.0164
  C  C166  1  0.978100  0.708600  0.942400  1.0  0.6424
  C  C167  1  0.196500  0.818900  0.954500  1.0  0.6947
  C  C168  1  0.593100  0.228700  0.687300  1.0  0.6645
  C  C169  1  0.593200  0.239300  0.604000  1.0  -0.1637
  C  C170  1  0.540540  0.216400  0.562100  1.0  -0.002
  C  C171  1  0.537110  0.229100  0.485200  1.0  -0.1404
  C  C172  1  0.587500  0.262600  0.451300  1.0  0.0125
  C  C173  1  0.641200  0.284000  0.492100  1.0  -0.1805
  C  C174  1  0.643400  0.273300  0.569200  1.0  -0.0164
  C  C175  1  0.478100  0.208600  0.442400  1.0  0.6424
  C  C176  1  0.696500  0.318900  0.454500  1.0  0.6947
  C  C177  1  0.271300  0.906900  0.687300  1.0  0.6656
  C  C178  1  0.260700  0.906800  0.604000  1.0  -0.1641
  C  C179  1  0.283600  0.959460  0.562100  1.0  -0.0016
  C  C180  1  0.270900  0.962890  0.485200  1.0  -0.141
  C  C181  1  0.237400  0.912500  0.451300  1.0  0.0127
  C  C182  1  0.216000  0.858800  0.492100  1.0  -0.182
  C  C183  1  0.226700  0.856600  0.569200  1.0  -0.0112
  C  C184  1  0.291400  0.021900  0.442400  1.0  0.6428
  C  C185  1  0.181100  0.803500  0.454500  1.0  0.6943
  C  C186  1  0.771300  0.406900  0.187300  1.0  0.6656
  C  C187  1  0.760700  0.406800  0.104000  1.0  -0.1641
  C  C188  1  0.783600  0.459460  0.062100  1.0  -0.0016
  C  C189  1  0.770900  0.462890  0.985200  1.0  -0.141
  C  C190  1  0.737400  0.412500  0.951300  1.0  0.0127
  C  C191  1  0.716000  0.358800  0.992100  1.0  -0.182
  C  C192  1  0.726700  0.356600  0.069200  1.0  -0.0112
  C  C193  1  0.791400  0.521900  0.942400  1.0  0.6428
  C  C194  1  0.681100  0.303500  0.954500  1.0  0.6943
  C  C195  1  0.728700  0.093100  0.687300  1.0  0.6668
  C  C196  1  0.739300  0.093200  0.604000  1.0  -0.1645
  C  C197  1  0.716400  0.040540  0.562100  1.0  -0.0005
  C  C198  1  0.729100  0.037110  0.485200  1.0  -0.1402
  C  C199  1  0.762600  0.087500  0.451300  1.0  0.0116
  C  C200  1  0.784000  0.141200  0.492100  1.0  -0.1831
  C  C201  1  0.773300  0.143400  0.569200  1.0  -0.0129
  C  C202  1  0.708600  0.978100  0.442400  1.0  0.6427
  C  C203  1  0.818900  0.196500  0.454500  1.0  0.6942
  C  C204  1  0.228700  0.593100  0.187300  1.0  0.6668
  C  C205  1  0.239300  0.593200  0.104000  1.0  -0.1645
  C  C206  1  0.216400  0.540540  0.062100  1.0  -0.0005
  C  C207  1  0.229100  0.537110  0.985200  1.0  -0.1402
  C  C208  1  0.262600  0.587500  0.951300  1.0  0.0116
  C  C209  1  0.284000  0.641200  0.992100  1.0  -0.1831
  C  C210  1  0.273300  0.643400  0.069200  1.0  -0.0129
  C  C211  1  0.208600  0.478100  0.942400  1.0  0.6427
  C  C212  1  0.318900  0.696500  0.954500  1.0  0.6942
  C  C213  1  0.906900  0.728700  0.687300  1.0  0.6648
  C  C214  1  0.906800  0.739300  0.604000  1.0  -0.1646
  C  C215  1  0.959460  0.716400  0.562100  1.0  -0.0021
  C  C216  1  0.962890  0.729100  0.485200  1.0  -0.1406
  C  C217  1  0.912500  0.762600  0.451300  1.0  0.0111
  C  C218  1  0.858800  0.784000  0.492100  1.0  -0.1808
  C  C219  1  0.856600  0.773300  0.569200  1.0  -0.0162
  C  C220  1  0.021900  0.708600  0.442400  1.0  0.6415
  C  C221  1  0.803500  0.818900  0.454500  1.0  0.694
  C  C222  1  0.406900  0.228700  0.187300  1.0  0.6648
  C  C223  1  0.406800  0.239300  0.104000  1.0  -0.1646
  C  C224  1  0.459460  0.216400  0.062100  1.0  -0.0021
  C  C225  1  0.462890  0.229100  0.985200  1.0  -0.1406
  C  C226  1  0.412500  0.262600  0.951300  1.0  0.0111
  C  C227  1  0.358800  0.284000  0.992100  1.0  -0.1808
  C  C228  1  0.356600  0.273300  0.069200  1.0  -0.0162
  C  C229  1  0.521900  0.208600  0.942400  1.0  0.6415
  C  C230  1  0.303500  0.318900  0.954500  1.0  0.694
  C  C231  1  0.093100  0.271300  0.687300  1.0  0.6645
  C  C232  1  0.093200  0.260700  0.604000  1.0  -0.1631
  C  C233  1  0.040540  0.283600  0.562100  1.0  -0.0019
  C  C234  1  0.037110  0.270900  0.485200  1.0  -0.14
  C  C235  1  0.087500  0.237400  0.451300  1.0  0.0134
  C  C236  1  0.141200  0.216000  0.492100  1.0  -0.1818
  C  C237  1  0.143400  0.226700  0.569200  1.0  -0.0167
  C  C238  1  0.978100  0.291400  0.442400  1.0  0.6426
  C  C239  1  0.196500  0.181100  0.454500  1.0  0.6946
  C  C240  1  0.593100  0.771300  0.187300  1.0  0.6645
  C  C241  1  0.593200  0.760700  0.104000  1.0  -0.1631
  C  C242  1  0.540540  0.783600  0.062100  1.0  -0.0019
  C  C243  1  0.537110  0.770900  0.985200  1.0  -0.14
  C  C244  1  0.587500  0.737400  0.951300  1.0  0.0134
  C  C245  1  0.641200  0.716000  0.992100  1.0  -0.1818
  C  C246  1  0.643400  0.726700  0.069200  1.0  -0.0167
  C  C247  1  0.478100  0.791400  0.942400  1.0  0.6426
  C  C248  1  0.696500  0.681100  0.954500  1.0  0.6946
  O  O249  1  0.235200  0.129500  0.226900  1.0  -0.6116
  O  O250  1  0.312900  0.056200  0.214200  1.0  -0.6078
  O  O251  1  0.337070  0.945110  0.969200  1.0  -0.6364
  O  O252  1  0.257400  0.965300  0.884300  1.0  -0.6685
  O  O253  1  0.173300  0.191840  0.884380  1.0  -0.601
  O  O254  1  0.160300  0.242050  0.993910  1.0  -0.6369
  O  O255  1  0.735200  0.629500  0.726900  1.0  -0.6116
  O  O256  1  0.812900  0.556200  0.714200  1.0  -0.6078
  O  O257  1  0.837070  0.445110  0.469200  1.0  -0.6364
  O  O258  1  0.757400  0.465300  0.384300  1.0  -0.6685
  O  O259  1  0.673300  0.691840  0.384380  1.0  -0.601
  O  O260  1  0.660300  0.742050  0.493910  1.0  -0.6369
  O  O261  1  0.764800  0.870500  0.226900  1.0  -0.6117
  O  O262  1  0.687100  0.943800  0.214200  1.0  -0.6089
  O  O263  1  0.662930  0.054890  0.969200  1.0  -0.6368
  O  O264  1  0.742600  0.034700  0.884300  1.0  -0.668
  O  O265  1  0.826700  0.808160  0.884380  1.0  -0.6018
  O  O266  1  0.839700  0.757950  0.993910  1.0  -0.6362
  O  O267  1  0.264800  0.370500  0.726900  1.0  -0.6117
  O  O268  1  0.187100  0.443800  0.714200  1.0  -0.6089
  O  O269  1  0.162930  0.554890  0.469200  1.0  -0.6368
  O  O270  1  0.242600  0.534700  0.384300  1.0  -0.668
  O  O271  1  0.326700  0.308160  0.384380  1.0  -0.6018
  O  O272  1  0.339700  0.257950  0.493910  1.0  -0.6362
  O  O273  1  0.870500  0.235200  0.226900  1.0  -0.6094
  O  O274  1  0.943800  0.312900  0.214200  1.0  -0.612
  O  O275  1  0.054890  0.337070  0.969200  1.0  -0.6368
  O  O276  1  0.034700  0.257400  0.884300  1.0  -0.6708
  O  O277  1  0.808160  0.173300  0.884380  1.0  -0.6014
  O  O278  1  0.757950  0.160300  0.993910  1.0  -0.6349
  O  O279  1  0.370500  0.735200  0.726900  1.0  -0.6094
  O  O280  1  0.443800  0.812900  0.714200  1.0  -0.612
  O  O281  1  0.554890  0.837070  0.469200  1.0  -0.6368
  O  O282  1  0.534700  0.757400  0.384300  1.0  -0.6708
  O  O283  1  0.308160  0.673300  0.384380  1.0  -0.6014
  O  O284  1  0.257950  0.660300  0.493910  1.0  -0.6349
  O  O285  1  0.129500  0.764800  0.226900  1.0  -0.6091
  O  O286  1  0.056200  0.687100  0.214200  1.0  -0.6115
  O  O287  1  0.945110  0.662930  0.969200  1.0  -0.6363
  O  O288  1  0.965300  0.742600  0.884300  1.0  -0.6674
  O  O289  1  0.191840  0.826700  0.884380  1.0  -0.6023
  O  O290  1  0.242050  0.839700  0.993910  1.0  -0.6365
  O  O291  1  0.629500  0.264800  0.726900  1.0  -0.6091
  O  O292  1  0.556200  0.187100  0.714200  1.0  -0.6115
  O  O293  1  0.445110  0.162930  0.469200  1.0  -0.6363
  O  O294  1  0.465300  0.242600  0.384300  1.0  -0.6674
  O  O295  1  0.691840  0.326700  0.384380  1.0  -0.6023
  O  O296  1  0.742050  0.339700  0.493910  1.0  -0.6365
  O  O297  1  0.235200  0.870500  0.726900  1.0  -0.6122
  O  O298  1  0.312900  0.943800  0.714200  1.0  -0.6095
  O  O299  1  0.337070  0.054890  0.469200  1.0  -0.636
  O  O300  1  0.257400  0.034700  0.384300  1.0  -0.6695
  O  O301  1  0.173300  0.808160  0.384380  1.0  -0.6012
  O  O302  1  0.160300  0.757950  0.493910  1.0  -0.6367
  O  O303  1  0.735200  0.370500  0.226900  1.0  -0.6122
  O  O304  1  0.812900  0.443800  0.214200  1.0  -0.6095
  O  O305  1  0.837070  0.554890  0.969200  1.0  -0.636
  O  O306  1  0.757400  0.534700  0.884300  1.0  -0.6695
  O  O307  1  0.673300  0.308160  0.884380  1.0  -0.6012
  O  O308  1  0.660300  0.257950  0.993910  1.0  -0.6367
  O  O309  1  0.764800  0.129500  0.726900  1.0  -0.6129
  O  O310  1  0.687100  0.056200  0.714200  1.0  -0.6082
  O  O311  1  0.662930  0.945110  0.469200  1.0  -0.6372
  O  O312  1  0.742600  0.965300  0.384300  1.0  -0.6678
  O  O313  1  0.826700  0.191840  0.384380  1.0  -0.6012
  O  O314  1  0.839700  0.242050  0.493910  1.0  -0.636
  O  O315  1  0.264800  0.629500  0.226900  1.0  -0.6129
  O  O316  1  0.187100  0.556200  0.214200  1.0  -0.6082
  O  O317  1  0.162930  0.445110  0.969200  1.0  -0.6372
  O  O318  1  0.242600  0.465300  0.884300  1.0  -0.6678
  O  O319  1  0.326700  0.691840  0.884380  1.0  -0.6012
  O  O320  1  0.339700  0.742050  0.993910  1.0  -0.636
  O  O321  1  0.870500  0.764800  0.726900  1.0  -0.609
  O  O322  1  0.943800  0.687100  0.714200  1.0  -0.6115
  O  O323  1  0.054890  0.662930  0.469200  1.0  -0.6375
  O  O324  1  0.034700  0.742600  0.384300  1.0  -0.6689
  O  O325  1  0.808160  0.826700  0.384380  1.0  -0.601
  O  O326  1  0.757950  0.839700  0.493910  1.0  -0.6351
  O  O327  1  0.370500  0.264800  0.226900  1.0  -0.609
  O  O328  1  0.443800  0.187100  0.214200  1.0  -0.6115
  O  O329  1  0.554890  0.162930  0.969200  1.0  -0.6375
  O  O330  1  0.534700  0.242600  0.884300  1.0  -0.6689
  O  O331  1  0.308160  0.326700  0.884380  1.0  -0.601
  O  O332  1  0.257950  0.339700  0.993910  1.0  -0.6351
  O  O333  1  0.129500  0.235200  0.726900  1.0  -0.6098
  O  O334  1  0.056200  0.312900  0.714200  1.0  -0.612
  O  O335  1  0.945110  0.337070  0.469200  1.0  -0.6354
  O  O336  1  0.965300  0.257400  0.384300  1.0  -0.6699
  O  O337  1  0.191840  0.173300  0.384380  1.0  -0.6019
  O  O338  1  0.242050  0.160300  0.493910  1.0  -0.6358
  O  O339  1  0.629500  0.735200  0.226900  1.0  -0.6098
  O  O340  1  0.556200  0.812900  0.214200  1.0  -0.612
  O  O341  1  0.445110  0.837070  0.969200  1.0  -0.6354
  O  O342  1  0.465300  0.757400  0.884300  1.0  -0.6699
  O  O343  1  0.691840  0.673300  0.884380  1.0  -0.6019
  O  O344  1  0.742050  0.660300  0.993910  1.0  -0.6358
  O  O345  1  0.339560  0.160440  0.360100  1.0  -0.9209
  O  O346  1  0.430300  0.069700  0.293800  1.0  -0.7663
  O  O347  1  0.660440  0.839560  0.360100  1.0  -0.9228
  O  O348  1  0.569700  0.930300  0.293800  1.0  -0.77
  O  O349  1  0.160440  0.339560  0.860100  1.0  -0.9228
  O  O350  1  0.069700  0.430300  0.793800  1.0  -0.77
  O  O351  1  0.839560  0.339560  0.360100  1.0  -0.9206
  O  O352  1  0.930300  0.430300  0.293800  1.0  -0.768
  O  O353  1  0.160440  0.660440  0.360100  1.0  -0.9232
  O  O354  1  0.069700  0.569700  0.293800  1.0  -0.7695
  O  O355  1  0.339560  0.839560  0.860100  1.0  -0.9206
  O  O356  1  0.430300  0.930300  0.793800  1.0  -0.768
  O  O357  1  0.660440  0.160440  0.860100  1.0  -0.9232
  O  O358  1  0.569700  0.069700  0.793800  1.0  -0.7695
  O  O359  1  0.839560  0.660440  0.860100  1.0  -0.9209
  O  O360  1  0.930300  0.569700  0.793800  1.0  -0.7663
