# generated using pymatgen
data_FeHgC4(SN)4
_symmetry_space_group_name_H-M   'P 1'
_cell_length_a   9.18900000
_cell_length_b   14.10360000
_cell_length_c   18.35180000
_cell_angle_alpha   90.00000000
_cell_angle_beta   117.15700000
_cell_angle_gamma   90.00000000
_symmetry_Int_Tables_number   1
_chemical_formula_structural   FeHgC4(SN)4
_chemical_formula_sum   'Fe4 Hg4 C16 S16 N16'
_cell_volume   2116.16425555
_cell_formula_units_Z   4
loop_
 _symmetry_equiv_pos_site_id
 _symmetry_equiv_pos_as_xyz
  1  'x, y, z'
loop_
 _atom_site_type_symbol
 _atom_site_label
 _atom_site_symmetry_multiplicity
 _atom_site_fract_x
 _atom_site_fract_y
 _atom_site_fract_z
 _atom_site_occupancy
 _atom_site_charge
  Fe  Fe1  1  0.231510  0.651500  0.752980  1.0  0.9627
  Fe  Fe2  1  0.768490  0.151500  0.747020  1.0  0.9642
  Fe  Fe3  1  0.768490  0.348500  0.247020  1.0  0.9638
  Fe  Fe4  1  0.231510  0.848500  0.252980  1.0  0.9645
  Hg  Hg5  1  0.563520  0.798100  0.580860  1.0  0.433
  Hg  Hg6  1  0.436480  0.298100  0.919140  1.0  0.4328
  Hg  Hg7  1  0.436480  0.201900  0.419140  1.0  0.4328
  Hg  Hg8  1  0.563520  0.701900  0.080860  1.0  0.4329
  C  C9  1  0.460100  0.712000  0.408000  1.0  0.366
  C  C10  1  0.251300  0.783100  0.610900  1.0  0.3834
  C  C11  1  0.736800  0.998600  0.607100  1.0  0.3811
  C  C12  1  0.891200  0.740900  0.739000  1.0  0.3609
  C  C13  1  0.539900  0.212000  0.092000  1.0  0.3659
  C  C14  1  0.748700  0.283100  0.889100  1.0  0.3816
  C  C15  1  0.263200  0.498600  0.892900  1.0  0.381
  C  C16  1  0.108800  0.240900  0.761000  1.0  0.3599
  C  C17  1  0.539900  0.288000  0.592000  1.0  0.3676
  C  C18  1  0.748700  0.216900  0.389100  1.0  0.3819
  C  C19  1  0.263200  0.001400  0.392900  1.0  0.3808
  C  C20  1  0.108800  0.259100  0.261000  1.0  0.36
  C  C21  1  0.460100  0.788000  0.908000  1.0  0.3673
  C  C22  1  0.251300  0.716900  0.110900  1.0  0.3834
  C  C23  1  0.736800  0.501400  0.107100  1.0  0.3806
  C  C24  1  0.891200  0.759100  0.239000  1.0  0.3608
  S  S25  1  0.711290  0.771870  0.732550  1.0  -0.2446
  S  S26  1  0.271260  0.843790  0.538800  1.0  -0.2125
  S  S27  1  0.720100  0.915030  0.539630  1.0  -0.2256
  S  S28  1  0.558480  0.652720  0.494240  1.0  -0.2475
  S  S29  1  0.288710  0.271870  0.767450  1.0  -0.244
  S  S30  1  0.728740  0.343790  0.961200  1.0  -0.2137
  S  S31  1  0.279900  0.415030  0.960370  1.0  -0.2273
  S  S32  1  0.441520  0.152720  0.005760  1.0  -0.2473
  S  S33  1  0.288710  0.228130  0.267450  1.0  -0.2439
  S  S34  1  0.728740  0.156210  0.461200  1.0  -0.2137
  S  S35  1  0.279900  0.084970  0.460370  1.0  -0.2269
  S  S36  1  0.441520  0.347280  0.505760  1.0  -0.2466
  S  S37  1  0.711290  0.728130  0.232550  1.0  -0.2444
  S  S38  1  0.271260  0.656210  0.038800  1.0  -0.2128
  S  S39  1  0.720100  0.584970  0.039630  1.0  -0.2255
  S  S40  1  0.558480  0.847280  0.994240  1.0  -0.2465
  N  N41  1  0.389400  0.753000  0.347800  1.0  -0.519
  N  N42  1  0.751700  0.055500  0.652900  1.0  -0.4894
  N  N43  1  0.233900  0.741600  0.660200  1.0  -0.5122
  N  N44  1  0.015500  0.717600  0.746600  1.0  -0.4361
  N  N45  1  0.610600  0.253000  0.152200  1.0  -0.5168
  N  N46  1  0.248300  0.555500  0.847100  1.0  -0.4908
  N  N47  1  0.766100  0.241600  0.839800  1.0  -0.5117
  N  N48  1  0.984500  0.217600  0.753400  1.0  -0.4375
  N  N49  1  0.610600  0.247000  0.652200  1.0  -0.5175
  N  N50  1  0.248300  0.944500  0.347100  1.0  -0.4892
  N  N51  1  0.766100  0.258400  0.339800  1.0  -0.5121
  N  N52  1  0.984500  0.282400  0.253400  1.0  -0.4375
  N  N53  1  0.389400  0.747000  0.847800  1.0  -0.5195
  N  N54  1  0.751700  0.444500  0.152900  1.0  -0.4882
  N  N55  1  0.233900  0.758400  0.160200  1.0  -0.5126
  N  N56  1  0.015500  0.782400  0.246600  1.0  -0.4361
