# generated using pymatgen
data_CuH10C10NO4
_symmetry_space_group_name_H-M   'P 1'
_cell_length_a   8.52120000
_cell_length_b   12.48030000
_cell_length_c   12.48030000
_cell_angle_alpha   116.20100000
_cell_angle_beta   98.74300000
_cell_angle_gamma   81.25700000
_symmetry_Int_Tables_number   1
_chemical_formula_structural   CuH10C10NO4
_chemical_formula_sum   'Cu4 H40 C40 N4 O16'
_cell_volume   1171.62784285
_cell_formula_units_Z   4
loop_
 _symmetry_equiv_pos_site_id
 _symmetry_equiv_pos_as_xyz
  1  'x, y, z'
loop_
 _atom_site_type_symbol
 _atom_site_label
 _atom_site_symmetry_multiplicity
 _atom_site_fract_x
 _atom_site_fract_y
 _atom_site_fract_z
 _atom_site_occupancy
 _atom_site_charge
  Cu  Cu1  1  0.924700  0.596760  0.991600  1.0  0.8356
  Cu  Cu2  1  0.575300  0.991600  0.596760  1.0  0.8357
  Cu  Cu3  1  0.075300  0.403240  0.008400  1.0  0.8368
  Cu  Cu4  1  0.424700  0.008400  0.403240  1.0  0.8353
  H  H5  1  0.748500  0.265200  0.655200  1.0  0.1241
  H  H6  1  0.804800  0.356300  0.613700  1.0  0.118
  H  H7  1  0.051100  0.239900  0.568300  1.0  0.074
  H  H8  1  0.005800  0.152000  0.619000  1.0  0.0735
  H  H9  1  0.962000  0.060700  0.407700  1.0  0.1256
  H  H10  1  0.848000  0.175600  0.408800  1.0  0.1096
  H  H11  1  0.827200  0.857500  0.161100  1.0  0.086
  H  H12  1  0.650000  0.020500  0.171900  1.0  0.1194
  H  H13  1  0.500500  0.833500  0.823700  1.0  0.1301
  H  H14  1  0.680200  0.675400  0.823000  1.0  0.0821
  H  H15  1  0.751500  0.655200  0.265200  1.0  0.1254
  H  H16  1  0.695200  0.613700  0.356300  1.0  0.1189
  H  H17  1  0.448900  0.568300  0.239900  1.0  0.0735
  H  H18  1  0.494200  0.619000  0.152000  1.0  0.0737
  H  H19  1  0.538000  0.407700  0.060700  1.0  0.1265
  H  H20  1  0.652000  0.408800  0.175600  1.0  0.1107
  H  H21  1  0.672800  0.161100  0.857500  1.0  0.086
  H  H22  1  0.850000  0.171900  0.020500  1.0  0.1205
  H  H23  1  0.999500  0.823700  0.833500  1.0  0.1305
  H  H24  1  0.819800  0.823000  0.675400  1.0  0.0815
  H  H25  1  0.251500  0.734800  0.344800  1.0  0.1258
  H  H26  1  0.195200  0.643700  0.386300  1.0  0.1198
  H  H27  1  0.948900  0.760100  0.431700  1.0  0.0736
  H  H28  1  0.994200  0.848000  0.381000  1.0  0.0741
  H  H29  1  0.038000  0.939300  0.592300  1.0  0.1253
  H  H30  1  0.152000  0.824400  0.591200  1.0  0.1094
  H  H31  1  0.172800  0.142500  0.838900  1.0  0.0859
  H  H32  1  0.350000  0.979500  0.828100  1.0  0.1194
  H  H33  1  0.499500  0.166500  0.176300  1.0  0.1308
  H  H34  1  0.319800  0.324600  0.177000  1.0  0.0819
  H  H35  1  0.248500  0.344800  0.734800  1.0  0.1242
  H  H36  1  0.304800  0.386300  0.643700  1.0  0.1184
  H  H37  1  0.551100  0.431700  0.760100  1.0  0.0744
  H  H38  1  0.505800  0.381000  0.848000  1.0  0.0741
  H  H39  1  0.462000  0.592300  0.939300  1.0  0.126
  H  H40  1  0.348000  0.591200  0.824400  1.0  0.1098
  H  H41  1  0.327200  0.838900  0.142500  1.0  0.0857
  H  H42  1  0.150000  0.828100  0.979500  1.0  0.1205
  H  H43  1  0.000500  0.176300  0.166500  1.0  0.1315
  H  H44  1  0.180200  0.177000  0.324600  1.0  0.082
  C  C45  1  0.906300  0.377310  0.781290  1.0  0.7109
  C  C46  1  0.842200  0.302420  0.653380  1.0  -0.3428
  C  C47  1  0.961600  0.203310  0.577490  1.0  -0.0136
  C  C48  1  0.882700  0.125690  0.453110  1.0  -0.3347
  C  C49  1  0.740300  0.071040  0.460720  1.0  0.702
  C  C50  1  0.760200  0.852550  0.091250  1.0  0.1719
  C  C51  1  0.654700  0.950570  0.098030  1.0  -0.1787
  C  C52  1  0.556000  0.947760  0.998240  1.0  0.0857
  C  C53  1  0.567000  0.841400  0.894600  1.0  -0.2028
  C  C54  1  0.674800  0.747300  0.895100  1.0  0.1611
  C  C55  1  0.593700  0.781290  0.377310  1.0  0.7096
  C  C56  1  0.657800  0.653380  0.302420  1.0  -0.3448
  C  C57  1  0.538400  0.577490  0.203310  1.0  -0.0153
  C  C58  1  0.617300  0.453110  0.125690  1.0  -0.3345
  C  C59  1  0.759700  0.460720  0.071040  1.0  0.7048
  C  C60  1  0.739800  0.091250  0.852550  1.0  0.1717
  C  C61  1  0.845300  0.098030  0.950570  1.0  -0.1812
  C  C62  1  0.944000  0.998240  0.947760  1.0  0.0855
  C  C63  1  0.933000  0.894600  0.841400  1.0  -0.2071
  C  C64  1  0.825200  0.895100  0.747300  1.0  0.1616
  C  C65  1  0.093700  0.622690  0.218710  1.0  0.7117
  C  C66  1  0.157800  0.697580  0.346620  1.0  -0.3417
  C  C67  1  0.038400  0.796690  0.422510  1.0  -0.0147
  C  C68  1  0.117300  0.874310  0.546890  1.0  -0.335
  C  C69  1  0.259700  0.928960  0.539280  1.0  0.7029
  C  C70  1  0.239800  0.147450  0.908750  1.0  0.1717
  C  C71  1  0.345300  0.049430  0.901970  1.0  -0.1787
  C  C72  1  0.444000  0.052240  0.001760  1.0  0.0856
  C  C73  1  0.433000  0.158600  0.105400  1.0  -0.1977
  C  C74  1  0.325200  0.252700  0.104900  1.0  0.1633
  C  C75  1  0.406300  0.218710  0.622690  1.0  0.7104
  C  C76  1  0.342200  0.346620  0.697580  1.0  -0.3452
  C  C77  1  0.461600  0.422510  0.796690  1.0  -0.015
  C  C78  1  0.382700  0.546890  0.874310  1.0  -0.3328
  C  C79  1  0.240300  0.539280  0.928960  1.0  0.7022
  C  C80  1  0.260200  0.908750  0.147450  1.0  0.1719
  C  C81  1  0.154700  0.901970  0.049430  1.0  -0.1812
  C  C82  1  0.056000  0.001760  0.052240  1.0  0.0857
  C  C83  1  0.067000  0.105400  0.158600  1.0  -0.2028
  C  C84  1  0.174800  0.104900  0.252700  1.0  0.1638
  N  N85  1  0.772000  0.751380  0.991020  1.0  -0.3258
  N  N86  1  0.728000  0.991020  0.751380  1.0  -0.3278
  N  N87  1  0.228000  0.248620  0.008980  1.0  -0.3257
  N  N88  1  0.272000  0.008980  0.248620  1.0  -0.3278
  O  O89  1  0.867300  0.488850  0.822670  1.0  -0.5811
  O  O90  1  0.989500  0.324320  0.838580  1.0  -0.5751
  O  O91  1  0.749600  0.038260  0.543540  1.0  -0.575
  O  O92  1  0.621000  0.062680  0.384800  1.0  -0.5797
  O  O93  1  0.632700  0.822670  0.488850  1.0  -0.5836
  O  O94  1  0.510500  0.838580  0.324320  1.0  -0.5765
  O  O95  1  0.750400  0.543540  0.038260  1.0  -0.5752
  O  O96  1  0.879000  0.384800  0.062680  1.0  -0.5804
  O  O97  1  0.132700  0.511150  0.177330  1.0  -0.5808
  O  O98  1  0.010500  0.675680  0.161420  1.0  -0.5755
  O  O99  1  0.250400  0.961740  0.456460  1.0  -0.5755
  O  O100  1  0.379000  0.937320  0.615200  1.0  -0.5794
  O  O101  1  0.367300  0.177330  0.511150  1.0  -0.5833
  O  O102  1  0.489500  0.161420  0.675680  1.0  -0.5754
  O  O103  1  0.249600  0.456460  0.961740  1.0  -0.5751
  O  O104  1  0.121000  0.615200  0.937320  1.0  -0.5806
