# generated using pymatgen
data_CuH10C10NO4
_symmetry_space_group_name_H-M   'P 1'
_cell_length_a   8.56990000
_cell_length_b   12.53470000
_cell_length_c   12.53470000
_cell_angle_alpha   116.78900000
_cell_angle_beta   99.35840000
_cell_angle_gamma   80.64160000
_symmetry_Int_Tables_number   1
_chemical_formula_structural   CuH10C10NO4
_chemical_formula_sum   'Cu4 H40 C40 N4 O16'
_cell_volume   1179.86413853
_cell_formula_units_Z   4
loop_
 _symmetry_equiv_pos_site_id
 _symmetry_equiv_pos_as_xyz
  1  'x, y, z'
loop_
 _atom_site_type_symbol
 _atom_site_label
 _atom_site_symmetry_multiplicity
 _atom_site_fract_x
 _atom_site_fract_y
 _atom_site_fract_z
 _atom_site_occupancy
 _atom_site_charge
  Cu  Cu1  1  0.924320  0.596740  0.992380  1.0  0.8357
  Cu  Cu2  1  0.575680  0.992380  0.596740  1.0  0.8355
  Cu  Cu3  1  0.075680  0.403260  0.007620  1.0  0.8364
  Cu  Cu4  1  0.424320  0.007620  0.403260  1.0  0.8357
  H  H5  1  0.747800  0.266600  0.655000  1.0  0.1288
  H  H6  1  0.804900  0.355600  0.613200  1.0  0.1169
  H  H7  1  0.047600  0.236500  0.567300  1.0  0.0723
  H  H8  1  0.003000  0.151100  0.619500  1.0  0.0701
  H  H9  1  0.958800  0.056700  0.407900  1.0  0.1206
  H  H10  1  0.843900  0.170900  0.407900  1.0  0.1122
  H  H11  1  0.823600  0.857700  0.163100  1.0  0.0819
  H  H12  1  0.647900  0.021500  0.172700  1.0  0.1201
  H  H13  1  0.504400  0.833900  0.823900  1.0  0.1331
  H  H14  1  0.682500  0.675000  0.825000  1.0  0.082
  H  H15  1  0.752200  0.655000  0.266600  1.0  0.1314
  H  H16  1  0.695100  0.613200  0.355600  1.0  0.1174
  H  H17  1  0.452400  0.567300  0.236500  1.0  0.0731
  H  H18  1  0.497000  0.619500  0.151100  1.0  0.0704
  H  H19  1  0.541200  0.407900  0.056700  1.0  0.1223
  H  H20  1  0.656100  0.407900  0.170900  1.0  0.1134
  H  H21  1  0.676400  0.163100  0.857700  1.0  0.0819
  H  H22  1  0.852100  0.172700  0.021500  1.0  0.1214
  H  H23  1  0.995600  0.823900  0.833900  1.0  0.133
  H  H24  1  0.817500  0.825000  0.675000  1.0  0.082
  H  H25  1  0.252200  0.733400  0.345000  1.0  0.1311
  H  H26  1  0.195100  0.644400  0.386800  1.0  0.1178
  H  H27  1  0.952400  0.763500  0.432700  1.0  0.0722
  H  H28  1  0.997000  0.848900  0.380500  1.0  0.071
  H  H29  1  0.041200  0.943300  0.592100  1.0  0.1198
  H  H30  1  0.156100  0.829100  0.592100  1.0  0.1129
  H  H31  1  0.176400  0.142300  0.836900  1.0  0.0821
  H  H32  1  0.352100  0.978500  0.827300  1.0  0.1196
  H  H33  1  0.495600  0.166100  0.176100  1.0  0.1326
  H  H34  1  0.317500  0.325000  0.175000  1.0  0.082
  H  H35  1  0.247800  0.345000  0.733400  1.0  0.1295
  H  H36  1  0.304900  0.386800  0.644400  1.0  0.1169
  H  H37  1  0.547600  0.432700  0.763500  1.0  0.0732
  H  H38  1  0.503000  0.380500  0.848900  1.0  0.07
  H  H39  1  0.458800  0.592100  0.943300  1.0  0.1209
  H  H40  1  0.343900  0.592100  0.829100  1.0  0.113
  H  H41  1  0.323600  0.836900  0.142300  1.0  0.082
  H  H42  1  0.147900  0.827300  0.978500  1.0  0.1205
  H  H43  1  0.004400  0.176100  0.166100  1.0  0.1333
  H  H44  1  0.182500  0.175000  0.325000  1.0  0.082
  C  C45  1  0.905900  0.377540  0.780460  1.0  0.7108
  C  C46  1  0.841700  0.302180  0.653020  1.0  -0.3409
  C  C47  1  0.958600  0.201420  0.577180  1.0  -0.0133
  C  C48  1  0.879600  0.122170  0.453030  1.0  -0.3369
  C  C49  1  0.738600  0.068390  0.461210  1.0  0.7003
  C  C50  1  0.758100  0.852670  0.092530  1.0  0.1746
  C  C51  1  0.653100  0.951000  0.098800  1.0  -0.1822
  C  C52  1  0.556000  0.947420  0.998580  1.0  0.0851
  C  C53  1  0.569000  0.841920  0.895680  1.0  -0.202
  C  C54  1  0.676700  0.747320  0.897080  1.0  0.1609
  C  C55  1  0.594100  0.780460  0.377540  1.0  0.7096
  C  C56  1  0.658300  0.653020  0.302180  1.0  -0.3409
  C  C57  1  0.541400  0.577180  0.201420  1.0  -0.0144
  C  C58  1  0.620400  0.453030  0.122170  1.0  -0.3367
  C  C59  1  0.761400  0.461210  0.068390  1.0  0.7032
  C  C60  1  0.741900  0.092530  0.852670  1.0  0.1744
  C  C61  1  0.846900  0.098800  0.951000  1.0  -0.185
  C  C62  1  0.944000  0.998580  0.947420  1.0  0.0843
  C  C63  1  0.931000  0.895680  0.841920  1.0  -0.2054
  C  C64  1  0.823300  0.897080  0.747320  1.0  0.1624
  C  C65  1  0.094100  0.622460  0.219540  1.0  0.7117
  C  C66  1  0.158300  0.697820  0.346980  1.0  -0.3388
  C  C67  1  0.041400  0.798580  0.422820  1.0  -0.0137
  C  C68  1  0.120400  0.877830  0.546970  1.0  -0.338
  C  C69  1  0.261400  0.931610  0.538790  1.0  0.7014
  C  C70  1  0.241900  0.147330  0.907470  1.0  0.1745
  C  C71  1  0.346900  0.049000  0.901200  1.0  -0.1826
  C  C72  1  0.444000  0.052580  0.001420  1.0  0.0851
  C  C73  1  0.431000  0.158080  0.104320  1.0  -0.2024
  C  C74  1  0.323300  0.252680  0.102920  1.0  0.1623
  C  C75  1  0.405900  0.219540  0.622460  1.0  0.7095
  C  C76  1  0.341700  0.346980  0.697820  1.0  -0.3441
  C  C77  1  0.458600  0.422820  0.798580  1.0  -0.0137
  C  C78  1  0.379600  0.546970  0.877830  1.0  -0.3352
  C  C79  1  0.238600  0.538790  0.931610  1.0  0.7002
  C  C80  1  0.258100  0.907470  0.147330  1.0  0.1746
  C  C81  1  0.153100  0.901200  0.049000  1.0  -0.1844
  C  C82  1  0.056000  0.001420  0.052580  1.0  0.0845
  C  C83  1  0.069000  0.104320  0.158080  1.0  -0.2066
  C  C84  1  0.176700  0.102920  0.252680  1.0  0.1632
  N  N85  1  0.771700  0.751880  0.992720  1.0  -0.3233
  N  N86  1  0.728300  0.992720  0.751880  1.0  -0.3267
  N  N87  1  0.228300  0.248120  0.007280  1.0  -0.3234
  N  N88  1  0.271700  0.007280  0.248120  1.0  -0.3255
  O  O89  1  0.865400  0.488390  0.823070  1.0  -0.5791
  O  O90  1  0.990900  0.324270  0.836950  1.0  -0.5773
  O  O91  1  0.748800  0.038380  0.545040  1.0  -0.5722
  O  O92  1  0.619900  0.058700  0.384740  1.0  -0.576
  O  O93  1  0.634600  0.823070  0.488390  1.0  -0.5791
  O  O94  1  0.509100  0.836950  0.324270  1.0  -0.5788
  O  O95  1  0.751200  0.545040  0.038380  1.0  -0.5735
  O  O96  1  0.880100  0.384740  0.058700  1.0  -0.5776
  O  O97  1  0.134600  0.511610  0.176930  1.0  -0.5782
  O  O98  1  0.009100  0.675730  0.163050  1.0  -0.5778
  O  O99  1  0.251200  0.961620  0.454960  1.0  -0.5733
  O  O100  1  0.380100  0.941300  0.615260  1.0  -0.5763
  O  O101  1  0.365400  0.176930  0.511610  1.0  -0.5802
  O  O102  1  0.490900  0.163050  0.675730  1.0  -0.5777
  O  O103  1  0.248800  0.454960  0.961620  1.0  -0.573
  O  O104  1  0.119900  0.615260  0.941300  1.0  -0.5765
