# generated using pymatgen
data_CuH12C11NO4
_symmetry_space_group_name_H-M   'P 1'
_cell_length_a   23.91100000
_cell_length_b   11.86850000
_cell_length_c   9.20630000
_cell_angle_alpha   90.00000000
_cell_angle_beta   90.35000000
_cell_angle_gamma   90.00000000
_symmetry_Int_Tables_number   1
_chemical_formula_structural   CuH12C11NO4
_chemical_formula_sum   'Cu8 H96 C88 N8 O32'
_cell_volume   2612.58598882
_cell_formula_units_Z   8
loop_
 _symmetry_equiv_pos_site_id
 _symmetry_equiv_pos_as_xyz
  1  'x, y, z'
loop_
 _atom_site_type_symbol
 _atom_site_label
 _atom_site_symmetry_multiplicity
 _atom_site_fract_x
 _atom_site_fract_y
 _atom_site_fract_z
 _atom_site_occupancy
 _atom_site_charge
  Cu  Cu1  1  0.204990  0.227690  0.421460  1.0  0.8221
  Cu  Cu2  1  0.704990  0.727690  0.421460  1.0  0.8221
  Cu  Cu3  1  0.795010  0.227690  0.078540  1.0  0.8218
  Cu  Cu4  1  0.295010  0.727690  0.078540  1.0  0.8218
  Cu  Cu5  1  0.795010  0.772310  0.578540  1.0  0.8219
  Cu  Cu6  1  0.295010  0.272310  0.578540  1.0  0.8219
  Cu  Cu7  1  0.204990  0.772310  0.921460  1.0  0.8221
  Cu  Cu8  1  0.704990  0.272310  0.921460  1.0  0.8221
  H  H9  1  0.289300  0.891500  0.423800  1.0  0.1362
  H  H10  1  0.258500  0.883400  0.576700  1.0  0.1206
  H  H11  1  0.350900  0.930300  0.684500  1.0  0.108
  H  H12  1  0.375600  0.898400  0.528800  1.0  0.1011
  H  H13  1  0.328400  0.712700  0.559000  1.0  0.1095
  H  H14  1  0.383200  0.732500  0.657100  1.0  0.1097
  H  H15  1  0.173900  0.017000  0.247900  1.0  0.0859
  H  H16  1  0.111900  0.950300  0.075500  1.0  0.1307
  H  H17  1  0.026700  0.242900  0.105400  1.0  0.1296
  H  H18  1  0.092100  0.303300  0.273900  1.0  0.0921
  H  H19  1  0.038600  0.010400  0.881300  1.0  0.1009
  H  H20  1  0.995800  0.107500  0.928100  1.0  0.1076
  H  H21  1  0.789300  0.391500  0.423800  1.0  0.1362
  H  H22  1  0.758500  0.383400  0.576700  1.0  0.1206
  H  H23  1  0.850900  0.430300  0.684500  1.0  0.108
  H  H24  1  0.875600  0.398400  0.528800  1.0  0.1011
  H  H25  1  0.828400  0.212700  0.559000  1.0  0.1095
  H  H26  1  0.883200  0.232500  0.657100  1.0  0.1097
  H  H27  1  0.673900  0.517000  0.247900  1.0  0.0859
  H  H28  1  0.611900  0.450300  0.075500  1.0  0.1307
  H  H29  1  0.526700  0.742900  0.105400  1.0  0.1296
  H  H30  1  0.592100  0.803300  0.273900  1.0  0.0921
  H  H31  1  0.538600  0.510400  0.881300  1.0  0.1009
  H  H32  1  0.495800  0.607500  0.928100  1.0  0.1076
  H  H33  1  0.710700  0.891500  0.076200  1.0  0.135
  H  H34  1  0.741500  0.883400  0.923300  1.0  0.1217
  H  H35  1  0.649100  0.930300  0.815500  1.0  0.109
  H  H36  1  0.624400  0.898400  0.971200  1.0  0.1011
  H  H37  1  0.671600  0.712700  0.941000  1.0  0.1095
  H  H38  1  0.616800  0.732500  0.842900  1.0  0.1086
  H  H39  1  0.826100  0.017000  0.252100  1.0  0.0859
  H  H40  1  0.888100  0.950300  0.424500  1.0  0.1305
  H  H41  1  0.973300  0.242900  0.394600  1.0  0.1294
  H  H42  1  0.907900  0.303300  0.226100  1.0  0.0922
  H  H43  1  0.961400  0.010400  0.618700  1.0  0.1003
  H  H44  1  0.004200  0.107500  0.571900  1.0  0.1067
  H  H45  1  0.210700  0.391500  0.076200  1.0  0.135
  H  H46  1  0.241500  0.383400  0.923300  1.0  0.1217
  H  H47  1  0.149100  0.430300  0.815500  1.0  0.109
  H  H48  1  0.124400  0.398400  0.971200  1.0  0.1011
  H  H49  1  0.171600  0.212700  0.941000  1.0  0.1095
  H  H50  1  0.116800  0.232500  0.842900  1.0  0.1086
  H  H51  1  0.326100  0.517000  0.252100  1.0  0.0859
  H  H52  1  0.388100  0.450300  0.424500  1.0  0.1305
  H  H53  1  0.473300  0.742900  0.394600  1.0  0.1294
  H  H54  1  0.407900  0.803300  0.226100  1.0  0.0922
  H  H55  1  0.461400  0.510400  0.618700  1.0  0.1003
  H  H56  1  0.504200  0.607500  0.571900  1.0  0.1067
  H  H57  1  0.710700  0.108500  0.576200  1.0  0.1353
  H  H58  1  0.741500  0.116600  0.423300  1.0  0.1213
  H  H59  1  0.649100  0.069700  0.315500  1.0  0.1088
  H  H60  1  0.624400  0.101600  0.471200  1.0  0.1015
  H  H61  1  0.671600  0.287300  0.441000  1.0  0.1087
  H  H62  1  0.616800  0.267500  0.342900  1.0  0.1083
  H  H63  1  0.826100  0.983000  0.752100  1.0  0.0863
  H  H64  1  0.888100  0.049700  0.924500  1.0  0.1303
  H  H65  1  0.973300  0.757100  0.894600  1.0  0.1295
  H  H66  1  0.907900  0.696700  0.726100  1.0  0.0925
  H  H67  1  0.961400  0.989600  0.118700  1.0  0.1001
  H  H68  1  0.004200  0.892500  0.071900  1.0  0.1078
  H  H69  1  0.210700  0.608500  0.576200  1.0  0.1353
  H  H70  1  0.241500  0.616600  0.423300  1.0  0.1213
  H  H71  1  0.149100  0.569700  0.315500  1.0  0.1088
  H  H72  1  0.124400  0.601600  0.471200  1.0  0.1015
  H  H73  1  0.171600  0.787300  0.441000  1.0  0.1087
  H  H74  1  0.116800  0.767500  0.342900  1.0  0.1083
  H  H75  1  0.326100  0.483000  0.752100  1.0  0.0863
  H  H76  1  0.388100  0.549700  0.924500  1.0  0.1303
  H  H77  1  0.473300  0.257100  0.894600  1.0  0.1295
  H  H78  1  0.407900  0.196700  0.726100  1.0  0.0925
  H  H79  1  0.461400  0.489600  0.118700  1.0  0.1001
  H  H80  1  0.504200  0.392500  0.071900  1.0  0.1078
  H  H81  1  0.289300  0.108500  0.923800  1.0  0.1356
  H  H82  1  0.258500  0.116600  0.076700  1.0  0.1205
  H  H83  1  0.350900  0.069700  0.184500  1.0  0.1082
  H  H84  1  0.375600  0.101600  0.028800  1.0  0.1004
  H  H85  1  0.328400  0.287300  0.059000  1.0  0.1091
  H  H86  1  0.383200  0.267500  0.157100  1.0  0.1099
  H  H87  1  0.173900  0.983000  0.747900  1.0  0.0858
  H  H88  1  0.111900  0.049700  0.575500  1.0  0.1306
  H  H89  1  0.026700  0.757100  0.605400  1.0  0.1292
  H  H90  1  0.092100  0.696700  0.773900  1.0  0.0932
  H  H91  1  0.038600  0.989600  0.381300  1.0  0.1004
  H  H92  1  0.995800  0.892500  0.428100  1.0  0.1074
  H  H93  1  0.789300  0.608500  0.923800  1.0  0.1356
  H  H94  1  0.758500  0.616600  0.076700  1.0  0.1205
  H  H95  1  0.850900  0.569700  0.184500  1.0  0.1082
  H  H96  1  0.875600  0.601600  0.028800  1.0  0.1004
  H  H97  1  0.828400  0.787300  0.059000  1.0  0.1091
  H  H98  1  0.883200  0.767500  0.157100  1.0  0.1099
  H  H99  1  0.673900  0.483000  0.747900  1.0  0.0858
  H  H100  1  0.611900  0.549700  0.575500  1.0  0.1306
  H  H101  1  0.526700  0.257100  0.605400  1.0  0.1292
  H  H102  1  0.592100  0.196700  0.773900  1.0  0.0932
  H  H103  1  0.538600  0.489600  0.381300  1.0  0.1004
  H  H104  1  0.495800  0.392500  0.428100  1.0  0.1074
  C  C105  1  0.278740  0.044900  0.520600  1.0  0.7352
  C  C106  1  0.289700  0.920200  0.524700  1.0  -0.3838
  C  C107  1  0.344430  0.884100  0.596500  1.0  -0.0635
  C  C108  1  0.344380  0.758200  0.639300  1.0  -0.3325
  C  C109  1  0.310210  0.742300  0.774000  1.0  0.7541
  C  C110  1  0.143930  0.064100  0.217600  1.0  0.1749
  C  C111  1  0.106730  0.023200  0.115700  1.0  -0.1985
  C  C112  1  0.061490  0.089200  0.071800  1.0  0.1425
  C  C113  1  0.056800  0.194800  0.132400  1.0  -0.2628
  C  C114  1  0.096150  0.230300  0.233000  1.0  0.1789
  C  C115  1  0.019010  0.044400  0.964900  1.0  -0.2395
  C  C116  1  0.778740  0.544900  0.520600  1.0  0.7352
  C  C117  1  0.789700  0.420200  0.524700  1.0  -0.3838
  C  C118  1  0.844430  0.384100  0.596500  1.0  -0.0635
  C  C119  1  0.844380  0.258200  0.639300  1.0  -0.3325
  C  C120  1  0.810210  0.242300  0.774000  1.0  0.7541
  C  C121  1  0.643930  0.564100  0.217600  1.0  0.1749
  C  C122  1  0.606730  0.523200  0.115700  1.0  -0.1985
  C  C123  1  0.561490  0.589200  0.071800  1.0  0.1425
  C  C124  1  0.556800  0.694800  0.132400  1.0  -0.2628
  C  C125  1  0.596150  0.730300  0.233000  1.0  0.1789
  C  C126  1  0.519010  0.544400  0.964900  1.0  -0.2395
  C  C127  1  0.721260  0.044900  0.979400  1.0  0.7359
  C  C128  1  0.710300  0.920200  0.975300  1.0  -0.3847
  C  C129  1  0.655570  0.884100  0.903500  1.0  -0.0644
  C  C130  1  0.655620  0.758200  0.860700  1.0  -0.3321
  C  C131  1  0.689790  0.742300  0.726000  1.0  0.7561
  C  C132  1  0.856070  0.064100  0.282400  1.0  0.1751
  C  C133  1  0.893270  0.023200  0.384300  1.0  -0.1997
  C  C134  1  0.938510  0.089200  0.428200  1.0  0.1418
  C  C135  1  0.943200  0.194800  0.367600  1.0  -0.2621
  C  C136  1  0.903850  0.230300  0.267000  1.0  0.1793
  C  C137  1  0.980990  0.044400  0.535100  1.0  -0.241
  C  C138  1  0.221260  0.544900  0.979400  1.0  0.7359
  C  C139  1  0.210300  0.420200  0.975300  1.0  -0.3847
  C  C140  1  0.155570  0.384100  0.903500  1.0  -0.0644
  C  C141  1  0.155620  0.258200  0.860700  1.0  -0.3321
  C  C142  1  0.189790  0.242300  0.726000  1.0  0.7561
  C  C143  1  0.356070  0.564100  0.282400  1.0  0.1751
  C  C144  1  0.393270  0.523200  0.384300  1.0  -0.1997
  C  C145  1  0.438510  0.589200  0.428200  1.0  0.1418
  C  C146  1  0.443200  0.694800  0.367600  1.0  -0.2621
  C  C147  1  0.403850  0.730300  0.267000  1.0  0.1793
  C  C148  1  0.480990  0.544400  0.535100  1.0  -0.241
  C  C149  1  0.721260  0.955100  0.479400  1.0  0.735
  C  C150  1  0.710300  0.079800  0.475300  1.0  -0.3831
  C  C151  1  0.655570  0.115900  0.403500  1.0  -0.0637
  C  C152  1  0.655620  0.241800  0.360700  1.0  -0.3327
  C  C153  1  0.689790  0.257700  0.226000  1.0  0.7562
  C  C154  1  0.856070  0.935900  0.782400  1.0  0.1751
  C  C155  1  0.893270  0.976800  0.884300  1.0  -0.1995
  C  C156  1  0.938510  0.910800  0.928200  1.0  0.1418
  C  C157  1  0.943200  0.805200  0.867600  1.0  -0.2595
  C  C158  1  0.903850  0.769700  0.767000  1.0  0.1795
  C  C159  1  0.980990  0.955600  0.035100  1.0  -0.2413
  C  C160  1  0.221260  0.455100  0.479400  1.0  0.735
  C  C161  1  0.210300  0.579800  0.475300  1.0  -0.3831
  C  C162  1  0.155570  0.615900  0.403500  1.0  -0.0637
  C  C163  1  0.155620  0.741800  0.360700  1.0  -0.3327
  C  C164  1  0.189790  0.757700  0.226000  1.0  0.7562
  C  C165  1  0.356070  0.435900  0.782400  1.0  0.1751
  C  C166  1  0.393270  0.476800  0.884300  1.0  -0.1995
  C  C167  1  0.438510  0.410800  0.928200  1.0  0.1418
  C  C168  1  0.443200  0.305200  0.867600  1.0  -0.2595
  C  C169  1  0.403850  0.269700  0.767000  1.0  0.1795
  C  C170  1  0.480990  0.455600  0.035100  1.0  -0.2413
  C  C171  1  0.278740  0.955100  0.020600  1.0  0.7347
  C  C172  1  0.289700  0.079800  0.024700  1.0  -0.3844
  C  C173  1  0.344430  0.115900  0.096500  1.0  -0.0629
  C  C174  1  0.344380  0.241800  0.139300  1.0  -0.3322
  C  C175  1  0.310210  0.257700  0.274000  1.0  0.7536
  C  C176  1  0.143930  0.935900  0.717600  1.0  0.1753
  C  C177  1  0.106730  0.976800  0.615700  1.0  -0.199
  C  C178  1  0.061490  0.910800  0.571800  1.0  0.142
  C  C179  1  0.056800  0.805200  0.632400  1.0  -0.2577
  C  C180  1  0.096150  0.769700  0.733000  1.0  0.1788
  C  C181  1  0.019010  0.955600  0.464900  1.0  -0.2394
  C  C182  1  0.778740  0.455100  0.020600  1.0  0.7347
  C  C183  1  0.789700  0.579800  0.024700  1.0  -0.3844
  C  C184  1  0.844430  0.615900  0.096500  1.0  -0.0629
  C  C185  1  0.844380  0.741800  0.139300  1.0  -0.3322
  C  C186  1  0.810210  0.757700  0.274000  1.0  0.7536
  C  C187  1  0.643930  0.435900  0.717600  1.0  0.1753
  C  C188  1  0.606730  0.476800  0.615700  1.0  -0.199
  C  C189  1  0.561490  0.410800  0.571800  1.0  0.142
  C  C190  1  0.556800  0.305200  0.632400  1.0  -0.2577
  C  C191  1  0.596150  0.269700  0.733000  1.0  0.1788
  C  C192  1  0.519010  0.455600  0.464900  1.0  -0.2394
  N  N193  1  0.139810  0.166900  0.275900  1.0  -0.351
  N  N194  1  0.639810  0.666900  0.275900  1.0  -0.351
  N  N195  1  0.860190  0.166900  0.224100  1.0  -0.35
  N  N196  1  0.360190  0.666900  0.224100  1.0  -0.35
  N  N197  1  0.860190  0.833100  0.724100  1.0  -0.3511
  N  N198  1  0.360190  0.333100  0.724100  1.0  -0.3511
  N  N199  1  0.139810  0.833100  0.775900  1.0  -0.3498
  N  N200  1  0.639810  0.333100  0.775900  1.0  -0.3498
  O  O201  1  0.234880  0.075200  0.454300  1.0  -0.5968
  O  O202  1  0.311990  0.110500  0.584700  1.0  -0.568
  O  O203  1  0.335860  0.726100  0.892400  1.0  -0.5759
  O  O204  1  0.258110  0.750500  0.761300  1.0  -0.5683
  O  O205  1  0.734880  0.575200  0.454300  1.0  -0.5968
  O  O206  1  0.811990  0.610500  0.584700  1.0  -0.568
  O  O207  1  0.835860  0.226100  0.892400  1.0  -0.5759
  O  O208  1  0.758110  0.250500  0.761300  1.0  -0.5683
  O  O209  1  0.765120  0.075200  0.045700  1.0  -0.5965
  O  O210  1  0.688010  0.110500  0.915300  1.0  -0.5671
  O  O211  1  0.664140  0.726100  0.607600  1.0  -0.5743
  O  O212  1  0.741890  0.750500  0.738700  1.0  -0.5704
  O  O213  1  0.265120  0.575200  0.045700  1.0  -0.5965
  O  O214  1  0.188010  0.610500  0.915300  1.0  -0.5671
  O  O215  1  0.164140  0.226100  0.607600  1.0  -0.5743
  O  O216  1  0.241890  0.250500  0.738700  1.0  -0.5704
  O  O217  1  0.765120  0.924800  0.545700  1.0  -0.5965
  O  O218  1  0.688010  0.889500  0.415300  1.0  -0.5675
  O  O219  1  0.664140  0.273900  0.107600  1.0  -0.5743
  O  O220  1  0.741890  0.249500  0.238700  1.0  -0.5703
  O  O221  1  0.265120  0.424800  0.545700  1.0  -0.5965
  O  O222  1  0.188010  0.389500  0.415300  1.0  -0.5675
  O  O223  1  0.164140  0.773900  0.107600  1.0  -0.5743
  O  O224  1  0.241890  0.749500  0.238700  1.0  -0.5703
  O  O225  1  0.234880  0.924800  0.954300  1.0  -0.597
  O  O226  1  0.311990  0.889500  0.084700  1.0  -0.5676
  O  O227  1  0.335860  0.273900  0.392400  1.0  -0.5757
  O  O228  1  0.258110  0.249500  0.261300  1.0  -0.568
  O  O229  1  0.734880  0.424800  0.954300  1.0  -0.597
  O  O230  1  0.811990  0.389500  0.084700  1.0  -0.5676
  O  O231  1  0.835860  0.773900  0.392400  1.0  -0.5757
  O  O232  1  0.758110  0.749500  0.261300  1.0  -0.568
