# generated using pymatgen
data_CuH12C11NO4
_symmetry_space_group_name_H-M   'P 1'
_cell_length_a   9.05900000
_cell_length_b   11.78400000
_cell_length_c   13.38960000
_cell_angle_alpha   116.10700000
_cell_angle_beta   90.93750000
_cell_angle_gamma   90.00000000
_symmetry_Int_Tables_number   1
_chemical_formula_structural   CuH12C11NO4
_chemical_formula_sum   'Cu4 H48 C44 N4 O16'
_cell_volume   1283.31174289
_cell_formula_units_Z   4
loop_
 _symmetry_equiv_pos_site_id
 _symmetry_equiv_pos_as_xyz
  1  'x, y, z'
loop_
 _atom_site_type_symbol
 _atom_site_label
 _atom_site_symmetry_multiplicity
 _atom_site_fract_x
 _atom_site_fract_y
 _atom_site_fract_z
 _atom_site_occupancy
 _atom_site_charge
  Cu  Cu1  1  0.580310  0.021080  0.588000  1.0  0.8079
  Cu  Cu2  1  0.919690  0.433080  0.412000  1.0  0.8075
  Cu  Cu3  1  0.419690  0.978920  0.412000  1.0  0.8067
  Cu  Cu4  1  0.080310  0.566920  0.588000  1.0  0.8111
  H  H5  1  0.579200  0.603200  0.420800  1.0  0.1363
  H  H6  1  0.425500  0.625300  0.483000  1.0  0.1242
  H  H7  1  0.311300  0.580300  0.301000  1.0  0.0806
  H  H8  1  0.468600  0.524400  0.250800  1.0  0.0668
  H  H9  1  0.442100  0.383900  0.343600  1.0  0.1188
  H  H10  1  0.339800  0.350000  0.235000  1.0  0.1099
  H  H11  1  0.757600  0.842900  0.650400  1.0  0.0779
  H  H12  1  0.929800  0.837700  0.775800  1.0  0.131
  H  H13  1  0.895100  0.215400  0.943800  1.0  0.1254
  H  H14  1  0.719800  0.208800  0.815600  1.0  0.0831
  H  H15  1  0.121200  0.972300  0.924600  1.0  0.0929
  H  H16  1  0.073800  0.112600  0.009000  1.0  0.099
  H  H17  1  0.920800  0.182400  0.579200  1.0  0.1348
  H  H18  1  0.074500  0.142300  0.517000  1.0  0.1239
  H  H19  1  0.188700  0.279300  0.699000  1.0  0.0829
  H  H20  1  0.031400  0.273600  0.749200  1.0  0.0705
  H  H21  1  0.057900  0.040300  0.656400  1.0  0.1201
  H  H22  1  0.160200  0.115000  0.765000  1.0  0.1093
  H  H23  1  0.742400  0.192500  0.349600  1.0  0.0794
  H  H24  1  0.570200  0.061900  0.224200  1.0  0.1299
  H  H25  1  0.604900  0.271600  0.056200  1.0  0.1252
  H  H26  1  0.780200  0.393200  0.184400  1.0  0.0836
  H  H27  1  0.378800  0.047700  0.075400  1.0  0.0926
  H  H28  1  0.426200  0.103600  0.991000  1.0  0.0973
  H  H29  1  0.420800  0.396800  0.579200  1.0  0.1362
  H  H30  1  0.574500  0.374700  0.517000  1.0  0.1251
  H  H31  1  0.688700  0.419700  0.699000  1.0  0.0828
  H  H32  1  0.531400  0.475600  0.749200  1.0  0.0678
  H  H33  1  0.557900  0.616100  0.656400  1.0  0.1184
  H  H34  1  0.660200  0.650000  0.765000  1.0  0.1091
  H  H35  1  0.242400  0.157100  0.349600  1.0  0.0778
  H  H36  1  0.070200  0.162300  0.224200  1.0  0.1314
  H  H37  1  0.104900  0.784600  0.056200  1.0  0.1254
  H  H38  1  0.280200  0.791200  0.184400  1.0  0.0824
  H  H39  1  0.878800  0.027700  0.075400  1.0  0.0927
  H  H40  1  0.926200  0.887400  0.991000  1.0  0.0987
  H  H41  1  0.079200  0.817600  0.420800  1.0  0.1352
  H  H42  1  0.925500  0.857700  0.483000  1.0  0.1213
  H  H43  1  0.811300  0.720700  0.301000  1.0  0.0808
  H  H44  1  0.968600  0.726400  0.250800  1.0  0.069
  H  H45  1  0.942100  0.959700  0.343600  1.0  0.119
  H  H46  1  0.839800  0.885000  0.235000  1.0  0.1093
  H  H47  1  0.257600  0.807500  0.650400  1.0  0.0795
  H  H48  1  0.429800  0.938100  0.775800  1.0  0.1292
  H  H49  1  0.395100  0.728400  0.943800  1.0  0.1241
  H  H50  1  0.219800  0.606800  0.815600  1.0  0.0833
  H  H51  1  0.621200  0.952300  0.924600  1.0  0.0935
  H  H52  1  0.573800  0.896400  0.009000  1.0  0.0975
  C  C53  1  0.479600  0.766100  0.441800  1.0  0.7201
  C  C54  1  0.476200  0.631200  0.420400  1.0  -0.3517
  C  C55  1  0.401600  0.540400  0.313200  1.0  -0.0087
  C  C56  1  0.359700  0.414200  0.312400  1.0  -0.3376
  C  C57  1  0.224700  0.432200  0.380800  1.0  0.7191
  C  C58  1  0.786600  0.920300  0.711400  1.0  0.1771
  C  C59  1  0.887500  0.915800  0.786200  1.0  -0.2292
  C  C60  1  0.927700  0.027600  0.878000  1.0  0.1546
  C  C61  1  0.866800  0.136500  0.884800  1.0  -0.2492
  C  C62  1  0.765200  0.132200  0.806600  1.0  0.1691
  C  C63  1  0.036300  0.025800  0.962600  1.0  -0.1808
  C  C64  1  0.020400  0.324300  0.558200  1.0  0.7218
  C  C65  1  0.023800  0.210800  0.579600  1.0  -0.3528
  C  C66  1  0.098400  0.227200  0.686800  1.0  -0.0177
  C  C67  1  0.140300  0.101800  0.687600  1.0  -0.3373
  C  C68  1  0.275300  0.051400  0.619200  1.0  0.7174
  C  C69  1  0.713400  0.208900  0.288600  1.0  0.1771
  C  C70  1  0.612500  0.129600  0.213800  1.0  -0.2317
  C  C71  1  0.572300  0.149600  0.122000  1.0  0.1545
  C  C72  1  0.633200  0.251700  0.115200  1.0  -0.2507
  C  C73  1  0.734800  0.325600  0.193400  1.0  0.1684
  C  C74  1  0.463700  0.063200  0.037400  1.0  -0.1795
  C  C75  1  0.520400  0.233900  0.558200  1.0  0.7201
  C  C76  1  0.523800  0.368800  0.579600  1.0  -0.3508
  C  C77  1  0.598400  0.459600  0.686800  1.0  -0.0088
  C  C78  1  0.640300  0.585800  0.687600  1.0  -0.3384
  C  C79  1  0.775300  0.567800  0.619200  1.0  0.7187
  C  C80  1  0.213400  0.079700  0.288600  1.0  0.1776
  C  C81  1  0.112500  0.084200  0.213800  1.0  -0.2316
  C  C82  1  0.072300  0.972400  0.122000  1.0  0.1542
  C  C83  1  0.133200  0.863500  0.115200  1.0  -0.2497
  C  C84  1  0.234800  0.867800  0.193400  1.0  0.1695
  C  C85  1  0.963700  0.974200  0.037400  1.0  -0.1803
  C  C86  1  0.979600  0.675700  0.441800  1.0  0.7199
  C  C87  1  0.976200  0.789200  0.420400  1.0  -0.3519
  C  C88  1  0.901600  0.772800  0.313200  1.0  -0.0141
  C  C89  1  0.859700  0.898200  0.312400  1.0  -0.3375
  C  C90  1  0.724700  0.948600  0.380800  1.0  0.7189
  C  C91  1  0.286600  0.791100  0.711400  1.0  0.1769
  C  C92  1  0.387500  0.870400  0.786200  1.0  -0.2286
  C  C93  1  0.427700  0.850400  0.878000  1.0  0.155
  C  C94  1  0.366800  0.748300  0.884800  1.0  -0.246
  C  C95  1  0.265200  0.674400  0.806600  1.0  0.1695
  C  C96  1  0.536300  0.936800  0.962600  1.0  -0.1834
  N  N97  1  0.726800  0.025500  0.718400  1.0  -0.3371
  N  N98  1  0.773200  0.307100  0.281600  1.0  -0.3362
  N  N99  1  0.273200  0.974500  0.281600  1.0  -0.3362
  N  N100  1  0.226800  0.692900  0.718400  1.0  -0.3363
  O  O101  1  0.549000  0.838600  0.528600  1.0  -0.588
  O  O102  1  0.412600  0.799860  0.378120  1.0  -0.5589
  O  O103  1  0.105500  0.387600  0.330600  1.0  -0.583
  O  O104  1  0.240200  0.492820  0.482840  1.0  -0.5675
  O  O105  1  0.951000  0.310000  0.471400  1.0  -0.5874
  O  O106  1  0.087400  0.421740  0.621880  1.0  -0.5597
  O  O107  1  0.394500  0.057000  0.669400  1.0  -0.5813
  O  O108  1  0.259800  0.009980  0.517160  1.0  -0.5664
  O  O109  1  0.451000  0.161400  0.471400  1.0  -0.5879
  O  O110  1  0.587400  0.200140  0.621880  1.0  -0.5582
  O  O111  1  0.894500  0.612400  0.669400  1.0  -0.5834
  O  O112  1  0.759800  0.507180  0.517160  1.0  -0.5669
  O  O113  1  0.049000  0.690000  0.528600  1.0  -0.5868
  O  O114  1  0.912600  0.578260  0.378120  1.0  -0.5593
  O  O115  1  0.605500  0.943000  0.330600  1.0  -0.5816
  O  O116  1  0.740200  0.990020  0.482840  1.0  -0.5677
