# generated using pymatgen
data_CuH12C11NO4
_symmetry_space_group_name_H-M   'P 1'
_cell_length_a   8.63130000
_cell_length_b   13.05270000
_cell_length_c   13.76460000
_cell_angle_alpha   118.30300000
_cell_angle_beta   91.29690000
_cell_angle_gamma   90.00000000
_symmetry_Int_Tables_number   1
_chemical_formula_structural   CuH12C11NO4
_chemical_formula_sum   'Cu4 H48 C44 N4 O16'
_cell_volume   1364.90544590
_cell_formula_units_Z   4
loop_
 _symmetry_equiv_pos_site_id
 _symmetry_equiv_pos_as_xyz
  1  'x, y, z'
loop_
 _atom_site_type_symbol
 _atom_site_label
 _atom_site_symmetry_multiplicity
 _atom_site_fract_x
 _atom_site_fract_y
 _atom_site_fract_z
 _atom_site_occupancy
 _atom_site_charge
  Cu  Cu1  1  0.553940  0.999050  0.589500  1.0  0.8378
  Cu  Cu2  1  0.946060  0.409550  0.410500  1.0  0.8391
  Cu  Cu3  1  0.446060  0.000950  0.410500  1.0  0.8384
  Cu  Cu4  1  0.053940  0.590450  0.589500  1.0  0.8397
  H  H5  1  0.275300  0.657000  0.394600  1.0  0.1296
  H  H6  1  0.371000  0.627100  0.286600  1.0  0.12
  H  H7  1  0.585400  0.572600  0.356800  1.0  0.0731
  H  H8  1  0.504700  0.616100  0.473400  1.0  0.0718
  H  H9  1  0.483500  0.410400  0.367400  1.0  0.1207
  H  H10  1  0.395200  0.423100  0.270200  1.0  0.1132
  H  H11  1  0.717900  0.829200  0.651400  1.0  0.0845
  H  H12  1  0.907400  0.825700  0.772000  1.0  0.1288
  H  H13  1  0.900000  0.176000  0.936000  1.0  0.1315
  H  H14  1  0.712100  0.170700  0.811600  1.0  0.083
  H  H15  1  0.108100  0.933000  0.916200  1.0  0.0763
  H  H16  1  0.106400  0.072400  0.980600  1.0  0.1
  H  H17  1  0.224700  0.262400  0.605400  1.0  0.128
  H  H18  1  0.129000  0.340500  0.713400  1.0  0.12
  H  H19  1  0.914600  0.215800  0.643200  1.0  0.0713
  H  H20  1  0.995300  0.142700  0.526600  1.0  0.072
  H  H21  1  0.016500  0.043000  0.632600  1.0  0.1184
  H  H22  1  0.104800  0.152900  0.729800  1.0  0.1123
  H  H23  1  0.782100  0.177800  0.348600  1.0  0.0863
  H  H24  1  0.592600  0.053700  0.228000  1.0  0.1269
  H  H25  1  0.600000  0.240000  0.064000  1.0  0.1327
  H  H26  1  0.787900  0.359100  0.188400  1.0  0.0844
  H  H27  1  0.391900  0.016800  0.083800  1.0  0.0774
  H  H28  1  0.393600  0.091800  0.019400  1.0  0.1012
  H  H29  1  0.724700  0.343000  0.605400  1.0  0.1279
  H  H30  1  0.629000  0.372900  0.713400  1.0  0.1203
  H  H31  1  0.414600  0.427400  0.643200  1.0  0.072
  H  H32  1  0.495300  0.383900  0.526600  1.0  0.0725
  H  H33  1  0.516500  0.589600  0.632600  1.0  0.1218
  H  H34  1  0.604800  0.576900  0.729800  1.0  0.1132
  H  H35  1  0.282100  0.170800  0.348600  1.0  0.0842
  H  H36  1  0.092600  0.174300  0.228000  1.0  0.1282
  H  H37  1  0.100000  0.824000  0.064000  1.0  0.1312
  H  H38  1  0.287900  0.829300  0.188400  1.0  0.0836
  H  H39  1  0.891900  0.067000  0.083800  1.0  0.0773
  H  H40  1  0.893600  0.927600  0.019400  1.0  0.1007
  H  H41  1  0.775300  0.737600  0.394600  1.0  0.1292
  H  H42  1  0.871000  0.659500  0.286600  1.0  0.1201
  H  H43  1  0.085400  0.784200  0.356800  1.0  0.0725
  H  H44  1  0.004700  0.857300  0.473400  1.0  0.0721
  H  H45  1  0.983500  0.957000  0.367400  1.0  0.12
  H  H46  1  0.895200  0.847100  0.270200  1.0  0.1132
  H  H47  1  0.217900  0.822200  0.651400  1.0  0.0862
  H  H48  1  0.407400  0.946300  0.772000  1.0  0.1264
  H  H49  1  0.400000  0.760000  0.936000  1.0  0.1318
  H  H50  1  0.212100  0.640900  0.811600  1.0  0.0835
  H  H51  1  0.608100  0.983200  0.916200  1.0  0.0772
  H  H52  1  0.606400  0.908200  0.980600  1.0  0.1013
  C  C53  1  0.432600  0.784620  0.417640  1.0  0.7171
  C  C54  1  0.380000  0.659180  0.367760  1.0  -0.3501
  C  C55  1  0.484700  0.580340  0.392680  1.0  -0.0133
  C  C56  1  0.411300  0.459660  0.351320  1.0  -0.3476
  C  C57  1  0.257400  0.463830  0.404060  1.0  0.7099
  C  C58  1  0.754800  0.900700  0.710400  1.0  0.1803
  C  C59  1  0.868200  0.897990  0.782180  1.0  -0.2237
  C  C60  1  0.923800  0.001180  0.868560  1.0  0.154
  C  C61  1  0.864000  0.103240  0.878280  1.0  -0.2405
  C  C62  1  0.751600  0.099310  0.803820  1.0  0.1729
  C  C63  1  0.040400  0.001520  0.952240  1.0  -0.1714
  C  C64  1  0.067400  0.366980  0.582360  1.0  0.7173
  C  C65  1  0.120000  0.291420  0.632240  1.0  -0.3483
  C  C66  1  0.015300  0.187660  0.607320  1.0  -0.0144
  C  C67  1  0.088700  0.108340  0.648680  1.0  -0.3469
  C  C68  1  0.242600  0.059770  0.595940  1.0  0.7109
  C  C69  1  0.745200  0.190300  0.289600  1.0  0.1794
  C  C70  1  0.631800  0.115810  0.217820  1.0  -0.2226
  C  C71  1  0.576200  0.132620  0.131440  1.0  0.152
  C  C72  1  0.636000  0.224960  0.121720  1.0  -0.2405
  C  C73  1  0.748400  0.295490  0.196180  1.0  0.1716
  C  C74  1  0.459600  0.049280  0.047760  1.0  -0.1705
  C  C75  1  0.567400  0.215380  0.582360  1.0  0.7163
  C  C76  1  0.620000  0.340820  0.632240  1.0  -0.3482
  C  C77  1  0.515300  0.419660  0.607320  1.0  -0.0144
  C  C78  1  0.588700  0.540340  0.648680  1.0  -0.3484
  C  C79  1  0.742600  0.536170  0.595940  1.0  0.7116
  C  C80  1  0.245200  0.099300  0.289600  1.0  0.1811
  C  C81  1  0.131800  0.102010  0.217820  1.0  -0.2243
  C  C82  1  0.076200  0.998820  0.131440  1.0  0.1526
  C  C83  1  0.136000  0.896760  0.121720  1.0  -0.2398
  C  C84  1  0.248400  0.900690  0.196180  1.0  0.1724
  C  C85  1  0.959600  0.998480  0.047760  1.0  -0.1719
  C  C86  1  0.932600  0.633020  0.417640  1.0  0.7164
  C  C87  1  0.880000  0.708580  0.367760  1.0  -0.349
  C  C88  1  0.984700  0.812340  0.392680  1.0  -0.0134
  C  C89  1  0.911300  0.891660  0.351320  1.0  -0.3476
  C  C90  1  0.757400  0.940230  0.404060  1.0  0.7084
  C  C91  1  0.254800  0.809700  0.710400  1.0  0.1786
  C  C92  1  0.368200  0.884190  0.782180  1.0  -0.222
  C  C93  1  0.423800  0.867380  0.868560  1.0  0.153
  C  C94  1  0.364000  0.775040  0.878280  1.0  -0.2376
  C  C95  1  0.251600  0.704510  0.803820  1.0  0.1731
  C  C96  1  0.540400  0.950720  0.952240  1.0  -0.1721
  N  N97  1  0.695500  0.999860  0.720980  1.0  -0.3472
  N  N98  1  0.804500  0.278880  0.279020  1.0  -0.3445
  N  N99  1  0.304500  0.000140  0.279020  1.0  -0.345
  N  N100  1  0.195500  0.721120  0.720980  1.0  -0.346
  O  O101  1  0.492700  0.833080  0.513360  1.0  -0.5742
  O  O102  1  0.408400  0.834710  0.360280  1.0  -0.5844
  O  O103  1  0.153600  0.390010  0.346780  1.0  -0.5808
  O  O104  1  0.242900  0.540840  0.500900  1.0  -0.5745
  O  O105  1  0.007300  0.319720  0.486640  1.0  -0.5739
  O  O106  1  0.091600  0.474430  0.639720  1.0  -0.5835
  O  O107  1  0.346400  0.043230  0.653220  1.0  -0.5812
  O  O108  1  0.257100  0.039940  0.499100  1.0  -0.5732
  O  O109  1  0.507300  0.166920  0.486640  1.0  -0.5746
  O  O110  1  0.591600  0.165290  0.639720  1.0  -0.5858
  O  O111  1  0.846400  0.609990  0.653220  1.0  -0.5807
  O  O112  1  0.757100  0.459160  0.499100  1.0  -0.5731
  O  O113  1  0.992700  0.680280  0.513360  1.0  -0.574
  O  O114  1  0.908400  0.525570  0.360280  1.0  -0.5841
  O  O115  1  0.653600  0.956770  0.346780  1.0  -0.5799
  O  O116  1  0.742900  0.960060  0.500900  1.0  -0.5744
