# generated using pymatgen
data_CoH16C24(NO2)2
_symmetry_space_group_name_H-M   'P 1'
_cell_length_a   9.52300000
_cell_length_b   11.35550000
_cell_length_c   25.87400000
_cell_angle_alpha   87.40440000
_cell_angle_beta   83.79990000
_cell_angle_gamma   65.20880000
_symmetry_Int_Tables_number   1
_chemical_formula_structural   CoH16C24(NO2)2
_chemical_formula_sum   'Co4 H64 C96 N8 O16'
_cell_volume   2525.25996834
_cell_formula_units_Z   4
loop_
 _symmetry_equiv_pos_site_id
 _symmetry_equiv_pos_as_xyz
  1  'x, y, z'
loop_
 _atom_site_type_symbol
 _atom_site_label
 _atom_site_symmetry_multiplicity
 _atom_site_fract_x
 _atom_site_fract_y
 _atom_site_fract_z
 _atom_site_occupancy
 _atom_site_charge
  Co  Co1  1  0.102530  0.605540  0.955750  1.0  0.8211
  Co  Co2  1  0.291930  0.605540  0.544250  1.0  0.8207
  Co  Co3  1  0.897470  0.394460  0.044250  1.0  0.8208
  Co  Co4  1  0.708070  0.394460  0.455750  1.0  0.8213
  H  H5  1  0.504500  0.720200  0.894500  1.0  0.1199
  H  H6  1  0.660900  0.761800  0.832200  1.0  0.0903
  H  H7  1  0.401500  0.763600  0.723600  1.0  0.1233
  H  H8  1  0.235700  0.723400  0.785700  1.0  0.1026
  H  H9  1  0.978600  0.500600  0.157100  1.0  0.0977
  H  H10  1  0.010900  0.535800  0.242600  1.0  0.1224
  H  H11  1  0.334500  0.656400  0.186500  1.0  0.1106
  H  H12  1  0.279500  0.643200  0.102700  1.0  0.1009
  H  H13  1  0.965500  0.866600  0.015500  1.0  0.0771
  H  H14  1  0.762100  0.065800  0.018000  1.0  0.1255
  H  H15  1  0.609800  0.957200  0.902000  1.0  0.0972
  H  H16  1  0.813600  0.759400  0.903300  1.0  0.0793
  H  H17  1  0.603300  0.257800  0.008100  1.0  0.1128
  H  H18  1  0.408100  0.457800  0.001900  1.0  0.0708
  H  H19  1  0.225600  0.342600  0.900800  1.0  0.0743
  H  H20  1  0.421700  0.133800  0.903300  1.0  0.1278
  H  H21  1  0.775300  0.720200  0.605500  1.0  0.1212
  H  H22  1  0.577300  0.761800  0.667800  1.0  0.0907
  H  H23  1  0.834900  0.763600  0.776400  1.0  0.1232
  H  H24  1  0.040900  0.723400  0.714300  1.0  0.1028
  H  H25  1  0.520800  0.500600  0.342900  1.0  0.0984
  H  H26  1  0.453300  0.535800  0.257400  1.0  0.1231
  H  H27  1  0.009100  0.656400  0.313500  1.0  0.1108
  H  H28  1  0.077300  0.643200  0.397300  1.0  0.1003
  H  H29  1  0.167900  0.866600  0.484500  1.0  0.077
  H  H30  1  0.172100  0.065800  0.482000  1.0  0.1259
  H  H31  1  0.433000  0.957200  0.598000  1.0  0.0978
  H  H32  1  0.427000  0.759400  0.596700  1.0  0.0797
  H  H33  1  0.138900  0.257800  0.491900  1.0  0.1115
  H  H34  1  0.134100  0.457800  0.498100  1.0  0.0713
  H  H35  1  0.431800  0.342600  0.599200  1.0  0.0748
  H  H36  1  0.444500  0.133800  0.596700  1.0  0.1284
  H  H37  1  0.495500  0.279800  0.105500  1.0  0.1215
  H  H38  1  0.339100  0.238200  0.167800  1.0  0.0899
  H  H39  1  0.598500  0.236400  0.276400  1.0  0.1226
  H  H40  1  0.764300  0.276600  0.214300  1.0  0.103
  H  H41  1  0.021400  0.499400  0.842900  1.0  0.0984
  H  H42  1  0.989100  0.464200  0.757400  1.0  0.1229
  H  H43  1  0.665500  0.343600  0.813500  1.0  0.1104
  H  H44  1  0.720500  0.356800  0.897300  1.0  0.1005
  H  H45  1  0.034500  0.133400  0.984500  1.0  0.077
  H  H46  1  0.237900  0.934200  0.982000  1.0  0.1257
  H  H47  1  0.390200  0.042800  0.098000  1.0  0.0981
  H  H48  1  0.186400  0.240600  0.096700  1.0  0.0794
  H  H49  1  0.396700  0.742200  0.991900  1.0  0.1118
  H  H50  1  0.591900  0.542200  0.998100  1.0  0.0712
  H  H51  1  0.774400  0.657400  0.099200  1.0  0.0741
  H  H52  1  0.578300  0.866200  0.096700  1.0  0.1287
  H  H53  1  0.224700  0.279800  0.394500  1.0  0.1208
  H  H54  1  0.422700  0.238200  0.332200  1.0  0.0905
  H  H55  1  0.165100  0.236400  0.223600  1.0  0.123
  H  H56  1  0.959100  0.276600  0.285700  1.0  0.1028
  H  H57  1  0.479200  0.499400  0.657100  1.0  0.098
  H  H58  1  0.546700  0.464200  0.742600  1.0  0.1238
  H  H59  1  0.990900  0.343600  0.686500  1.0  0.1104
  H  H60  1  0.922700  0.356800  0.602700  1.0  0.1009
  H  H61  1  0.832100  0.133400  0.515500  1.0  0.0773
  H  H62  1  0.827900  0.934200  0.518000  1.0  0.1257
  H  H63  1  0.567000  0.042800  0.402000  1.0  0.0965
  H  H64  1  0.573000  0.240600  0.403300  1.0  0.079
  H  H65  1  0.861100  0.742200  0.508100  1.0  0.1128
  H  H66  1  0.865900  0.542200  0.501900  1.0  0.0713
  H  H67  1  0.568200  0.657400  0.400800  1.0  0.0742
  H  H68  1  0.555500  0.866200  0.403300  1.0  0.1281
  C  C69  1  0.251400  0.683000  0.886800  1.0  0.6501
  C  C70  1  0.348700  0.719200  0.847200  1.0  -0.0854
  C  C71  1  0.481400  0.728800  0.860100  1.0  -0.1374
  C  C72  1  0.576600  0.750800  0.821900  1.0  -0.0894
  C  C73  1  0.561900  0.758400  0.771000  1.0  0.0661
  C  C74  1  0.424100  0.752600  0.758000  1.0  -0.1518
  C  C75  1  0.322800  0.730600  0.795600  1.0  -0.0615
  C  C76  1  0.091700  0.557400  0.067500  1.0  0.6839
  C  C77  1  0.120100  0.573800  0.122000  1.0  -0.1027
  C  C78  1  0.046300  0.537200  0.163100  1.0  -0.0455
  C  C79  1  0.069900  0.553000  0.214700  1.0  -0.1931
  C  C80  1  0.183700  0.595000  0.223100  1.0  0.054
  C  C81  1  0.259200  0.627400  0.181200  1.0  -0.1171
  C  C82  1  0.227500  0.618400  0.130600  1.0  -0.0497
  C  C83  1  0.891400  0.885200  0.992000  1.0  0.1758
  C  C84  1  0.773000  0.006000  0.992700  1.0  -0.1982
  C  C85  1  0.670300  0.038800  0.956100  1.0  0.0599
  C  C86  1  0.683900  0.942200  0.925100  1.0  -0.1534
  C  C87  1  0.804900  0.822200  0.926800  1.0  0.174
  C  C88  1  0.542000  0.172400  0.955100  1.0  0.0923
  C  C89  1  0.529200  0.271200  0.985200  1.0  -0.1843
  C  C90  1  0.408900  0.390600  0.982400  1.0  0.1718
  C  C91  1  0.301700  0.324600  0.923500  1.0  0.1718
  C  C92  1  0.422600  0.198800  0.923800  1.0  -0.1876
  C  C93  1  0.065600  0.683000  0.613200  1.0  0.6498
  C  C94  1  0.932100  0.719200  0.652800  1.0  -0.0871
  C  C95  1  0.789800  0.728800  0.639900  1.0  -0.1374
  C  C96  1  0.672600  0.750800  0.678100  1.0  -0.0872
  C  C97  1  0.679700  0.758400  0.729000  1.0  0.0656
  C  C98  1  0.823300  0.752600  0.742000  1.0  -0.1509
  C  C99  1  0.946600  0.730600  0.704400  1.0  -0.0604
  C  C100  1  0.350900  0.557400  0.432500  1.0  0.6837
  C  C101  1  0.306100  0.573800  0.378000  1.0  -0.1026
  C  C102  1  0.416500  0.537200  0.336900  1.0  -0.0472
  C  C103  1  0.377100  0.553000  0.285300  1.0  -0.1936
  C  C104  1  0.221300  0.595000  0.276900  1.0  0.0525
  C  C105  1  0.113400  0.627400  0.318800  1.0  -0.119
  C  C106  1  0.154100  0.618400  0.369400  1.0  -0.0493
  C  C107  1  0.223400  0.885200  0.508000  1.0  0.1762
  C  C108  1  0.221000  0.006000  0.507300  1.0  -0.1984
  C  C109  1  0.290900  0.038800  0.543900  1.0  0.059
  C  C110  1  0.373900  0.942200  0.574900  1.0  -0.1536
  C  C111  1  0.372900  0.822200  0.573200  1.0  0.1743
  C  C112  1  0.285600  0.172400  0.544900  1.0  0.0933
  C  C113  1  0.199600  0.271200  0.514800  1.0  -0.1822
  C  C114  1  0.200500  0.390600  0.517600  1.0  0.1718
  C  C115  1  0.373700  0.324600  0.576500  1.0  0.1719
  C  C116  1  0.378600  0.198800  0.576200  1.0  -0.1902
  C  C117  1  0.748600  0.317000  0.113200  1.0  0.6501
  C  C118  1  0.651300  0.280800  0.152800  1.0  -0.0862
  C  C119  1  0.518600  0.271200  0.139900  1.0  -0.1377
  C  C120  1  0.423400  0.249200  0.178100  1.0  -0.0865
  C  C121  1  0.438100  0.241600  0.229000  1.0  0.0668
  C  C122  1  0.575900  0.247400  0.242000  1.0  -0.1521
  C  C123  1  0.677200  0.269400  0.204400  1.0  -0.0601
  C  C124  1  0.908300  0.442600  0.932500  1.0  0.6831
  C  C125  1  0.879900  0.426200  0.878000  1.0  -0.1031
  C  C126  1  0.953700  0.462800  0.836900  1.0  -0.0483
  C  C127  1  0.930100  0.447000  0.785300  1.0  -0.193
  C  C128  1  0.816300  0.405000  0.776900  1.0  0.0545
  C  C129  1  0.740800  0.372600  0.818800  1.0  -0.1209
  C  C130  1  0.772500  0.381600  0.869400  1.0  -0.05
  C  C131  1  0.108600  0.114800  0.008000  1.0  0.1766
  C  C132  1  0.227000  0.994000  0.007300  1.0  -0.1996
  C  C133  1  0.329700  0.961200  0.043900  1.0  0.059
  C  C134  1  0.316100  0.057800  0.074900  1.0  -0.1533
  C  C135  1  0.195100  0.177800  0.073200  1.0  0.1747
  C  C136  1  0.458000  0.827600  0.044900  1.0  0.0927
  C  C137  1  0.470800  0.728800  0.014800  1.0  -0.1822
  C  C138  1  0.591100  0.609400  0.017600  1.0  0.1719
  C  C139  1  0.698300  0.675400  0.076500  1.0  0.1718
  C  C140  1  0.577400  0.801200  0.076200  1.0  -0.1905
  C  C141  1  0.934400  0.317000  0.386800  1.0  0.6503
  C  C142  1  0.067900  0.280800  0.347200  1.0  -0.0854
  C  C143  1  0.210200  0.271200  0.360100  1.0  -0.138
  C  C144  1  0.327400  0.249200  0.321900  1.0  -0.0881
  C  C145  1  0.320300  0.241600  0.271000  1.0  0.0678
  C  C146  1  0.176700  0.247400  0.258000  1.0  -0.151
  C  C147  1  0.053400  0.269400  0.295600  1.0  -0.0598
  C  C148  1  0.649100  0.442600  0.567500  1.0  0.683
  C  C149  1  0.693900  0.426200  0.622000  1.0  -0.1037
  C  C150  1  0.583500  0.462800  0.663100  1.0  -0.0459
  C  C151  1  0.622900  0.447000  0.714700  1.0  -0.1926
  C  C152  1  0.778700  0.405000  0.723100  1.0  0.0547
  C  C153  1  0.886600  0.372600  0.681200  1.0  -0.1198
  C  C154  1  0.845900  0.381600  0.630600  1.0  -0.0519
  C  C155  1  0.776600  0.114800  0.492000  1.0  0.176
  C  C156  1  0.779000  0.994000  0.492700  1.0  -0.1992
  C  C157  1  0.709100  0.961200  0.456100  1.0  0.0593
  C  C158  1  0.626100  0.057800  0.425100  1.0  -0.1537
  C  C159  1  0.627100  0.177800  0.426800  1.0  0.1744
  C  C160  1  0.714400  0.827600  0.455100  1.0  0.093
  C  C161  1  0.800400  0.728800  0.485200  1.0  -0.1843
  C  C162  1  0.799500  0.609400  0.482400  1.0  0.1718
  C  C163  1  0.626300  0.675400  0.423500  1.0  0.1713
  C  C164  1  0.621400  0.801200  0.423800  1.0  -0.1873
  N  N165  1  0.906600  0.792600  0.959300  1.0  -0.325
  N  N166  1  0.292400  0.415600  0.953200  1.0  -0.3088
  N  N167  1  0.300800  0.792600  0.540700  1.0  -0.3258
  N  N168  1  0.292000  0.415600  0.546800  1.0  -0.3083
  N  N169  1  0.093400  0.207400  0.040700  1.0  -0.3261
  N  N170  1  0.707600  0.584400  0.046800  1.0  -0.3077
  N  N171  1  0.699200  0.207400  0.459300  1.0  -0.3261
  N  N172  1  0.708000  0.584400  0.453200  1.0  -0.3088
  O  O173  1  0.263600  0.695400  0.934400  1.0  -0.5708
  O  O174  1  0.161000  0.638800  0.873500  1.0  -0.5664
  O  O175  1  0.122300  0.621400  0.032200  1.0  -0.5666
  O  O176  1  0.044700  0.472800  0.060200  1.0  -0.6594
  O  O177  1  0.041000  0.695400  0.565600  1.0  -0.5691
  O  O178  1  0.200200  0.638800  0.626500  1.0  -0.5668
  O  O179  1  0.256300  0.621400  0.467800  1.0  -0.5664
  O  O180  1  0.482500  0.472800  0.439800  1.0  -0.658
  O  O181  1  0.736400  0.304600  0.065600  1.0  -0.5692
  O  O182  1  0.839000  0.361200  0.126500  1.0  -0.567
  O  O183  1  0.877700  0.378600  0.967800  1.0  -0.567
  O  O184  1  0.955300  0.527200  0.939800  1.0  -0.6576
  O  O185  1  0.959000  0.304600  0.434400  1.0  -0.5701
  O  O186  1  0.799800  0.361200  0.373500  1.0  -0.5667
  O  O187  1  0.743700  0.378600  0.532200  1.0  -0.567
  O  O188  1  0.517500  0.527200  0.560200  1.0  -0.6586
