# generated using pymatgen
data_U3(C3O5)2
_symmetry_space_group_name_H-M   'P 1'
_cell_length_a   14.45370000
_cell_length_b   14.45370000
_cell_length_c   14.45370000
_cell_angle_alpha   109.47100000
_cell_angle_beta   109.47100000
_cell_angle_gamma   109.47100000
_symmetry_Int_Tables_number   1
_chemical_formula_structural   U3(C3O5)2
_chemical_formula_sum   'U12 C24 O40'
_cell_volume   2324.44227660
_cell_formula_units_Z   4
loop_
 _symmetry_equiv_pos_site_id
 _symmetry_equiv_pos_as_xyz
  1  'x, y, z'
loop_
 _atom_site_type_symbol
 _atom_site_label
 _atom_site_symmetry_multiplicity
 _atom_site_fract_x
 _atom_site_fract_y
 _atom_site_fract_z
 _atom_site_occupancy
 _atom_site_charge
  U  U1  1  0.615560  0.990420  0.154610  1.0  1.7269
  U  U2  1  0.835810  0.460950  0.845390  1.0  1.8475
  U  U3  1  0.164190  0.009580  0.625140  1.0  1.7421
  U  U4  1  0.384440  0.539050  0.374860  1.0  1.8523
  U  U5  1  0.625140  0.164190  0.009580  1.0  1.7399
  U  U6  1  0.374860  0.384440  0.539050  1.0  1.8565
  U  U7  1  0.154610  0.615560  0.990420  1.0  1.7249
  U  U8  1  0.845390  0.835810  0.460950  1.0  1.8492
  U  U9  1  0.460950  0.845390  0.835810  1.0  1.8449
  U  U10  1  0.990420  0.154610  0.615560  1.0  1.7266
  U  U11  1  0.539050  0.374860  0.384440  1.0  1.8548
  U  U12  1  0.009580  0.625140  0.164190  1.0  1.7429
  C  C13  1  0.728100  0.168200  0.436700  1.0  0.2189
  C  C14  1  0.791100  0.227300  0.560000  1.0  0.2092
  C  C15  1  0.731500  0.291400  0.563300  1.0  0.2195
  C  C16  1  0.667300  0.231100  0.440000  1.0  0.2108
  C  C17  1  0.268500  0.831800  0.559900  1.0  0.2196
  C  C18  1  0.332700  0.772700  0.563800  1.0  0.21
  C  C19  1  0.271900  0.708600  0.440100  1.0  0.2178
  C  C20  1  0.208900  0.768900  0.436200  1.0  0.2105
  C  C21  1  0.559900  0.268500  0.831800  1.0  0.2189
  C  C22  1  0.563800  0.332700  0.772700  1.0  0.2102
  C  C23  1  0.440100  0.271900  0.708600  1.0  0.2192
  C  C24  1  0.436200  0.208900  0.768900  1.0  0.2081
  C  C25  1  0.436700  0.728100  0.168200  1.0  0.2191
  C  C26  1  0.560000  0.791100  0.227300  1.0  0.2093
  C  C27  1  0.563300  0.731500  0.291400  1.0  0.2185
  C  C28  1  0.440000  0.667300  0.231100  1.0  0.2088
  C  C29  1  0.291400  0.563300  0.731500  1.0  0.2195
  C  C30  1  0.231100  0.440000  0.667300  1.0  0.2094
  C  C31  1  0.168200  0.436700  0.728100  1.0  0.2185
  C  C32  1  0.227300  0.560000  0.791100  1.0  0.2085
  C  C33  1  0.708600  0.440100  0.271900  1.0  0.2188
  C  C34  1  0.768900  0.436200  0.208900  1.0  0.2095
  C  C35  1  0.831800  0.559900  0.268500  1.0  0.2194
  C  C36  1  0.772700  0.563800  0.332700  1.0  0.2092
  O  O37  1  0.490300  0.801800  0.985900  1.0  -0.7012
  O  O38  1  0.866000  0.227900  0.634700  1.0  -0.6195
  O  O39  1  0.730400  0.095400  0.360400  1.0  -0.6062
  O  O40  1  0.815900  0.504400  0.014100  1.0  -0.7008
  O  O41  1  0.593200  0.231300  0.365300  1.0  -0.622
  O  O42  1  0.735000  0.370000  0.639600  1.0  -0.6037
  O  O43  1  0.184100  0.198200  0.688500  1.0  -0.7015
  O  O44  1  0.406800  0.772100  0.638100  1.0  -0.6221
  O  O45  1  0.265000  0.904600  0.635000  1.0  -0.6047
  O  O46  1  0.509700  0.495600  0.311500  1.0  -0.7
  O  O47  1  0.134000  0.768700  0.361900  1.0  -0.621
  O  O48  1  0.269600  0.630000  0.365000  1.0  -0.6056
  O  O49  1  0.688500  0.184100  0.198200  1.0  -0.7017
  O  O50  1  0.638100  0.406800  0.772100  1.0  -0.6196
  O  O51  1  0.635000  0.265000  0.904600  1.0  -0.6051
  O  O52  1  0.311500  0.509700  0.495600  1.0  -0.7004
  O  O53  1  0.361900  0.134000  0.768700  1.0  -0.6221
  O  O54  1  0.365000  0.269600  0.630000  1.0  -0.6054
  O  O55  1  0.985900  0.490300  0.801800  1.0  -0.7002
  O  O56  1  0.634700  0.866000  0.227900  1.0  -0.6223
  O  O57  1  0.360400  0.730400  0.095400  1.0  -0.6061
  O  O58  1  0.014100  0.815900  0.504400  1.0  -0.7008
  O  O59  1  0.365300  0.593200  0.231300  1.0  -0.6202
  O  O60  1  0.639600  0.735000  0.370000  1.0  -0.6032
  O  O61  1  0.504400  0.014100  0.815900  1.0  -0.7006
  O  O62  1  0.231300  0.365300  0.593200  1.0  -0.6206
  O  O63  1  0.370000  0.639600  0.735000  1.0  -0.606
  O  O64  1  0.801800  0.985900  0.490300  1.0  -0.7008
  O  O65  1  0.227900  0.634700  0.866000  1.0  -0.6211
  O  O66  1  0.095400  0.360400  0.730400  1.0  -0.6039
  O  O67  1  0.495600  0.311500  0.509700  1.0  -0.7007
  O  O68  1  0.768700  0.361900  0.134000  1.0  -0.624
  O  O69  1  0.630000  0.365000  0.269600  1.0  -0.6059
  O  O70  1  0.198200  0.688500  0.184100  1.0  -0.7006
  O  O71  1  0.772100  0.638100  0.406800  1.0  -0.6199
  O  O72  1  0.904600  0.635000  0.265000  1.0  -0.6043
  O  O73  1  0.540800  0.000000  0.000000  1.0  -0.8813
  O  O74  1  0.000000  0.540800  0.000000  1.0  -0.8815
  O  O75  1  0.000000  0.000000  0.540800  1.0  -0.8811
  O  O76  1  0.459200  0.459200  0.459200  1.0  -0.8814
