# generated using pymatgen
data_CuH16C16S2I
_symmetry_space_group_name_H-M   'P 1'
_cell_length_a   7.20100000
_cell_length_b   12.40000000
_cell_length_c   20.78400000
_cell_angle_alpha   90.00000000
_cell_angle_beta   90.00000000
_cell_angle_gamma   90.00000000
_symmetry_Int_Tables_number   1
_chemical_formula_structural   CuH16C16S2I
_chemical_formula_sum   'Cu4 H64 C64 S8 I4'
_cell_volume   1855.85324160
_cell_formula_units_Z   4
loop_
 _symmetry_equiv_pos_site_id
 _symmetry_equiv_pos_as_xyz
  1  'x, y, z'
loop_
 _atom_site_type_symbol
 _atom_site_label
 _atom_site_symmetry_multiplicity
 _atom_site_fract_x
 _atom_site_fract_y
 _atom_site_fract_z
 _atom_site_occupancy
 _atom_site_charge
  Cu  Cu1  1  0.236480  0.837810  0.750000  1.0  0.0511
  Cu  Cu2  1  0.263520  0.337810  0.250000  1.0  0.0518
  Cu  Cu3  1  0.763520  0.162190  0.250000  1.0  0.0516
  Cu  Cu4  1  0.736480  0.662190  0.750000  1.0  0.0508
  H  H5  1  0.355700  0.175700  0.899900  1.0  0.108
  H  H6  1  0.504900  0.248600  0.989700  1.0  0.0933
  H  H7  1  0.289700  0.010800  0.100300  1.0  0.0927
  H  H8  1  0.153600  0.934400  0.009900  1.0  0.0932
  H  H9  1  0.101000  0.927400  0.899800  1.0  0.1082
  H  H10  1  0.112300  0.033500  0.860500  1.0  0.1306
  H  H11  1  0.371100  0.780100  0.905400  1.0  0.1065
  H  H12  1  0.550000  0.780800  0.863800  1.0  0.1036
  H  H13  1  0.144300  0.675700  0.100100  1.0  0.1077
  H  H14  1  0.995100  0.748600  0.010300  1.0  0.0931
  H  H15  1  0.210300  0.510800  0.899700  1.0  0.0913
  H  H16  1  0.346400  0.434400  0.990100  1.0  0.0933
  H  H17  1  0.399000  0.427400  0.100200  1.0  0.1078
  H  H18  1  0.387700  0.533500  0.139500  1.0  0.1305
  H  H19  1  0.128900  0.280100  0.094600  1.0  0.1082
  H  H20  1  0.950000  0.280800  0.136200  1.0  0.1041
  H  H21  1  0.644300  0.824300  0.399900  1.0  0.1076
  H  H22  1  0.495100  0.751400  0.489700  1.0  0.0932
  H  H23  1  0.710300  0.989200  0.600300  1.0  0.0927
  H  H24  1  0.846400  0.065600  0.509900  1.0  0.0933
  H  H25  1  0.899000  0.072600  0.399800  1.0  0.1071
  H  H26  1  0.887700  0.966500  0.360500  1.0  0.1304
  H  H27  1  0.628900  0.219900  0.405400  1.0  0.1074
  H  H28  1  0.450000  0.219200  0.363800  1.0  0.104
  H  H29  1  0.855700  0.324300  0.600100  1.0  0.108
  H  H30  1  0.004900  0.251400  0.510300  1.0  0.0931
  H  H31  1  0.789700  0.489200  0.399700  1.0  0.0921
  H  H32  1  0.653600  0.565600  0.490100  1.0  0.094
  H  H33  1  0.601000  0.572600  0.600200  1.0  0.1076
  H  H34  1  0.612300  0.466500  0.639500  1.0  0.1317
  H  H35  1  0.871100  0.719900  0.594600  1.0  0.108
  H  H36  1  0.050000  0.719200  0.636200  1.0  0.1034
  H  H37  1  0.644300  0.824300  0.100100  1.0  0.108
  H  H38  1  0.495100  0.751400  0.010300  1.0  0.0932
  H  H39  1  0.710300  0.989200  0.899700  1.0  0.0919
  H  H40  1  0.846400  0.065600  0.990100  1.0  0.0939
  H  H41  1  0.899000  0.072600  0.100200  1.0  0.107
  H  H42  1  0.887700  0.966500  0.139500  1.0  0.1313
  H  H43  1  0.628900  0.219900  0.094600  1.0  0.1082
  H  H44  1  0.450000  0.219200  0.136200  1.0  0.1037
  H  H45  1  0.855700  0.324300  0.899900  1.0  0.1075
  H  H46  1  0.004900  0.251400  0.989700  1.0  0.0931
  H  H47  1  0.789700  0.489200  0.100300  1.0  0.0924
  H  H48  1  0.653600  0.565600  0.009900  1.0  0.0933
  H  H49  1  0.601000  0.572600  0.899800  1.0  0.1076
  H  H50  1  0.612300  0.466500  0.860500  1.0  0.1304
  H  H51  1  0.871100  0.719900  0.905400  1.0  0.1071
  H  H52  1  0.050000  0.719200  0.863800  1.0  0.1035
  H  H53  1  0.355700  0.175700  0.600100  1.0  0.1077
  H  H54  1  0.504900  0.248600  0.510300  1.0  0.093
  H  H55  1  0.289700  0.010800  0.399700  1.0  0.0916
  H  H56  1  0.153600  0.934400  0.490100  1.0  0.0934
  H  H57  1  0.101000  0.927400  0.600200  1.0  0.1084
  H  H58  1  0.112300  0.033500  0.639500  1.0  0.1314
  H  H59  1  0.371100  0.780100  0.594600  1.0  0.1078
  H  H60  1  0.550000  0.780800  0.636200  1.0  0.104
  H  H61  1  0.144300  0.675700  0.399900  1.0  0.1081
  H  H62  1  0.995100  0.748600  0.489700  1.0  0.0936
  H  H63  1  0.210300  0.510800  0.600300  1.0  0.0928
  H  H64  1  0.346400  0.434400  0.509900  1.0  0.0932
  H  H65  1  0.399000  0.427400  0.399800  1.0  0.1078
  H  H66  1  0.387700  0.533500  0.360500  1.0  0.1304
  H  H67  1  0.128900  0.280100  0.405400  1.0  0.1069
  H  H68  1  0.950000  0.280800  0.363800  1.0  0.104
  C  C69  1  0.348100  0.139800  0.940200  1.0  -0.1296
  C  C70  1  0.435200  0.183900  0.993900  1.0  -0.1385
  C  C71  1  0.421000  0.133900  0.053700  1.0  0.065
  C  C72  1  0.309400  0.042500  0.059200  1.0  -0.1218
  C  C73  1  0.227000  0.997600  0.005400  1.0  -0.1149
  C  C74  1  0.249600  0.043100  0.945200  1.0  0.0523
  C  C75  1  0.180300  0.984300  0.886400  1.0  -0.1724
  C  C76  1  0.469200  0.823700  0.889300  1.0  -0.1443
  C  C77  1  0.151900  0.639800  0.059800  1.0  -0.1311
  C  C78  1  0.064800  0.683900  0.006100  1.0  -0.1386
  C  C79  1  0.079000  0.633900  0.946300  1.0  0.0644
  C  C80  1  0.190600  0.542500  0.940800  1.0  -0.1228
  C  C81  1  0.273000  0.497600  0.994600  1.0  -0.114
  C  C82  1  0.250400  0.543100  0.054800  1.0  0.0499
  C  C83  1  0.319700  0.484300  0.113600  1.0  -0.1734
  C  C84  1  0.030800  0.323700  0.110700  1.0  -0.1462
  C  C85  1  0.651900  0.860200  0.440200  1.0  -0.1304
  C  C86  1  0.564800  0.816100  0.493900  1.0  -0.1381
  C  C87  1  0.579000  0.866100  0.553700  1.0  0.0649
  C  C88  1  0.690600  0.957500  0.559200  1.0  -0.1227
  C  C89  1  0.773000  0.002400  0.505400  1.0  -0.1136
  C  C90  1  0.750400  0.956900  0.445200  1.0  0.0509
  C  C91  1  0.819700  0.015700  0.386400  1.0  -0.172
  C  C92  1  0.530800  0.176300  0.389300  1.0  -0.1437
  C  C93  1  0.848100  0.360200  0.559800  1.0  -0.1297
  C  C94  1  0.935200  0.316100  0.506100  1.0  -0.1379
  C  C95  1  0.921000  0.366100  0.446300  1.0  0.0648
  C  C96  1  0.809400  0.457500  0.440800  1.0  -0.1214
  C  C97  1  0.727000  0.502400  0.494600  1.0  -0.1141
  C  C98  1  0.749600  0.456900  0.554800  1.0  0.0514
  C  C99  1  0.680300  0.515700  0.613600  1.0  -0.1727
  C  C100  1  0.969200  0.676300  0.610700  1.0  -0.1441
  C  C101  1  0.651900  0.860200  0.059800  1.0  -0.1299
  C  C102  1  0.564800  0.816100  0.006100  1.0  -0.1307
  C  C103  1  0.579000  0.866100  0.946300  1.0  0.0649
  C  C104  1  0.690600  0.957500  0.940800  1.0  -0.1238
  C  C105  1  0.773000  0.002400  0.994600  1.0  -0.1139
  C  C106  1  0.750400  0.956900  0.054800  1.0  0.0503
  C  C107  1  0.819700  0.015700  0.113600  1.0  -0.1728
  C  C108  1  0.530800  0.176300  0.110700  1.0  -0.1438
  C  C109  1  0.848100  0.360200  0.940200  1.0  -0.1304
  C  C110  1  0.935200  0.316100  0.993900  1.0  -0.1306
  C  C111  1  0.921000  0.366100  0.053700  1.0  0.0651
  C  C112  1  0.809400  0.457500  0.059200  1.0  -0.123
  C  C113  1  0.727000  0.502400  0.005400  1.0  -0.114
  C  C114  1  0.749600  0.456900  0.945200  1.0  0.0517
  C  C115  1  0.680300  0.515700  0.886400  1.0  -0.1729
  C  C116  1  0.969200  0.676300  0.889300  1.0  -0.1428
  C  C117  1  0.348100  0.139800  0.559800  1.0  -0.1308
  C  C118  1  0.435200  0.183900  0.506100  1.0  -0.1306
  C  C119  1  0.421000  0.133900  0.446300  1.0  0.0645
  C  C120  1  0.309400  0.042500  0.440800  1.0  -0.1218
  C  C121  1  0.227000  0.997600  0.494600  1.0  -0.1142
  C  C122  1  0.249600  0.043100  0.554800  1.0  0.0509
  C  C123  1  0.180300  0.984300  0.613600  1.0  -0.174
  C  C124  1  0.469200  0.823700  0.610700  1.0  -0.1455
  C  C125  1  0.151900  0.639800  0.440200  1.0  -0.1297
  C  C126  1  0.064800  0.683900  0.493900  1.0  -0.1314
  C  C127  1  0.079000  0.633900  0.553700  1.0  0.0648
  C  C128  1  0.190600  0.542500  0.559200  1.0  -0.1228
  C  C129  1  0.273000  0.497600  0.505400  1.0  -0.1145
  C  C130  1  0.250400  0.543100  0.445200  1.0  0.0515
  C  C131  1  0.319700  0.484300  0.386400  1.0  -0.1717
  C  C132  1  0.030800  0.323700  0.389300  1.0  -0.144
  S  S133  1  0.368300  0.927020  0.837890  1.0  0.0126
  S  S134  1  0.131700  0.427020  0.162110  1.0  0.0116
  S  S135  1  0.631700  0.072980  0.337890  1.0  0.011
  S  S136  1  0.868300  0.572980  0.662110  1.0  0.0126
  S  S137  1  0.631700  0.072980  0.162110  1.0  0.0114
  S  S138  1  0.868300  0.572980  0.837890  1.0  0.0114
  S  S139  1  0.368300  0.927020  0.662110  1.0  0.0129
  S  S140  1  0.131700  0.427020  0.337890  1.0  0.0122
  I  I141  1  0.871810  0.859350  0.750000  1.0  -0.3428
  I  I142  1  0.628190  0.359350  0.250000  1.0  -0.3436
  I  I143  1  0.128190  0.140650  0.250000  1.0  -0.3436
  I  I144  1  0.371810  0.640650  0.750000  1.0  -0.3428
