# generated using pymatgen
data_CuH16C16S2Br
_symmetry_space_group_name_H-M   'P 1'
_cell_length_a   7.08200000
_cell_length_b   12.35700000
_cell_length_c   20.72400000
_cell_angle_alpha   90.00000000
_cell_angle_beta   90.00000000
_cell_angle_gamma   90.00000000
_symmetry_Int_Tables_number   1
_chemical_formula_structural   CuH16C16S2Br
_chemical_formula_sum   'Cu4 H64 C64 S8 Br4'
_cell_volume   1813.60436638
_cell_formula_units_Z   4
loop_
 _symmetry_equiv_pos_site_id
 _symmetry_equiv_pos_as_xyz
  1  'x, y, z'
loop_
 _atom_site_type_symbol
 _atom_site_label
 _atom_site_symmetry_multiplicity
 _atom_site_fract_x
 _atom_site_fract_y
 _atom_site_fract_z
 _atom_site_occupancy
 _atom_site_charge
  Cu  Cu1  1  0.244580  0.332660  0.250000  1.0  0.1218
  Cu  Cu2  1  0.255420  0.832660  0.750000  1.0  0.1218
  Cu  Cu3  1  0.755420  0.667340  0.750000  1.0  0.1215
  Cu  Cu4  1  0.744580  0.167340  0.250000  1.0  0.1215
  H  H5  1  0.489700  0.247700  0.511800  1.0  0.0897
  H  H6  1  0.632700  0.321500  0.603600  1.0  0.1105
  H  H7  1  0.847700  0.564000  0.494000  1.0  0.093
  H  H8  1  0.715100  0.486500  0.402200  1.0  0.0993
  H  H9  1  0.368200  0.278500  0.406000  1.0  0.1035
  H  H10  1  0.553600  0.275700  0.366200  1.0  0.1092
  H  H11  1  0.121800  0.536900  0.354900  1.0  0.1306
  H  H12  1  0.098800  0.431900  0.395100  1.0  0.1081
  H  H13  1  0.010300  0.747700  0.488200  1.0  0.0896
  H  H14  1  0.867300  0.821500  0.396400  1.0  0.1095
  H  H15  1  0.652300  0.064000  0.506000  1.0  0.0926
  H  H16  1  0.784900  0.986500  0.597800  1.0  0.0995
  H  H17  1  0.131800  0.778500  0.594000  1.0  0.1041
  H  H18  1  0.946400  0.775700  0.633800  1.0  0.1107
  H  H19  1  0.378200  0.036900  0.645100  1.0  0.1307
  H  H20  1  0.401200  0.931900  0.604900  1.0  0.1087
  H  H21  1  0.510300  0.752300  0.011800  1.0  0.0894
  H  H22  1  0.367300  0.678500  0.103600  1.0  0.11
  H  H23  1  0.152300  0.436000  0.994000  1.0  0.0926
  H  H24  1  0.284900  0.513500  0.902200  1.0  0.0984
  H  H25  1  0.631800  0.721500  0.906000  1.0  0.1036
  H  H26  1  0.446400  0.724300  0.866200  1.0  0.1095
  H  H27  1  0.878200  0.463100  0.854900  1.0  0.1308
  H  H28  1  0.901200  0.568100  0.895100  1.0  0.1069
  H  H29  1  0.989700  0.252300  0.988200  1.0  0.0901
  H  H30  1  0.132700  0.178500  0.896400  1.0  0.1099
  H  H31  1  0.347700  0.936000  0.006000  1.0  0.0927
  H  H32  1  0.215100  0.013500  0.097800  1.0  0.1001
  H  H33  1  0.868200  0.221500  0.094000  1.0  0.1036
  H  H34  1  0.053600  0.224300  0.133800  1.0  0.1102
  H  H35  1  0.621800  0.963100  0.145100  1.0  0.1323
  H  H36  1  0.598800  0.068100  0.104900  1.0  0.1083
  H  H37  1  0.510300  0.752300  0.488200  1.0  0.0899
  H  H38  1  0.367300  0.678500  0.396400  1.0  0.1098
  H  H39  1  0.152300  0.436000  0.506000  1.0  0.0921
  H  H40  1  0.284900  0.513500  0.597800  1.0  0.0998
  H  H41  1  0.631800  0.721500  0.594000  1.0  0.1034
  H  H42  1  0.446400  0.724300  0.633800  1.0  0.1104
  H  H43  1  0.878200  0.463100  0.645100  1.0  0.132
  H  H44  1  0.901200  0.568100  0.604900  1.0  0.1078
  H  H45  1  0.989700  0.252300  0.511800  1.0  0.0895
  H  H46  1  0.132700  0.178500  0.603600  1.0  0.1099
  H  H47  1  0.347700  0.936000  0.494000  1.0  0.0927
  H  H48  1  0.215100  0.013500  0.402200  1.0  0.0985
  H  H49  1  0.868200  0.221500  0.406000  1.0  0.1035
  H  H50  1  0.053600  0.224300  0.366200  1.0  0.1091
  H  H51  1  0.621800  0.963100  0.354900  1.0  0.1307
  H  H52  1  0.598800  0.068100  0.395100  1.0  0.1074
  H  H53  1  0.489700  0.247700  0.988200  1.0  0.0896
  H  H54  1  0.632700  0.321500  0.896400  1.0  0.1095
  H  H55  1  0.847700  0.564000  0.006000  1.0  0.0922
  H  H56  1  0.715100  0.486500  0.097800  1.0  0.1
  H  H57  1  0.368200  0.278500  0.094000  1.0  0.1042
  H  H58  1  0.553600  0.275700  0.133800  1.0  0.1108
  H  H59  1  0.121800  0.536900  0.145100  1.0  0.1313
  H  H60  1  0.098800  0.431900  0.104900  1.0  0.1092
  H  H61  1  0.010300  0.747700  0.011800  1.0  0.0896
  H  H62  1  0.867300  0.821500  0.103600  1.0  0.1105
  H  H63  1  0.652300  0.064000  0.994000  1.0  0.0931
  H  H64  1  0.784900  0.986500  0.902200  1.0  0.0992
  H  H65  1  0.131800  0.778500  0.906000  1.0  0.1037
  H  H66  1  0.946400  0.775700  0.866200  1.0  0.1093
  H  H67  1  0.378200  0.036900  0.854900  1.0  0.1305
  H  H68  1  0.401200  0.931900  0.895100  1.0  0.1077
  C  C69  1  0.560700  0.313000  0.508180  1.0  -0.1327
  C  C70  1  0.644800  0.357400  0.563010  1.0  -0.1267
  C  C71  1  0.746700  0.454100  0.558540  1.0  0.0491
  C  C72  1  0.772700  0.499800  0.498100  1.0  -0.1157
  C  C73  1  0.692600  0.454700  0.443440  1.0  -0.1283
  C  C74  1  0.578800  0.363100  0.448160  1.0  0.0629
  C  C75  1  0.471400  0.320600  0.390570  1.0  -0.1422
  C  C76  1  0.185400  0.487000  0.382300  1.0  -0.1707
  C  C77  1  0.939300  0.813000  0.491820  1.0  -0.1332
  C  C78  1  0.855200  0.857400  0.436990  1.0  -0.1269
  C  C79  1  0.753300  0.954100  0.441460  1.0  0.0495
  C  C80  1  0.727300  0.999800  0.501900  1.0  -0.1167
  C  C81  1  0.807400  0.954700  0.556560  1.0  -0.1265
  C  C82  1  0.921200  0.863100  0.551840  1.0  0.0633
  C  C83  1  0.028600  0.820600  0.609430  1.0  -0.1444
  C  C84  1  0.314600  0.987000  0.617700  1.0  -0.1722
  C  C85  1  0.439300  0.687000  0.008180  1.0  -0.1321
  C  C86  1  0.355200  0.642600  0.063010  1.0  -0.1272
  C  C87  1  0.253300  0.545900  0.058540  1.0  0.0495
  C  C88  1  0.227300  0.500200  0.998100  1.0  -0.1174
  C  C89  1  0.307400  0.545300  0.943440  1.0  -0.1266
  C  C90  1  0.421200  0.636900  0.948160  1.0  0.0625
  C  C91  1  0.528600  0.679400  0.890570  1.0  -0.1426
  C  C92  1  0.814600  0.513000  0.882300  1.0  -0.1714
  C  C93  1  0.060700  0.187000  0.991820  1.0  -0.1335
  C  C94  1  0.144800  0.142600  0.936990  1.0  -0.1256
  C  C95  1  0.246700  0.045900  0.941460  1.0  0.0499
  C  C96  1  0.272700  0.000200  0.001900  1.0  -0.117
  C  C97  1  0.192600  0.045300  0.056560  1.0  -0.1267
  C  C98  1  0.078800  0.136900  0.051840  1.0  0.0628
  C  C99  1  0.971400  0.179400  0.109430  1.0  -0.1423
  C  C100  1  0.685400  0.013000  0.117700  1.0  -0.1704
  C  C101  1  0.439300  0.687000  0.491820  1.0  -0.1335
  C  C102  1  0.355200  0.642600  0.436990  1.0  -0.1258
  C  C103  1  0.253300  0.545900  0.441460  1.0  0.0506
  C  C104  1  0.227300  0.500200  0.501900  1.0  -0.1172
  C  C105  1  0.307400  0.545300  0.556560  1.0  -0.1262
  C  C106  1  0.421200  0.636900  0.551840  1.0  0.063
  C  C107  1  0.528600  0.679400  0.609430  1.0  -0.1427
  C  C108  1  0.814600  0.513000  0.617700  1.0  -0.1686
  C  C109  1  0.060700  0.187000  0.508180  1.0  -0.1326
  C  C110  1  0.144800  0.142600  0.563010  1.0  -0.1276
  C  C111  1  0.246700  0.045900  0.558540  1.0  0.0486
  C  C112  1  0.272700  0.000200  0.498100  1.0  -0.1161
  C  C113  1  0.192600  0.045300  0.443440  1.0  -0.1283
  C  C114  1  0.078800  0.136900  0.448160  1.0  0.0626
  C  C115  1  0.971400  0.179400  0.390570  1.0  -0.1422
  C  C116  1  0.685400  0.013000  0.382300  1.0  -0.1685
  C  C117  1  0.560700  0.313000  0.991820  1.0  -0.133
  C  C118  1  0.644800  0.357400  0.936990  1.0  -0.1266
  C  C119  1  0.746700  0.454100  0.941460  1.0  0.049
  C  C120  1  0.772700  0.499800  0.001900  1.0  -0.1151
  C  C121  1  0.692600  0.454700  0.056560  1.0  -0.1269
  C  C122  1  0.578800  0.363100  0.051840  1.0  0.0631
  C  C123  1  0.471400  0.320600  0.109430  1.0  -0.1438
  C  C124  1  0.185400  0.487000  0.117700  1.0  -0.1692
  C  C125  1  0.939300  0.813000  0.008180  1.0  -0.1322
  C  C126  1  0.855200  0.857400  0.063010  1.0  -0.1264
  C  C127  1  0.753300  0.954100  0.058540  1.0  0.0499
  C  C128  1  0.727300  0.999800  0.998100  1.0  -0.1156
  C  C129  1  0.807400  0.954700  0.943440  1.0  -0.1266
  C  C130  1  0.921200  0.863100  0.948160  1.0  0.0628
  C  C131  1  0.028600  0.820600  0.890570  1.0  -0.1426
  C  C132  1  0.314600  0.987000  0.882300  1.0  -0.1684
  S  S133  1  0.377240  0.424060  0.336820  1.0  -0.003
  S  S134  1  0.122760  0.924060  0.663180  1.0  -0.0038
  S  S135  1  0.622760  0.575940  0.836820  1.0  -0.0038
  S  S136  1  0.877240  0.075940  0.163180  1.0  -0.0032
  S  S137  1  0.622760  0.575940  0.663180  1.0  -0.0038
  S  S138  1  0.877240  0.075940  0.336820  1.0  -0.0038
  S  S139  1  0.377240  0.424060  0.163180  1.0  -0.0029
  S  S140  1  0.122760  0.924060  0.836820  1.0  -0.0026
  Br  Br141  1  0.894960  0.348290  0.250000  1.0  -0.3967
  Br  Br142  1  0.605040  0.848290  0.750000  1.0  -0.3968
  Br  Br143  1  0.105040  0.651710  0.750000  1.0  -0.3975
  Br  Br144  1  0.394960  0.151710  0.250000  1.0  -0.3974
