# generated using pymatgen
data_Cu2H12C19O10
_symmetry_space_group_name_H-M   'P 1'
_cell_length_a   18.57730000
_cell_length_b   18.57730000
_cell_length_c   22.69330000
_cell_angle_alpha   90.00000000
_cell_angle_beta   90.00000000
_cell_angle_gamma   120.00000000
_symmetry_Int_Tables_number   1
_chemical_formula_structural   Cu2H12C19O10
_chemical_formula_sum   'Cu12 H72 C114 O60'
_cell_volume   6782.55735671
_cell_formula_units_Z   6
loop_
 _symmetry_equiv_pos_site_id
 _symmetry_equiv_pos_as_xyz
  1  'x, y, z'
loop_
 _atom_site_type_symbol
 _atom_site_label
 _atom_site_symmetry_multiplicity
 _atom_site_fract_x
 _atom_site_fract_y
 _atom_site_fract_z
 _atom_site_occupancy
 _atom_site_charge
  Cu  Cu1  1  0.045650  0.543670  0.548800  1.0  0.9388
  Cu  Cu2  1  0.498020  0.954350  0.548800  1.0  0.9398
  Cu  Cu3  1  0.456330  0.501980  0.548800  1.0  0.9369
  Cu  Cu4  1  0.954350  0.456330  0.048800  1.0  0.9364
  Cu  Cu5  1  0.501980  0.045650  0.048800  1.0  0.9403
  Cu  Cu6  1  0.543670  0.498020  0.048800  1.0  0.938
  Cu  Cu7  1  0.501980  0.456330  0.451200  1.0  0.9372
  Cu  Cu8  1  0.543670  0.045650  0.451200  1.0  0.9395
  Cu  Cu9  1  0.954350  0.498020  0.451200  1.0  0.9388
  Cu  Cu10  1  0.498020  0.543670  0.951200  1.0  0.9398
  Cu  Cu11  1  0.456330  0.954350  0.951200  1.0  0.9405
  Cu  Cu12  1  0.045650  0.501980  0.951200  1.0  0.9376
  H  H13  1  0.692400  0.642800  0.631700  1.0  0.1248
  H  H14  1  0.750300  0.519800  0.509900  1.0  0.1208
  H  H15  1  0.926000  0.675100  0.627600  1.0  0.1229
  H  H16  1  0.952100  0.808700  0.666800  1.0  0.0804
  H  H17  1  0.934600  0.734700  0.711900  1.0  0.0662
  H  H18  1  0.891500  0.861300  0.735300  1.0  0.1199
  H  H19  1  0.950400  0.307600  0.631700  1.0  0.1243
  H  H20  1  0.769500  0.249700  0.509900  1.0  0.121
  H  H21  1  0.749100  0.074000  0.627600  1.0  0.1233
  H  H22  1  0.856600  0.047900  0.666800  1.0  0.08
  H  H23  1  0.800100  0.065400  0.711900  1.0  0.065
  H  H24  1  0.969800  0.108500  0.735300  1.0  0.1182
  H  H25  1  0.357200  0.049600  0.631700  1.0  0.126
  H  H26  1  0.480200  0.230500  0.509900  1.0  0.121
  H  H27  1  0.324900  0.250900  0.627600  1.0  0.1231
  H  H28  1  0.191300  0.143400  0.666800  1.0  0.0807
  H  H29  1  0.265300  0.199900  0.711900  1.0  0.0647
  H  H30  1  0.138700  0.030200  0.735300  1.0  0.1174
  H  H31  1  0.307600  0.357200  0.131700  1.0  0.1247
  H  H32  1  0.249700  0.480200  0.009900  1.0  0.1213
  H  H33  1  0.074000  0.324900  0.127600  1.0  0.123
  H  H34  1  0.047900  0.191300  0.166800  1.0  0.0793
  H  H35  1  0.065400  0.265300  0.211900  1.0  0.0656
  H  H36  1  0.108500  0.138700  0.235300  1.0  0.1191
  H  H37  1  0.049600  0.692400  0.131700  1.0  0.1245
  H  H38  1  0.230500  0.750300  0.009900  1.0  0.1209
  H  H39  1  0.250900  0.926000  0.127600  1.0  0.123
  H  H40  1  0.143400  0.952100  0.166800  1.0  0.0803
  H  H41  1  0.199900  0.934600  0.211900  1.0  0.0637
  H  H42  1  0.030200  0.891500  0.235300  1.0  0.1169
  H  H43  1  0.642800  0.950400  0.131700  1.0  0.1258
  H  H44  1  0.519800  0.769500  0.009900  1.0  0.1206
  H  H45  1  0.675100  0.749100  0.127600  1.0  0.1223
  H  H46  1  0.808700  0.856600  0.166800  1.0  0.0813
  H  H47  1  0.734700  0.800100  0.211900  1.0  0.0642
  H  H48  1  0.861300  0.969800  0.235300  1.0  0.117
  H  H49  1  0.049600  0.357200  0.368300  1.0  0.1246
  H  H50  1  0.230500  0.480200  0.490100  1.0  0.1203
  H  H51  1  0.250900  0.324900  0.372400  1.0  0.1228
  H  H52  1  0.143400  0.191300  0.333200  1.0  0.0812
  H  H53  1  0.199900  0.265300  0.288100  1.0  0.0667
  H  H54  1  0.030200  0.138700  0.264700  1.0  0.1206
  H  H55  1  0.642800  0.692400  0.368300  1.0  0.1243
  H  H56  1  0.519800  0.750300  0.490100  1.0  0.1206
  H  H57  1  0.675100  0.926000  0.372400  1.0  0.1229
  H  H58  1  0.808700  0.952100  0.333200  1.0  0.0814
  H  H59  1  0.734700  0.934600  0.288100  1.0  0.0645
  H  H60  1  0.861300  0.891500  0.264700  1.0  0.118
  H  H61  1  0.307600  0.950400  0.368300  1.0  0.1252
  H  H62  1  0.249700  0.769500  0.490100  1.0  0.1204
  H  H63  1  0.074000  0.749100  0.372400  1.0  0.1227
  H  H64  1  0.047900  0.856600  0.333200  1.0  0.0824
  H  H65  1  0.065400  0.800100  0.288100  1.0  0.0636
  H  H66  1  0.108500  0.969800  0.264700  1.0  0.1172
  H  H67  1  0.950400  0.642800  0.868300  1.0  0.1244
  H  H68  1  0.769500  0.519800  0.990100  1.0  0.1205
  H  H69  1  0.749100  0.675100  0.872400  1.0  0.1234
  H  H70  1  0.856600  0.808700  0.833200  1.0  0.0805
  H  H71  1  0.800100  0.734700  0.788100  1.0  0.0657
  H  H72  1  0.969800  0.861300  0.764700  1.0  0.1187
  H  H73  1  0.357200  0.307600  0.868300  1.0  0.1243
  H  H74  1  0.480200  0.249700  0.990100  1.0  0.1206
  H  H75  1  0.324900  0.074000  0.872400  1.0  0.1229
  H  H76  1  0.191300  0.047900  0.833200  1.0  0.0818
  H  H77  1  0.265300  0.065400  0.788100  1.0  0.0647
  H  H78  1  0.138700  0.108500  0.764700  1.0  0.1175
  H  H79  1  0.692400  0.049600  0.868300  1.0  0.1257
  H  H80  1  0.750300  0.230500  0.990100  1.0  0.1207
  H  H81  1  0.926000  0.250900  0.872400  1.0  0.1228
  H  H82  1  0.952100  0.143400  0.833200  1.0  0.0813
  H  H83  1  0.934600  0.199900  0.788100  1.0  0.065
  H  H84  1  0.891500  0.030200  0.764700  1.0  0.1181
  C  C85  1  0.621040  0.534650  0.544360  1.0  0.6853
  C  C86  1  0.904490  0.567760  0.540230  1.0  0.6768
  C  C87  1  0.732040  0.631330  0.614200  1.0  -0.0953
  C  C88  1  0.708050  0.574910  0.568130  1.0  -0.171
  C  C89  1  0.765570  0.556400  0.542620  1.0  -0.0502
  C  C90  1  0.845590  0.592550  0.566120  1.0  -0.1197
  C  C91  1  0.871200  0.650530  0.612200  1.0  -0.1552
  C  C92  1  0.813270  0.671450  0.635170  1.0  0.2374
  C  C93  1  0.915160  0.772820  0.698590  1.0  0.0715
  C  C94  1  0.913610  0.378960  0.544360  1.0  0.6877
  C  C95  1  0.663270  0.095510  0.540230  1.0  0.6776
  C  C96  1  0.899290  0.267960  0.614200  1.0  -0.0939
  C  C97  1  0.866860  0.291950  0.568130  1.0  -0.1696
  C  C98  1  0.790830  0.234430  0.542620  1.0  -0.0514
  C  C99  1  0.746960  0.154410  0.566120  1.0  -0.1196
  C  C100  1  0.779330  0.128800  0.612200  1.0  -0.1522
  C  C101  1  0.858180  0.186730  0.635170  1.0  0.2369
  C  C102  1  0.857660  0.084840  0.698590  1.0  0.0698
  C  C103  1  0.465350  0.086390  0.544360  1.0  0.6864
  C  C104  1  0.432240  0.336730  0.540230  1.0  0.6777
  C  C105  1  0.368670  0.100710  0.614200  1.0  -0.093
  C  C106  1  0.425090  0.133140  0.568130  1.0  -0.1706
  C  C107  1  0.443600  0.209170  0.542620  1.0  -0.0522
  C  C108  1  0.407450  0.253040  0.566120  1.0  -0.119
  C  C109  1  0.349470  0.220670  0.612200  1.0  -0.1555
  C  C110  1  0.328550  0.141820  0.635170  1.0  0.2381
  C  C111  1  0.227180  0.142340  0.698590  1.0  0.0718
  C  C112  1  0.378960  0.465350  0.044360  1.0  0.6866
  C  C113  1  0.095510  0.432240  0.040230  1.0  0.6766
  C  C114  1  0.267960  0.368670  0.114200  1.0  -0.0948
  C  C115  1  0.291950  0.425090  0.068130  1.0  -0.1705
  C  C116  1  0.234430  0.443600  0.042620  1.0  -0.0488
  C  C117  1  0.154410  0.407450  0.066120  1.0  -0.1195
  C  C118  1  0.128800  0.349470  0.112200  1.0  -0.1566
  C  C119  1  0.186730  0.328550  0.135170  1.0  0.2361
  C  C120  1  0.084840  0.227180  0.198590  1.0  0.0717
  C  C121  1  0.086390  0.621040  0.044360  1.0  0.6874
  C  C122  1  0.336730  0.904490  0.040230  1.0  0.6777
  C  C123  1  0.100710  0.732040  0.114200  1.0  -0.0933
  C  C124  1  0.133140  0.708050  0.068130  1.0  -0.17
  C  C125  1  0.209170  0.765570  0.042620  1.0  -0.0516
  C  C126  1  0.253040  0.845590  0.066120  1.0  -0.1195
  C  C127  1  0.220670  0.871200  0.112200  1.0  -0.152
  C  C128  1  0.141820  0.813270  0.135170  1.0  0.2365
  C  C129  1  0.142340  0.915160  0.198590  1.0  0.0689
  C  C130  1  0.534650  0.913610  0.044360  1.0  0.6863
  C  C131  1  0.567760  0.663270  0.040230  1.0  0.6773
  C  C132  1  0.631330  0.899290  0.114200  1.0  -0.0947
  C  C133  1  0.574910  0.866860  0.068130  1.0  -0.1708
  C  C134  1  0.556400  0.790830  0.042620  1.0  -0.0525
  C  C135  1  0.592550  0.746960  0.066120  1.0  -0.1195
  C  C136  1  0.650530  0.779330  0.112200  1.0  -0.154
  C  C137  1  0.671450  0.858180  0.135170  1.0  0.239
  C  C138  1  0.772820  0.857660  0.198590  1.0  0.0704
  C  C139  1  0.086390  0.465350  0.455640  1.0  0.6856
  C  C140  1  0.336730  0.432240  0.459770  1.0  0.6771
  C  C141  1  0.100710  0.368670  0.385800  1.0  -0.0936
  C  C142  1  0.133140  0.425090  0.431870  1.0  -0.1709
  C  C143  1  0.209170  0.443600  0.457380  1.0  -0.0485
  C  C144  1  0.253040  0.407450  0.433880  1.0  -0.1198
  C  C145  1  0.220670  0.349470  0.387800  1.0  -0.1554
  C  C146  1  0.141820  0.328550  0.364830  1.0  0.2377
  C  C147  1  0.142340  0.227180  0.301410  1.0  0.0729
  C  C148  1  0.534650  0.621040  0.455640  1.0  0.6874
  C  C149  1  0.567760  0.904490  0.459770  1.0  0.6778
  C  C150  1  0.631330  0.732040  0.385800  1.0  -0.0929
  C  C151  1  0.574910  0.708050  0.431870  1.0  -0.17
  C  C152  1  0.556400  0.765570  0.457380  1.0  -0.0511
  C  C153  1  0.592550  0.845590  0.433880  1.0  -0.1191
  C  C154  1  0.650530  0.871200  0.387800  1.0  -0.1522
  C  C155  1  0.671450  0.813270  0.364830  1.0  0.2366
  C  C156  1  0.772820  0.915160  0.301410  1.0  0.0693
  C  C157  1  0.378960  0.913610  0.455640  1.0  0.6871
  C  C158  1  0.095510  0.663270  0.459770  1.0  0.6776
  C  C159  1  0.267960  0.899290  0.385800  1.0  -0.092
  C  C160  1  0.291950  0.866860  0.431870  1.0  -0.1708
  C  C161  1  0.234430  0.790830  0.457380  1.0  -0.0513
  C  C162  1  0.154410  0.746960  0.433880  1.0  -0.1198
  C  C163  1  0.128800  0.779330  0.387800  1.0  -0.1564
  C  C164  1  0.186730  0.858180  0.364830  1.0  0.2393
  C  C165  1  0.084840  0.857660  0.301410  1.0  0.0718
  C  C166  1  0.913610  0.534650  0.955640  1.0  0.6863
  C  C167  1  0.663270  0.567760  0.959770  1.0  0.6766
  C  C168  1  0.899290  0.631330  0.885800  1.0  -0.0937
  C  C169  1  0.866860  0.574910  0.931870  1.0  -0.1705
  C  C170  1  0.790830  0.556400  0.957380  1.0  -0.0481
  C  C171  1  0.746960  0.592550  0.933880  1.0  -0.1198
  C  C172  1  0.779330  0.650530  0.887800  1.0  -0.1573
  C  C173  1  0.858180  0.671450  0.864830  1.0  0.2361
  C  C174  1  0.857660  0.772820  0.801410  1.0  0.0714
  C  C175  1  0.465350  0.378960  0.955640  1.0  0.6878
  C  C176  1  0.432240  0.095510  0.959770  1.0  0.6775
  C  C177  1  0.368670  0.267960  0.885800  1.0  -0.0926
  C  C178  1  0.425090  0.291950  0.931870  1.0  -0.1695
  C  C179  1  0.443600  0.234430  0.957380  1.0  -0.0503
  C  C180  1  0.407450  0.154410  0.933880  1.0  -0.1201
  C  C181  1  0.349470  0.128800  0.887800  1.0  -0.1526
  C  C182  1  0.328550  0.186730  0.864830  1.0  0.2373
  C  C183  1  0.227180  0.084840  0.801410  1.0  0.07
  C  C184  1  0.621040  0.086390  0.955640  1.0  0.6863
  C  C185  1  0.904490  0.336730  0.959770  1.0  0.6777
  C  C186  1  0.732040  0.100710  0.885800  1.0  -0.0937
  C  C187  1  0.708050  0.133140  0.931870  1.0  -0.1708
  C  C188  1  0.765570  0.209170  0.957380  1.0  -0.0521
  C  C189  1  0.845590  0.253040  0.933880  1.0  -0.1192
  C  C190  1  0.871200  0.220670  0.887800  1.0  -0.1534
  C  C191  1  0.813270  0.141820  0.864830  1.0  0.2382
  C  C192  1  0.915160  0.142340  0.801410  1.0  0.0713
  C  C193  1  0.912520  0.825040  0.750000  1.0  -0.1253
  C  C194  1  0.912520  0.087480  0.750000  1.0  -0.1224
  C  C195  1  0.174960  0.087480  0.750000  1.0  -0.1208
  C  C196  1  0.087480  0.174960  0.250000  1.0  -0.1206
  C  C197  1  0.087480  0.912520  0.250000  1.0  -0.1225
  C  C198  1  0.825040  0.912520  0.250000  1.0  -0.1248
  O  O199  1  0.967850  0.583640  0.570340  1.0  -0.5692
  O  O200  1  0.884480  0.531960  0.490500  1.0  -0.5638
  O  O201  1  0.567190  0.535570  0.577100  1.0  -0.5782
  O  O202  1  0.609270  0.505120  0.493430  1.0  -0.5769
  O  O203  1  0.830660  0.727520  0.679150  1.0  -0.3075
  O  O204  1  0.615790  0.032150  0.570340  1.0  -0.568
  O  O205  1  0.647480  0.115520  0.490500  1.0  -0.5634
  O  O206  1  0.968380  0.432810  0.577100  1.0  -0.5777
  O  O207  1  0.895850  0.390730  0.493430  1.0  -0.5759
  O  O208  1  0.896860  0.169340  0.679150  1.0  -0.306
  O  O209  1  0.416360  0.384210  0.570340  1.0  -0.5689
  O  O210  1  0.468040  0.352520  0.490500  1.0  -0.5638
  O  O211  1  0.464430  0.031620  0.577100  1.0  -0.5775
  O  O212  1  0.494880  0.104150  0.493430  1.0  -0.5768
  O  O213  1  0.272480  0.103140  0.679150  1.0  -0.3061
  O  O214  1  0.032150  0.416360  0.070340  1.0  -0.5686
  O  O215  1  0.115520  0.468040  0.990500  1.0  -0.5642
  O  O216  1  0.432810  0.464430  0.077100  1.0  -0.5772
  O  O217  1  0.390730  0.494880  0.993430  1.0  -0.5759
  O  O218  1  0.169340  0.272480  0.179150  1.0  -0.3067
  O  O219  1  0.384210  0.967850  0.070340  1.0  -0.5698
  O  O220  1  0.352520  0.884480  0.990500  1.0  -0.5642
  O  O221  1  0.031620  0.567190  0.077100  1.0  -0.5786
  O  O222  1  0.104150  0.609270  0.993430  1.0  -0.5768
  O  O223  1  0.103140  0.830660  0.179150  1.0  -0.3056
  O  O224  1  0.583640  0.615790  0.070340  1.0  -0.5688
  O  O225  1  0.531960  0.647480  0.990500  1.0  -0.5632
  O  O226  1  0.535570  0.968380  0.077100  1.0  -0.5783
  O  O227  1  0.505120  0.895850  0.993430  1.0  -0.5767
  O  O228  1  0.727520  0.896860  0.179150  1.0  -0.3056
  O  O229  1  0.384210  0.416360  0.429660  1.0  -0.5687
  O  O230  1  0.352520  0.468040  0.509500  1.0  -0.5638
  O  O231  1  0.031620  0.464430  0.422900  1.0  -0.5791
  O  O232  1  0.104150  0.494880  0.506570  1.0  -0.5761
  O  O233  1  0.103140  0.272480  0.320850  1.0  -0.3079
  O  O234  1  0.583640  0.967850  0.429660  1.0  -0.5684
  O  O235  1  0.531960  0.884480  0.509500  1.0  -0.5629
  O  O236  1  0.535570  0.567190  0.422900  1.0  -0.5795
  O  O237  1  0.505120  0.609270  0.506570  1.0  -0.576
  O  O238  1  0.727520  0.830660  0.320850  1.0  -0.3042
  O  O239  1  0.032150  0.615790  0.429660  1.0  -0.5689
  O  O240  1  0.115520  0.647480  0.509500  1.0  -0.563
  O  O241  1  0.432810  0.968380  0.422900  1.0  -0.5795
  O  O242  1  0.390730  0.895850  0.506570  1.0  -0.5765
  O  O243  1  0.169340  0.896860  0.320850  1.0  -0.3057
  O  O244  1  0.615790  0.583640  0.929660  1.0  -0.5693
  O  O245  1  0.647480  0.531960  0.009500  1.0  -0.5637
  O  O246  1  0.968380  0.535570  0.922900  1.0  -0.5789
  O  O247  1  0.895850  0.505120  0.006570  1.0  -0.5761
  O  O248  1  0.896860  0.727520  0.820850  1.0  -0.3079
  O  O249  1  0.416360  0.032150  0.929660  1.0  -0.5683
  O  O250  1  0.468040  0.115520  0.009500  1.0  -0.5631
  O  O251  1  0.464430  0.432810  0.922900  1.0  -0.5792
  O  O252  1  0.494880  0.390730  0.006570  1.0  -0.576
  O  O253  1  0.272480  0.169340  0.820850  1.0  -0.307
  O  O254  1  0.967850  0.384210  0.929660  1.0  -0.5693
  O  O255  1  0.884480  0.352520  0.009500  1.0  -0.5634
  O  O256  1  0.567190  0.031620  0.922900  1.0  -0.5787
  O  O257  1  0.609270  0.104150  0.006570  1.0  -0.5757
  O  O258  1  0.830660  0.103140  0.820850  1.0  -0.3063
