# generated using pymatgen
data_Zn3H12C20(N3O4)2
_symmetry_space_group_name_H-M   'P 1'
_cell_length_a   9.17680000
_cell_length_b   10.90170000
_cell_length_c   11.39610000
_cell_angle_alpha   117.93800000
_cell_angle_beta   100.53500000
_cell_angle_gamma   98.51700000
_symmetry_Int_Tables_number   1
_chemical_formula_structural   Zn3H12C20(N3O4)2
_chemical_formula_sum   'Zn3 H12 C20 N6 O8'
_cell_volume   953.70715407
_cell_formula_units_Z   1
loop_
 _symmetry_equiv_pos_site_id
 _symmetry_equiv_pos_as_xyz
  1  'x, y, z'
loop_
 _atom_site_type_symbol
 _atom_site_label
 _atom_site_symmetry_multiplicity
 _atom_site_fract_x
 _atom_site_fract_y
 _atom_site_fract_z
 _atom_site_occupancy
 _atom_site_charge
  Zn  Zn1  1  0.309860  0.374630  0.377050  1.0  0.9102
  Zn  Zn2  1  0.690140  0.625370  0.622950  1.0  0.9102
  Zn  Zn3  1  0.000000  0.500000  0.500000  1.0  1.0588
  H  H4  1  0.888400  0.581500  0.180500  1.0  0.1036
  H  H5  1  0.219700  0.997600  0.428200  1.0  0.1075
  H  H6  1  0.872000  0.173600  0.517800  1.0  0.1036
  H  H7  1  0.189700  0.381600  0.002100  1.0  0.1092
  H  H8  1  0.242500  0.760700  0.802200  1.0  0.119
  H  H9  1  0.523500  0.811200  0.849000  1.0  0.1181
  H  H10  1  0.111600  0.418500  0.819500  1.0  0.1042
  H  H11  1  0.780300  0.002400  0.571800  1.0  0.1077
  H  H12  1  0.128000  0.826400  0.482200  1.0  0.104
  H  H13  1  0.810300  0.618400  0.997900  1.0  0.1089
  H  H14  1  0.757500  0.239300  0.197800  1.0  0.1182
  H  H15  1  0.476500  0.188800  0.151000  1.0  0.1177
  C  C16  1  0.933300  0.549100  0.108400  1.0  -0.0532
  C  C17  1  0.130800  0.998100  0.456400  1.0  -0.0552
  C  C18  1  0.112000  0.209500  0.427900  1.0  0.7046
  C  C19  1  0.923000  0.103700  0.509900  1.0  -0.0435
  C  C20  1  0.113800  0.429400  0.001400  1.0  -0.0478
  C  C21  1  0.295500  0.710000  0.741400  1.0  -0.0375
  C  C22  1  0.053500  0.100400  0.464400  1.0  -0.1279
  C  C23  1  0.098300  0.456900  0.230600  1.0  0.7051
  C  C24  1  0.048700  0.478400  0.111000  1.0  -0.1489
  C  C25  1  0.451300  0.737700  0.767400  1.0  -0.0102
  C  C26  1  0.066700  0.450900  0.891600  1.0  -0.053
  C  C27  1  0.869200  0.001900  0.543600  1.0  -0.0569
  C  C28  1  0.888000  0.790500  0.572100  1.0  0.7042
  C  C29  1  0.077000  0.896300  0.490100  1.0  -0.0421
  C  C30  1  0.886200  0.570600  0.998600  1.0  -0.0494
  C  C31  1  0.704500  0.290000  0.258600  1.0  -0.0382
  C  C32  1  0.946500  0.899600  0.535600  1.0  -0.127
  C  C33  1  0.901700  0.543100  0.769400  1.0  0.7028
  C  C34  1  0.951300  0.521600  0.889000  1.0  -0.1482
  C  C35  1  0.548700  0.262300  0.232600  1.0  -0.0118
  N  N36  1  0.347300  0.555500  0.560400  1.0  -0.1147
  N  N37  1  0.232200  0.596700  0.612500  1.0  -0.1691
  N  N38  1  0.482400  0.640700  0.655300  1.0  -0.2217
  N  N39  1  0.652700  0.444500  0.439600  1.0  -0.1145
  N  N40  1  0.767800  0.403300  0.387500  1.0  -0.1687
  N  N41  1  0.517600  0.359300  0.344700  1.0  -0.2243
  O  O42  1  0.203400  0.390500  0.225200  1.0  -0.6088
  O  O43  1  0.241500  0.213700  0.403600  1.0  -0.5949
  O  O44  1  0.039800  0.506400  0.326900  1.0  -0.6109
  O  O45  1  0.031600  0.291000  0.422400  1.0  -0.6635
  O  O46  1  0.796600  0.609500  0.774800  1.0  -0.6086
  O  O47  1  0.758500  0.786300  0.596400  1.0  -0.5928
  O  O48  1  0.960200  0.493600  0.673100  1.0  -0.6102
  O  O49  1  0.968400  0.709000  0.577600  1.0  -0.6639
