# generated using pymatgen
data_Zn3H12C20(N3O4)2
_symmetry_space_group_name_H-M   'P 1'
_cell_length_a   9.17430000
_cell_length_b   10.84880000
_cell_length_c   11.34580000
_cell_angle_alpha   113.47900000
_cell_angle_beta   98.72600000
_cell_angle_gamma   98.01600000
_symmetry_Int_Tables_number   1
_chemical_formula_structural   Zn3H12C20(N3O4)2
_chemical_formula_sum   'Zn3 H12 C20 N6 O8'
_cell_volume   998.57024378
_cell_formula_units_Z   1
loop_
 _symmetry_equiv_pos_site_id
 _symmetry_equiv_pos_as_xyz
  1  'x, y, z'
loop_
 _atom_site_type_symbol
 _atom_site_label
 _atom_site_symmetry_multiplicity
 _atom_site_fract_x
 _atom_site_fract_y
 _atom_site_fract_z
 _atom_site_occupancy
 _atom_site_charge
  Zn  Zn1  1  0.819650  0.386710  0.386010  1.0  0.8956
  Zn  Zn2  1  0.180350  0.613290  0.613990  1.0  0.8969
  Zn  Zn3  1  0.500000  0.500000  0.500000  1.0  1.0374
  H  H4  1  0.407400  0.606000  0.185600  1.0  0.1078
  H  H5  1  0.679200  0.370100  0.003100  1.0  0.1132
  H  H6  1  0.720600  0.994000  0.423500  1.0  0.1169
  H  H7  1  0.000200  0.787300  0.826100  1.0  0.1162
  H  H8  1  0.379100  0.178900  0.521700  1.0  0.102
  H  H9  1  0.726100  0.743900  0.784400  1.0  0.1085
  H  H10  1  0.592600  0.394000  0.814400  1.0  0.109
  H  H11  1  0.320800  0.629900  0.996900  1.0  0.1132
  H  H12  1  0.279400  0.006000  0.576500  1.0  0.1175
  H  H13  1  0.999800  0.212700  0.173900  1.0  0.1161
  H  H14  1  0.620900  0.821100  0.478300  1.0  0.1027
  H  H15  1  0.273900  0.256100  0.215600  1.0  0.1082
  C  C16  1  0.444500  0.563500  0.111000  1.0  -0.0491
  C  C17  1  0.621100  0.216700  0.432600  1.0  0.6891
  C  C18  1  0.607800  0.470800  0.238600  1.0  0.6949
  C  C19  1  0.607200  0.422300  0.001700  1.0  -0.0469
  C  C20  1  0.557700  0.104700  0.467300  1.0  -0.1279
  C  C21  1  0.553000  0.485500  0.114400  1.0  -0.1306
  C  C22  1  0.632100  0.996300  0.454100  1.0  -0.0585
  C  C23  1  0.933300  0.719700  0.750400  1.0  0.0044
  C  C24  1  0.427800  0.107100  0.512800  1.0  -0.0278
  C  C25  1  0.782300  0.696000  0.727200  1.0  -0.0219
  C  C26  1  0.555500  0.436500  0.889000  1.0  -0.0504
  C  C27  1  0.378900  0.783300  0.567400  1.0  0.6882
  C  C28  1  0.392200  0.529200  0.761400  1.0  0.6926
  C  C29  1  0.392800  0.577700  0.998300  1.0  -0.0481
  C  C30  1  0.442300  0.895300  0.532700  1.0  -0.1272
  C  C31  1  0.447000  0.514500  0.885600  1.0  -0.1304
  C  C32  1  0.367900  0.003700  0.545900  1.0  -0.0609
  C  C33  1  0.066700  0.280300  0.249600  1.0  0.0037
  C  C34  1  0.572200  0.892900  0.487200  1.0  -0.027
  C  C35  1  0.217700  0.304000  0.272800  1.0  -0.021
  N  N36  1  0.971400  0.628900  0.645100  1.0  -0.2329
  N  N37  1  0.725700  0.590700  0.607000  1.0  -0.1858
  N  N38  1  0.842500  0.551300  0.558700  1.0  -0.091
  N  N39  1  0.028600  0.371100  0.354900  1.0  -0.2341
  N  N40  1  0.274300  0.409300  0.393000  1.0  -0.1858
  N  N41  1  0.157500  0.448700  0.441300  1.0  -0.0915
  O  O42  1  0.750100  0.218100  0.405700  1.0  -0.5906
  O  O43  1  0.715400  0.406100  0.236200  1.0  -0.6148
  O  O44  1  0.550400  0.522700  0.333800  1.0  -0.623
  O  O45  1  0.544800  0.302800  0.429800  1.0  -0.6628
  O  O46  1  0.249900  0.781900  0.594300  1.0  -0.5909
  O  O47  1  0.284600  0.593900  0.763800  1.0  -0.6155
  O  O48  1  0.449600  0.477300  0.666200  1.0  -0.6232
  O  O49  1  0.455200  0.697200  0.570200  1.0  -0.6645
