# generated using pymatgen
data_Zn3P2H21C22NO15
_symmetry_space_group_name_H-M   'P 1'
_cell_length_a   13.70700000
_cell_length_b   17.12100000
_cell_length_c   36.01800000
_cell_angle_alpha   90.00000000
_cell_angle_beta   90.00000000
_cell_angle_gamma   90.00000000
_symmetry_Int_Tables_number   1
_chemical_formula_structural   Zn3P2H21C22NO15
_chemical_formula_sum   'Zn24 P16 H168 C176 N8 O120'
_cell_volume   8452.61588785
_cell_formula_units_Z   8
loop_
 _symmetry_equiv_pos_site_id
 _symmetry_equiv_pos_as_xyz
  1  'x, y, z'
loop_
 _atom_site_type_symbol
 _atom_site_label
 _atom_site_symmetry_multiplicity
 _atom_site_fract_x
 _atom_site_fract_y
 _atom_site_fract_z
 _atom_site_occupancy
 _atom_site_charge
  Zn  Zn1  1  0.135360  0.364940  0.153100  1.0  1.0415
  Zn  Zn2  1  0.986590  0.352770  0.072170  1.0  1.0917
  Zn  Zn3  1  0.926310  0.158340  0.127950  1.0  1.1481
  Zn  Zn4  1  0.364640  0.635060  0.653100  1.0  1.0415
  Zn  Zn5  1  0.513410  0.647230  0.572170  1.0  1.0922
  Zn  Zn6  1  0.573690  0.841660  0.627950  1.0  1.147
  Zn  Zn7  1  0.864640  0.864940  0.346900  1.0  1.0406
  Zn  Zn8  1  0.013410  0.852770  0.427830  1.0  1.0942
  Zn  Zn9  1  0.073690  0.658340  0.372050  1.0  1.1444
  Zn  Zn10  1  0.635360  0.135060  0.846900  1.0  1.0421
  Zn  Zn11  1  0.486590  0.147230  0.927830  1.0  1.0938
  Zn  Zn12  1  0.426310  0.341660  0.872050  1.0  1.1441
  Zn  Zn13  1  0.864640  0.635060  0.846900  1.0  1.0411
  Zn  Zn14  1  0.013410  0.647230  0.927830  1.0  1.0889
  Zn  Zn15  1  0.073690  0.841660  0.872050  1.0  1.1445
  Zn  Zn16  1  0.635360  0.364940  0.346900  1.0  1.0414
  Zn  Zn17  1  0.486590  0.352770  0.427830  1.0  1.0883
  Zn  Zn18  1  0.426310  0.158340  0.372050  1.0  1.1449
  Zn  Zn19  1  0.135360  0.135060  0.653100  1.0  1.0422
  Zn  Zn20  1  0.986590  0.147230  0.572170  1.0  1.0883
  Zn  Zn21  1  0.926310  0.341660  0.627950  1.0  1.1484
  Zn  Zn22  1  0.364640  0.864940  0.153100  1.0  1.0409
  Zn  Zn23  1  0.513410  0.852770  0.072170  1.0  1.0884
  Zn  Zn24  1  0.573690  0.658340  0.127950  1.0  1.1476
  P  P25  1  0.902070  0.332600  0.148600  1.0  1.551
  P  P26  1  0.124990  0.217810  0.103060  1.0  1.5337
  P  P27  1  0.597930  0.667400  0.648600  1.0  1.5508
  P  P28  1  0.375010  0.782190  0.603060  1.0  1.5332
  P  P29  1  0.097930  0.832600  0.351400  1.0  1.5514
  P  P30  1  0.875010  0.717810  0.396940  1.0  1.5344
  P  P31  1  0.402070  0.167400  0.851400  1.0  1.5511
  P  P32  1  0.624990  0.282190  0.896940  1.0  1.5335
  P  P33  1  0.097930  0.667400  0.851400  1.0  1.5517
  P  P34  1  0.875010  0.782190  0.896940  1.0  1.5336
  P  P35  1  0.402070  0.332600  0.351400  1.0  1.5508
  P  P36  1  0.624990  0.217810  0.396940  1.0  1.5342
  P  P37  1  0.902070  0.167400  0.648600  1.0  1.5511
  P  P38  1  0.124990  0.282190  0.603060  1.0  1.533
  P  P39  1  0.597930  0.832600  0.148600  1.0  1.5508
  P  P40  1  0.375010  0.717810  0.103060  1.0  1.534
  H  H41  1  0.849400  0.317700  0.223100  1.0  0.1034
  H  H42  1  0.646600  0.479400  0.243600  1.0  0.1153
  H  H43  1  0.762000  0.458800  0.141700  1.0  0.1191
  H  H44  1  0.230800  0.235100  0.034400  1.0  0.1216
  H  H45  1  0.414300  0.052300  0.031200  1.0  0.117
  H  H46  1  0.230600  0.076100  0.116400  1.0  0.108
  H  H47  1  0.650600  0.682300  0.723100  1.0  0.1036
  H  H48  1  0.853400  0.520600  0.743600  1.0  0.1156
  H  H49  1  0.738000  0.541200  0.641700  1.0  0.1191
  H  H50  1  0.269200  0.764900  0.534400  1.0  0.1213
  H  H51  1  0.085700  0.947700  0.531200  1.0  0.1171
  H  H52  1  0.269400  0.923900  0.616400  1.0  0.1085
  H  H53  1  0.150600  0.817700  0.276900  1.0  0.1036
  H  H54  1  0.353400  0.979400  0.256400  1.0  0.1149
  H  H55  1  0.238000  0.958800  0.358300  1.0  0.1169
  H  H56  1  0.769200  0.735100  0.465600  1.0  0.1214
  H  H57  1  0.585700  0.552300  0.468800  1.0  0.1173
  H  H58  1  0.769400  0.576100  0.383600  1.0  0.109
  H  H59  1  0.349400  0.182300  0.776900  1.0  0.1034
  H  H60  1  0.146600  0.020600  0.756400  1.0  0.1151
  H  H61  1  0.262000  0.041200  0.858300  1.0  0.1175
  H  H62  1  0.730800  0.264900  0.965600  1.0  0.1213
  H  H63  1  0.914300  0.447700  0.968800  1.0  0.1175
  H  H64  1  0.730600  0.423900  0.883600  1.0  0.1092
  H  H65  1  0.150600  0.682300  0.776900  1.0  0.1038
  H  H66  1  0.353400  0.520600  0.756400  1.0  0.115
  H  H67  1  0.238000  0.541200  0.858300  1.0  0.117
  H  H68  1  0.769200  0.764900  0.965600  1.0  0.1212
  H  H69  1  0.585700  0.947700  0.968800  1.0  0.1173
  H  H70  1  0.769400  0.923900  0.883600  1.0  0.1093
  H  H71  1  0.349400  0.317700  0.276900  1.0  0.1035
  H  H72  1  0.146600  0.479400  0.256400  1.0  0.1151
  H  H73  1  0.262000  0.458800  0.358300  1.0  0.1174
  H  H74  1  0.730800  0.235100  0.465600  1.0  0.1215
  H  H75  1  0.914300  0.052300  0.468800  1.0  0.1175
  H  H76  1  0.730600  0.076100  0.383600  1.0  0.1089
  H  H77  1  0.849400  0.182300  0.723100  1.0  0.1033
  H  H78  1  0.646600  0.020600  0.743600  1.0  0.1155
  H  H79  1  0.762000  0.041200  0.641700  1.0  0.1187
  H  H80  1  0.230800  0.264900  0.534400  1.0  0.1212
  H  H81  1  0.414300  0.447700  0.531200  1.0  0.1172
  H  H82  1  0.230600  0.423900  0.616400  1.0  0.1082
  H  H83  1  0.650600  0.817700  0.223100  1.0  0.1036
  H  H84  1  0.853400  0.979400  0.243600  1.0  0.1153
  H  H85  1  0.738000  0.958800  0.141700  1.0  0.1194
  H  H86  1  0.269200  0.735100  0.034400  1.0  0.1214
  H  H87  1  0.085700  0.552300  0.031200  1.0  0.1169
  H  H88  1  0.269400  0.576100  0.116400  1.0  0.1083
  H  H89  1  0.540000  0.591200  0.302600  1.0  0.1174
  H  H90  1  0.461400  0.534900  0.319400  1.0  0.1187
  H  H91  1  0.516100  0.512000  0.282800  1.0  0.1098
  H  H92  1  0.373900  0.630200  0.290400  1.0  0.0899
  H  H93  1  0.363700  0.555900  0.265600  1.0  0.092
  H  H94  1  0.310800  0.691500  0.236600  1.0  0.0798
  H  H95  1  0.382800  0.700100  0.202900  1.0  0.0752
  H  H96  1  0.428000  0.749400  0.290600  1.0  0.1175
  H  H97  1  0.514400  0.801000  0.276000  1.0  0.1089
  H  H98  1  0.413100  0.803100  0.255800  1.0  0.1062
  H  H99  1  0.490700  0.733200  0.221700  1.0  0.0888
  H  H100  1  0.553800  0.699400  0.253700  1.0  0.0983
  H  H101  1  0.276300  0.614900  0.182500  1.0  0.1074
  H  H102  1  0.362600  0.561600  0.195700  1.0  0.1135
  H  H103  1  0.270200  0.572100  0.220900  1.0  0.1111
  H  H104  1  0.960000  0.408800  0.802600  1.0  0.1179
  H  H105  1  0.038600  0.465100  0.819400  1.0  0.1182
  H  H106  1  0.983900  0.488000  0.782800  1.0  0.1104
  H  H107  1  0.126100  0.369800  0.790400  1.0  0.0918
  H  H108  1  0.136300  0.444100  0.765600  1.0  0.0899
  H  H109  1  0.189200  0.308500  0.736600  1.0  0.0792
  H  H110  1  0.117200  0.299900  0.702900  1.0  0.0748
  H  H111  1  0.072000  0.250600  0.790600  1.0  0.1189
  H  H112  1  0.985600  0.199000  0.776000  1.0  0.1096
  H  H113  1  0.086900  0.196900  0.755800  1.0  0.1057
  H  H114  1  0.009300  0.266800  0.721700  1.0  0.0871
  H  H115  1  0.946200  0.300600  0.753700  1.0  0.0943
  H  H116  1  0.223700  0.385100  0.682500  1.0  0.1081
  H  H117  1  0.137400  0.438400  0.695700  1.0  0.1145
  H  H118  1  0.229800  0.427900  0.720900  1.0  0.1131
  H  H119  1  0.460000  0.091200  0.197400  1.0  0.1138
  H  H120  1  0.538600  0.034900  0.180600  1.0  0.1187
  H  H121  1  0.483900  0.012000  0.217200  1.0  0.1105
  H  H122  1  0.626100  0.130200  0.209600  1.0  0.0919
  H  H123  1  0.636300  0.055900  0.234400  1.0  0.0911
  H  H124  1  0.689200  0.191500  0.263400  1.0  0.0785
  H  H125  1  0.617200  0.200100  0.297100  1.0  0.0761
  H  H126  1  0.572000  0.249400  0.209400  1.0  0.1188
  H  H127  1  0.485600  0.301000  0.224000  1.0  0.1078
  H  H128  1  0.586900  0.303100  0.244200  1.0  0.1042
  H  H129  1  0.509300  0.233200  0.278300  1.0  0.0904
  H  H130  1  0.446200  0.199400  0.246300  1.0  0.0944
  H  H131  1  0.723700  0.114900  0.317500  1.0  0.1077
  H  H132  1  0.637400  0.061600  0.304300  1.0  0.1144
  H  H133  1  0.729800  0.072100  0.279100  1.0  0.1136
  H  H134  1  0.040000  0.908800  0.697400  1.0  0.1174
  H  H135  1  0.961400  0.965100  0.680600  1.0  0.1195
  H  H136  1  0.016100  0.988000  0.717200  1.0  0.1096
  H  H137  1  0.873900  0.869800  0.709600  1.0  0.0901
  H  H138  1  0.863700  0.944100  0.734400  1.0  0.0905
  H  H139  1  0.810800  0.808500  0.763400  1.0  0.08
  H  H140  1  0.882800  0.799900  0.797100  1.0  0.0756
  H  H141  1  0.928000  0.750600  0.709400  1.0  0.118
  H  H142  1  0.014400  0.699000  0.724000  1.0  0.1077
  H  H143  1  0.913100  0.696900  0.744200  1.0  0.1046
  H  H144  1  0.990700  0.766800  0.778300  1.0  0.0897
  H  H145  1  0.053800  0.800600  0.746300  1.0  0.0972
  H  H146  1  0.776300  0.885100  0.817500  1.0  0.1079
  H  H147  1  0.862600  0.938400  0.804300  1.0  0.113
  H  H148  1  0.770200  0.927900  0.779100  1.0  0.1131
  H  H149  1  0.460000  0.408800  0.697400  1.0  0.1144
  H  H150  1  0.538600  0.465100  0.680600  1.0  0.1187
  H  H151  1  0.483900  0.488000  0.717200  1.0  0.1101
  H  H152  1  0.626100  0.369800  0.709600  1.0  0.0913
  H  H153  1  0.636300  0.444100  0.734400  1.0  0.0899
  H  H154  1  0.689200  0.308500  0.763400  1.0  0.0783
  H  H155  1  0.617200  0.299900  0.797100  1.0  0.0757
  H  H156  1  0.572000  0.250600  0.709400  1.0  0.1185
  H  H157  1  0.485600  0.199000  0.724000  1.0  0.1071
  H  H158  1  0.586900  0.196900  0.744200  1.0  0.1044
  H  H159  1  0.509300  0.266800  0.778300  1.0  0.0901
  H  H160  1  0.446200  0.300600  0.746300  1.0  0.0941
  H  H161  1  0.723700  0.385100  0.817500  1.0  0.1081
  H  H162  1  0.637400  0.438400  0.804300  1.0  0.1129
  H  H163  1  0.729800  0.427900  0.779100  1.0  0.1139
  H  H164  1  0.040000  0.591200  0.197400  1.0  0.1181
  H  H165  1  0.961400  0.534900  0.180600  1.0  0.1193
  H  H166  1  0.016100  0.512000  0.217200  1.0  0.11
  H  H167  1  0.873900  0.630200  0.209600  1.0  0.091
  H  H168  1  0.863700  0.555900  0.234400  1.0  0.0913
  H  H169  1  0.810800  0.691500  0.263400  1.0  0.08
  H  H170  1  0.882800  0.700100  0.297100  1.0  0.0759
  H  H171  1  0.928000  0.749400  0.209400  1.0  0.1184
  H  H172  1  0.014400  0.801000  0.224000  1.0  0.1088
  H  H173  1  0.913100  0.803100  0.244200  1.0  0.1048
  H  H174  1  0.990700  0.733200  0.278300  1.0  0.0903
  H  H175  1  0.053800  0.699400  0.246300  1.0  0.0974
  H  H176  1  0.776300  0.614900  0.317500  1.0  0.1074
  H  H177  1  0.862600  0.561600  0.304300  1.0  0.114
  H  H178  1  0.770200  0.572100  0.279100  1.0  0.1125
  H  H179  1  0.540000  0.908800  0.802600  1.0  0.1176
  H  H180  1  0.461400  0.965100  0.819400  1.0  0.1188
  H  H181  1  0.516100  0.988000  0.782800  1.0  0.1096
  H  H182  1  0.373900  0.869800  0.790400  1.0  0.0907
  H  H183  1  0.363700  0.944100  0.765600  1.0  0.091
  H  H184  1  0.310800  0.808500  0.736600  1.0  0.0802
  H  H185  1  0.382800  0.799900  0.702900  1.0  0.0748
  H  H186  1  0.428000  0.750600  0.790600  1.0  0.1174
  H  H187  1  0.514400  0.699000  0.776000  1.0  0.1094
  H  H188  1  0.413100  0.696900  0.755800  1.0  0.1063
  H  H189  1  0.490700  0.766800  0.721700  1.0  0.0878
  H  H190  1  0.553800  0.800600  0.753700  1.0  0.0983
  H  H191  1  0.276300  0.885100  0.682500  1.0  0.1075
  H  H192  1  0.362600  0.938400  0.695700  1.0  0.1141
  H  H193  1  0.270200  0.927900  0.720900  1.0  0.1116
  H  H194  1  0.960000  0.091200  0.302600  1.0  0.1169
  H  H195  1  0.038600  0.034900  0.319400  1.0  0.1182
  H  H196  1  0.983900  0.012000  0.282800  1.0  0.1108
  H  H197  1  0.126100  0.130200  0.290400  1.0  0.0909
  H  H198  1  0.136300  0.055900  0.265600  1.0  0.0914
  H  H199  1  0.189200  0.191500  0.236600  1.0  0.0788
  H  H200  1  0.117200  0.200100  0.202900  1.0  0.0755
  H  H201  1  0.072000  0.249400  0.290600  1.0  0.1186
  H  H202  1  0.985600  0.301000  0.276000  1.0  0.1089
  H  H203  1  0.086900  0.303100  0.255800  1.0  0.1052
  H  H204  1  0.009300  0.233200  0.221700  1.0  0.0884
  H  H205  1  0.946200  0.199400  0.253700  1.0  0.0948
  H  H206  1  0.223700  0.114900  0.182500  1.0  0.1081
  H  H207  1  0.137400  0.061600  0.195700  1.0  0.1139
  H  H208  1  0.229800  0.072100  0.220900  1.0  0.1128
  C  C209  1  0.817900  0.382400  0.178200  1.0  -0.2675
  C  C210  1  0.811100  0.359100  0.215000  1.0  -0.0111
  C  C211  1  0.749400  0.395300  0.239800  1.0  -0.1345
  C  C212  1  0.689500  0.455100  0.227200  1.0  -0.023
  C  C213  1  0.693200  0.478900  0.190600  1.0  -0.1427
  C  C214  1  0.758500  0.442400  0.166300  1.0  0.021
  C  C215  1  0.745200  0.368200  0.279700  1.0  0.7009
  C  C216  1  0.631000  0.545600  0.177800  1.0  0.715
  C  C217  1  0.218100  0.163100  0.079200  1.0  -0.2154
  C  C218  1  0.255400  0.189700  0.045000  1.0  0.0225
  C  C219  1  0.329500  0.147800  0.027100  1.0  -0.1296
  C  C220  1  0.365000  0.080100  0.043000  1.0  0.0438
  C  C221  1  0.328100  0.052900  0.076500  1.0  -0.1494
  C  C222  1  0.255400  0.094500  0.094000  1.0  0.0194
  C  C223  1  0.370100  0.175000  0.990400  1.0  0.7499
  C  C224  1  0.365700  0.978700  0.092200  1.0  0.7442
  C  C225  1  0.682100  0.617600  0.678200  1.0  -0.2705
  C  C226  1  0.688900  0.640900  0.715000  1.0  -0.0116
  C  C227  1  0.750600  0.604700  0.739800  1.0  -0.1343
  C  C228  1  0.810500  0.544900  0.727200  1.0  -0.0233
  C  C229  1  0.806800  0.521100  0.690600  1.0  -0.1436
  C  C230  1  0.741500  0.557600  0.666300  1.0  0.0189
  C  C231  1  0.754800  0.631800  0.779700  1.0  0.6996
  C  C232  1  0.869000  0.454400  0.677800  1.0  0.7147
  C  C233  1  0.281900  0.836900  0.579200  1.0  -0.2166
  C  C234  1  0.244600  0.810300  0.545000  1.0  0.0235
  C  C235  1  0.170500  0.852200  0.527100  1.0  -0.1305
  C  C236  1  0.135000  0.919900  0.543000  1.0  0.0443
  C  C237  1  0.171900  0.947100  0.576500  1.0  -0.1489
  C  C238  1  0.244600  0.905500  0.594000  1.0  0.0188
  C  C239  1  0.129900  0.825000  0.490400  1.0  0.7487
  C  C240  1  0.134300  0.021300  0.592200  1.0  0.746
  C  C241  1  0.182100  0.882400  0.321800  1.0  -0.2673
  C  C242  1  0.188900  0.859100  0.285000  1.0  -0.0116
  C  C243  1  0.250600  0.895300  0.260200  1.0  -0.1355
  C  C244  1  0.310500  0.955100  0.272800  1.0  -0.0234
  C  C245  1  0.306800  0.978900  0.309400  1.0  -0.1408
  C  C246  1  0.241500  0.942400  0.333700  1.0  0.0198
  C  C247  1  0.254800  0.868200  0.220300  1.0  0.7017
  C  C248  1  0.369000  0.045600  0.322200  1.0  0.7173
  C  C249  1  0.781900  0.663100  0.420800  1.0  -0.2152
  C  C250  1  0.744600  0.689700  0.455000  1.0  0.0224
  C  C251  1  0.670500  0.647800  0.472900  1.0  -0.1302
  C  C252  1  0.635000  0.580100  0.457000  1.0  0.0452
  C  C253  1  0.671900  0.552900  0.423500  1.0  -0.1506
  C  C254  1  0.744600  0.594500  0.406000  1.0  0.0191
  C  C255  1  0.629900  0.675000  0.509600  1.0  0.7493
  C  C256  1  0.634300  0.478700  0.407800  1.0  0.7449
  C  C257  1  0.317900  0.117600  0.821800  1.0  -0.2669
  C  C258  1  0.311100  0.140900  0.785000  1.0  -0.0109
  C  C259  1  0.249400  0.104700  0.760200  1.0  -0.1354
  C  C260  1  0.189500  0.044900  0.772800  1.0  -0.0232
  C  C261  1  0.193200  0.021100  0.809400  1.0  -0.1416
  C  C262  1  0.258500  0.057600  0.833700  1.0  0.0191
  C  C263  1  0.245200  0.131800  0.720300  1.0  0.7012
  C  C264  1  0.131000  0.954400  0.822200  1.0  0.7151
  C  C265  1  0.718100  0.336900  0.920800  1.0  -0.2157
  C  C266  1  0.755400  0.310300  0.955000  1.0  0.0224
  C  C267  1  0.829500  0.352200  0.972900  1.0  -0.1306
  C  C268  1  0.865000  0.419900  0.957000  1.0  0.044
  C  C269  1  0.828100  0.447100  0.923500  1.0  -0.15
  C  C270  1  0.755400  0.405500  0.906000  1.0  0.0196
  C  C271  1  0.870100  0.325000  0.009600  1.0  0.7498
  C  C272  1  0.865700  0.521300  0.907800  1.0  0.7449
  C  C273  1  0.182100  0.617600  0.821800  1.0  -0.2676
  C  C274  1  0.188900  0.640900  0.785000  1.0  -0.0113
  C  C275  1  0.250600  0.604700  0.760200  1.0  -0.1353
  C  C276  1  0.310500  0.544900  0.772800  1.0  -0.0235
  C  C277  1  0.306800  0.521100  0.809400  1.0  -0.1407
  C  C278  1  0.241500  0.557600  0.833700  1.0  0.0198
  C  C279  1  0.254800  0.631800  0.720300  1.0  0.7017
  C  C280  1  0.369000  0.454400  0.822200  1.0  0.7165
  C  C281  1  0.781900  0.836900  0.920800  1.0  -0.216
  C  C282  1  0.744600  0.810300  0.955000  1.0  0.0233
  C  C283  1  0.670500  0.852200  0.972900  1.0  -0.1306
  C  C284  1  0.635000  0.919900  0.957000  1.0  0.0448
  C  C285  1  0.671900  0.947100  0.923500  1.0  -0.1501
  C  C286  1  0.744600  0.905500  0.906000  1.0  0.0193
  C  C287  1  0.629900  0.825000  0.009600  1.0  0.7495
  C  C288  1  0.634300  0.021300  0.907800  1.0  0.7461
  C  C289  1  0.317900  0.382400  0.321800  1.0  -0.2663
  C  C290  1  0.311100  0.359100  0.285000  1.0  -0.011
  C  C291  1  0.249400  0.395300  0.260200  1.0  -0.1356
  C  C292  1  0.189500  0.455100  0.272800  1.0  -0.023
  C  C293  1  0.193200  0.478900  0.309400  1.0  -0.142
  C  C294  1  0.258500  0.442400  0.333700  1.0  0.0192
  C  C295  1  0.245200  0.368200  0.220300  1.0  0.7013
  C  C296  1  0.131000  0.545600  0.322200  1.0  0.7157
  C  C297  1  0.718100  0.163100  0.420800  1.0  -0.2149
  C  C298  1  0.755400  0.189700  0.455000  1.0  0.0215
  C  C299  1  0.829500  0.147800  0.472900  1.0  -0.1303
  C  C300  1  0.865000  0.080100  0.457000  1.0  0.0444
  C  C301  1  0.828100  0.052900  0.423500  1.0  -0.1503
  C  C302  1  0.755400  0.094500  0.406000  1.0  0.0194
  C  C303  1  0.870100  0.175000  0.509600  1.0  0.7497
  C  C304  1  0.865700  0.978700  0.407800  1.0  0.7437
  C  C305  1  0.817900  0.117600  0.678200  1.0  -0.2678
  C  C306  1  0.811100  0.140900  0.715000  1.0  -0.0113
  C  C307  1  0.749400  0.104700  0.739800  1.0  -0.1345
  C  C308  1  0.689500  0.044900  0.727200  1.0  -0.023
  C  C309  1  0.693200  0.021100  0.690600  1.0  -0.1437
  C  C310  1  0.758500  0.057600  0.666300  1.0  0.0212
  C  C311  1  0.745200  0.131800  0.779700  1.0  0.7011
  C  C312  1  0.631000  0.954400  0.677800  1.0  0.7155
  C  C313  1  0.218100  0.336900  0.579200  1.0  -0.2162
  C  C314  1  0.255400  0.310300  0.545000  1.0  0.023
  C  C315  1  0.329500  0.352200  0.527100  1.0  -0.1303
  C  C316  1  0.365000  0.419900  0.543000  1.0  0.0434
  C  C317  1  0.328100  0.447100  0.576500  1.0  -0.1488
  C  C318  1  0.255400  0.405500  0.594000  1.0  0.0194
  C  C319  1  0.370100  0.325000  0.490400  1.0  0.7489
  C  C320  1  0.365700  0.521300  0.592200  1.0  0.745
  C  C321  1  0.682100  0.882400  0.178200  1.0  -0.2702
  C  C322  1  0.688900  0.859100  0.215000  1.0  -0.0115
  C  C323  1  0.750600  0.895300  0.239800  1.0  -0.1344
  C  C324  1  0.810500  0.955100  0.227200  1.0  -0.0234
  C  C325  1  0.806800  0.978900  0.190600  1.0  -0.1427
  C  C326  1  0.741500  0.942400  0.166300  1.0  0.0189
  C  C327  1  0.754800  0.868200  0.279700  1.0  0.6994
  C  C328  1  0.869000  0.045600  0.177800  1.0  0.7147
  C  C329  1  0.281900  0.663100  0.079200  1.0  -0.2158
  C  C330  1  0.244600  0.689700  0.045000  1.0  0.023
  C  C331  1  0.170500  0.647800  0.027100  1.0  -0.1298
  C  C332  1  0.135000  0.580100  0.043000  1.0  0.0445
  C  C333  1  0.171900  0.552900  0.076500  1.0  -0.1495
  C  C334  1  0.244600  0.594500  0.094000  1.0  0.0187
  C  C335  1  0.129900  0.675000  0.990400  1.0  0.7495
  C  C336  1  0.134300  0.478700  0.092200  1.0  0.7452
  C  C337  1  0.489300  0.554600  0.296800  1.0  -0.2677
  C  C338  1  0.409300  0.595700  0.273800  1.0  0.034
  C  C339  1  0.358400  0.664200  0.221500  1.0  0.0345
  C  C340  1  0.458700  0.770500  0.268800  1.0  -0.3586
  C  C341  1  0.487400  0.711900  0.246600  1.0  0.0026
  C  C342  1  0.313100  0.597600  0.203700  1.0  -0.3273
  C  C343  1  0.010700  0.445400  0.796800  1.0  -0.2668
  C  C344  1  0.090700  0.404300  0.773800  1.0  0.0371
  C  C345  1  0.141600  0.335800  0.721500  1.0  0.0344
  C  C346  1  0.041300  0.229500  0.768800  1.0  -0.361
  C  C347  1  0.012600  0.288100  0.746600  1.0  0.0022
  C  C348  1  0.186900  0.402400  0.703700  1.0  -0.3276
  C  C349  1  0.510700  0.054600  0.203200  1.0  -0.2662
  C  C350  1  0.590700  0.095700  0.226200  1.0  0.0379
  C  C351  1  0.641600  0.164200  0.278500  1.0  0.0367
  C  C352  1  0.541300  0.270500  0.231200  1.0  -0.3587
  C  C353  1  0.512600  0.211900  0.253400  1.0  0.0002
  C  C354  1  0.686900  0.097600  0.296300  1.0  -0.3275
  C  C355  1  0.989300  0.945400  0.703200  1.0  -0.2679
  C  C356  1  0.909300  0.904300  0.726200  1.0  0.0359
  C  C357  1  0.858400  0.835800  0.778500  1.0  0.0355
  C  C358  1  0.958700  0.729500  0.731200  1.0  -0.3618
  C  C359  1  0.987400  0.788100  0.753400  1.0  0.0024
  C  C360  1  0.813100  0.902400  0.796300  1.0  -0.3272
  C  C361  1  0.510700  0.445400  0.703200  1.0  -0.2661
  C  C362  1  0.590700  0.404300  0.726200  1.0  0.0386
  C  C363  1  0.641600  0.335800  0.778500  1.0  0.0366
  C  C364  1  0.541300  0.229500  0.731200  1.0  -0.3621
  C  C365  1  0.512600  0.288100  0.753400  1.0  0.0014
  C  C366  1  0.686900  0.402400  0.796300  1.0  -0.3272
  C  C367  1  0.989300  0.554600  0.203200  1.0  -0.2682
  C  C368  1  0.909300  0.595700  0.226200  1.0  0.0354
  C  C369  1  0.858400  0.664200  0.278500  1.0  0.0355
  C  C370  1  0.958700  0.770500  0.231200  1.0  -0.3594
  C  C371  1  0.987400  0.711900  0.253400  1.0  0.0009
  C  C372  1  0.813100  0.597600  0.296300  1.0  -0.3273
  C  C373  1  0.489300  0.945400  0.796800  1.0  -0.2669
  C  C374  1  0.409300  0.904300  0.773800  1.0  0.0343
  C  C375  1  0.358400  0.835800  0.721500  1.0  0.0338
  C  C376  1  0.458700  0.729500  0.768800  1.0  -0.3612
  C  C377  1  0.487400  0.788100  0.746600  1.0  0.0038
  C  C378  1  0.313100  0.902400  0.703700  1.0  -0.3265
  C  C379  1  0.010700  0.054600  0.296800  1.0  -0.2672
  C  C380  1  0.090700  0.095700  0.273800  1.0  0.0367
  C  C381  1  0.141600  0.164200  0.221500  1.0  0.0353
  C  C382  1  0.041300  0.270500  0.268800  1.0  -0.358
  C  C383  1  0.012600  0.211900  0.246600  1.0  0.0019
  C  C384  1  0.186900  0.097600  0.203700  1.0  -0.3283
  N  N385  1  0.435300  0.637800  0.243800  1.0  -0.1361
  N  N386  1  0.064700  0.362200  0.743800  1.0  -0.1376
  N  N387  1  0.564700  0.137800  0.256200  1.0  -0.1391
  N  N388  1  0.935300  0.862200  0.756200  1.0  -0.1362
  N  N389  1  0.564700  0.362200  0.756200  1.0  -0.1377
  N  N390  1  0.935300  0.637800  0.256200  1.0  -0.136
  N  N391  1  0.435300  0.862200  0.743800  1.0  -0.1365
  N  N392  1  0.064700  0.137800  0.243800  1.0  -0.1388
  O  O393  1  0.000800  0.347300  0.164040  1.0  -0.8245
  O  O394  1  0.873600  0.247900  0.151500  1.0  -0.805
  O  O395  1  0.888300  0.363800  0.109960  1.0  -0.7641
  O  O396  1  0.802400  0.319200  0.289600  1.0  -0.5416
  O  O397  1  0.681500  0.398700  0.299690  1.0  -0.5851
  O  O398  1  0.578500  0.580000  0.199300  1.0  -0.5064
  O  O399  1  0.637300  0.563100  0.143670  1.0  -0.5914
  O  O400  1  0.181700  0.272700  0.128660  1.0  -0.7639
  O  O401  1  0.065300  0.261800  0.074590  1.0  -0.8219
  O  O402  1  0.065100  0.159300  0.124530  1.0  -0.7893
  O  O403  1  0.340500  0.237100  0.976900  1.0  -0.4564
  O  O404  1  0.432100  0.132300  0.976190  1.0  -0.5593
  O  O405  1  0.429000  0.944700  0.073890  1.0  -0.6351
  O  O406  1  0.334400  0.956200  0.122860  1.0  -0.5919
  O  O407  1  0.869600  0.154800  0.075900  1.0  -0.2677
  O  O408  1  0.499200  0.652700  0.664040  1.0  -0.8234
  O  O409  1  0.626400  0.752100  0.651500  1.0  -0.8021
  O  O410  1  0.611700  0.636200  0.609960  1.0  -0.7631
  O  O411  1  0.697600  0.680800  0.789600  1.0  -0.5411
  O  O412  1  0.818500  0.601300  0.799690  1.0  -0.5847
  O  O413  1  0.921500  0.420000  0.699300  1.0  -0.5076
  O  O414  1  0.862700  0.436900  0.643670  1.0  -0.5913
  O  O415  1  0.318300  0.727300  0.628660  1.0  -0.7629
  O  O416  1  0.434700  0.738200  0.574590  1.0  -0.8211
  O  O417  1  0.434900  0.840700  0.624530  1.0  -0.7887
  O  O418  1  0.159500  0.762900  0.476900  1.0  -0.4543
  O  O419  1  0.067900  0.867700  0.476190  1.0  -0.5593
  O  O420  1  0.071000  0.055300  0.573890  1.0  -0.6356
  O  O421  1  0.165600  0.043800  0.622860  1.0  -0.5921
  O  O422  1  0.630400  0.845200  0.575900  1.0  -0.2694
  O  O423  1  0.999200  0.847300  0.335960  1.0  -0.824
  O  O424  1  0.126400  0.747900  0.348500  1.0  -0.8035
  O  O425  1  0.111700  0.863800  0.390040  1.0  -0.7648
  O  O426  1  0.197600  0.819200  0.210400  1.0  -0.542
  O  O427  1  0.318500  0.898700  0.200310  1.0  -0.5852
  O  O428  1  0.421500  0.080000  0.300700  1.0  -0.5071
  O  O429  1  0.362700  0.063100  0.356330  1.0  -0.5948
  O  O430  1  0.818300  0.772700  0.371340  1.0  -0.7627
  O  O431  1  0.934700  0.761800  0.425410  1.0  -0.8221
  O  O432  1  0.934900  0.659300  0.375470  1.0  -0.7892
  O  O433  1  0.659500  0.737100  0.523100  1.0  -0.4544
  O  O434  1  0.567900  0.632300  0.523810  1.0  -0.5591
  O  O435  1  0.571000  0.444700  0.426110  1.0  -0.6366
  O  O436  1  0.665600  0.456200  0.377140  1.0  -0.5933
  O  O437  1  0.130400  0.654800  0.424100  1.0  -0.2675
  O  O438  1  0.500800  0.152700  0.835960  1.0  -0.8243
  O  O439  1  0.373600  0.252100  0.848500  1.0  -0.8054
  O  O440  1  0.388300  0.136200  0.890040  1.0  -0.765
  O  O441  1  0.302400  0.180800  0.710400  1.0  -0.5409
  O  O442  1  0.181500  0.101300  0.700310  1.0  -0.5857
  O  O443  1  0.078500  0.920000  0.800700  1.0  -0.5064
  O  O444  1  0.137300  0.936900  0.856330  1.0  -0.5945
  O  O445  1  0.681700  0.227300  0.871340  1.0  -0.7651
  O  O446  1  0.565300  0.238200  0.925410  1.0  -0.8235
  O  O447  1  0.565100  0.340700  0.875470  1.0  -0.7889
  O  O448  1  0.840500  0.262900  0.023100  1.0  -0.4546
  O  O449  1  0.932100  0.367700  0.023810  1.0  -0.5597
  O  O450  1  0.929000  0.555300  0.926110  1.0  -0.6355
  O  O451  1  0.834400  0.543800  0.877140  1.0  -0.5928
  O  O452  1  0.369600  0.345200  0.924100  1.0  -0.266
  O  O453  1  0.999200  0.652700  0.835960  1.0  -0.8233
  O  O454  1  0.126400  0.752100  0.848500  1.0  -0.8034
  O  O455  1  0.111700  0.636200  0.890040  1.0  -0.7643
  O  O456  1  0.197600  0.680800  0.710400  1.0  -0.541
  O  O457  1  0.318500  0.601300  0.700310  1.0  -0.585
  O  O458  1  0.421500  0.420000  0.800700  1.0  -0.5075
  O  O459  1  0.362700  0.436900  0.856330  1.0  -0.5948
  O  O460  1  0.818300  0.727300  0.871340  1.0  -0.7633
  O  O461  1  0.934700  0.738200  0.925410  1.0  -0.8223
  O  O462  1  0.934900  0.840700  0.875470  1.0  -0.7886
  O  O463  1  0.659500  0.762900  0.023100  1.0  -0.4533
  O  O464  1  0.567900  0.867700  0.023810  1.0  -0.5589
  O  O465  1  0.571000  0.055300  0.926110  1.0  -0.6362
  O  O466  1  0.665600  0.043800  0.877140  1.0  -0.5932
  O  O467  1  0.130400  0.845200  0.924100  1.0  -0.2671
  O  O468  1  0.500800  0.347300  0.335960  1.0  -0.8245
  O  O469  1  0.373600  0.247900  0.348500  1.0  -0.8051
  O  O470  1  0.388300  0.363800  0.390040  1.0  -0.7657
  O  O471  1  0.302400  0.319200  0.210400  1.0  -0.5419
  O  O472  1  0.181500  0.398700  0.200310  1.0  -0.5856
  O  O473  1  0.078500  0.580000  0.300700  1.0  -0.5058
  O  O474  1  0.137300  0.563100  0.356330  1.0  -0.5951
  O  O475  1  0.681700  0.272700  0.371340  1.0  -0.7645
  O  O476  1  0.565300  0.261800  0.425410  1.0  -0.8236
  O  O477  1  0.565100  0.159300  0.375470  1.0  -0.7895
  O  O478  1  0.840500  0.237100  0.523100  1.0  -0.456
  O  O479  1  0.932100  0.132300  0.523810  1.0  -0.5596
  O  O480  1  0.929000  0.944700  0.426110  1.0  -0.6358
  O  O481  1  0.834400  0.956200  0.377140  1.0  -0.5925
  O  O482  1  0.369600  0.154800  0.424100  1.0  -0.2666
  O  O483  1  0.000800  0.152700  0.664040  1.0  -0.8241
  O  O484  1  0.873600  0.252100  0.651500  1.0  -0.8038
  O  O485  1  0.888300  0.136200  0.609960  1.0  -0.7639
  O  O486  1  0.802400  0.180800  0.789600  1.0  -0.5416
  O  O487  1  0.681500  0.101300  0.799690  1.0  -0.5853
  O  O488  1  0.578500  0.920000  0.699300  1.0  -0.5066
  O  O489  1  0.637300  0.936900  0.643670  1.0  -0.5933
  O  O490  1  0.181700  0.227300  0.628660  1.0  -0.7649
  O  O491  1  0.065300  0.238200  0.574590  1.0  -0.8224
  O  O492  1  0.065100  0.340700  0.624530  1.0  -0.7887
  O  O493  1  0.340500  0.262900  0.476900  1.0  -0.4562
  O  O494  1  0.432100  0.367700  0.476190  1.0  -0.5599
  O  O495  1  0.429000  0.555300  0.573890  1.0  -0.6349
  O  O496  1  0.334400  0.543800  0.622860  1.0  -0.5916
  O  O497  1  0.869600  0.345200  0.575900  1.0  -0.2688
  O  O498  1  0.499200  0.847300  0.164040  1.0  -0.8243
  O  O499  1  0.626400  0.747900  0.151500  1.0  -0.8032
  O  O500  1  0.611700  0.863800  0.109960  1.0  -0.7635
  O  O501  1  0.697600  0.819200  0.289600  1.0  -0.5413
  O  O502  1  0.818500  0.898700  0.299690  1.0  -0.585
  O  O503  1  0.921500  0.080000  0.199300  1.0  -0.5074
  O  O504  1  0.862700  0.063100  0.143670  1.0  -0.5906
  O  O505  1  0.318300  0.772700  0.128660  1.0  -0.7623
  O  O506  1  0.434700  0.761800  0.074590  1.0  -0.8202
  O  O507  1  0.434900  0.659300  0.124530  1.0  -0.7892
  O  O508  1  0.159500  0.737100  0.976900  1.0  -0.4552
  O  O509  1  0.067900  0.632300  0.976190  1.0  -0.5588
  O  O510  1  0.071000  0.444700  0.073890  1.0  -0.6359
  O  O511  1  0.165600  0.456200  0.122860  1.0  -0.5919
  O  O512  1  0.630400  0.654800  0.075900  1.0  -0.2674
