# generated using pymatgen
data_Zn5P2H8(CO)16
_symmetry_space_group_name_H-M   'P 1'
_cell_length_a   7.41900000
_cell_length_b   9.96900000
_cell_length_c   11.14800000
_cell_angle_alpha   65.15200000
_cell_angle_beta   76.10900000
_cell_angle_gamma   69.96500000
_symmetry_Int_Tables_number   1
_chemical_formula_structural   Zn5P2H8(CO)16
_chemical_formula_sum   'Zn5 P2 H8 C16 O16'
_cell_volume   698.41962382
_cell_formula_units_Z   1
loop_
 _symmetry_equiv_pos_site_id
 _symmetry_equiv_pos_as_xyz
  1  'x, y, z'
loop_
 _atom_site_type_symbol
 _atom_site_label
 _atom_site_symmetry_multiplicity
 _atom_site_fract_x
 _atom_site_fract_y
 _atom_site_fract_z
 _atom_site_occupancy
 _atom_site_charge
  Zn  Zn1  1  0.556660  0.353070  0.294930  1.0  1.1057
  Zn  Zn2  1  0.925900  0.281990  0.047920  1.0  1.1679
  Zn  Zn3  1  0.443340  0.646930  0.705070  1.0  1.1063
  Zn  Zn4  1  0.074100  0.718010  0.952080  1.0  1.1623
  Zn  Zn5  1  0.500000  0.500000  0.000000  1.0  1.1115
  P  P6  1  0.147600  0.388600  0.191210  1.0  1.5389
  P  P7  1  0.852400  0.611400  0.808790  1.0  1.5401
  H  H8  1  0.254700  0.103800  0.406700  1.0  0.1158
  H  H9  1  0.846500  0.503600  0.368200  1.0  0.1175
  H  H10  1  0.876400  0.151100  0.720200  1.0  0.1092
  H  H11  1  0.765000  0.507000  0.113000  1.0  0.4485
  H  H12  1  0.745300  0.896200  0.593300  1.0  0.1159
  H  H13  1  0.153500  0.496400  0.631800  1.0  0.1176
  H  H14  1  0.123600  0.848900  0.279800  1.0  0.1087
  H  H15  1  0.235000  0.493000  0.887000  1.0  0.4599
  C  C16  1  0.150300  0.163400  0.444100  1.0  0.0588
  C  C17  1  0.059900  0.314000  0.365400  1.0  -0.3872
  C  C18  1  0.904400  0.402800  0.420300  1.0  0.0346
  C  C19  1  0.083400  0.102700  0.578900  1.0  -0.1553
  C  C20  1  0.834400  0.341400  0.553800  1.0  -0.1429
  C  C21  1  0.666500  0.434000  0.617600  1.0  0.6656
  C  C22  1  0.924200  0.192000  0.631300  1.0  0.0399
  C  C23  1  0.182700  0.943800  0.667200  1.0  0.7245
  C  C24  1  0.849700  0.836600  0.555900  1.0  0.0586
  C  C25  1  0.940100  0.686000  0.634600  1.0  -0.3869
  C  C26  1  0.095600  0.597200  0.579700  1.0  0.0385
  C  C27  1  0.916600  0.897300  0.421100  1.0  -0.1522
  C  C28  1  0.165600  0.658600  0.446200  1.0  -0.1455
  C  C29  1  0.333500  0.566000  0.382400  1.0  0.6662
  C  C30  1  0.075800  0.808000  0.368700  1.0  0.0391
  C  C31  1  0.817300  0.056200  0.332800  1.0  0.7221
  O  O32  1  0.707100  0.439100  0.122200  1.0  -1.0327
  O  O33  1  0.360200  0.383100  0.182100  1.0  -0.8819
  O  O34  1  0.611100  0.579400  0.558200  1.0  -0.5991
  O  O35  1  0.584800  0.368200  0.728300  1.0  -0.6109
  O  O36  1  0.307500  0.858700  0.609600  1.0  -0.5958
  O  O37  1  0.134600  0.905700  0.789400  1.0  -0.6371
  O  O38  1  0.140800  0.280400  0.129400  1.0  -0.8155
  O  O39  1  0.022800  0.550900  0.132400  1.0  -0.8279
  O  O40  1  0.292900  0.560900  0.877800  1.0  -1.0353
  O  O41  1  0.639800  0.616900  0.817900  1.0  -0.8814
  O  O42  1  0.388900  0.420600  0.441800  1.0  -0.5992
  O  O43  1  0.415200  0.631800  0.271700  1.0  -0.6119
  O  O44  1  0.692500  0.141300  0.390400  1.0  -0.5947
  O  O45  1  0.865400  0.094300  0.210600  1.0  -0.6394
  O  O46  1  0.859200  0.719600  0.870600  1.0  -0.8143
  O  O47  1  0.977200  0.449100  0.867600  1.0  -0.8264
