# generated using pymatgen
data_ZnPH3C8O7
_symmetry_space_group_name_H-M   'P 1'
_cell_length_a   9.86600000
_cell_length_b   13.96300000
_cell_length_c   15.44900000
_cell_angle_alpha   90.00000000
_cell_angle_beta   90.00000000
_cell_angle_gamma   90.00000000
_symmetry_Int_Tables_number   1
_chemical_formula_structural   ZnPH3C8O7
_chemical_formula_sum   'Zn4 P4 H12 C32 O28'
_cell_volume   2128.23814214
_cell_formula_units_Z   4
loop_
 _symmetry_equiv_pos_site_id
 _symmetry_equiv_pos_as_xyz
  1  'x, y, z'
loop_
 _atom_site_type_symbol
 _atom_site_label
 _atom_site_symmetry_multiplicity
 _atom_site_fract_x
 _atom_site_fract_y
 _atom_site_fract_z
 _atom_site_occupancy
 _atom_site_charge
  Zn  Zn1  1  0.597210  0.904090  0.902280  1.0  1.1122
  Zn  Zn2  1  0.902790  0.595910  0.402280  1.0  1.1118
  Zn  Zn3  1  0.402790  0.095910  0.097720  1.0  1.1117
  Zn  Zn4  1  0.097210  0.404090  0.597720  1.0  1.1121
  P  P5  1  0.380920  0.070910  0.894680  1.0  1.3522
  P  P6  1  0.119080  0.429090  0.394680  1.0  1.3509
  P  P7  1  0.619080  0.929090  0.105320  1.0  1.3514
  P  P8  1  0.880920  0.570910  0.605320  1.0  1.3528
  H  H9  1  0.123100  0.971800  0.918200  1.0  0.1097
  H  H10  1  0.873400  0.089600  0.742100  1.0  0.1241
  H  H11  1  0.254900  0.186100  0.768000  1.0  0.1152
  H  H12  1  0.376900  0.528200  0.418200  1.0  0.1093
  H  H13  1  0.626600  0.410400  0.242100  1.0  0.1243
  H  H14  1  0.245100  0.313900  0.268000  1.0  0.1149
  H  H15  1  0.876900  0.028200  0.081800  1.0  0.1097
  H  H16  1  0.126600  0.910400  0.257900  1.0  0.1245
  H  H17  1  0.745100  0.813900  0.232000  1.0  0.1149
  H  H18  1  0.623100  0.471800  0.581800  1.0  0.1098
  H  H19  1  0.373400  0.589600  0.757900  1.0  0.1244
  H  H20  1  0.754900  0.686100  0.732000  1.0  0.1146
  C  C21  1  0.212200  0.075800  0.848100  1.0  -0.2854
  C  C22  1  0.107700  0.015700  0.874000  1.0  0.0511
  C  C23  1  0.980000  0.019600  0.835200  1.0  -0.115
  C  C24  1  0.957600  0.086500  0.769000  1.0  0.0007
  C  C25  1  0.061200  0.148300  0.743300  1.0  -0.0998
  C  C26  1  0.186900  0.143500  0.783900  1.0  0.0669
  C  C27  1  0.869700  0.950400  0.861600  1.0  0.6533
  C  C28  1  0.042000  0.219400  0.670400  1.0  0.6498
  C  C29  1  0.287800  0.424200  0.348100  1.0  -0.2836
  C  C30  1  0.392300  0.484300  0.374000  1.0  0.0476
  C  C31  1  0.520000  0.480400  0.335200  1.0  -0.1157
  C  C32  1  0.542400  0.413500  0.269000  1.0  0.0055
  C  C33  1  0.438800  0.351700  0.243300  1.0  -0.1009
  C  C34  1  0.313100  0.356500  0.283900  1.0  0.0689
  C  C35  1  0.630300  0.549600  0.361600  1.0  0.6527
  C  C36  1  0.458000  0.280600  0.170400  1.0  0.6486
  C  C37  1  0.787800  0.924200  0.151900  1.0  -0.2838
  C  C38  1  0.892300  0.984300  0.126000  1.0  0.0509
  C  C39  1  0.020000  0.980400  0.164800  1.0  -0.1156
  C  C40  1  0.042400  0.913500  0.231000  1.0  0.0066
  C  C41  1  0.938800  0.851700  0.256700  1.0  -0.0998
  C  C42  1  0.813100  0.856500  0.216100  1.0  0.0699
  C  C43  1  0.130300  0.049600  0.138400  1.0  0.6531
  C  C44  1  0.958000  0.780600  0.329600  1.0  0.6492
  C  C45  1  0.712200  0.575800  0.651900  1.0  -0.2858
  C  C46  1  0.607700  0.515700  0.626000  1.0  0.053
  C  C47  1  0.480000  0.519600  0.664800  1.0  -0.1151
  C  C48  1  0.457600  0.586500  0.731000  1.0  0.0011
  C  C49  1  0.561200  0.648300  0.756700  1.0  -0.0992
  C  C50  1  0.686900  0.643500  0.716100  1.0  0.0678
  C  C51  1  0.369700  0.450400  0.638400  1.0  0.654
  C  C52  1  0.542000  0.719400  0.829600  1.0  0.6493
  O  O53  1  0.417500  0.965460  0.907410  1.0  -0.7072
  O  O54  1  0.373900  0.128690  0.978230  1.0  -0.6947
  O  O55  1  0.474200  0.119050  0.829100  1.0  -0.4925
  O  O56  1  0.902600  0.868200  0.880300  1.0  -0.3883
  O  O57  1  0.750300  0.984400  0.862130  1.0  -0.5455
  O  O58  1  0.976700  0.196700  0.605790  1.0  -0.3564
  O  O59  1  0.096000  0.301120  0.683980  1.0  -0.5544
  O  O60  1  0.082500  0.534540  0.407410  1.0  -0.7061
  O  O61  1  0.126100  0.371310  0.478230  1.0  -0.6947
  O  O62  1  0.025800  0.380950  0.329100  1.0  -0.4929
  O  O63  1  0.597400  0.631800  0.380300  1.0  -0.3889
  O  O64  1  0.749700  0.515600  0.362130  1.0  -0.5443
  O  O65  1  0.523300  0.303300  0.105790  1.0  -0.357
  O  O66  1  0.404000  0.198880  0.183980  1.0  -0.5541
  O  O67  1  0.582500  0.034540  0.092590  1.0  -0.7061
  O  O68  1  0.626100  0.871310  0.021770  1.0  -0.6939
  O  O69  1  0.525800  0.880950  0.170900  1.0  -0.4932
  O  O70  1  0.097400  0.131800  0.119700  1.0  -0.3889
  O  O71  1  0.249700  0.015600  0.137870  1.0  -0.5439
  O  O72  1  0.023300  0.803300  0.394210  1.0  -0.3572
  O  O73  1  0.904000  0.698880  0.316020  1.0  -0.5539
  O  O74  1  0.917500  0.465460  0.592590  1.0  -0.7069
  O  O75  1  0.873900  0.628690  0.521770  1.0  -0.6944
  O  O76  1  0.974200  0.619050  0.670900  1.0  -0.4928
  O  O77  1  0.402600  0.368200  0.619700  1.0  -0.3882
  O  O78  1  0.250300  0.484400  0.637870  1.0  -0.5439
  O  O79  1  0.476700  0.696700  0.894210  1.0  -0.3568
  O  O80  1  0.596000  0.801120  0.816020  1.0  -0.5535
