# generated using pymatgen
data_Zn5P4H14(C8O7)4
_symmetry_space_group_name_H-M   'P 1'
_cell_length_a   28.54000000
_cell_length_b   12.98300000
_cell_length_c   15.83400000
_cell_angle_alpha   90.00000000
_cell_angle_beta   106.10400000
_cell_angle_gamma   90.00000000
_symmetry_Int_Tables_number   1
_chemical_formula_structural   Zn5P4H14(C8O7)4
_chemical_formula_sum   'Zn20 P16 H56 C128 O112'
_cell_volume   5636.82414034
_cell_formula_units_Z   4
loop_
 _symmetry_equiv_pos_site_id
 _symmetry_equiv_pos_as_xyz
  1  'x, y, z'
loop_
 _atom_site_type_symbol
 _atom_site_label
 _atom_site_symmetry_multiplicity
 _atom_site_fract_x
 _atom_site_fract_y
 _atom_site_fract_z
 _atom_site_occupancy
 _atom_site_charge
  Zn  Zn1  1  0.318110  0.363950  0.082440  1.0  1.0875
  Zn  Zn2  1  0.306890  0.109050  0.067750  1.0  1.0764
  Zn  Zn3  1  0.818110  0.863950  0.082440  1.0  1.0875
  Zn  Zn4  1  0.806890  0.609050  0.067750  1.0  1.0764
  Zn  Zn5  1  0.681890  0.363950  0.417560  1.0  1.0873
  Zn  Zn6  1  0.693110  0.109050  0.432250  1.0  1.0756
  Zn  Zn7  1  0.181890  0.863950  0.417560  1.0  1.0873
  Zn  Zn8  1  0.193110  0.609050  0.432250  1.0  1.0756
  Zn  Zn9  1  0.681890  0.636050  0.917560  1.0  1.0872
  Zn  Zn10  1  0.693110  0.890950  0.932250  1.0  1.0751
  Zn  Zn11  1  0.181890  0.136050  0.917560  1.0  1.0872
  Zn  Zn12  1  0.193110  0.390950  0.932250  1.0  1.0751
  Zn  Zn13  1  0.318110  0.636050  0.582440  1.0  1.0874
  Zn  Zn14  1  0.306890  0.890950  0.567750  1.0  1.0758
  Zn  Zn15  1  0.818110  0.136050  0.582440  1.0  1.0874
  Zn  Zn16  1  0.806890  0.390950  0.567750  1.0  1.0758
  Zn  Zn17  1  0.500000  0.113210  0.250000  1.0  1.1574
  Zn  Zn18  1  0.000000  0.613210  0.250000  1.0  1.1574
  Zn  Zn19  1  0.500000  0.886790  0.750000  1.0  1.1582
  Zn  Zn20  1  0.000000  0.386790  0.750000  1.0  1.1582
  P  P21  1  0.409040  0.219370  0.109150  1.0  1.4813
  P  P22  1  0.273310  0.246190  0.902480  1.0  1.5469
  P  P23  1  0.909040  0.719370  0.109150  1.0  1.4813
  P  P24  1  0.773310  0.746190  0.902480  1.0  1.5469
  P  P25  1  0.590960  0.219370  0.390850  1.0  1.4803
  P  P26  1  0.726690  0.246190  0.597520  1.0  1.5473
  P  P27  1  0.090960  0.719370  0.390850  1.0  1.4803
  P  P28  1  0.226690  0.746190  0.597520  1.0  1.5473
  P  P29  1  0.590960  0.780630  0.890850  1.0  1.4802
  P  P30  1  0.726690  0.753810  0.097520  1.0  1.5472
  P  P31  1  0.090960  0.280630  0.890850  1.0  1.4802
  P  P32  1  0.226690  0.253810  0.097520  1.0  1.5472
  P  P33  1  0.409040  0.780630  0.609150  1.0  1.482
  P  P34  1  0.273310  0.753810  0.402480  1.0  1.5469
  P  P35  1  0.909040  0.280630  0.609150  1.0  1.482
  P  P36  1  0.773310  0.253810  0.402480  1.0  1.5469
  H  H37  1  0.430700  0.058100  0.009300  1.0  0.1288
  H  H38  1  0.447100  0.179000  0.788900  1.0  0.1302
  H  H39  1  0.410200  0.359200  0.964700  1.0  0.1361
  H  H40  1  0.283600  0.102200  0.767900  1.0  0.1298
  H  H41  1  0.309500  0.281600  0.579900  1.0  0.1311
  H  H42  1  0.290800  0.408000  0.797900  1.0  0.1264
  H  H43  1  0.434000  0.402000  0.698000  1.0  0.3612
  H  H44  1  0.930700  0.558100  0.009300  1.0  0.1288
  H  H45  1  0.947100  0.679000  0.788900  1.0  0.1302
  H  H46  1  0.910200  0.859200  0.964700  1.0  0.1361
  H  H47  1  0.783600  0.602200  0.767900  1.0  0.1298
  H  H48  1  0.809500  0.781600  0.579900  1.0  0.1311
  H  H49  1  0.790800  0.908000  0.797900  1.0  0.1264
  H  H50  1  0.934000  0.902000  0.698000  1.0  0.3612
  H  H51  1  0.569300  0.058100  0.490700  1.0  0.1286
  H  H52  1  0.552900  0.179000  0.711100  1.0  0.1302
  H  H53  1  0.589800  0.359200  0.535300  1.0  0.1354
  H  H54  1  0.716400  0.102200  0.732100  1.0  0.1286
  H  H55  1  0.690500  0.281600  0.920100  1.0  0.1309
  H  H56  1  0.709200  0.408000  0.702100  1.0  0.1269
  H  H57  1  0.566000  0.402000  0.802000  1.0  0.362
  H  H58  1  0.069300  0.558100  0.490700  1.0  0.1286
  H  H59  1  0.052900  0.679000  0.711100  1.0  0.1302
  H  H60  1  0.089800  0.859200  0.535300  1.0  0.1354
  H  H61  1  0.216400  0.602200  0.732100  1.0  0.1286
  H  H62  1  0.190500  0.781600  0.920100  1.0  0.1309
  H  H63  1  0.209200  0.908000  0.702100  1.0  0.1269
  H  H64  1  0.066000  0.902000  0.802000  1.0  0.362
  H  H65  1  0.569300  0.941900  0.990700  1.0  0.1289
  H  H66  1  0.552900  0.821000  0.211100  1.0  0.1304
  H  H67  1  0.589800  0.640800  0.035300  1.0  0.1355
  H  H68  1  0.716400  0.897800  0.232100  1.0  0.1295
  H  H69  1  0.690500  0.718400  0.420100  1.0  0.1311
  H  H70  1  0.709200  0.592000  0.202100  1.0  0.1268
  H  H71  1  0.566000  0.598000  0.302000  1.0  0.3616
  H  H72  1  0.069300  0.441900  0.990700  1.0  0.1289
  H  H73  1  0.052900  0.321000  0.211100  1.0  0.1304
  H  H74  1  0.089800  0.140800  0.035300  1.0  0.1355
  H  H75  1  0.216400  0.397800  0.232100  1.0  0.1295
  H  H76  1  0.190500  0.218400  0.420100  1.0  0.1311
  H  H77  1  0.209200  0.092000  0.202100  1.0  0.1268
  H  H78  1  0.066000  0.098000  0.302000  1.0  0.3616
  H  H79  1  0.430700  0.941900  0.509300  1.0  0.1289
  H  H80  1  0.447100  0.821000  0.288900  1.0  0.1301
  H  H81  1  0.410200  0.640800  0.464700  1.0  0.1356
  H  H82  1  0.283600  0.897800  0.267900  1.0  0.129
  H  H83  1  0.309500  0.718400  0.079900  1.0  0.1311
  H  H84  1  0.290800  0.592000  0.297900  1.0  0.1268
  H  H85  1  0.434000  0.598000  0.198000  1.0  0.3605
  H  H86  1  0.930700  0.441900  0.509300  1.0  0.1289
  H  H87  1  0.947100  0.321000  0.288900  1.0  0.1301
  H  H88  1  0.910200  0.140800  0.464700  1.0  0.1356
  H  H89  1  0.783600  0.397800  0.267900  1.0  0.129
  H  H90  1  0.809500  0.218400  0.079900  1.0  0.1311
  H  H91  1  0.790800  0.092000  0.297900  1.0  0.1268
  H  H92  1  0.934000  0.098000  0.198000  1.0  0.3605
  C  C93  1  0.419650  0.211500  0.002600  1.0  -0.2185
  C  C94  1  0.430760  0.115400  0.974100  1.0  0.0181
  C  C95  1  0.441840  0.102600  0.895400  1.0  -0.1297
  C  C96  1  0.440200  0.186800  0.842600  1.0  0.0327
  C  C97  1  0.428600  0.283300  0.867700  1.0  -0.1468
  C  C98  1  0.418230  0.294500  0.947800  1.0  0.04
  C  C99  1  0.455400  0.997400  0.868700  1.0  0.7394
  C  C100  1  0.427800  0.374000  0.810400  1.0  0.6807
  C  C101  1  0.286220  0.253100  0.797400  1.0  -0.2232
  C  C102  1  0.288400  0.167300  0.747200  1.0  0.046
  C  C103  1  0.297620  0.177300  0.666000  1.0  -0.1176
  C  C104  1  0.303910  0.274500  0.634800  1.0  0.0056
  C  C105  1  0.301950  0.361100  0.684500  1.0  -0.1403
  C  C106  1  0.292730  0.349800  0.764800  1.0  0.0356
  C  C107  1  0.300830  0.083700  0.612700  1.0  0.6862
  C  C108  1  0.309670  0.467500  0.653700  1.0  0.6697
  C  C109  1  0.919650  0.711500  0.002600  1.0  -0.2185
  C  C110  1  0.930760  0.615400  0.974100  1.0  0.0181
  C  C111  1  0.941840  0.602600  0.895400  1.0  -0.1297
  C  C112  1  0.940200  0.686800  0.842600  1.0  0.0327
  C  C113  1  0.928600  0.783300  0.867700  1.0  -0.1468
  C  C114  1  0.918230  0.794500  0.947800  1.0  0.04
  C  C115  1  0.955400  0.497400  0.868700  1.0  0.7394
  C  C116  1  0.927800  0.874000  0.810400  1.0  0.6807
  C  C117  1  0.786220  0.753100  0.797400  1.0  -0.2232
  C  C118  1  0.788400  0.667300  0.747200  1.0  0.046
  C  C119  1  0.797620  0.677300  0.666000  1.0  -0.1176
  C  C120  1  0.803910  0.774500  0.634800  1.0  0.0056
  C  C121  1  0.801950  0.861100  0.684500  1.0  -0.1403
  C  C122  1  0.792730  0.849800  0.764800  1.0  0.0356
  C  C123  1  0.800830  0.583700  0.612700  1.0  0.6862
  C  C124  1  0.809670  0.967500  0.653700  1.0  0.6697
  C  C125  1  0.580350  0.211500  0.497400  1.0  -0.2196
  C  C126  1  0.569240  0.115400  0.525900  1.0  0.0163
  C  C127  1  0.558160  0.102600  0.604600  1.0  -0.1307
  C  C128  1  0.559800  0.186800  0.657400  1.0  0.032
  C  C129  1  0.571400  0.283300  0.632300  1.0  -0.1457
  C  C130  1  0.581770  0.294500  0.552200  1.0  0.0404
  C  C131  1  0.544600  0.997400  0.631300  1.0  0.7413
  C  C132  1  0.572200  0.374000  0.689600  1.0  0.6815
  C  C133  1  0.713780  0.253100  0.702600  1.0  -0.2243
  C  C134  1  0.711600  0.167300  0.752800  1.0  0.046
  C  C135  1  0.702380  0.177300  0.834000  1.0  -0.1163
  C  C136  1  0.696090  0.274500  0.865200  1.0  0.0069
  C  C137  1  0.698050  0.361100  0.815500  1.0  -0.1405
  C  C138  1  0.707270  0.349800  0.735200  1.0  0.0356
  C  C139  1  0.699170  0.083700  0.887300  1.0  0.6865
  C  C140  1  0.690330  0.467500  0.846300  1.0  0.67
  C  C141  1  0.080350  0.711500  0.497400  1.0  -0.2196
  C  C142  1  0.069240  0.615400  0.525900  1.0  0.0163
  C  C143  1  0.058160  0.602600  0.604600  1.0  -0.1307
  C  C144  1  0.059800  0.686800  0.657400  1.0  0.032
  C  C145  1  0.071400  0.783300  0.632300  1.0  -0.1457
  C  C146  1  0.081770  0.794500  0.552200  1.0  0.0404
  C  C147  1  0.044600  0.497400  0.631300  1.0  0.7413
  C  C148  1  0.072200  0.874000  0.689600  1.0  0.6815
  C  C149  1  0.213780  0.753100  0.702600  1.0  -0.2243
  C  C150  1  0.211600  0.667300  0.752800  1.0  0.046
  C  C151  1  0.202380  0.677300  0.834000  1.0  -0.1163
  C  C152  1  0.196090  0.774500  0.865200  1.0  0.0069
  C  C153  1  0.198050  0.861100  0.815500  1.0  -0.1405
  C  C154  1  0.207270  0.849800  0.735200  1.0  0.0356
  C  C155  1  0.199170  0.583700  0.887300  1.0  0.6865
  C  C156  1  0.190330  0.967500  0.846300  1.0  0.67
  C  C157  1  0.580350  0.788500  0.997400  1.0  -0.2198
  C  C158  1  0.569240  0.884600  0.025900  1.0  0.0158
  C  C159  1  0.558160  0.897400  0.104600  1.0  -0.13
  C  C160  1  0.559800  0.813200  0.157400  1.0  0.0323
  C  C161  1  0.571400  0.716700  0.132300  1.0  -0.146
  C  C162  1  0.581770  0.705500  0.052200  1.0  0.0404
  C  C163  1  0.544600  0.002600  0.131300  1.0  0.7435
  C  C164  1  0.572200  0.626000  0.189600  1.0  0.6802
  C  C165  1  0.713780  0.746900  0.202600  1.0  -0.2239
  C  C166  1  0.711600  0.832700  0.252800  1.0  0.0456
  C  C167  1  0.702380  0.822700  0.334000  1.0  -0.1162
  C  C168  1  0.696090  0.725500  0.365200  1.0  0.0071
  C  C169  1  0.698050  0.638900  0.315500  1.0  -0.1404
  C  C170  1  0.707270  0.650200  0.235200  1.0  0.0361
  C  C171  1  0.699170  0.916300  0.387300  1.0  0.6857
  C  C172  1  0.690330  0.532500  0.346300  1.0  0.6698
  C  C173  1  0.080350  0.288500  0.997400  1.0  -0.2198
  C  C174  1  0.069240  0.384600  0.025900  1.0  0.0158
  C  C175  1  0.058160  0.397400  0.104600  1.0  -0.13
  C  C176  1  0.059800  0.313200  0.157400  1.0  0.0323
  C  C177  1  0.071400  0.216700  0.132300  1.0  -0.146
  C  C178  1  0.081770  0.205500  0.052200  1.0  0.0404
  C  C179  1  0.044600  0.502600  0.131300  1.0  0.7435
  C  C180  1  0.072200  0.126000  0.189600  1.0  0.6802
  C  C181  1  0.213780  0.246900  0.202600  1.0  -0.2239
  C  C182  1  0.211600  0.332700  0.252800  1.0  0.0456
  C  C183  1  0.202380  0.322700  0.334000  1.0  -0.1162
  C  C184  1  0.196090  0.225500  0.365200  1.0  0.0071
  C  C185  1  0.198050  0.138900  0.315500  1.0  -0.1404
  C  C186  1  0.207270  0.150200  0.235200  1.0  0.0361
  C  C187  1  0.199170  0.416300  0.387300  1.0  0.6857
  C  C188  1  0.190330  0.032500  0.346300  1.0  0.6698
  C  C189  1  0.419650  0.788500  0.502600  1.0  -0.2179
  C  C190  1  0.430760  0.884600  0.474100  1.0  0.0179
  C  C191  1  0.441840  0.897400  0.395400  1.0  -0.1295
  C  C192  1  0.440200  0.813200  0.342600  1.0  0.0327
  C  C193  1  0.428600  0.716700  0.367700  1.0  -0.1458
  C  C194  1  0.418230  0.705500  0.447800  1.0  0.0413
  C  C195  1  0.455400  0.002600  0.368700  1.0  0.7423
  C  C196  1  0.427800  0.626000  0.310400  1.0  0.6795
  C  C197  1  0.286220  0.746900  0.297400  1.0  -0.223
  C  C198  1  0.288400  0.832700  0.247200  1.0  0.0449
  C  C199  1  0.297620  0.822700  0.166000  1.0  -0.1159
  C  C200  1  0.303910  0.725500  0.134800  1.0  0.0058
  C  C201  1  0.301950  0.638900  0.184500  1.0  -0.1414
  C  C202  1  0.292730  0.650200  0.264800  1.0  0.0357
  C  C203  1  0.300830  0.916300  0.112700  1.0  0.6859
  C  C204  1  0.309670  0.532500  0.153700  1.0  0.6693
  C  C205  1  0.919650  0.288500  0.502600  1.0  -0.2179
  C  C206  1  0.930760  0.384600  0.474100  1.0  0.0179
  C  C207  1  0.941840  0.397400  0.395400  1.0  -0.1295
  C  C208  1  0.940200  0.313200  0.342600  1.0  0.0327
  C  C209  1  0.928600  0.216700  0.367700  1.0  -0.1458
  C  C210  1  0.918230  0.205500  0.447800  1.0  0.0413
  C  C211  1  0.955400  0.502600  0.368700  1.0  0.7423
  C  C212  1  0.927800  0.126000  0.310400  1.0  0.6795
  C  C213  1  0.786220  0.246900  0.297400  1.0  -0.223
  C  C214  1  0.788400  0.332700  0.247200  1.0  0.0449
  C  C215  1  0.797620  0.322700  0.166000  1.0  -0.1159
  C  C216  1  0.803910  0.225500  0.134800  1.0  0.0058
  C  C217  1  0.801950  0.138900  0.184500  1.0  -0.1414
  C  C218  1  0.792730  0.150200  0.264800  1.0  0.0357
  C  C219  1  0.800830  0.416300  0.112700  1.0  0.6859
  C  C220  1  0.809670  0.032500  0.153700  1.0  0.6693
  O  O221  1  0.458560  0.211600  0.175700  1.0  -0.7825
  O  O222  1  0.386660  0.325300  0.117600  1.0  -0.7326
  O  O223  1  0.376230  0.129700  0.116700  1.0  -0.749
  O  O224  1  0.449380  0.920100  0.908900  1.0  -0.4927
  O  O225  1  0.472730  0.997000  0.804200  1.0  -0.5848
  O  O226  1  0.433560  0.351800  0.733700  1.0  -0.4998
  O  O227  1  0.423100  0.460500  0.832300  1.0  -0.4367
  O  O228  1  0.298340  0.337000  0.955010  1.0  -0.7597
  O  O229  1  0.288500  0.141400  0.942770  1.0  -0.7753
  O  O230  1  0.217450  0.258300  0.884730  1.0  -0.886
  O  O231  1  0.288760  0.998600  0.639000  1.0  -0.5626
  O  O232  1  0.315440  0.090300  0.546100  1.0  -0.5373
  O  O233  1  0.315930  0.478700  0.578000  1.0  -0.5428
  O  O234  1  0.310610  0.543600  0.701400  1.0  -0.544
  O  O235  1  0.958560  0.711600  0.175700  1.0  -0.7825
  O  O236  1  0.886660  0.825300  0.117600  1.0  -0.7326
  O  O237  1  0.876230  0.629700  0.116700  1.0  -0.749
  O  O238  1  0.949380  0.420100  0.908900  1.0  -0.4927
  O  O239  1  0.972730  0.497000  0.804200  1.0  -0.5848
  O  O240  1  0.933560  0.851800  0.733700  1.0  -0.4998
  O  O241  1  0.923100  0.960500  0.832300  1.0  -0.4367
  O  O242  1  0.798340  0.837000  0.955010  1.0  -0.7597
  O  O243  1  0.788500  0.641400  0.942770  1.0  -0.7753
  O  O244  1  0.717450  0.758300  0.884730  1.0  -0.886
  O  O245  1  0.788760  0.498600  0.639000  1.0  -0.5626
  O  O246  1  0.815440  0.590300  0.546100  1.0  -0.5373
  O  O247  1  0.815930  0.978700  0.578000  1.0  -0.5428
  O  O248  1  0.810610  0.043600  0.701400  1.0  -0.544
  O  O249  1  0.541440  0.211600  0.324300  1.0  -0.7833
  O  O250  1  0.613340  0.325300  0.382400  1.0  -0.7342
  O  O251  1  0.623770  0.129700  0.383300  1.0  -0.7503
  O  O252  1  0.550620  0.920100  0.591100  1.0  -0.4922
  O  O253  1  0.527270  0.997000  0.695800  1.0  -0.5832
  O  O254  1  0.566440  0.351800  0.766300  1.0  -0.501
  O  O255  1  0.576900  0.460500  0.667700  1.0  -0.4368
  O  O256  1  0.701660  0.337000  0.544990  1.0  -0.7596
  O  O257  1  0.711500  0.141400  0.557230  1.0  -0.7755
  O  O258  1  0.782550  0.258300  0.615270  1.0  -0.8859
  O  O259  1  0.711240  0.998600  0.861000  1.0  -0.5627
  O  O260  1  0.684560  0.090300  0.953900  1.0  -0.5395
  O  O261  1  0.684070  0.478700  0.922000  1.0  -0.5425
  O  O262  1  0.689390  0.543600  0.798600  1.0  -0.5448
  O  O263  1  0.041440  0.711600  0.324300  1.0  -0.7833
  O  O264  1  0.113340  0.825300  0.382400  1.0  -0.7342
  O  O265  1  0.123770  0.629700  0.383300  1.0  -0.7503
  O  O266  1  0.050620  0.420100  0.591100  1.0  -0.4922
  O  O267  1  0.027270  0.497000  0.695800  1.0  -0.5832
  O  O268  1  0.066440  0.851800  0.766300  1.0  -0.501
  O  O269  1  0.076900  0.960500  0.667700  1.0  -0.4368
  O  O270  1  0.201660  0.837000  0.544990  1.0  -0.7596
  O  O271  1  0.211500  0.641400  0.557230  1.0  -0.7755
  O  O272  1  0.282550  0.758300  0.615270  1.0  -0.8859
  O  O273  1  0.211240  0.498600  0.861000  1.0  -0.5627
  O  O274  1  0.184560  0.590300  0.953900  1.0  -0.5395
  O  O275  1  0.184070  0.978700  0.922000  1.0  -0.5425
  O  O276  1  0.189390  0.043600  0.798600  1.0  -0.5448
  O  O277  1  0.541440  0.788400  0.824300  1.0  -0.7827
  O  O278  1  0.613340  0.674700  0.882400  1.0  -0.7363
  O  O279  1  0.623770  0.870300  0.883300  1.0  -0.7487
  O  O280  1  0.550620  0.079900  0.091100  1.0  -0.4941
  O  O281  1  0.527270  0.003000  0.195800  1.0  -0.5839
  O  O282  1  0.566440  0.648200  0.266300  1.0  -0.5026
  O  O283  1  0.576900  0.539500  0.167700  1.0  -0.4402
  O  O284  1  0.701660  0.663000  0.044990  1.0  -0.7591
  O  O285  1  0.711500  0.858600  0.057230  1.0  -0.7765
  O  O286  1  0.782550  0.741700  0.115270  1.0  -0.8861
  O  O287  1  0.711240  0.001400  0.361000  1.0  -0.5627
  O  O288  1  0.684560  0.909700  0.453900  1.0  -0.5389
  O  O289  1  0.684070  0.521300  0.422000  1.0  -0.542
  O  O290  1  0.689390  0.456400  0.298600  1.0  -0.5452
  O  O291  1  0.041440  0.288400  0.824300  1.0  -0.7827
  O  O292  1  0.113340  0.174700  0.882400  1.0  -0.7363
  O  O293  1  0.123770  0.370300  0.883300  1.0  -0.7487
  O  O294  1  0.050620  0.579900  0.091100  1.0  -0.4941
  O  O295  1  0.027270  0.503000  0.195800  1.0  -0.5839
  O  O296  1  0.066440  0.148200  0.266300  1.0  -0.5026
  O  O297  1  0.076900  0.039500  0.167700  1.0  -0.4402
  O  O298  1  0.201660  0.163000  0.044990  1.0  -0.7591
  O  O299  1  0.211500  0.358600  0.057230  1.0  -0.7765
  O  O300  1  0.282550  0.241700  0.115270  1.0  -0.8861
  O  O301  1  0.211240  0.501400  0.361000  1.0  -0.5627
  O  O302  1  0.184560  0.409700  0.453900  1.0  -0.5389
  O  O303  1  0.184070  0.021300  0.422000  1.0  -0.542
  O  O304  1  0.189390  0.956400  0.298600  1.0  -0.5452
  O  O305  1  0.458560  0.788400  0.675700  1.0  -0.7826
  O  O306  1  0.386660  0.674700  0.617600  1.0  -0.7347
  O  O307  1  0.376230  0.870300  0.616700  1.0  -0.7473
  O  O308  1  0.449380  0.079900  0.408900  1.0  -0.4965
  O  O309  1  0.472730  0.003000  0.304200  1.0  -0.5856
  O  O310  1  0.433560  0.648200  0.233700  1.0  -0.5
  O  O311  1  0.423100  0.539500  0.332300  1.0  -0.4393
  O  O312  1  0.298340  0.663000  0.455010  1.0  -0.7592
  O  O313  1  0.288500  0.858600  0.442770  1.0  -0.7759
  O  O314  1  0.217450  0.741700  0.384730  1.0  -0.8863
  O  O315  1  0.288760  0.001400  0.139000  1.0  -0.5622
  O  O316  1  0.315440  0.909700  0.046100  1.0  -0.5371
  O  O317  1  0.315930  0.521300  0.078000  1.0  -0.5431
  O  O318  1  0.310610  0.456400  0.201400  1.0  -0.5447
  O  O319  1  0.958560  0.288400  0.675700  1.0  -0.7826
  O  O320  1  0.886660  0.174700  0.617600  1.0  -0.7347
  O  O321  1  0.876230  0.370300  0.616700  1.0  -0.7473
  O  O322  1  0.949380  0.579900  0.408900  1.0  -0.4965
  O  O323  1  0.972730  0.503000  0.304200  1.0  -0.5856
  O  O324  1  0.933560  0.148200  0.233700  1.0  -0.5
  O  O325  1  0.923100  0.039500  0.332300  1.0  -0.4393
  O  O326  1  0.798340  0.163000  0.455010  1.0  -0.7592
  O  O327  1  0.788500  0.358600  0.442770  1.0  -0.7759
  O  O328  1  0.717450  0.241700  0.384730  1.0  -0.8863
  O  O329  1  0.788760  0.501400  0.139000  1.0  -0.5622
  O  O330  1  0.815440  0.409700  0.046100  1.0  -0.5371
  O  O331  1  0.815930  0.021300  0.078000  1.0  -0.5431
  O  O332  1  0.810610  0.956400  0.201400  1.0  -0.5447
