# generated using pymatgen
data_Zn3P2H6(C8O7)2
_symmetry_space_group_name_H-M   'P 1'
_cell_length_a   18.45000000
_cell_length_b   18.45000000
_cell_length_c   23.20100000
_cell_angle_alpha   90.00000000
_cell_angle_beta   90.00000000
_cell_angle_gamma   90.00000000
_symmetry_Int_Tables_number   1
_chemical_formula_structural   Zn3P2H6(C8O7)2
_chemical_formula_sum   'Zn24 P16 H48 C128 O112'
_cell_volume   7897.67840250
_cell_formula_units_Z   8
loop_
 _symmetry_equiv_pos_site_id
 _symmetry_equiv_pos_as_xyz
  1  'x, y, z'
loop_
 _atom_site_type_symbol
 _atom_site_label
 _atom_site_symmetry_multiplicity
 _atom_site_fract_x
 _atom_site_fract_y
 _atom_site_fract_z
 _atom_site_occupancy
 _atom_site_charge
  Zn  Zn1  1  0.730320  0.724820  0.973130  1.0  1.0932
  Zn  Zn2  1  0.230320  0.224820  0.473130  1.0  1.0932
  Zn  Zn3  1  0.269680  0.275180  0.973130  1.0  1.0939
  Zn  Zn4  1  0.769680  0.775180  0.473130  1.0  1.0939
  Zn  Zn5  1  0.724820  0.269680  0.026870  1.0  1.0917
  Zn  Zn6  1  0.224820  0.769680  0.526870  1.0  1.0917
  Zn  Zn7  1  0.275180  0.730320  0.026870  1.0  1.0917
  Zn  Zn8  1  0.775180  0.230320  0.526870  1.0  1.0917
  Zn  Zn9  1  0.769680  0.724820  0.776870  1.0  1.0931
  Zn  Zn10  1  0.269680  0.224820  0.276870  1.0  1.0931
  Zn  Zn11  1  0.230320  0.275180  0.776870  1.0  1.093
  Zn  Zn12  1  0.730320  0.775180  0.276870  1.0  1.093
  Zn  Zn13  1  0.775180  0.269680  0.723130  1.0  1.0925
  Zn  Zn14  1  0.275180  0.769680  0.223130  1.0  1.0925
  Zn  Zn15  1  0.224820  0.730320  0.723130  1.0  1.092
  Zn  Zn16  1  0.724820  0.230320  0.223130  1.0  1.092
  Zn  Zn17  1  0.750000  0.872950  0.875000  1.0  1.0308
  Zn  Zn18  1  0.250000  0.372950  0.375000  1.0  1.0308
  Zn  Zn19  1  0.250000  0.127050  0.875000  1.0  1.0345
  Zn  Zn20  1  0.750000  0.627050  0.375000  1.0  1.0345
  Zn  Zn21  1  0.872950  0.250000  0.125000  1.0  1.0322
  Zn  Zn22  1  0.127050  0.750000  0.125000  1.0  1.032
  Zn  Zn23  1  0.627050  0.250000  0.625000  1.0  1.032
  Zn  Zn24  1  0.372950  0.750000  0.625000  1.0  1.0322
  P  P25  1  0.641340  0.742690  0.858340  1.0  1.5328
  P  P26  1  0.141340  0.242690  0.358340  1.0  1.5328
  P  P27  1  0.358660  0.257310  0.858340  1.0  1.5334
  P  P28  1  0.858660  0.757310  0.358340  1.0  1.5334
  P  P29  1  0.742690  0.358660  0.141660  1.0  1.5369
  P  P30  1  0.242690  0.858660  0.641660  1.0  1.5369
  P  P31  1  0.257310  0.641340  0.141660  1.0  1.5374
  P  P32  1  0.757310  0.141340  0.641660  1.0  1.5374
  P  P33  1  0.858660  0.742690  0.891660  1.0  1.5339
  P  P34  1  0.358660  0.242690  0.391660  1.0  1.5339
  P  P35  1  0.141340  0.257310  0.891660  1.0  1.5322
  P  P36  1  0.641340  0.757310  0.391660  1.0  1.5322
  P  P37  1  0.757310  0.358660  0.608340  1.0  1.5374
  P  P38  1  0.257310  0.858660  0.108340  1.0  1.5374
  P  P39  1  0.242690  0.641340  0.608340  1.0  1.5374
  P  P40  1  0.742690  0.141340  0.108340  1.0  1.5374
  H  H41  1  0.525600  0.732600  0.939300  1.0  0.1229
  H  H42  1  0.344300  0.721400  0.846700  1.0  0.1158
  H  H43  1  0.535500  0.735400  0.766600  1.0  0.1175
  H  H44  1  0.025600  0.232600  0.439300  1.0  0.1229
  H  H45  1  0.844300  0.221400  0.346700  1.0  0.1158
  H  H46  1  0.035500  0.235400  0.266600  1.0  0.1175
  H  H47  1  0.474400  0.267400  0.939300  1.0  0.1227
  H  H48  1  0.655700  0.278600  0.846700  1.0  0.1161
  H  H49  1  0.464500  0.264600  0.766600  1.0  0.1176
  H  H50  1  0.974400  0.767400  0.439300  1.0  0.1227
  H  H51  1  0.155700  0.778600  0.346700  1.0  0.1161
  H  H52  1  0.964500  0.764600  0.266600  1.0  0.1176
  H  H53  1  0.732600  0.474400  0.060700  1.0  0.1229
  H  H54  1  0.721400  0.655700  0.153300  1.0  0.1143
  H  H55  1  0.735400  0.464500  0.233400  1.0  0.1177
  H  H56  1  0.232600  0.974400  0.560700  1.0  0.1229
  H  H57  1  0.221400  0.155700  0.653300  1.0  0.1143
  H  H58  1  0.235400  0.964500  0.733400  1.0  0.1177
  H  H59  1  0.267400  0.525600  0.060700  1.0  0.1227
  H  H60  1  0.278600  0.344300  0.153300  1.0  0.1139
  H  H61  1  0.264600  0.535500  0.233400  1.0  0.1175
  H  H62  1  0.767400  0.025600  0.560700  1.0  0.1227
  H  H63  1  0.778600  0.844300  0.653300  1.0  0.1139
  H  H64  1  0.764600  0.035500  0.733400  1.0  0.1175
  H  H65  1  0.974400  0.732600  0.810700  1.0  0.1231
  H  H66  1  0.155700  0.721400  0.903300  1.0  0.1166
  H  H67  1  0.964500  0.735400  0.983400  1.0  0.1178
  H  H68  1  0.474400  0.232600  0.310700  1.0  0.1231
  H  H69  1  0.655700  0.221400  0.403300  1.0  0.1166
  H  H70  1  0.464500  0.235400  0.483400  1.0  0.1178
  H  H71  1  0.025600  0.267400  0.810700  1.0  0.123
  H  H72  1  0.844300  0.278600  0.903300  1.0  0.1157
  H  H73  1  0.035500  0.264600  0.983400  1.0  0.1175
  H  H74  1  0.525600  0.767400  0.310700  1.0  0.123
  H  H75  1  0.344300  0.778600  0.403300  1.0  0.1157
  H  H76  1  0.535500  0.764600  0.483400  1.0  0.1175
  H  H77  1  0.767400  0.474400  0.689300  1.0  0.1228
  H  H78  1  0.778600  0.655700  0.596700  1.0  0.1142
  H  H79  1  0.764600  0.464500  0.516600  1.0  0.1176
  H  H80  1  0.267400  0.974400  0.189300  1.0  0.1228
  H  H81  1  0.278600  0.155700  0.096700  1.0  0.1142
  H  H82  1  0.264600  0.964500  0.016600  1.0  0.1176
  H  H83  1  0.232600  0.525600  0.689300  1.0  0.1225
  H  H84  1  0.221400  0.344300  0.596700  1.0  0.1134
  H  H85  1  0.235400  0.535500  0.516600  1.0  0.1173
  H  H86  1  0.732600  0.025600  0.189300  1.0  0.1225
  H  H87  1  0.721400  0.844300  0.096700  1.0  0.1134
  H  H88  1  0.735400  0.035500  0.016600  1.0  0.1173
  C  C89  1  0.545300  0.735000  0.852800  1.0  -0.1709
  C  C90  1  0.502900  0.731100  0.903500  1.0  0.0425
  C  C91  1  0.428400  0.725100  0.900800  1.0  -0.1852
  C  C92  1  0.394600  0.724700  0.848400  1.0  0.0514
  C  C93  1  0.434200  0.729000  0.797600  1.0  -0.1707
  C  C94  1  0.509000  0.733400  0.800600  1.0  0.0415
  C  C95  1  0.386600  0.723000  0.956200  1.0  0.6764
  C  C96  1  0.394800  0.728300  0.741000  1.0  0.7465
  C  C97  1  0.045300  0.235000  0.352800  1.0  -0.1709
  C  C98  1  0.002900  0.231100  0.403500  1.0  0.0425
  C  C99  1  0.928400  0.225100  0.400800  1.0  -0.1852
  C  C100  1  0.894600  0.224700  0.348400  1.0  0.0514
  C  C101  1  0.934200  0.229000  0.297600  1.0  -0.1707
  C  C102  1  0.009000  0.233400  0.300600  1.0  0.0415
  C  C103  1  0.886600  0.223000  0.456200  1.0  0.6764
  C  C104  1  0.894800  0.228300  0.241000  1.0  0.7465
  C  C105  1  0.454700  0.265000  0.852800  1.0  -0.1723
  C  C106  1  0.497100  0.268900  0.903500  1.0  0.0418
  C  C107  1  0.571600  0.274900  0.900800  1.0  -0.1858
  C  C108  1  0.605400  0.275300  0.848400  1.0  0.0536
  C  C109  1  0.565800  0.271000  0.797600  1.0  -0.1706
  C  C110  1  0.491000  0.266600  0.800600  1.0  0.0424
  C  C111  1  0.613400  0.277000  0.956200  1.0  0.6771
  C  C112  1  0.605200  0.271700  0.741000  1.0  0.7469
  C  C113  1  0.954700  0.765000  0.352800  1.0  -0.1723
  C  C114  1  0.997100  0.768900  0.403500  1.0  0.0418
  C  C115  1  0.071600  0.774900  0.400800  1.0  -0.1858
  C  C116  1  0.105400  0.775300  0.348400  1.0  0.0536
  C  C117  1  0.065800  0.771000  0.297600  1.0  -0.1706
  C  C118  1  0.991000  0.766600  0.300600  1.0  0.0424
  C  C119  1  0.113400  0.777000  0.456200  1.0  0.6771
  C  C120  1  0.105200  0.771700  0.241000  1.0  0.7469
  C  C121  1  0.735000  0.454700  0.147200  1.0  -0.1709
  C  C122  1  0.731100  0.497100  0.096500  1.0  0.0411
  C  C123  1  0.725100  0.571600  0.099200  1.0  -0.1859
  C  C124  1  0.724700  0.605400  0.151600  1.0  0.0514
  C  C125  1  0.729000  0.565800  0.202400  1.0  -0.1713
  C  C126  1  0.733400  0.491000  0.199400  1.0  0.0428
  C  C127  1  0.723000  0.613400  0.043800  1.0  0.6756
  C  C128  1  0.728300  0.605200  0.259000  1.0  0.7473
  C  C129  1  0.235000  0.954700  0.647200  1.0  -0.1709
  C  C130  1  0.231100  0.997100  0.596500  1.0  0.0411
  C  C131  1  0.225100  0.071600  0.599200  1.0  -0.1859
  C  C132  1  0.224700  0.105400  0.651600  1.0  0.0514
  C  C133  1  0.229000  0.065800  0.702400  1.0  -0.1713
  C  C134  1  0.233400  0.991000  0.699400  1.0  0.0428
  C  C135  1  0.223000  0.113400  0.543800  1.0  0.6756
  C  C136  1  0.228300  0.105200  0.759000  1.0  0.7473
  C  C137  1  0.265000  0.545300  0.147200  1.0  -0.1712
  C  C138  1  0.268900  0.502900  0.096500  1.0  0.0413
  C  C139  1  0.274900  0.428400  0.099200  1.0  -0.1863
  C  C140  1  0.275300  0.394600  0.151600  1.0  0.0535
  C  C141  1  0.271000  0.434200  0.202400  1.0  -0.1713
  C  C142  1  0.266600  0.509000  0.199400  1.0  0.043
  C  C143  1  0.277000  0.386600  0.043800  1.0  0.676
  C  C144  1  0.271700  0.394800  0.259000  1.0  0.7471
  C  C145  1  0.765000  0.045300  0.647200  1.0  -0.1712
  C  C146  1  0.768900  0.002900  0.596500  1.0  0.0413
  C  C147  1  0.774900  0.928400  0.599200  1.0  -0.1863
  C  C148  1  0.775300  0.894600  0.651600  1.0  0.0535
  C  C149  1  0.771000  0.934200  0.702400  1.0  -0.1713
  C  C150  1  0.766600  0.009000  0.699400  1.0  0.043
  C  C151  1  0.777000  0.886600  0.543800  1.0  0.676
  C  C152  1  0.771700  0.894800  0.759000  1.0  0.7471
  C  C153  1  0.954700  0.735000  0.897200  1.0  -0.1729
  C  C154  1  0.997100  0.731100  0.846500  1.0  0.0417
  C  C155  1  0.071600  0.725100  0.849200  1.0  -0.1868
  C  C156  1  0.105400  0.724700  0.901600  1.0  0.0539
  C  C157  1  0.065800  0.729000  0.952400  1.0  -0.1719
  C  C158  1  0.991000  0.733400  0.949400  1.0  0.0425
  C  C159  1  0.113400  0.723000  0.793800  1.0  0.6765
  C  C160  1  0.105200  0.728300  0.009000  1.0  0.747
  C  C161  1  0.454700  0.235000  0.397200  1.0  -0.1729
  C  C162  1  0.497100  0.231100  0.346500  1.0  0.0417
  C  C163  1  0.571600  0.225100  0.349200  1.0  -0.1868
  C  C164  1  0.605400  0.224700  0.401600  1.0  0.0539
  C  C165  1  0.565800  0.229000  0.452400  1.0  -0.1719
  C  C166  1  0.491000  0.233400  0.449400  1.0  0.0425
  C  C167  1  0.613400  0.223000  0.293800  1.0  0.6765
  C  C168  1  0.605200  0.228300  0.509000  1.0  0.747
  C  C169  1  0.045300  0.265000  0.897200  1.0  -0.1716
  C  C170  1  0.002900  0.268900  0.846500  1.0  0.0416
  C  C171  1  0.928400  0.274900  0.849200  1.0  -0.1864
  C  C172  1  0.894600  0.275300  0.901600  1.0  0.0514
  C  C173  1  0.934200  0.271000  0.952400  1.0  -0.1716
  C  C174  1  0.009000  0.266600  0.949400  1.0  0.0428
  C  C175  1  0.886600  0.277000  0.793800  1.0  0.6764
  C  C176  1  0.894800  0.271700  0.009000  1.0  0.7469
  C  C177  1  0.545300  0.765000  0.397200  1.0  -0.1716
  C  C178  1  0.502900  0.768900  0.346500  1.0  0.0416
  C  C179  1  0.428400  0.774900  0.349200  1.0  -0.1864
  C  C180  1  0.394600  0.775300  0.401600  1.0  0.0514
  C  C181  1  0.434200  0.771000  0.452400  1.0  -0.1716
  C  C182  1  0.509000  0.766600  0.449400  1.0  0.0428
  C  C183  1  0.386600  0.777000  0.293800  1.0  0.6764
  C  C184  1  0.394800  0.771700  0.509000  1.0  0.7469
  C  C185  1  0.765000  0.454700  0.602800  1.0  -0.1711
  C  C186  1  0.768900  0.497100  0.653500  1.0  0.0424
  C  C187  1  0.774900  0.571600  0.650800  1.0  -0.1853
  C  C188  1  0.775300  0.605400  0.598400  1.0  0.0512
  C  C189  1  0.771000  0.565800  0.547600  1.0  -0.1702
  C  C190  1  0.766600  0.491000  0.550600  1.0  0.0424
  C  C191  1  0.777000  0.613400  0.706200  1.0  0.6765
  C  C192  1  0.771700  0.605200  0.491000  1.0  0.7469
  C  C193  1  0.265000  0.954700  0.102800  1.0  -0.1711
  C  C194  1  0.268900  0.997100  0.153500  1.0  0.0424
  C  C195  1  0.274900  0.071600  0.150800  1.0  -0.1853
  C  C196  1  0.275300  0.105400  0.098400  1.0  0.0512
  C  C197  1  0.271000  0.065800  0.047600  1.0  -0.1702
  C  C198  1  0.266600  0.991000  0.050600  1.0  0.0424
  C  C199  1  0.277000  0.113400  0.206200  1.0  0.6765
  C  C200  1  0.271700  0.105200  0.991000  1.0  0.7469
  C  C201  1  0.235000  0.545300  0.602800  1.0  -0.1705
  C  C202  1  0.231100  0.502900  0.653500  1.0  0.0423
  C  C203  1  0.225100  0.428400  0.650800  1.0  -0.1846
  C  C204  1  0.224700  0.394600  0.598400  1.0  0.0536
  C  C205  1  0.229000  0.434200  0.547600  1.0  -0.1705
  C  C206  1  0.233400  0.509000  0.550600  1.0  0.0419
  C  C207  1  0.223000  0.386600  0.706200  1.0  0.6757
  C  C208  1  0.228300  0.394800  0.491000  1.0  0.7473
  C  C209  1  0.735000  0.045300  0.102800  1.0  -0.1705
  C  C210  1  0.731100  0.002900  0.153500  1.0  0.0423
  C  C211  1  0.725100  0.928400  0.150800  1.0  -0.1846
  C  C212  1  0.724700  0.894600  0.098400  1.0  0.0536
  C  C213  1  0.729000  0.934200  0.047600  1.0  -0.1705
  C  C214  1  0.733400  0.009000  0.050600  1.0  0.0419
  C  C215  1  0.723000  0.886600  0.206200  1.0  0.6757
  C  C216  1  0.728300  0.894800  0.991000  1.0  0.7473
  O  O217  1  0.658700  0.822200  0.861900  1.0  -0.7332
  O  O218  1  0.663600  0.702400  0.913500  1.0  -0.7572
  O  O219  1  0.672700  0.707100  0.804700  1.0  -0.765
  O  O220  1  0.317700  0.721400  0.950900  1.0  -0.5671
  O  O221  1  0.417300  0.727400  0.002100  1.0  -0.4706
  O  O222  1  0.329200  0.720300  0.742400  1.0  -0.6508
  O  O223  1  0.432200  0.739600  0.695700  1.0  -0.5866
  O  O224  1  0.158700  0.322200  0.361900  1.0  -0.7332
  O  O225  1  0.163600  0.202400  0.413500  1.0  -0.7572
  O  O226  1  0.172700  0.207100  0.304700  1.0  -0.765
  O  O227  1  0.817700  0.221400  0.450900  1.0  -0.5671
  O  O228  1  0.917300  0.227400  0.502100  1.0  -0.4706
  O  O229  1  0.829200  0.220300  0.242400  1.0  -0.6508
  O  O230  1  0.932200  0.239600  0.195700  1.0  -0.5866
  O  O231  1  0.341300  0.177800  0.861900  1.0  -0.734
  O  O232  1  0.336400  0.297600  0.913500  1.0  -0.7571
  O  O233  1  0.327300  0.292900  0.804700  1.0  -0.7642
  O  O234  1  0.682300  0.278600  0.950900  1.0  -0.5669
  O  O235  1  0.582700  0.272600  0.002100  1.0  -0.4715
  O  O236  1  0.670800  0.279700  0.742400  1.0  -0.6523
  O  O237  1  0.567800  0.260400  0.695700  1.0  -0.5874
  O  O238  1  0.841300  0.677800  0.361900  1.0  -0.734
  O  O239  1  0.836400  0.797600  0.413500  1.0  -0.7571
  O  O240  1  0.827300  0.792900  0.304700  1.0  -0.7642
  O  O241  1  0.182300  0.778600  0.450900  1.0  -0.5669
  O  O242  1  0.082700  0.772600  0.502100  1.0  -0.4715
  O  O243  1  0.170800  0.779700  0.242400  1.0  -0.6523
  O  O244  1  0.067800  0.760400  0.195700  1.0  -0.5874
  O  O245  1  0.822200  0.341300  0.138100  1.0  -0.7328
  O  O246  1  0.702400  0.336400  0.086500  1.0  -0.7542
  O  O247  1  0.707100  0.327300  0.195300  1.0  -0.7625
  O  O248  1  0.721400  0.682300  0.049100  1.0  -0.5714
  O  O249  1  0.727400  0.582700  0.997900  1.0  -0.4684
  O  O250  1  0.720300  0.670800  0.257600  1.0  -0.655
  O  O251  1  0.739600  0.567800  0.304300  1.0  -0.588
  O  O252  1  0.322200  0.841300  0.638100  1.0  -0.7328
  O  O253  1  0.202400  0.836400  0.586500  1.0  -0.7542
  O  O254  1  0.207100  0.827300  0.695300  1.0  -0.7625
  O  O255  1  0.221400  0.182300  0.549100  1.0  -0.5714
  O  O256  1  0.227400  0.082700  0.497900  1.0  -0.4684
  O  O257  1  0.220300  0.170800  0.757600  1.0  -0.655
  O  O258  1  0.239600  0.067800  0.804300  1.0  -0.588
  O  O259  1  0.177800  0.658700  0.138100  1.0  -0.7326
  O  O260  1  0.297600  0.663600  0.086500  1.0  -0.7558
  O  O261  1  0.292900  0.672700  0.195300  1.0  -0.7618
  O  O262  1  0.278600  0.317700  0.049100  1.0  -0.5697
  O  O263  1  0.272600  0.417300  0.997900  1.0  -0.4687
  O  O264  1  0.279700  0.329200  0.257600  1.0  -0.6523
  O  O265  1  0.260400  0.432200  0.304300  1.0  -0.5877
  O  O266  1  0.677800  0.158700  0.638100  1.0  -0.7326
  O  O267  1  0.797600  0.163600  0.586500  1.0  -0.7558
  O  O268  1  0.792900  0.172700  0.695300  1.0  -0.7618
  O  O269  1  0.778600  0.817700  0.549100  1.0  -0.5697
  O  O270  1  0.772600  0.917300  0.497900  1.0  -0.4687
  O  O271  1  0.779700  0.829200  0.757600  1.0  -0.6523
  O  O272  1  0.760400  0.932200  0.804300  1.0  -0.5877
  O  O273  1  0.841300  0.822200  0.888100  1.0  -0.7339
  O  O274  1  0.836400  0.702400  0.836500  1.0  -0.7576
  O  O275  1  0.827300  0.707100  0.945300  1.0  -0.7634
  O  O276  1  0.182300  0.721400  0.799100  1.0  -0.5668
  O  O277  1  0.082700  0.727400  0.747900  1.0  -0.4693
  O  O278  1  0.170800  0.720300  0.007600  1.0  -0.6509
  O  O279  1  0.067800  0.739600  0.054300  1.0  -0.5869
  O  O280  1  0.341300  0.322200  0.388100  1.0  -0.7339
  O  O281  1  0.336400  0.202400  0.336500  1.0  -0.7576
  O  O282  1  0.327300  0.207100  0.445300  1.0  -0.7634
  O  O283  1  0.682300  0.221400  0.299100  1.0  -0.5668
  O  O284  1  0.582700  0.227400  0.247900  1.0  -0.4693
  O  O285  1  0.670800  0.220300  0.507600  1.0  -0.6509
  O  O286  1  0.567800  0.239600  0.554300  1.0  -0.5869
  O  O287  1  0.158700  0.177800  0.888100  1.0  -0.7338
  O  O288  1  0.163600  0.297600  0.836500  1.0  -0.7568
  O  O289  1  0.172700  0.292900  0.945300  1.0  -0.7634
  O  O290  1  0.817700  0.278600  0.799100  1.0  -0.5666
  O  O291  1  0.917300  0.272600  0.747900  1.0  -0.4685
  O  O292  1  0.829200  0.279700  0.007600  1.0  -0.6519
  O  O293  1  0.932200  0.260400  0.054300  1.0  -0.5864
  O  O294  1  0.658700  0.677800  0.388100  1.0  -0.7338
  O  O295  1  0.663600  0.797600  0.336500  1.0  -0.7568
  O  O296  1  0.672700  0.792900  0.445300  1.0  -0.7634
  O  O297  1  0.317700  0.778600  0.299100  1.0  -0.5666
  O  O298  1  0.417300  0.772600  0.247900  1.0  -0.4685
  O  O299  1  0.329200  0.779700  0.507600  1.0  -0.6519
  O  O300  1  0.432200  0.760400  0.554300  1.0  -0.5864
  O  O301  1  0.677800  0.341300  0.611900  1.0  -0.7322
  O  O302  1  0.797600  0.336400  0.663500  1.0  -0.757
  O  O303  1  0.792900  0.327300  0.554700  1.0  -0.7629
  O  O304  1  0.778600  0.682300  0.700900  1.0  -0.5709
  O  O305  1  0.772600  0.582700  0.752100  1.0  -0.4704
  O  O306  1  0.779700  0.670800  0.492400  1.0  -0.6554
  O  O307  1  0.760400  0.567800  0.445700  1.0  -0.5871
  O  O308  1  0.177800  0.841300  0.111900  1.0  -0.7322
  O  O309  1  0.297600  0.836400  0.163500  1.0  -0.757
  O  O310  1  0.292900  0.827300  0.054700  1.0  -0.7629
  O  O311  1  0.278600  0.182300  0.200900  1.0  -0.5709
  O  O312  1  0.272600  0.082700  0.252100  1.0  -0.4704
  O  O313  1  0.279700  0.170800  0.992400  1.0  -0.6554
  O  O314  1  0.260400  0.067800  0.945700  1.0  -0.5871
  O  O315  1  0.322200  0.658700  0.611900  1.0  -0.7327
  O  O316  1  0.202400  0.663600  0.663500  1.0  -0.7551
  O  O317  1  0.207100  0.672700  0.554700  1.0  -0.7625
  O  O318  1  0.221400  0.317700  0.700900  1.0  -0.5706
  O  O319  1  0.227400  0.417300  0.752100  1.0  -0.4695
  O  O320  1  0.220300  0.329200  0.492400  1.0  -0.6519
  O  O321  1  0.239600  0.432200  0.445700  1.0  -0.5899
  O  O322  1  0.822200  0.158700  0.111900  1.0  -0.7327
  O  O323  1  0.702400  0.163600  0.163500  1.0  -0.7551
  O  O324  1  0.707100  0.172700  0.054700  1.0  -0.7625
  O  O325  1  0.721400  0.817700  0.200900  1.0  -0.5706
  O  O326  1  0.727400  0.917300  0.252100  1.0  -0.4695
  O  O327  1  0.720300  0.829200  0.992400  1.0  -0.6519
  O  O328  1  0.739600  0.932200  0.945700  1.0  -0.5899
