# generated using pymatgen
data_FeH36(C2N)12
_symmetry_space_group_name_H-M   'P 1'
_cell_length_a   14.71300000
_cell_length_b   14.71300000
_cell_length_c   37.43600000
_cell_angle_alpha   90.00000000
_cell_angle_beta   90.00000000
_cell_angle_gamma   120.00000000
_symmetry_Int_Tables_number   1
_chemical_formula_structural   FeH36(C2N)12
_chemical_formula_sum   'Fe6 H216 C144 N72'
_cell_volume   7018.14828740
_cell_formula_units_Z   6
loop_
 _symmetry_equiv_pos_site_id
 _symmetry_equiv_pos_as_xyz
  1  'x, y, z'
loop_
 _atom_site_type_symbol
 _atom_site_label
 _atom_site_symmetry_multiplicity
 _atom_site_fract_x
 _atom_site_fract_y
 _atom_site_fract_z
 _atom_site_occupancy
 _atom_site_charge
  Fe  Fe1  1  0.333333  0.666667  0.666667  1.0  0.7051
  Fe  Fe2  1  0.000000  0.000000  0.000000  1.0  0.6997
  Fe  Fe3  1  0.666667  0.333333  0.333333  1.0  0.7061
  Fe  Fe4  1  0.666667  0.333333  0.833330  1.0  0.7361
  Fe  Fe5  1  0.333333  0.666667  0.166670  1.0  0.7353
  Fe  Fe6  1  0.000000  0.000000  0.500000  1.0  0.7336
  H  H7  1  0.666100  0.988900  0.774300  1.0  0.1262
  H  H8  1  0.642000  0.891600  0.749800  1.0  0.1262
  H  H9  1  0.559100  0.881700  0.778800  1.0  0.1312
  H  H10  1  0.692400  0.102100  0.718100  1.0  0.1181
  H  H11  1  0.599300  0.062500  0.690200  1.0  0.1212
  H  H12  1  0.666800  0.006100  0.692700  1.0  0.1293
  H  H13  1  0.286300  0.036700  0.725600  1.0  0.1294
  H  H14  1  0.398800  0.137000  0.720600  1.0  0.1206
  H  H15  1  0.318200  0.139600  0.748100  1.0  0.1118
  H  H16  1  0.247200  0.927500  0.781000  1.0  0.1238
  H  H17  1  0.277600  0.025000  0.806200  1.0  0.1255
  H  H18  1  0.335100  0.958900  0.810500  1.0  0.1285
  H  H19  1  0.332770  0.322230  0.107630  1.0  0.1262
  H  H20  1  0.308670  0.224930  0.083130  1.0  0.126
  H  H21  1  0.225770  0.215030  0.112130  1.0  0.1312
  H  H22  1  0.359070  0.435430  0.051430  1.0  0.1181
  H  H23  1  0.265970  0.395830  0.023530  1.0  0.1208
  H  H24  1  0.333470  0.339430  0.026030  1.0  0.1293
  H  H25  1  0.952970  0.370030  0.058930  1.0  0.1273
  H  H26  1  0.065470  0.470330  0.053930  1.0  0.1212
  H  H27  1  0.984870  0.472930  0.081430  1.0  0.1118
  H  H28  1  0.913870  0.260830  0.114330  1.0  0.1241
  H  H29  1  0.944270  0.358330  0.139530  1.0  0.1255
  H  H30  1  0.001770  0.292230  0.143830  1.0  0.128
  H  H31  1  0.999430  0.655570  0.440970  1.0  0.1262
  H  H32  1  0.975330  0.558270  0.416470  1.0  0.1265
  H  H33  1  0.892430  0.548370  0.445470  1.0  0.1301
  H  H34  1  0.025730  0.768770  0.384770  1.0  0.1181
  H  H35  1  0.932630  0.729170  0.356870  1.0  0.1212
  H  H36  1  0.000130  0.672770  0.359370  1.0  0.1293
  H  H37  1  0.619630  0.703370  0.392270  1.0  0.1294
  H  H38  1  0.732130  0.803670  0.387270  1.0  0.1212
  H  H39  1  0.651530  0.806270  0.414770  1.0  0.1117
  H  H40  1  0.580530  0.594170  0.447670  1.0  0.1245
  H  H41  1  0.610930  0.691670  0.472870  1.0  0.1265
  H  H42  1  0.668430  0.625570  0.477170  1.0  0.1279
  H  H43  1  0.011100  0.677200  0.774300  1.0  0.1282
  H  H44  1  0.108400  0.750400  0.749800  1.0  0.1266
  H  H45  1  0.118300  0.677400  0.778800  1.0  0.1298
  H  H46  1  0.897900  0.590300  0.718100  1.0  0.1188
  H  H47  1  0.937500  0.536800  0.690200  1.0  0.1254
  H  H48  1  0.993900  0.660700  0.692700  1.0  0.1289
  H  H49  1  0.963300  0.249600  0.725600  1.0  0.1269
  H  H50  1  0.863000  0.261800  0.720600  1.0  0.1207
  H  H51  1  0.860400  0.178600  0.748100  1.0  0.1107
  H  H52  1  0.072500  0.319700  0.781000  1.0  0.123
  H  H53  1  0.975000  0.252600  0.806200  1.0  0.1239
  H  H54  1  0.041100  0.376200  0.810500  1.0  0.1283
  H  H55  1  0.677770  0.010530  0.107630  1.0  0.1287
  H  H56  1  0.775070  0.083730  0.083130  1.0  0.1266
  H  H57  1  0.784970  0.010730  0.112130  1.0  0.1294
  H  H58  1  0.564570  0.923630  0.051430  1.0  0.1188
  H  H59  1  0.604170  0.870130  0.023530  1.0  0.1226
  H  H60  1  0.660570  0.994030  0.026030  1.0  0.1289
  H  H61  1  0.629970  0.582930  0.058930  1.0  0.1284
  H  H62  1  0.529670  0.595130  0.053930  1.0  0.1206
  H  H63  1  0.527070  0.511930  0.081430  1.0  0.1107
  H  H64  1  0.739170  0.653030  0.114330  1.0  0.123
  H  H65  1  0.641670  0.585930  0.139530  1.0  0.1239
  H  H66  1  0.707770  0.709530  0.143830  1.0  0.1283
  H  H67  1  0.344430  0.343870  0.440970  1.0  0.1287
  H  H68  1  0.441730  0.417070  0.416470  1.0  0.1266
  H  H69  1  0.451630  0.344070  0.445470  1.0  0.1301
  H  H70  1  0.231230  0.256970  0.384770  1.0  0.1188
  H  H71  1  0.270830  0.203470  0.356870  1.0  0.1254
  H  H72  1  0.327230  0.327370  0.359370  1.0  0.1289
  H  H73  1  0.296630  0.916270  0.392270  1.0  0.1269
  H  H74  1  0.196330  0.928470  0.387270  1.0  0.1207
  H  H75  1  0.193730  0.845270  0.414770  1.0  0.1107
  H  H76  1  0.405830  0.986370  0.447670  1.0  0.123
  H  H77  1  0.308330  0.919270  0.472870  1.0  0.1245
  H  H78  1  0.374430  0.042870  0.477170  1.0  0.1283
  H  H79  1  0.322800  0.333900  0.774300  1.0  0.1314
  H  H80  1  0.249600  0.358000  0.749800  1.0  0.1277
  H  H81  1  0.322600  0.440900  0.778800  1.0  0.1315
  H  H82  1  0.409700  0.307600  0.718100  1.0  0.1168
  H  H83  1  0.463200  0.400700  0.690200  1.0  0.1207
  H  H84  1  0.339300  0.333200  0.692700  1.0  0.1311
  H  H85  1  0.750400  0.713700  0.725600  1.0  0.1367
  H  H86  1  0.738200  0.601200  0.720600  1.0  0.1216
  H  H87  1  0.821400  0.681800  0.748100  1.0  0.1112
  H  H88  1  0.680300  0.752800  0.781000  1.0  0.1246
  H  H89  1  0.747400  0.722400  0.806200  1.0  0.1254
  H  H90  1  0.623800  0.664900  0.810500  1.0  0.1278
  H  H91  1  0.989470  0.667230  0.107630  1.0  0.1314
  H  H92  1  0.916270  0.691330  0.083130  1.0  0.1277
  H  H93  1  0.989270  0.774230  0.112130  1.0  0.1315
  H  H94  1  0.076370  0.640930  0.051430  1.0  0.1168
  H  H95  1  0.129870  0.734030  0.023530  1.0  0.1214
  H  H96  1  0.005970  0.666530  0.026030  1.0  0.1306
  H  H97  1  0.417070  0.047030  0.058930  1.0  0.1294
  H  H98  1  0.404870  0.934530  0.053930  1.0  0.1215
  H  H99  1  0.488070  0.015130  0.081430  1.0  0.1112
  H  H100  1  0.346970  0.086130  0.114330  1.0  0.1244
  H  H101  1  0.414070  0.055730  0.139530  1.0  0.1254
  H  H102  1  0.290470  0.998230  0.143830  1.0  0.1278
  H  H103  1  0.656130  0.000570  0.440970  1.0  0.1314
  H  H104  1  0.582930  0.024670  0.416470  1.0  0.1277
  H  H105  1  0.655930  0.107570  0.445470  1.0  0.13
  H  H106  1  0.743030  0.974270  0.384770  1.0  0.1168
  H  H107  1  0.796530  0.067370  0.356870  1.0  0.1207
  H  H108  1  0.672630  0.999870  0.359370  1.0  0.1311
  H  H109  1  0.083730  0.380370  0.392270  1.0  0.1369
  H  H110  1  0.071530  0.267870  0.387270  1.0  0.1209
  H  H111  1  0.154730  0.348470  0.414770  1.0  0.1112
  H  H112  1  0.013630  0.419470  0.447670  1.0  0.1246
  H  H113  1  0.080730  0.389070  0.472870  1.0  0.1247
  H  H114  1  0.957130  0.331570  0.477170  1.0  0.1278
  H  H115  1  0.333900  0.011100  0.225700  1.0  0.1301
  H  H116  1  0.358000  0.108400  0.250200  1.0  0.1257
  H  H117  1  0.440900  0.118300  0.221200  1.0  0.1304
  H  H118  1  0.307600  0.897900  0.281900  1.0  0.1175
  H  H119  1  0.400700  0.937500  0.309800  1.0  0.1213
  H  H120  1  0.333200  0.993900  0.307300  1.0  0.1307
  H  H121  1  0.713700  0.963300  0.274400  1.0  0.1292
  H  H122  1  0.601200  0.863000  0.279400  1.0  0.1213
  H  H123  1  0.681800  0.860400  0.251900  1.0  0.1126
  H  H124  1  0.752800  0.072500  0.219000  1.0  0.1237
  H  H125  1  0.722400  0.975000  0.193800  1.0  0.1262
  H  H126  1  0.664900  0.041100  0.189500  1.0  0.1278
  H  H127  1  0.000570  0.344430  0.559030  1.0  0.1301
  H  H128  1  0.024670  0.441730  0.583530  1.0  0.1254
  H  H129  1  0.107570  0.451630  0.554530  1.0  0.1295
  H  H130  1  0.974270  0.231230  0.615230  1.0  0.1175
  H  H131  1  0.067370  0.270830  0.643130  1.0  0.1213
  H  H132  1  0.999870  0.327230  0.640630  1.0  0.1307
  H  H133  1  0.380370  0.296630  0.607730  1.0  0.1292
  H  H134  1  0.267870  0.196330  0.612730  1.0  0.1213
  H  H135  1  0.348470  0.193730  0.585230  1.0  0.1126
  H  H136  1  0.419470  0.405830  0.552330  1.0  0.1237
  H  H137  1  0.389070  0.308330  0.527130  1.0  0.1267
  H  H138  1  0.331570  0.374430  0.522830  1.0  0.1277
  H  H139  1  0.667230  0.677770  0.892370  1.0  0.1301
  H  H140  1  0.691330  0.775070  0.916870  1.0  0.1254
  H  H141  1  0.774230  0.784970  0.887870  1.0  0.1299
  H  H142  1  0.640930  0.564570  0.948570  1.0  0.1175
  H  H143  1  0.734030  0.604170  0.976470  1.0  0.1211
  H  H144  1  0.666530  0.660570  0.973970  1.0  0.1307
  H  H145  1  0.047030  0.629970  0.941070  1.0  0.1276
  H  H146  1  0.934530  0.529670  0.946070  1.0  0.1213
  H  H147  1  0.015130  0.527070  0.918570  1.0  0.1132
  H  H148  1  0.086130  0.739170  0.885670  1.0  0.1237
  H  H149  1  0.055730  0.641670  0.860470  1.0  0.126
  H  H150  1  0.998230  0.707770  0.856170  1.0  0.1278
  H  H151  1  0.988900  0.322800  0.225700  1.0  0.1267
  H  H152  1  0.891600  0.249600  0.250200  1.0  0.1237
  H  H153  1  0.881700  0.322600  0.221200  1.0  0.1288
  H  H154  1  0.102100  0.409700  0.281900  1.0  0.1179
  H  H155  1  0.062500  0.463200  0.309800  1.0  0.1252
  H  H156  1  0.006100  0.339300  0.307300  1.0  0.1306
  H  H157  1  0.036700  0.750400  0.274400  1.0  0.1274
  H  H158  1  0.137000  0.738200  0.279400  1.0  0.1208
  H  H159  1  0.139600  0.821400  0.251900  1.0  0.11
  H  H160  1  0.927500  0.680300  0.219000  1.0  0.1232
  H  H161  1  0.025000  0.747400  0.193800  1.0  0.1234
  H  H162  1  0.958900  0.623800  0.189500  1.0  0.1282
  H  H163  1  0.655570  0.656130  0.559030  1.0  0.1267
  H  H164  1  0.558270  0.582930  0.583530  1.0  0.1237
  H  H165  1  0.548370  0.655930  0.554530  1.0  0.1289
  H  H166  1  0.768770  0.743030  0.615230  1.0  0.1179
  H  H167  1  0.729170  0.796530  0.643130  1.0  0.1252
  H  H168  1  0.672770  0.672630  0.640630  1.0  0.1306
  H  H169  1  0.703370  0.083730  0.607730  1.0  0.1271
  H  H170  1  0.803670  0.071530  0.612730  1.0  0.1208
  H  H171  1  0.806270  0.154730  0.585230  1.0  0.1103
  H  H172  1  0.594170  0.013630  0.552330  1.0  0.1232
  H  H173  1  0.691670  0.080730  0.527130  1.0  0.1236
  H  H174  1  0.625570  0.957130  0.522830  1.0  0.1281
  H  H175  1  0.322230  0.989470  0.892370  1.0  0.1267
  H  H176  1  0.224930  0.916270  0.916870  1.0  0.1237
  H  H177  1  0.215030  0.989270  0.887870  1.0  0.1288
  H  H178  1  0.435430  0.076370  0.948570  1.0  0.1179
  H  H179  1  0.395830  0.129870  0.976470  1.0  0.1222
  H  H180  1  0.339430  0.005970  0.973970  1.0  0.1307
  H  H181  1  0.370030  0.417070  0.941070  1.0  0.1287
  H  H182  1  0.470330  0.404870  0.946070  1.0  0.1208
  H  H183  1  0.472930  0.488070  0.918570  1.0  0.1103
  H  H184  1  0.260830  0.346970  0.885670  1.0  0.1232
  H  H185  1  0.358330  0.414070  0.860470  1.0  0.1234
  H  H186  1  0.292230  0.290470  0.856170  1.0  0.1282
  H  H187  1  0.677200  0.666100  0.225700  1.0  0.1294
  H  H188  1  0.750400  0.642000  0.250200  1.0  0.1264
  H  H189  1  0.677400  0.559100  0.221200  1.0  0.1309
  H  H190  1  0.590300  0.692400  0.281900  1.0  0.1178
  H  H191  1  0.536800  0.599300  0.309800  1.0  0.1216
  H  H192  1  0.660700  0.666800  0.307300  1.0  0.13
  H  H193  1  0.249600  0.286300  0.274400  1.0  0.138
  H  H194  1  0.261800  0.398800  0.279400  1.0  0.1211
  H  H195  1  0.178600  0.318200  0.251900  1.0  0.1121
  H  H196  1  0.319700  0.247200  0.219000  1.0  0.1242
  H  H197  1  0.252600  0.277600  0.193800  1.0  0.1263
  H  H198  1  0.376200  0.335100  0.189500  1.0  0.1265
  H  H199  1  0.343870  0.999430  0.559030  1.0  0.1294
  H  H200  1  0.417070  0.975330  0.583530  1.0  0.1264
  H  H201  1  0.344070  0.892430  0.554530  1.0  0.1297
  H  H202  1  0.256970  0.025730  0.615230  1.0  0.1178
  H  H203  1  0.203470  0.932630  0.643130  1.0  0.1216
  H  H204  1  0.327370  0.000130  0.640630  1.0  0.13
  H  H205  1  0.916270  0.619630  0.607730  1.0  0.138
  H  H206  1  0.928470  0.732130  0.612730  1.0  0.1211
  H  H207  1  0.845270  0.651530  0.585230  1.0  0.1121
  H  H208  1  0.986370  0.580530  0.552330  1.0  0.1242
  H  H209  1  0.919270  0.610930  0.527130  1.0  0.1252
  H  H210  1  0.042870  0.668430  0.522830  1.0  0.1264
  H  H211  1  0.010530  0.332770  0.892370  1.0  0.1295
  H  H212  1  0.083730  0.308670  0.916870  1.0  0.1264
  H  H213  1  0.010730  0.225770  0.887870  1.0  0.1311
  H  H214  1  0.923630  0.359070  0.948570  1.0  0.1178
  H  H215  1  0.870130  0.265970  0.976470  1.0  0.1222
  H  H216  1  0.994030  0.333470  0.973970  1.0  0.13
  H  H217  1  0.582930  0.952970  0.941070  1.0  0.1304
  H  H218  1  0.595130  0.065470  0.946070  1.0  0.1211
  H  H219  1  0.511930  0.984870  0.918570  1.0  0.1121
  H  H220  1  0.653030  0.913870  0.885670  1.0  0.1242
  H  H221  1  0.585930  0.944270  0.860470  1.0  0.1264
  H  H222  1  0.709530  0.001770  0.856170  1.0  0.1265
  C  C223  1  0.476500  0.872500  0.715400  1.0  0.3394
  C  C224  1  0.560200  0.964700  0.734300  1.0  0.1831
  C  C225  1  0.386700  0.056600  0.767100  1.0  0.1978
  C  C226  1  0.474700  0.147000  0.786210  1.0  0.3003
  C  C227  1  0.611500  0.928400  0.761800  1.0  -0.3587
  C  C228  1  0.636800  0.040900  0.706200  1.0  -0.353
  C  C229  1  0.343600  0.096100  0.737700  1.0  -0.3424
  C  C230  1  0.304300  0.985700  0.793600  1.0  -0.3571
  C  C231  1  0.143170  0.205830  0.048730  1.0  0.3394
  C  C232  1  0.226870  0.298030  0.067630  1.0  0.1831
  C  C233  1  0.053370  0.389930  0.100430  1.0  0.1979
  C  C234  1  0.141370  0.480330  0.119540  1.0  0.3003
  C  C235  1  0.278170  0.261730  0.095130  1.0  -0.3587
  C  C236  1  0.303470  0.374230  0.039530  1.0  -0.3529
  C  C237  1  0.010270  0.429430  0.071030  1.0  -0.3415
  C  C238  1  0.970970  0.319030  0.126930  1.0  -0.3574
  C  C239  1  0.809830  0.539170  0.382070  1.0  0.3394
  C  C240  1  0.893530  0.631370  0.400970  1.0  0.1831
  C  C241  1  0.720030  0.723270  0.433770  1.0  0.1979
  C  C242  1  0.808030  0.813670  0.452880  1.0  0.3002
  C  C243  1  0.944830  0.595070  0.428470  1.0  -0.3587
  C  C244  1  0.970130  0.707570  0.372870  1.0  -0.353
  C  C245  1  0.676930  0.762770  0.404370  1.0  -0.3415
  C  C246  1  0.637630  0.652370  0.460270  1.0  -0.3574
  C  C247  1  0.127500  0.604000  0.715400  1.0  0.3401
  C  C248  1  0.035300  0.595500  0.734300  1.0  0.1845
  C  C249  1  0.943400  0.330100  0.767100  1.0  0.1962
  C  C250  1  0.853000  0.327700  0.786210  1.0  0.3011
  C  C251  1  0.071600  0.683100  0.761800  1.0  -0.3599
  C  C252  1  0.959100  0.595900  0.706200  1.0  -0.3511
  C  C253  1  0.903900  0.247500  0.737700  1.0  -0.3429
  C  C254  1  0.014300  0.318600  0.793600  1.0  -0.3568
  C  C255  1  0.794170  0.937330  0.048730  1.0  0.3401
  C  C256  1  0.701970  0.928830  0.067630  1.0  0.1845
  C  C257  1  0.610070  0.663430  0.100430  1.0  0.1963
  C  C258  1  0.519670  0.661030  0.119540  1.0  0.3011
  C  C259  1  0.738270  0.016430  0.095130  1.0  -0.3599
  C  C260  1  0.625770  0.929230  0.039530  1.0  -0.3511
  C  C261  1  0.570570  0.580830  0.071030  1.0  -0.3429
  C  C262  1  0.680970  0.651930  0.126930  1.0  -0.3568
  C  C263  1  0.460830  0.270670  0.382070  1.0  0.3401
  C  C264  1  0.368630  0.262170  0.400970  1.0  0.1845
  C  C265  1  0.276730  0.996770  0.433770  1.0  0.1963
  C  C266  1  0.186330  0.994370  0.452880  1.0  0.3011
  C  C267  1  0.404930  0.349770  0.428470  1.0  -0.3599
  C  C268  1  0.292430  0.262570  0.372870  1.0  -0.3511
  C  C269  1  0.237230  0.914170  0.404370  1.0  -0.3429
  C  C270  1  0.347630  0.985270  0.460270  1.0  -0.3568
  C  C271  1  0.396000  0.523500  0.715400  1.0  0.3389
  C  C272  1  0.404500  0.439800  0.734300  1.0  0.1824
  C  C273  1  0.669900  0.613300  0.767100  1.0  0.1946
  C  C274  1  0.672300  0.525300  0.786210  1.0  0.3009
  C  C275  1  0.316900  0.388500  0.761800  1.0  -0.3584
  C  C276  1  0.404100  0.363200  0.706200  1.0  -0.3524
  C  C277  1  0.752500  0.656400  0.737700  1.0  -0.3433
  C  C278  1  0.681400  0.695700  0.793600  1.0  -0.358
  C  C279  1  0.062670  0.856830  0.048730  1.0  0.3389
  C  C280  1  0.071170  0.773130  0.067630  1.0  0.1824
  C  C281  1  0.336570  0.946630  0.100430  1.0  0.1947
  C  C282  1  0.338970  0.858630  0.119540  1.0  0.3009
  C  C283  1  0.983570  0.721830  0.095130  1.0  -0.3584
  C  C284  1  0.070770  0.696530  0.039530  1.0  -0.3523
  C  C285  1  0.419170  0.989730  0.071030  1.0  -0.3433
  C  C286  1  0.348070  0.029030  0.126930  1.0  -0.358
  C  C287  1  0.729330  0.190170  0.382070  1.0  0.3389
  C  C288  1  0.737830  0.106470  0.400970  1.0  0.1824
  C  C289  1  0.003230  0.279970  0.433770  1.0  0.1946
  C  C290  1  0.005630  0.191970  0.452880  1.0  0.3009
  C  C291  1  0.650230  0.055170  0.428470  1.0  -0.3584
  C  C292  1  0.737430  0.029870  0.372870  1.0  -0.3524
  C  C293  1  0.085830  0.323070  0.404370  1.0  -0.3438
  C  C294  1  0.014730  0.362370  0.460270  1.0  -0.358
  C  C295  1  0.523500  0.127500  0.284600  1.0  0.3373
  C  C296  1  0.439800  0.035300  0.265700  1.0  0.1847
  C  C297  1  0.613300  0.943400  0.232900  1.0  0.1942
  C  C298  1  0.525300  0.853000  0.213790  1.0  0.2991
  C  C299  1  0.388500  0.071600  0.238200  1.0  -0.3594
  C  C300  1  0.363200  0.959100  0.293800  1.0  -0.3519
  C  C301  1  0.656400  0.903900  0.262300  1.0  -0.3415
  C  C302  1  0.695700  0.014300  0.206400  1.0  -0.3586
  C  C303  1  0.190170  0.460830  0.617930  1.0  0.3373
  C  C304  1  0.106470  0.368630  0.599030  1.0  0.1847
  C  C305  1  0.279970  0.276730  0.566230  1.0  0.1942
  C  C306  1  0.191970  0.186330  0.547120  1.0  0.299
  C  C307  1  0.055170  0.404930  0.571530  1.0  -0.3594
  C  C308  1  0.029870  0.292430  0.627130  1.0  -0.3519
  C  C309  1  0.323070  0.237230  0.595630  1.0  -0.3415
  C  C310  1  0.362370  0.347630  0.539730  1.0  -0.3586
  C  C311  1  0.856830  0.794170  0.951270  1.0  0.3371
  C  C312  1  0.773130  0.701970  0.932370  1.0  0.1847
  C  C313  1  0.946630  0.610070  0.899570  1.0  0.1942
  C  C314  1  0.858630  0.519670  0.880460  1.0  0.2991
  C  C315  1  0.721830  0.738270  0.904870  1.0  -0.3594
  C  C316  1  0.696530  0.625770  0.960470  1.0  -0.3519
  C  C317  1  0.989730  0.570570  0.928970  1.0  -0.3415
  C  C318  1  0.029030  0.680970  0.873070  1.0  -0.3586
  C  C319  1  0.872500  0.396000  0.284600  1.0  0.3405
  C  C320  1  0.964700  0.404500  0.265700  1.0  0.1847
  C  C321  1  0.056600  0.669900  0.232900  1.0  0.1959
  C  C322  1  0.147000  0.672300  0.213790  1.0  0.3013
  C  C323  1  0.928400  0.316900  0.238200  1.0  -0.3607
  C  C324  1  0.040900  0.404100  0.293800  1.0  -0.3498
  C  C325  1  0.096100  0.752500  0.262300  1.0  -0.3428
  C  C326  1  0.985700  0.681400  0.206400  1.0  -0.3549
  C  C327  1  0.539170  0.729330  0.617930  1.0  0.3405
  C  C328  1  0.631370  0.737830  0.599030  1.0  0.1847
  C  C329  1  0.723270  0.003230  0.566230  1.0  0.1959
  C  C330  1  0.813670  0.005630  0.547120  1.0  0.3013
  C  C331  1  0.595070  0.650230  0.571530  1.0  -0.3607
  C  C332  1  0.707570  0.737430  0.627130  1.0  -0.3498
  C  C333  1  0.762770  0.085830  0.595630  1.0  -0.3429
  C  C334  1  0.652370  0.014730  0.539730  1.0  -0.3549
  C  C335  1  0.205830  0.062670  0.951270  1.0  0.3403
  C  C336  1  0.298030  0.071170  0.932370  1.0  0.1847
  C  C337  1  0.389930  0.336570  0.899570  1.0  0.1959
  C  C338  1  0.480330  0.338970  0.880460  1.0  0.3013
  C  C339  1  0.261730  0.983570  0.904870  1.0  -0.3607
  C  C340  1  0.374230  0.070770  0.960470  1.0  -0.3498
  C  C341  1  0.429430  0.419170  0.928970  1.0  -0.3428
  C  C342  1  0.319030  0.348070  0.873070  1.0  -0.357
  C  C343  1  0.604000  0.476500  0.284600  1.0  0.3397
  C  C344  1  0.595500  0.560200  0.265700  1.0  0.1827
  C  C345  1  0.330100  0.386700  0.232900  1.0  0.1948
  C  C346  1  0.327700  0.474700  0.213790  1.0  0.3017
  C  C347  1  0.683100  0.611500  0.238200  1.0  -0.3604
  C  C348  1  0.595900  0.636800  0.293800  1.0  -0.3515
  C  C349  1  0.247500  0.343600  0.262300  1.0  -0.3414
  C  C350  1  0.318600  0.304300  0.206400  1.0  -0.3594
  C  C351  1  0.270670  0.809830  0.617930  1.0  0.3397
  C  C352  1  0.262170  0.893530  0.599030  1.0  0.1827
  C  C353  1  0.996770  0.720030  0.566230  1.0  0.1949
  C  C354  1  0.994370  0.808030  0.547120  1.0  0.3017
  C  C355  1  0.349770  0.944830  0.571530  1.0  -0.3604
  C  C356  1  0.262570  0.970130  0.627130  1.0  -0.3515
  C  C357  1  0.914170  0.676930  0.595630  1.0  -0.3414
  C  C358  1  0.985270  0.637630  0.539730  1.0  -0.3594
  C  C359  1  0.937330  0.143170  0.951270  1.0  0.3395
  C  C360  1  0.928830  0.226870  0.932370  1.0  0.1827
  C  C361  1  0.663430  0.053370  0.899570  1.0  0.1949
  C  C362  1  0.661030  0.141370  0.880460  1.0  0.3017
  C  C363  1  0.016430  0.278170  0.904870  1.0  -0.3604
  C  C364  1  0.929230  0.303470  0.960470  1.0  -0.3515
  C  C365  1  0.580830  0.010270  0.928970  1.0  -0.3414
  C  C366  1  0.651930  0.970970  0.873070  1.0  -0.3594
  N  N367  1  0.420200  0.802500  0.699410  1.0  -0.4112
  N  N368  1  0.518900  0.023200  0.753930  1.0  -0.2591
  N  N369  1  0.426700  0.993600  0.748860  1.0  -0.2638
  N  N370  1  0.539400  0.214300  0.801290  1.0  -0.4133
  N  N371  1  0.086870  0.135830  0.032740  1.0  -0.4112
  N  N372  1  0.185570  0.356530  0.087260  1.0  -0.2591
  N  N373  1  0.093370  0.326930  0.082190  1.0  -0.2638
  N  N374  1  0.206070  0.547630  0.134620  1.0  -0.4133
  N  N375  1  0.753530  0.469170  0.366080  1.0  -0.4112
  N  N376  1  0.852230  0.689870  0.420600  1.0  -0.2591
  N  N377  1  0.760030  0.660270  0.415530  1.0  -0.2638
  N  N378  1  0.872730  0.880970  0.467960  1.0  -0.4134
  N  N379  1  0.197500  0.617700  0.699410  1.0  -0.4068
  N  N380  1  0.976800  0.495700  0.753930  1.0  -0.2573
  N  N381  1  0.006400  0.433100  0.748860  1.0  -0.265
  N  N382  1  0.785700  0.325100  0.801290  1.0  -0.4107
  N  N383  1  0.864170  0.951030  0.032740  1.0  -0.4068
  N  N384  1  0.643470  0.829030  0.087260  1.0  -0.2573
  N  N385  1  0.673070  0.766430  0.082190  1.0  -0.265
  N  N386  1  0.452370  0.658430  0.134620  1.0  -0.4107
  N  N387  1  0.530830  0.284370  0.366080  1.0  -0.4068
  N  N388  1  0.310130  0.162370  0.420600  1.0  -0.2573
  N  N389  1  0.339730  0.099770  0.415530  1.0  -0.265
  N  N390  1  0.119030  0.991770  0.467960  1.0  -0.4117
  N  N391  1  0.382300  0.579800  0.699410  1.0  -0.4127
  N  N392  1  0.504300  0.481100  0.753930  1.0  -0.2577
  N  N393  1  0.566900  0.573300  0.748860  1.0  -0.2635
  N  N394  1  0.674900  0.460600  0.801290  1.0  -0.4118
  N  N395  1  0.048970  0.913130  0.032740  1.0  -0.4123
  N  N396  1  0.170970  0.814430  0.087260  1.0  -0.2577
  N  N397  1  0.233570  0.906630  0.082190  1.0  -0.2635
  N  N398  1  0.341570  0.793930  0.134620  1.0  -0.4118
  N  N399  1  0.715630  0.246470  0.366080  1.0  -0.4127
  N  N400  1  0.837630  0.147770  0.420600  1.0  -0.2577
  N  N401  1  0.900230  0.239970  0.415530  1.0  -0.2635
  N  N402  1  0.008230  0.127270  0.467960  1.0  -0.4078
  N  N403  1  0.579800  0.197500  0.300590  1.0  -0.4148
  N  N404  1  0.481100  0.976800  0.246070  1.0  -0.2576
  N  N405  1  0.573300  0.006400  0.251140  1.0  -0.264
  N  N406  1  0.460600  0.785700  0.198710  1.0  -0.4101
  N  N407  1  0.246470  0.530830  0.633920  1.0  -0.4148
  N  N408  1  0.147770  0.310130  0.579400  1.0  -0.2576
  N  N409  1  0.239970  0.339730  0.584470  1.0  -0.2641
  N  N410  1  0.127270  0.119030  0.532040  1.0  -0.41
  N  N411  1  0.913130  0.864170  0.967260  1.0  -0.4148
  N  N412  1  0.814430  0.643470  0.912740  1.0  -0.2576
  N  N413  1  0.906630  0.673070  0.917810  1.0  -0.264
  N  N414  1  0.793930  0.452370  0.865380  1.0  -0.4101
  N  N415  1  0.802500  0.382300  0.300590  1.0  -0.4086
  N  N416  1  0.023200  0.504300  0.246070  1.0  -0.2583
  N  N417  1  0.993600  0.566900  0.251140  1.0  -0.2629
  N  N418  1  0.214300  0.674900  0.198710  1.0  -0.4059
  N  N419  1  0.469170  0.715630  0.633920  1.0  -0.4086
  N  N420  1  0.689870  0.837630  0.579400  1.0  -0.2583
  N  N421  1  0.660270  0.900230  0.584470  1.0  -0.2629
  N  N422  1  0.880970  0.008230  0.532040  1.0  -0.4065
  N  N423  1  0.135830  0.048970  0.967260  1.0  -0.4086
  N  N424  1  0.356530  0.170970  0.912740  1.0  -0.2583
  N  N425  1  0.326930  0.233570  0.917810  1.0  -0.2629
  N  N426  1  0.547630  0.341570  0.865380  1.0  -0.4059
  N  N427  1  0.617700  0.420200  0.300590  1.0  -0.4084
  N  N428  1  0.495700  0.518900  0.246070  1.0  -0.2578
  N  N429  1  0.433100  0.426700  0.251140  1.0  -0.2624
  N  N430  1  0.325100  0.539400  0.198710  1.0  -0.4132
  N  N431  1  0.284370  0.753530  0.633920  1.0  -0.4084
  N  N432  1  0.162370  0.852230  0.579400  1.0  -0.2578
  N  N433  1  0.099770  0.760030  0.584470  1.0  -0.2625
  N  N434  1  0.991770  0.872730  0.532040  1.0  -0.4125
  N  N435  1  0.951030  0.086870  0.967260  1.0  -0.4082
  N  N436  1  0.829030  0.185570  0.912740  1.0  -0.2578
  N  N437  1  0.766430  0.093370  0.917810  1.0  -0.2624
  N  N438  1  0.658430  0.206070  0.865380  1.0  -0.4132
