# generated using pymatgen
data_FeH60(C7N2)6
_symmetry_space_group_name_H-M   'P 1'
_cell_length_a   10.94640000
_cell_length_b   15.90760000
_cell_length_c   16.16040000
_cell_angle_alpha   89.59200000
_cell_angle_beta   89.68200000
_cell_angle_gamma   86.28800000
_symmetry_Int_Tables_number   1
_chemical_formula_structural   FeH60(C7N2)6
_chemical_formula_sum   'Fe2 H120 C84 N24'
_cell_volume   2808.01453355
_cell_formula_units_Z   2
loop_
 _symmetry_equiv_pos_site_id
 _symmetry_equiv_pos_as_xyz
  1  'x, y, z'
loop_
 _atom_site_type_symbol
 _atom_site_label
 _atom_site_symmetry_multiplicity
 _atom_site_fract_x
 _atom_site_fract_y
 _atom_site_fract_z
 _atom_site_occupancy
 _atom_site_charge
  Fe  Fe1  1  0.973320  0.279360  0.247600  1.0  0.7044
  Fe  Fe2  1  0.026680  0.720640  0.752400  1.0  0.7023
  H  H3  1  0.226300  0.047100  0.067600  1.0  0.0949
  H  H4  1  0.221100  0.031200  0.970000  1.0  0.082
  H  H5  1  0.368400  0.127200  0.995900  1.0  0.0839
  H  H6  1  0.270800  0.187000  0.045600  1.0  0.0857
  H  H7  1  0.294700  0.243900  0.912700  1.0  0.0806
  H  H8  1  0.265000  0.156400  0.871100  1.0  0.0778
  H  H9  1  0.089500  0.247500  0.864400  1.0  0.0775
  H  H10  1  0.094700  0.264600  0.961700  1.0  0.0758
  H  H11  1  0.037000  0.109700  0.887100  1.0  0.087
  H  H12  1  0.944000  0.170800  0.939200  1.0  0.1006
  H  H13  1  0.027000  0.321000  0.548600  1.0  0.0977
  H  H14  1  0.938200  0.358600  0.620200  1.0  0.0809
  H  H15  1  0.872100  0.241200  0.496900  1.0  0.0846
  H  H16  1  0.887700  0.220400  0.593500  1.0  0.0791
  H  H17  1  0.715100  0.308600  0.625600  1.0  0.0798
  H  H18  1  0.677800  0.242200  0.557700  1.0  0.0758
  H  H19  1  0.598200  0.380800  0.524300  1.0  0.0786
  H  H20  1  0.686300  0.342800  0.452600  1.0  0.0787
  H  H21  1  0.749800  0.464100  0.572400  1.0  0.0918
  H  H22  1  0.735600  0.481000  0.475100  1.0  0.0982
  H  H23  1  0.936800  0.901900  0.387200  1.0  0.1006
  H  H24  1  0.031600  0.952000  0.333100  1.0  0.1016
  H  H25  1  0.876200  0.999000  0.241000  1.0  0.0862
  H  H26  1  0.876700  0.898500  0.248100  1.0  0.0756
  H  H27  1  0.708600  0.908100  0.337600  1.0  0.0792
  H  H28  1  0.674400  0.962200  0.256100  1.0  0.0793
  H  H29  1  0.706600  0.088100  0.324500  1.0  0.086
  H  H30  1  0.612700  0.037200  0.378500  1.0  0.0739
  H  H31  1  0.766900  0.992400  0.471100  1.0  0.0793
  H  H32  1  0.766800  0.092700  0.462600  1.0  0.1001
  H  H33  1  0.243500  0.428900  0.060500  1.0  0.0894
  H  H34  1  0.269100  0.525700  0.045000  1.0  0.085
  H  H35  1  0.267400  0.443000  0.202800  1.0  0.0931
  H  H36  1  0.385200  0.477500  0.158100  1.0  0.0774
  H  H37  1  0.309700  0.616900  0.177200  1.0  0.0793
  H  H38  1  0.311200  0.569600  0.265000  1.0  0.0793
  H  H39  1  0.123300  0.650900  0.244800  1.0  0.0814
  H  H40  1  0.100500  0.553100  0.257500  1.0  0.0865
  H  H41  1  0.098500  0.640300  0.101500  1.0  0.0939
  H  H42  1  0.981300  0.604500  0.145900  1.0  0.0908
  H  H43  1  0.394300  0.128700  0.352700  1.0  0.0966
  H  H44  1  0.489200  0.169600  0.413000  1.0  0.0824
  H  H45  1  0.337800  0.113300  0.493900  1.0  0.0874
  H  H46  1  0.232200  0.163900  0.442200  1.0  0.0778
  H  H47  1  0.256700  0.234300  0.567000  1.0  0.0769
  H  H48  1  0.400600  0.238500  0.550400  1.0  0.0761
  H  H49  1  0.303400  0.369700  0.518500  1.0  0.077
  H  H50  1  0.211000  0.327200  0.457500  1.0  0.0766
  H  H51  1  0.468800  0.337100  0.428800  1.0  0.0853
  H  H52  1  0.362400  0.386900  0.377000  1.0  0.0954
  H  H53  1  0.602100  0.129500  0.163600  1.0  0.0963
  H  H54  1  0.492100  0.155700  0.101800  1.0  0.0802
  H  H55  1  0.747200  0.167700  0.066600  1.0  0.078
  H  H56  1  0.659100  0.105600  0.022100  1.0  0.0747
  H  H57  1  0.695000  0.223900  0.936200  1.0  0.084
  H  H58  1  0.552100  0.219300  0.956100  1.0  0.076
  H  H59  1  0.605500  0.358300  0.973000  1.0  0.077
  H  H60  1  0.712000  0.328200  0.036100  1.0  0.0818
  H  H61  1  0.455000  0.322200  0.067600  1.0  0.0823
  H  H62  1  0.543900  0.383300  0.112700  1.0  0.1009
  H  H63  1  0.773700  0.952900  0.932400  1.0  0.0938
  H  H64  1  0.778900  0.968800  0.030000  1.0  0.0815
  H  H65  1  0.631600  0.872800  0.004100  1.0  0.0844
  H  H66  1  0.729200  0.813000  0.954400  1.0  0.0854
  H  H67  1  0.705300  0.756100  0.087300  1.0  0.0808
  H  H68  1  0.735000  0.843600  0.128900  1.0  0.0787
  H  H69  1  0.910500  0.752500  0.135600  1.0  0.0749
  H  H70  1  0.905300  0.735400  0.038300  1.0  0.0779
  H  H71  1  0.963000  0.890300  0.112900  1.0  0.086
  H  H72  1  0.056000  0.829200  0.060800  1.0  0.1007
  H  H73  1  0.973000  0.679000  0.451400  1.0  0.0958
  H  H74  1  0.061800  0.641400  0.379800  1.0  0.0813
  H  H75  1  0.127900  0.758800  0.503100  1.0  0.0845
  H  H76  1  0.112300  0.779600  0.406500  1.0  0.0792
  H  H77  1  0.284900  0.691400  0.374400  1.0  0.0801
  H  H78  1  0.322200  0.757800  0.442300  1.0  0.0748
  H  H79  1  0.401800  0.619200  0.475700  1.0  0.0774
  H  H80  1  0.313700  0.657200  0.547400  1.0  0.079
  H  H81  1  0.250200  0.535900  0.427600  1.0  0.0922
  H  H82  1  0.264400  0.519000  0.524900  1.0  0.0995
  H  H83  1  0.063200  0.098100  0.612800  1.0  0.1003
  H  H84  1  0.968400  0.048000  0.666900  1.0  0.102
  H  H85  1  0.123800  0.001000  0.759000  1.0  0.0875
  H  H86  1  0.123300  0.101500  0.751900  1.0  0.0758
  H  H87  1  0.291400  0.091900  0.662400  1.0  0.0777
  H  H88  1  0.325600  0.037800  0.743900  1.0  0.0802
  H  H89  1  0.293400  0.911900  0.675500  1.0  0.0847
  H  H90  1  0.387300  0.962800  0.621500  1.0  0.0737
  H  H91  1  0.233100  0.007600  0.528900  1.0  0.0778
  H  H92  1  0.233200  0.907300  0.537400  1.0  0.1012
  H  H93  1  0.756500  0.571100  0.939500  1.0  0.0875
  H  H94  1  0.730900  0.474300  0.955000  1.0  0.086
  H  H95  1  0.732600  0.557000  0.797200  1.0  0.0932
  H  H96  1  0.614800  0.522500  0.841900  1.0  0.0792
  H  H97  1  0.690300  0.383100  0.822800  1.0  0.08
  H  H98  1  0.688800  0.430400  0.735000  1.0  0.0799
  H  H99  1  0.876700  0.349100  0.755200  1.0  0.0845
  H  H100  1  0.899500  0.446900  0.742500  1.0  0.0857
  H  H101  1  0.901500  0.359700  0.898500  1.0  0.0944
  H  H102  1  0.018700  0.395500  0.854100  1.0  0.0908
  H  H103  1  0.605700  0.871300  0.647300  1.0  0.0963
  H  H104  1  0.510800  0.830400  0.587000  1.0  0.0828
  H  H105  1  0.662200  0.886700  0.506100  1.0  0.0875
  H  H106  1  0.767800  0.836100  0.557800  1.0  0.0745
  H  H107  1  0.743300  0.765700  0.433000  1.0  0.0772
  H  H108  1  0.599400  0.761500  0.449600  1.0  0.0766
  H  H109  1  0.696600  0.630300  0.481500  1.0  0.0757
  H  H110  1  0.789000  0.672800  0.542500  1.0  0.0776
  H  H111  1  0.531200  0.662900  0.571200  1.0  0.0844
  H  H112  1  0.637600  0.613100  0.623000  1.0  0.0954
  H  H113  1  0.397900  0.870500  0.836400  1.0  0.096
  H  H114  1  0.507900  0.844300  0.898200  1.0  0.0809
  H  H115  1  0.252800  0.832300  0.933400  1.0  0.0774
  H  H116  1  0.340900  0.894400  0.977900  1.0  0.0757
  H  H117  1  0.305000  0.776100  0.063800  1.0  0.0854
  H  H118  1  0.447900  0.780700  0.043900  1.0  0.0775
  H  H119  1  0.394500  0.641700  0.027000  1.0  0.0755
  H  H120  1  0.288000  0.671800  0.963900  1.0  0.0833
  H  H121  1  0.545000  0.677800  0.932400  1.0  0.0814
  H  H122  1  0.456100  0.616700  0.887300  1.0  0.0991
  C  C123  1  0.036200  0.156100  0.086900  1.0  0.2558
  C  C124  1  0.067100  0.100300  0.014200  1.0  0.1478
  C  C125  1  0.203800  0.073600  0.013800  1.0  -0.1774
  C  C126  1  0.281100  0.147500  0.998700  1.0  -0.143
  C  C127  1  0.246000  0.193900  0.918700  1.0  -0.1049
  C  C128  1  0.111000  0.221400  0.918600  1.0  -0.103
  C  C129  1  0.030400  0.148700  0.934600  1.0  -0.1839
  C  C130  1  0.922700  0.386920  0.418100  1.0  0.2734
  C  C131  1  0.898400  0.413330  0.504720  1.0  0.173
  C  C132  1  0.941100  0.339300  0.562070  1.0  -0.1745
  C  C133  1  0.861300  0.264900  0.553100  1.0  -0.1158
  C  C134  1  0.727400  0.291000  0.567400  1.0  -0.133
  C  C135  1  0.684100  0.362900  0.510500  1.0  -0.0835
  C  C136  1  0.762300  0.438300  0.517200  1.0  -0.1658
  C  C137  1  0.942800  0.108900  0.358740  1.0  0.2669
  C  C138  1  0.918100  0.031000  0.405780  1.0  0.1829
  C  C139  1  0.945800  0.953000  0.352900  1.0  -0.1861
  C  C140  1  0.860100  0.951700  0.278800  1.0  -0.1294
  C  C141  1  0.727200  0.959100  0.305700  1.0  -0.0922
  C  C142  1  0.698500  0.036900  0.358700  1.0  -0.0957
  C  C143  1  0.783400  0.039100  0.432700  1.0  -0.1706
  C  C144  1  0.036400  0.442100  0.136840  1.0  0.2413
  C  C145  1  0.094600  0.510320  0.091470  1.0  0.1872
  C  C146  1  0.231700  0.486200  0.083800  1.0  -0.173
  C  C147  1  0.296000  0.488400  0.166800  1.0  -0.0942
  C  C148  1  0.272300  0.572300  0.209800  1.0  -0.1307
  C  C149  1  0.136000  0.594400  0.219700  1.0  -0.1432
  C  C150  1  0.070500  0.594050  0.136660  1.0  -0.1633
  C  C151  1  0.263700  0.264830  0.303670  1.0  0.2753
  C  C152  1  0.383800  0.259490  0.346140  1.0  0.1816
  C  C153  1  0.404200  0.175100  0.392000  1.0  -0.1584
  C  C154  1  0.316300  0.166600  0.463800  1.0  -0.0994
  C  C155  1  0.319500  0.239900  0.523400  1.0  -0.1204
  C  C156  1  0.295800  0.323200  0.478800  1.0  -0.0972
  C  C157  1  0.385000  0.333600  0.406820  1.0  -0.1907
  C  C158  1  0.683000  0.273940  0.197010  1.0  0.2781
  C  C159  1  0.565300  0.259460  0.156160  1.0  0.1761
  C  C160  1  0.574300  0.170200  0.119900  1.0  -0.1792
  C  C161  1  0.662700  0.162200  0.046700  1.0  -0.0781
  C  C162  1  0.632600  0.228900  0.980700  1.0  -0.1263
  C  C163  1  0.629200  0.316600  0.016700  1.0  -0.0913
  C  C164  1  0.539200  0.326600  0.088500  1.0  -0.1844
  C  C165  1  0.963800  0.843900  0.913100  1.0  0.2594
  C  C166  1  0.932900  0.899700  0.985800  1.0  0.1448
  C  C167  1  0.796200  0.926400  0.986200  1.0  -0.1772
  C  C168  1  0.718900  0.852500  0.001300  1.0  -0.1416
  C  C169  1  0.754000  0.806100  0.081300  1.0  -0.1038
  C  C170  1  0.889000  0.778600  0.081400  1.0  -0.1021
  C  C171  1  0.969600  0.851300  0.065400  1.0  -0.1834
  C  C172  1  0.077300  0.613080  0.581900  1.0  0.27
  C  C173  1  0.101600  0.586670  0.495280  1.0  0.1721
  C  C174  1  0.058900  0.660700  0.437930  1.0  -0.1749
  C  C175  1  0.138700  0.735100  0.446900  1.0  -0.1182
  C  C176  1  0.272600  0.709000  0.432600  1.0  -0.1364
  C  C177  1  0.315900  0.637100  0.489500  1.0  -0.0845
  C  C178  1  0.237700  0.561700  0.482800  1.0  -0.1661
  C  C179  1  0.057200  0.891100  0.641260  1.0  0.2695
  C  C180  1  0.081900  0.969000  0.594220  1.0  0.1834
  C  C181  1  0.054200  0.047000  0.647100  1.0  -0.1864
  C  C182  1  0.139900  0.048300  0.721200  1.0  -0.1282
  C  C183  1  0.272800  0.040900  0.694300  1.0  -0.0919
  C  C184  1  0.301500  0.963100  0.641300  1.0  -0.0967
  C  C185  1  0.216600  0.960900  0.567300  1.0  -0.1701
  C  C186  1  0.963600  0.557900  0.863160  1.0  0.2427
  C  C187  1  0.905400  0.489680  0.908530  1.0  0.1858
  C  C188  1  0.768300  0.513800  0.916200  1.0  -0.1735
  C  C189  1  0.704000  0.511600  0.833200  1.0  -0.0922
  C  C190  1  0.727700  0.427700  0.790200  1.0  -0.1286
  C  C191  1  0.864000  0.405600  0.780300  1.0  -0.1439
  C  C192  1  0.929500  0.405950  0.863340  1.0  -0.1645
  C  C193  1  0.736300  0.735170  0.696330  1.0  0.2743
  C  C194  1  0.616200  0.740510  0.653860  1.0  0.1823
  C  C195  1  0.595800  0.824900  0.608000  1.0  -0.1588
  C  C196  1  0.683700  0.833400  0.536200  1.0  -0.0998
  C  C197  1  0.680500  0.760100  0.476600  1.0  -0.1222
  C  C198  1  0.704200  0.676800  0.521200  1.0  -0.0983
  C  C199  1  0.615000  0.666400  0.593180  1.0  -0.191
  C  C200  1  0.317000  0.726060  0.802990  1.0  0.2762
  C  C201  1  0.434700  0.740540  0.843840  1.0  0.1759
  C  C202  1  0.425700  0.829800  0.880100  1.0  -0.1794
  C  C203  1  0.337300  0.837800  0.953300  1.0  -0.0772
  C  C204  1  0.367400  0.771100  0.019300  1.0  -0.1259
  C  C205  1  0.370800  0.683400  0.983300  1.0  -0.0921
  C  C206  1  0.460800  0.673400  0.911500  1.0  -0.1839
  N  N207  1  0.010300  0.200690  0.140520  1.0  -0.4829
  N  N208  1  0.988300  0.027490  0.026120  1.0  -0.243
  N  N209  1  0.939400  0.357470  0.354400  1.0  -0.4631
  N  N210  1  0.967100  0.487430  0.527690  1.0  -0.2575
  N  N211  1  0.953300  0.169810  0.322840  1.0  -0.4501
  N  N212  1  0.999500  0.033180  0.480140  1.0  -0.2458
  N  N213  1  0.999300  0.387670  0.173690  1.0  -0.4583
  N  N214  1  0.042300  0.522300  0.007430  1.0  -0.2691
  N  N215  1  0.167000  0.271820  0.277300  1.0  -0.4387
  N  N216  1  0.488300  0.264320  0.287730  1.0  -0.2632
  N  N217  1  0.779600  0.282120  0.220950  1.0  -0.4891
  N  N218  1  0.459900  0.262840  0.214580  1.0  -0.2642
  N  N219  1  0.989700  0.799310  0.859480  1.0  -0.4832
  N  N220  1  0.011700  0.972510  0.973880  1.0  -0.243
  N  N221  1  0.060600  0.642530  0.645600  1.0  -0.4627
  N  N222  1  0.032900  0.512570  0.472310  1.0  -0.256
  N  N223  1  0.046700  0.830190  0.677160  1.0  -0.4459
  N  N224  1  0.000500  0.966820  0.519860  1.0  -0.2459
  N  N225  1  0.000700  0.612330  0.826310  1.0  -0.4598
  N  N226  1  0.957700  0.477700  0.992570  1.0  -0.2662
  N  N227  1  0.833000  0.728180  0.722700  1.0  -0.4372
  N  N228  1  0.511700  0.735680  0.712270  1.0  -0.2627
  N  N229  1  0.220400  0.717880  0.779050  1.0  -0.4902
  N  N230  1  0.540100  0.737160  0.785420  1.0  -0.2656
