# generated using pymatgen
data_FeH60(C7N2)6
_symmetry_space_group_name_H-M   'P 1'
_cell_length_a   10.90680000
_cell_length_b   15.85800000
_cell_length_c   16.10470000
_cell_angle_alpha   89.57500000
_cell_angle_beta   89.48500000
_cell_angle_gamma   85.88900000
_symmetry_Int_Tables_number   1
_chemical_formula_structural   FeH60(C7N2)6
_chemical_formula_sum   'Fe2 H120 C84 N24'
_cell_volume   2778.12626530
_cell_formula_units_Z   2
loop_
 _symmetry_equiv_pos_site_id
 _symmetry_equiv_pos_as_xyz
  1  'x, y, z'
loop_
 _atom_site_type_symbol
 _atom_site_label
 _atom_site_symmetry_multiplicity
 _atom_site_fract_x
 _atom_site_fract_y
 _atom_site_fract_z
 _atom_site_occupancy
 _atom_site_charge
  Fe  Fe1  1  0.974260  0.279050  0.747110  1.0  0.7276
  Fe  Fe2  1  0.025740  0.720950  0.252890  1.0  0.7258
  H  H3  1  0.227400  0.043400  0.566100  1.0  0.0877
  H  H4  1  0.220800  0.026800  0.468300  1.0  0.0879
  H  H5  1  0.372600  0.120700  0.492500  1.0  0.0846
  H  H6  1  0.276400  0.183000  0.542200  1.0  0.0861
  H  H7  1  0.301500  0.237200  0.406800  1.0  0.0829
  H  H8  1  0.267000  0.149700  0.367200  1.0  0.0785
  H  H9  1  0.094500  0.245400  0.359900  1.0  0.0757
  H  H10  1  0.101500  0.264400  0.457200  1.0  0.0723
  H  H11  1  0.036100  0.108800  0.385700  1.0  0.0854
  H  H12  1  0.945900  0.172600  0.438300  1.0  0.1006
  H  H13  1  0.939600  0.359000  0.120800  1.0  0.0804
  H  H14  1  0.027800  0.320900  0.048300  1.0  0.1012
  H  H15  1  0.871400  0.239100  0.998800  1.0  0.0891
  H  H16  1  0.888400  0.219400  0.095900  1.0  0.0804
  H  H17  1  0.677400  0.242800  0.063500  1.0  0.0826
  H  H18  1  0.717400  0.311500  0.128300  1.0  0.0824
  H  H19  1  0.595200  0.379000  0.025500  1.0  0.0758
  H  H20  1  0.686000  0.340600  0.954300  1.0  0.0768
  H  H21  1  0.747400  0.463400  0.075000  1.0  0.0887
  H  H22  1  0.732500  0.481300  0.977500  1.0  0.1038
  H  H23  1  0.029800  0.947800  0.832700  1.0  0.0968
  H  H24  1  0.933600  0.899600  0.887900  1.0  0.0966
  H  H25  1  0.874100  0.896200  0.748400  1.0  0.0726
  H  H26  1  0.873500  0.997100  0.741400  1.0  0.0861
  H  H27  1  0.670400  0.960000  0.759200  1.0  0.0843
  H  H28  1  0.707100  0.906800  0.841200  1.0  0.0855
  H  H29  1  0.609800  0.035500  0.880800  1.0  0.0705
  H  H30  1  0.702500  0.086200  0.825100  1.0  0.0819
  H  H31  1  0.766100  0.992900  0.973800  1.0  0.0847
  H  H32  1  0.765200  0.093500  0.963100  1.0  0.1
  H  H33  1  0.247900  0.432400  0.559200  1.0  0.0905
  H  H34  1  0.269700  0.530100  0.544500  1.0  0.0796
  H  H35  1  0.388100  0.481200  0.656800  1.0  0.0684
  H  H36  1  0.270600  0.446100  0.702100  1.0  0.0924
  H  H37  1  0.310900  0.575400  0.763800  1.0  0.0818
  H  H38  1  0.307900  0.622000  0.675100  1.0  0.0812
  H  H39  1  0.099100  0.556500  0.756900  1.0  0.0815
  H  H40  1  0.118800  0.654800  0.743500  1.0  0.0771
  H  H41  1  0.095100  0.642700  0.599900  1.0  0.0905
  H  H42  1  0.978200  0.607000  0.645300  1.0  0.0928
  H  H43  1  0.397900  0.127800  0.854300  1.0  0.0941
  H  H44  1  0.493300  0.169400  0.913700  1.0  0.0761
  H  H45  1  0.342800  0.112700  0.997100  1.0  0.0871
  H  H46  1  0.235300  0.163300  0.946200  1.0  0.086
  H  H47  1  0.261900  0.235400  0.071900  1.0  0.0841
  H  H48  1  0.405800  0.240200  0.052900  1.0  0.0819
  H  H49  1  0.211700  0.325900  0.958300  1.0  0.0746
  H  H50  1  0.301200  0.371600  0.018900  1.0  0.0776
  H  H51  1  0.470300  0.337100  0.930300  1.0  0.0814
  H  H52  1  0.363800  0.387600  0.878300  1.0  0.0986
  H  H53  1  0.541000  0.384200  0.613600  1.0  0.0934
  H  H54  1  0.450300  0.324100  0.569000  1.0  0.0844
  H  H55  1  0.598900  0.360600  0.470800  1.0  0.0808
  H  H56  1  0.708400  0.329800  0.532000  1.0  0.075
  H  H57  1  0.544000  0.219500  0.455500  1.0  0.0742
  H  H58  1  0.686200  0.223900  0.431000  1.0  0.0836
  H  H59  1  0.746100  0.169200  0.561500  1.0  0.0847
  H  H60  1  0.658600  0.105700  0.518400  1.0  0.0732
  H  H61  1  0.603700  0.129100  0.660900  1.0  0.1024
  H  H62  1  0.491400  0.155100  0.600400  1.0  0.0764
  H  H63  1  0.772600  0.956600  0.433900  1.0  0.0869
  H  H64  1  0.779200  0.973200  0.531700  1.0  0.0859
  H  H65  1  0.627400  0.879300  0.507500  1.0  0.0837
  H  H66  1  0.723600  0.817000  0.457800  1.0  0.0855
  H  H67  1  0.698500  0.762800  0.593200  1.0  0.0836
  H  H68  1  0.733000  0.850300  0.632800  1.0  0.078
  H  H69  1  0.905500  0.754600  0.640100  1.0  0.074
  H  H70  1  0.898500  0.735600  0.542800  1.0  0.0732
  H  H71  1  0.963900  0.891200  0.614300  1.0  0.0847
  H  H72  1  0.054100  0.827400  0.561700  1.0  0.1015
  H  H73  1  0.060400  0.641000  0.879200  1.0  0.0812
  H  H74  1  0.972200  0.679100  0.951700  1.0  0.099
  H  H75  1  0.128600  0.760900  0.001200  1.0  0.0895
  H  H76  1  0.111600  0.780600  0.904100  1.0  0.0822
  H  H77  1  0.322600  0.757200  0.936500  1.0  0.0819
  H  H78  1  0.282600  0.688500  0.871700  1.0  0.0818
  H  H79  1  0.404800  0.621000  0.974500  1.0  0.0749
  H  H80  1  0.314000  0.659400  0.045700  1.0  0.0761
  H  H81  1  0.252600  0.536600  0.925000  1.0  0.0894
  H  H82  1  0.267500  0.518700  0.022500  1.0  0.1045
  H  H83  1  0.970200  0.052200  0.167300  1.0  0.0953
  H  H84  1  0.066400  0.100400  0.112100  1.0  0.0953
  H  H85  1  0.125900  0.103800  0.251600  1.0  0.0728
  H  H86  1  0.126500  0.002900  0.258600  1.0  0.0874
  H  H87  1  0.329600  0.040000  0.240800  1.0  0.084
  H  H88  1  0.292900  0.093200  0.158800  1.0  0.0829
  H  H89  1  0.390200  0.964500  0.119200  1.0  0.0761
  H  H90  1  0.297500  0.913800  0.174900  1.0  0.0798
  H  H91  1  0.233900  0.007100  0.026200  1.0  0.0825
  H  H92  1  0.234800  0.906500  0.036900  1.0  0.1013
  H  H93  1  0.752100  0.567600  0.440800  1.0  0.0878
  H  H94  1  0.730300  0.469900  0.455500  1.0  0.0798
  H  H95  1  0.611900  0.518800  0.343200  1.0  0.0684
  H  H96  1  0.729400  0.553900  0.297900  1.0  0.0929
  H  H97  1  0.689100  0.424600  0.236200  1.0  0.0814
  H  H98  1  0.692100  0.378000  0.324900  1.0  0.0809
  H  H99  1  0.900900  0.443500  0.243100  1.0  0.0805
  H  H100  1  0.881200  0.345200  0.256500  1.0  0.0781
  H  H101  1  0.904900  0.357300  0.400100  1.0  0.09
  H  H102  1  0.021800  0.393000  0.354700  1.0  0.0922
  H  H103  1  0.602100  0.872200  0.145700  1.0  0.0931
  H  H104  1  0.506700  0.830600  0.086300  1.0  0.0757
  H  H105  1  0.657200  0.887300  0.002900  1.0  0.0864
  H  H106  1  0.764700  0.836700  0.053800  1.0  0.0829
  H  H107  1  0.738100  0.764600  0.928100  1.0  0.0858
  H  H108  1  0.594200  0.759800  0.947100  1.0  0.0828
  H  H109  1  0.788300  0.674100  0.041700  1.0  0.0747
  H  H110  1  0.698800  0.628400  0.981100  1.0  0.0764
  H  H111  1  0.529700  0.662900  0.069700  1.0  0.0796
  H  H112  1  0.636200  0.612400  0.121700  1.0  0.0986
  H  H113  1  0.459000  0.615800  0.386400  1.0  0.0944
  H  H114  1  0.549700  0.675900  0.431000  1.0  0.0859
  H  H115  1  0.401100  0.639400  0.529200  1.0  0.0793
  H  H116  1  0.291600  0.670200  0.468000  1.0  0.0814
  H  H117  1  0.456000  0.780500  0.544500  1.0  0.0762
  H  H118  1  0.313800  0.776100  0.569000  1.0  0.0842
  H  H119  1  0.253900  0.830800  0.438500  1.0  0.0833
  H  H120  1  0.341400  0.894300  0.481600  1.0  0.0729
  H  H121  1  0.396300  0.870900  0.339100  1.0  0.1026
  H  H122  1  0.508600  0.844900  0.399600  1.0  0.0784
  C  C123  1  0.039700  0.156500  0.585100  1.0  0.3143
  C  C124  1  0.068600  0.100400  0.512800  1.0  0.1609
  C  C125  1  0.205400  0.070000  0.511900  1.0  -0.2045
  C  C126  1  0.285400  0.142600  0.495500  1.0  -0.1053
  C  C127  1  0.250300  0.188600  0.414400  1.0  -0.1002
  C  C128  1  0.115700  0.219900  0.414600  1.0  -0.1103
  C  C129  1  0.031900  0.148600  0.432900  1.0  -0.1769
  C  C130  1  0.921500  0.385800  0.918700  1.0  0.3189
  C  C131  1  0.898400  0.413200  0.005900  1.0  0.205
  C  C132  1  0.941600  0.339500  0.062500  1.0  -0.1848
  C  C133  1  0.861400  0.263600  0.055000  1.0  -0.103
  C  C134  1  0.727800  0.291700  0.070300  1.0  -0.1299
  C  C135  1  0.682100  0.361600  0.012100  1.0  -0.1067
  C  C136  1  0.760100  0.438100  0.019300  1.0  -0.1859
  C  C137  1  0.942300  0.107100  0.857700  1.0  0.268
  C  C138  1  0.917900  0.030100  0.906100  1.0  0.1432
  C  C139  1  0.943700  0.950300  0.853000  1.0  -0.2012
  C  C140  1  0.857900  0.949600  0.779300  1.0  -0.1435
  C  C141  1  0.724500  0.957600  0.808300  1.0  -0.1083
  C  C142  1  0.695700  0.035200  0.860200  1.0  -0.0989
  C  C143  1  0.781900  0.038900  0.934100  1.0  -0.1978
  C  C144  1  0.035800  0.443300  0.637500  1.0  0.32
  C  C145  1  0.093300  0.512100  0.591600  1.0  0.2241
  C  C146  1  0.233900  0.489600  0.583200  1.0  -0.1903
  C  C147  1  0.298400  0.491700  0.665700  1.0  -0.098
  C  C148  1  0.271800  0.577100  0.708500  1.0  -0.1349
  C  C149  1  0.133400  0.598100  0.718600  1.0  -0.1099
  C  C150  1  0.067800  0.596600  0.635900  1.0  -0.1758
  C  C151  1  0.264200  0.264400  0.804800  1.0  0.2615
  C  C152  1  0.384900  0.259200  0.847300  1.0  0.1729
  C  C153  1  0.407700  0.174600  0.893500  1.0  -0.1709
  C  C154  1  0.320100  0.166000  0.966900  1.0  -0.1186
  C  C155  1  0.323700  0.240800  0.027100  1.0  -0.1201
  C  C156  1  0.296400  0.323900  0.980100  1.0  -0.1051
  C  C157  1  0.386300  0.334000  0.908300  1.0  -0.2037
  C  C158  1  0.682500  0.274400  0.694700  1.0  0.2391
  C  C159  1  0.563900  0.259800  0.654400  1.0  0.1864
  C  C160  1  0.535500  0.327800  0.588600  1.0  -0.1943
  C  C161  1  0.624600  0.318500  0.514100  1.0  -0.1035
  C  C162  1  0.626300  0.229000  0.477600  1.0  -0.1145
  C  C163  1  0.661000  0.162600  0.543000  1.0  -0.1227
  C  C164  1  0.574000  0.170000  0.617500  1.0  -0.1742
  C  C165  1  0.960300  0.843500  0.414900  1.0  0.3156
  C  C166  1  0.931400  0.899600  0.487200  1.0  0.1581
  C  C167  1  0.794600  0.930000  0.488100  1.0  -0.2049
  C  C168  1  0.714600  0.857400  0.504500  1.0  -0.0981
  C  C169  1  0.749700  0.811400  0.585600  1.0  -0.1019
  C  C170  1  0.884300  0.780100  0.585400  1.0  -0.1092
  C  C171  1  0.968100  0.851400  0.567100  1.0  -0.1763
  C  C172  1  0.078500  0.614200  0.081300  1.0  0.315
  C  C173  1  0.101600  0.586800  0.994100  1.0  0.2072
  C  C174  1  0.058400  0.660500  0.937500  1.0  -0.1812
  C  C175  1  0.138600  0.736400  0.945000  1.0  -0.0984
  C  C176  1  0.272200  0.708300  0.929700  1.0  -0.1379
  C  C177  1  0.317900  0.638400  0.987900  1.0  -0.1024
  C  C178  1  0.239900  0.561900  0.980700  1.0  -0.186
  C  C179  1  0.057700  0.892900  0.142300  1.0  0.2693
  C  C180  1  0.082100  0.969900  0.093900  1.0  0.146
  C  C181  1  0.056300  0.049700  0.147000  1.0  -0.1998
  C  C182  1  0.142100  0.050400  0.220700  1.0  -0.1407
  C  C183  1  0.275500  0.042400  0.191700  1.0  -0.1167
  C  C184  1  0.304300  0.964800  0.139800  1.0  -0.0968
  C  C185  1  0.218100  0.961100  0.065900  1.0  -0.1968
  C  C186  1  0.964200  0.556700  0.362500  1.0  0.3189
  C  C187  1  0.906700  0.487900  0.408400  1.0  0.2188
  C  C188  1  0.766100  0.510400  0.416800  1.0  -0.1897
  C  C189  1  0.701600  0.508300  0.334300  1.0  -0.1023
  C  C190  1  0.728200  0.422900  0.291500  1.0  -0.1295
  C  C191  1  0.866600  0.401900  0.281400  1.0  -0.1171
  C  C192  1  0.932200  0.403400  0.364100  1.0  -0.1768
  C  C193  1  0.735800  0.735600  0.195200  1.0  0.2615
  C  C194  1  0.615100  0.740800  0.152700  1.0  0.1746
  C  C195  1  0.592300  0.825400  0.106500  1.0  -0.1714
  C  C196  1  0.679900  0.834000  0.033100  1.0  -0.1136
  C  C197  1  0.676300  0.759200  0.972900  1.0  -0.1193
  C  C198  1  0.703600  0.676100  0.019900  1.0  -0.1063
  C  C199  1  0.613700  0.666000  0.091700  1.0  -0.2031
  C  C200  1  0.317500  0.725600  0.305300  1.0  0.2408
  C  C201  1  0.436100  0.740200  0.345600  1.0  0.1863
  C  C202  1  0.464500  0.672200  0.411400  1.0  -0.1944
  C  C203  1  0.375400  0.681500  0.485900  1.0  -0.1043
  C  C204  1  0.373700  0.771000  0.522400  1.0  -0.1118
  C  C205  1  0.339000  0.837400  0.457000  1.0  -0.1191
  C  C206  1  0.426000  0.830000  0.382500  1.0  -0.174
  N  N207  1  0.013000  0.200300  0.638400  1.0  -0.4365
  N  N208  1  0.988900  0.027600  0.525400  1.0  -0.2143
  N  N209  1  0.938300  0.357300  0.855100  1.0  -0.4549
  N  N210  1  0.966000  0.487300  0.027700  1.0  -0.266
  N  N211  1  0.952100  0.168000  0.820600  1.0  -0.4608
  N  N212  1  0.999900  0.033400  0.980200  1.0  -0.2591
  N  N213  1  0.001900  0.388200  0.673900  1.0  -0.4596
  N  N214  1  0.042200  0.523100  0.507700  1.0  -0.2788
  N  N215  1  0.166900  0.270000  0.778100  1.0  -0.4619
  N  N216  1  0.490400  0.264200  0.788600  1.0  -0.2667
  N  N217  1  0.780800  0.282700  0.718800  1.0  -0.4911
  N  N218  1  0.459900  0.262600  0.714600  1.0  -0.272
  N  N219  1  0.987000  0.799700  0.361600  1.0  -0.4356
  N  N220  1  0.011100  0.972400  0.474600  1.0  -0.2139
  N  N221  1  0.061700  0.642700  0.144900  1.0  -0.4554
  N  N222  1  0.034000  0.512700  0.972300  1.0  -0.266
  N  N223  1  0.047900  0.832000  0.179400  1.0  -0.4572
  N  N224  1  0.000100  0.966600  0.019800  1.0  -0.2595
  N  N225  1  0.998100  0.611800  0.326100  1.0  -0.4612
  N  N226  1  0.957800  0.476900  0.492300  1.0  -0.2778
  N  N227  1  0.833100  0.730000  0.221900  1.0  -0.4573
  N  N228  1  0.509600  0.735800  0.211400  1.0  -0.2655
  N  N229  1  0.219200  0.717300  0.281200  1.0  -0.4898
  N  N230  1  0.540100  0.737400  0.285400  1.0  -0.2738
