# generated using pymatgen
data_Nd2H14C16(NO3)5
_symmetry_space_group_name_H-M   'P 1'
_cell_length_a   8.07600000
_cell_length_b   12.54500000
_cell_length_c   15.71300000
_cell_angle_alpha   71.89600000
_cell_angle_beta   82.14000000
_cell_angle_gamma   75.62000000
_symmetry_Int_Tables_number   1
_chemical_formula_structural   Nd2H14C16(NO3)5
_chemical_formula_sum   'Nd4 H28 C32 N10 O30'
_cell_volume   1462.64895704
_cell_formula_units_Z   2
loop_
 _symmetry_equiv_pos_site_id
 _symmetry_equiv_pos_as_xyz
  1  'x, y, z'
loop_
 _atom_site_type_symbol
 _atom_site_label
 _atom_site_symmetry_multiplicity
 _atom_site_fract_x
 _atom_site_fract_y
 _atom_site_fract_z
 _atom_site_occupancy
 _atom_site_charge
  Nd  Nd1  1  0.025230  0.179110  0.864690  1.0  2.2199
  Nd  Nd2  1  0.645330  0.372140  0.614460  1.0  2.2667
  Nd  Nd3  1  0.974770  0.820890  0.135310  1.0  2.2203
  Nd  Nd4  1  0.354670  0.627860  0.385540  1.0  2.2667
  H  H5  1  0.225700  0.889800  0.803000  1.0  0.1163
  H  H6  1  0.400000  0.877900  0.842300  1.0  0.1281
  H  H7  1  0.625300  0.878400  0.631000  1.0  0.1184
  H  H8  1  0.594400  0.684100  0.863500  1.0  0.1079
  H  H9  1  0.136800  0.163200  0.533200  1.0  0.1278
  H  H10  1  0.015700  0.076500  0.559400  1.0  0.1383
  H  H11  1  0.425400  0.323300  0.346200  1.0  0.1319
  H  H12  1  0.616200  0.335500  0.325500  1.0  0.1271
  H  H13  1  0.106400  0.682000  0.865700  1.0  0.1228
  H  H14  1  0.612200  0.393000  0.938700  1.0  0.1126
  H  H15  1  0.731500  0.477900  0.889400  1.0  0.1271
  H  H16  1  0.270700  0.484100  0.888000  1.0  0.1222
  H  H17  1  0.154100  0.869800  0.601500  1.0  0.1063
  H  H18  1  0.449600  0.070900  0.612200  1.0  0.1165
  H  H19  1  0.774300  0.110200  0.197000  1.0  0.1161
  H  H20  1  0.600000  0.122100  0.157700  1.0  0.1297
  H  H21  1  0.374700  0.121600  0.369000  1.0  0.1186
  H  H22  1  0.405600  0.315900  0.136500  1.0  0.109
  H  H23  1  0.863200  0.836800  0.466800  1.0  0.128
  H  H24  1  0.984300  0.923500  0.440600  1.0  0.136
  H  H25  1  0.574600  0.676700  0.653800  1.0  0.1334
  H  H26  1  0.383800  0.664500  0.674500  1.0  0.1245
  H  H27  1  0.893600  0.318000  0.134300  1.0  0.1229
  H  H28  1  0.387800  0.607000  0.061300  1.0  0.1121
  H  H29  1  0.268500  0.522100  0.110600  1.0  0.1311
  H  H30  1  0.729300  0.515900  0.112000  1.0  0.1222
  H  H31  1  0.845900  0.130200  0.398500  1.0  0.1061
  H  H32  1  0.550400  0.929100  0.387800  1.0  0.1166
  C  C33  1  0.295000  0.849700  0.854000  1.0  -0.1756
  C  C34  1  0.535200  0.320600  0.457700  1.0  0.7455
  C  C35  1  0.026400  0.144700  0.658500  1.0  0.6986
  C  C36  1  0.198100  0.877200  0.937900  1.0  0.7394
  C  C37  1  0.400400  0.219600  0.763300  1.0  0.5739
  C  C38  1  0.653400  0.407900  0.804600  1.0  0.7496
  C  C39  1  0.508000  0.900000  0.624100  1.0  -0.0599
  C  C40  1  0.493500  0.659200  0.867800  1.0  0.0845
  C  C41  1  0.103000  0.100600  0.581100  1.0  -0.1957
  C  C42  1  0.271800  0.324100  0.709100  1.0  0.5414
  C  C43  1  0.539000  0.294600  0.368700  1.0  -0.153
  C  C44  1  0.224000  0.657000  0.869000  1.0  -0.1162
  C  C45  1  0.628000  0.454200  0.884700  1.0  -0.187
  C  C46  1  0.314000  0.548700  0.880700  1.0  -0.1393
  C  C47  1  0.250000  0.894900  0.607500  1.0  0.0748
  C  C48  1  0.412000  0.006400  0.612300  1.0  -0.1159
  C  C49  1  0.705000  0.150300  0.146000  1.0  -0.1773
  C  C50  1  0.464800  0.679400  0.542300  1.0  0.7448
  C  C51  1  0.973600  0.855300  0.341500  1.0  0.6994
  C  C52  1  0.801900  0.122800  0.062100  1.0  0.741
  C  C53  1  0.599600  0.780400  0.236700  1.0  0.5739
  C  C54  1  0.346600  0.592100  0.195400  1.0  0.7508
  C  C55  1  0.492000  0.100000  0.375900  1.0  -0.0605
  C  C56  1  0.506500  0.340800  0.132200  1.0  0.0835
  C  C57  1  0.897000  0.899400  0.418900  1.0  -0.1958
  C  C58  1  0.728200  0.675900  0.290900  1.0  0.5417
  C  C59  1  0.461000  0.705400  0.631300  1.0  -0.1546
  C  C60  1  0.776000  0.343000  0.131000  1.0  -0.1139
  C  C61  1  0.372000  0.545800  0.115300  1.0  -0.1872
  C  C62  1  0.686000  0.451300  0.119300  1.0  -0.1395
  C  C63  1  0.750000  0.105100  0.392500  1.0  0.0764
  C  C64  1  0.588000  0.993600  0.387700  1.0  -0.1164
  N  N65  1  0.169000  0.263900  0.991200  1.0  0.7098
  N  N66  1  0.338500  0.724200  0.862900  1.0  0.0568
  N  N67  1  0.406000  0.829100  0.624400  1.0  0.0529
  N  N68  1  0.481900  0.552000  0.879800  1.0  0.0593
  N  N69  1  0.254000  0.002800  0.600800  1.0  0.0684
  N  N70  1  0.831000  0.736100  0.008800  1.0  0.7077
  N  N71  1  0.661500  0.275800  0.137100  1.0  0.0563
  N  N72  1  0.594000  0.170900  0.375600  1.0  0.0537
  N  N73  1  0.518100  0.448000  0.120200  1.0  0.0599
  N  N74  1  0.746000  0.997200  0.399200  1.0  0.0693
  O  O75  1  0.550100  0.449900  0.746100  1.0  -0.6179
  O  O76  1  0.525900  0.577200  0.541300  1.0  -0.8238
  O  O77  1  0.334400  0.391300  0.642100  1.0  -0.6402
  O  O78  1  0.554900  0.210800  0.735200  1.0  -0.6616
  O  O79  1  0.099100  0.107200  0.729700  1.0  -0.6186
  O  O80  1  0.118400  0.332900  0.735800  1.0  -0.637
  O  O81  1  0.783100  0.329000  0.802100  1.0  -0.79
  O  O82  1  0.596500  0.242800  0.524100  1.0  -0.6866
  O  O83  1  0.142600  0.982300  0.929600  1.0  -0.767
  O  O84  1  0.818200  0.204300  0.993600  1.0  -0.7073
  O  O85  1  0.892700  0.222400  0.641700  1.0  -0.7419
  O  O86  1  0.343700  0.155300  0.831800  1.0  -0.6152
  O  O87  1  0.173900  0.159000  0.006900  1.0  -0.6721
  O  O88  1  0.094000  0.336800  0.920200  1.0  -0.6782
  O  O89  1  0.226000  0.304300  0.038500  1.0  -0.5428
  O  O90  1  0.449900  0.550100  0.253900  1.0  -0.6183
  O  O91  1  0.474100  0.422800  0.458700  1.0  -0.8253
  O  O92  1  0.665600  0.608700  0.357900  1.0  -0.638
  O  O93  1  0.445100  0.789200  0.264800  1.0  -0.6616
  O  O94  1  0.900900  0.892800  0.270300  1.0  -0.6197
  O  O95  1  0.881600  0.667100  0.264200  1.0  -0.6385
  O  O96  1  0.216900  0.671000  0.197900  1.0  -0.7935
  O  O97  1  0.403500  0.757200  0.475900  1.0  -0.6885
  O  O98  1  0.857400  0.017700  0.070400  1.0  -0.767
  O  O99  1  0.181800  0.795700  0.006400  1.0  -0.7083
  O  O100  1  0.107300  0.777600  0.358300  1.0  -0.743
  O  O101  1  0.656300  0.844700  0.168200  1.0  -0.6182
  O  O102  1  0.826100  0.841000  0.993100  1.0  -0.6686
  O  O103  1  0.906000  0.663200  0.079800  1.0  -0.6776
  O  O104  1  0.774000  0.695700  0.961500  1.0  -0.5426
