# generated using pymatgen
data_CuH2(CO2)2
_symmetry_space_group_name_H-M   'P 1'
_cell_length_a   10.03380000
_cell_length_b   8.28270000
_cell_length_c   11.15830000
_cell_angle_alpha   90.00000000
_cell_angle_beta   90.00000000
_cell_angle_gamma   90.00000000
_symmetry_Int_Tables_number   1
_chemical_formula_structural   CuH2(CO2)2
_chemical_formula_sum   'Cu4 H8 C8 O16'
_cell_volume   927.33233888
_cell_formula_units_Z   4
loop_
 _symmetry_equiv_pos_site_id
 _symmetry_equiv_pos_as_xyz
  1  'x, y, z'
loop_
 _atom_site_type_symbol
 _atom_site_label
 _atom_site_symmetry_multiplicity
 _atom_site_fract_x
 _atom_site_fract_y
 _atom_site_fract_z
 _atom_site_occupancy
 _atom_site_charge
  Cu  Cu1  1  0.204370  0.001180  0.268440  1.0  0.8042
  Cu  Cu2  1  0.295630  0.998820  0.768440  1.0  0.8014
  Cu  Cu3  1  0.795630  0.501180  0.231560  1.0  0.8022
  Cu  Cu4  1  0.704370  0.498820  0.731560  1.0  0.8038
  H  H5  1  0.011500  0.285200  0.282600  1.0  0.0708
  H  H6  1  0.258100  0.932000  0.516700  1.0  0.0973
  H  H7  1  0.488500  0.714800  0.782600  1.0  0.0708
  H  H8  1  0.241900  0.068000  0.016700  1.0  0.0972
  H  H9  1  0.988500  0.785200  0.217400  1.0  0.0703
  H  H10  1  0.741900  0.432000  0.983300  1.0  0.0971
  H  H11  1  0.511500  0.214800  0.717400  1.0  0.0709
  H  H12  1  0.758100  0.568000  0.483300  1.0  0.0972
  C  C13  1  0.969500  0.232100  0.217200  1.0  0.6772
  C  C14  1  0.230500  0.041600  0.521400  1.0  0.6178
  C  C15  1  0.530500  0.767900  0.717200  1.0  0.6756
  C  C16  1  0.269500  0.958400  0.021400  1.0  0.6184
  C  C17  1  0.030500  0.732100  0.282800  1.0  0.6763
  C  C18  1  0.769500  0.541600  0.978600  1.0  0.6196
  C  C19  1  0.469500  0.267900  0.782800  1.0  0.6755
  C  C20  1  0.730500  0.458400  0.478600  1.0  0.6176
  O  O21  1  0.014900  0.098300  0.185700  1.0  -0.5526
  O  O22  1  0.871900  0.301500  0.168400  1.0  -0.5556
  O  O23  1  0.182800  0.107900  0.428700  1.0  -0.5745
  O  O24  1  0.242800  0.115100  0.619600  1.0  -0.5846
  O  O25  1  0.485100  0.901700  0.685700  1.0  -0.5514
  O  O26  1  0.628100  0.698500  0.668400  1.0  -0.5545
  O  O27  1  0.317200  0.892100  0.928700  1.0  -0.5731
  O  O28  1  0.257200  0.884900  0.119600  1.0  -0.5827
  O  O29  1  0.985100  0.598300  0.314300  1.0  -0.5529
  O  O30  1  0.128100  0.801500  0.331600  1.0  -0.555
  O  O31  1  0.817200  0.607900  0.071300  1.0  -0.5735
  O  O32  1  0.757200  0.615100  0.880400  1.0  -0.5843
  O  O33  1  0.514900  0.401700  0.814300  1.0  -0.5529
  O  O34  1  0.371900  0.198500  0.831600  1.0  -0.5564
  O  O35  1  0.682800  0.392100  0.571300  1.0  -0.5735
  O  O36  1  0.742800  0.384900  0.380400  1.0  -0.5839
