# generated using pymatgen
data_CuH2(CO2)2
_symmetry_space_group_name_H-M   'P 1'
_cell_length_a   10.07290000
_cell_length_b   8.27890000
_cell_length_c   11.15350000
_cell_angle_alpha   90.00000000
_cell_angle_beta   90.00000000
_cell_angle_gamma   90.00000000
_symmetry_Int_Tables_number   1
_chemical_formula_structural   CuH2(CO2)2
_chemical_formula_sum   'Cu4 H8 C8 O16'
_cell_volume   930.11860354
_cell_formula_units_Z   4
loop_
 _symmetry_equiv_pos_site_id
 _symmetry_equiv_pos_as_xyz
  1  'x, y, z'
loop_
 _atom_site_type_symbol
 _atom_site_label
 _atom_site_symmetry_multiplicity
 _atom_site_fract_x
 _atom_site_fract_y
 _atom_site_fract_z
 _atom_site_occupancy
 _atom_site_charge
  Cu  Cu1  1  0.204350  0.000500  0.267150  1.0  0.8148
  Cu  Cu2  1  0.295650  0.999500  0.767150  1.0  0.8123
  Cu  Cu3  1  0.795650  0.500500  0.232850  1.0  0.8127
  Cu  Cu4  1  0.704350  0.499500  0.732850  1.0  0.8145
  H  H5  1  0.012000  0.284900  0.282100  1.0  0.0629
  H  H6  1  0.259300  0.931500  0.515100  1.0  0.0902
  H  H7  1  0.488000  0.715100  0.782100  1.0  0.0635
  H  H8  1  0.240700  0.068500  0.015100  1.0  0.09
  H  H9  1  0.988000  0.784900  0.217900  1.0  0.063
  H  H10  1  0.740700  0.431500  0.984900  1.0  0.09
  H  H11  1  0.512000  0.215100  0.717900  1.0  0.0635
  H  H12  1  0.759300  0.568500  0.484900  1.0  0.0901
  C  C13  1  0.969200  0.231400  0.217400  1.0  0.6881
  C  C14  1  0.231300  0.040900  0.519800  1.0  0.6235
  C  C15  1  0.530800  0.768600  0.717400  1.0  0.6869
  C  C16  1  0.268700  0.959100  0.019800  1.0  0.6246
  C  C17  1  0.030800  0.731400  0.282600  1.0  0.6873
  C  C18  1  0.768700  0.540900  0.980200  1.0  0.6257
  C  C19  1  0.469200  0.268600  0.782600  1.0  0.6864
  C  C20  1  0.731300  0.459100  0.480200  1.0  0.6236
  O  O21  1  0.014400  0.098600  0.185800  1.0  -0.5553
  O  O22  1  0.871400  0.300300  0.170300  1.0  -0.5634
  O  O23  1  0.183200  0.106100  0.427620  1.0  -0.5761
  O  O24  1  0.243800  0.114000  0.617800  1.0  -0.5849
  O  O25  1  0.485600  0.901400  0.685800  1.0  -0.5549
  O  O26  1  0.628600  0.699700  0.670300  1.0  -0.5626
  O  O27  1  0.316800  0.893900  0.927620  1.0  -0.5747
  O  O28  1  0.256200  0.886000  0.117800  1.0  -0.5835
  O  O29  1  0.985600  0.598600  0.314200  1.0  -0.5564
  O  O30  1  0.128600  0.800300  0.329700  1.0  -0.5627
  O  O31  1  0.816800  0.606100  0.072380  1.0  -0.5753
  O  O32  1  0.756200  0.614000  0.882200  1.0  -0.5838
  O  O33  1  0.514400  0.401400  0.814200  1.0  -0.5563
  O  O34  1  0.371400  0.199700  0.829700  1.0  -0.5639
  O  O35  1  0.683200  0.393900  0.572380  1.0  -0.5752
  O  O36  1  0.743800  0.386000  0.382200  1.0  -0.5845
