# generated using pymatgen
data_NdH7C8(NO3)2
_symmetry_space_group_name_H-M   'P 1'
_cell_length_a   7.98700000
_cell_length_b   8.53400000
_cell_length_c   11.25900000
_cell_angle_alpha   71.96100000
_cell_angle_beta   84.27000000
_cell_angle_gamma   68.04500000
_symmetry_Int_Tables_number   1
_chemical_formula_structural   NdH7C8(NO3)2
_chemical_formula_sum   'Nd2 H14 C16 N4 O12'
_cell_volume   676.67308557
_cell_formula_units_Z   2
loop_
 _symmetry_equiv_pos_site_id
 _symmetry_equiv_pos_as_xyz
  1  'x, y, z'
loop_
 _atom_site_type_symbol
 _atom_site_label
 _atom_site_symmetry_multiplicity
 _atom_site_fract_x
 _atom_site_fract_y
 _atom_site_fract_z
 _atom_site_occupancy
 _atom_site_charge
  Nd  Nd1  1  0.785910  0.258100  0.977970  1.0  2.2162
  Nd  Nd2  1  0.214090  0.741900  0.022030  1.0  2.2168
  H  H3  1  0.178200  0.010900  0.658400  1.0  0.0917
  H  H4  1  0.006800  0.958500  0.685700  1.0  0.0838
  H  H5  1  0.714600  0.182400  0.551600  1.0  0.0904
  H  H6  1  0.543800  0.574500  0.338200  1.0  0.0919
  H  H7  1  0.512900  0.394400  0.378400  1.0  0.091
  H  H8  1  0.166900  0.275600  0.469000  1.0  0.0967
  H  H9  1  0.945900  0.487400  0.311300  1.0  0.0774
  H  H10  1  0.821800  0.989100  0.341600  1.0  0.0918
  H  H11  1  0.993200  0.041500  0.314300  1.0  0.0834
  H  H12  1  0.285400  0.817600  0.448400  1.0  0.0898
  H  H13  1  0.456200  0.425500  0.661800  1.0  0.0921
  H  H14  1  0.487100  0.605600  0.621600  1.0  0.091
  H  H15  1  0.833100  0.724400  0.531000  1.0  0.0944
  H  H16  1  0.054100  0.512600  0.688700  1.0  0.0775
  C  C17  1  0.084300  0.414100  0.030700  1.0  0.5648
  C  C18  1  0.048100  0.056800  0.666500  1.0  -0.132
  C  C19  1  0.798100  0.232400  0.511300  1.0  0.0601
  C  C20  1  0.596000  0.452000  0.337100  1.0  -0.2144
  C  C21  1  0.617300  0.447700  0.201800  1.0  0.7234
  C  C22  1  0.047000  0.285000  0.465200  1.0  -0.0847
  C  C23  1  0.928000  0.400000  0.378800  1.0  -0.1744
  C  C24  1  0.001300  0.138600  0.773300  1.0  0.692
  C  C25  1  0.915700  0.585900  0.969300  1.0  0.5641
  C  C26  1  0.951900  0.943200  0.333500  1.0  -0.1323
  C  C27  1  0.201900  0.767600  0.488700  1.0  0.0619
  C  C28  1  0.404000  0.548000  0.662900  1.0  -0.2145
  C  C29  1  0.382700  0.552300  0.798200  1.0  0.7225
  C  C30  1  0.953000  0.715000  0.534800  1.0  -0.0861
  C  C31  1  0.072000  0.600000  0.621200  1.0  -0.176
  C  C32  1  0.998700  0.861400  0.226700  1.0  0.6903
  N  N33  1  0.966900  0.183400  0.548300  1.0  0.0446
  N  N34  1  0.768900  0.365100  0.406900  1.0  -0.0087
  N  N35  1  0.033100  0.816600  0.451700  1.0  0.0442
  N  N36  1  0.231100  0.634900  0.593100  1.0  -0.0069
  O  O37  1  0.937700  0.963400  0.120500  1.0  -0.8405
  O  O38  1  0.080000  0.272700  0.025100  1.0  -0.6643
  O  O39  1  0.761200  0.344000  0.172900  1.0  -0.6735
  O  O40  1  0.515900  0.457800  0.867000  1.0  -0.7886
  O  O41  1  0.902400  0.296400  0.755800  1.0  -0.7006
  O  O42  1  0.200800  0.439100  0.079300  1.0  -0.6379
  O  O43  1  0.062300  0.036600  0.879500  1.0  -0.8424
  O  O44  1  0.920000  0.727300  0.974900  1.0  -0.6657
  O  O45  1  0.238800  0.656000  0.827100  1.0  -0.6736
  O  O46  1  0.484100  0.542200  0.133000  1.0  -0.7872
  O  O47  1  0.097600  0.703600  0.244200  1.0  -0.7002
  O  O48  1  0.799200  0.560900  0.920700  1.0  -0.6395
