# generated using pymatgen
data_AgH8(CN)2
_symmetry_space_group_name_H-M   'P 1'
_cell_length_a   10.42550000
_cell_length_b   10.53010000
_cell_length_c   6.29430000
_cell_angle_alpha   90.00000000
_cell_angle_beta   115.13500000
_cell_angle_gamma   90.00000000
_symmetry_Int_Tables_number   1
_chemical_formula_structural   AgH8(CN)2
_chemical_formula_sum   'Ag4 H32 C8 N8'
_cell_volume   625.56710706
_cell_formula_units_Z   4
loop_
 _symmetry_equiv_pos_site_id
 _symmetry_equiv_pos_as_xyz
  1  'x, y, z'
loop_
 _atom_site_type_symbol
 _atom_site_label
 _atom_site_symmetry_multiplicity
 _atom_site_fract_x
 _atom_site_fract_y
 _atom_site_fract_z
 _atom_site_occupancy
 _atom_site_charge
  Ag  Ag1  1  0.500000  0.000000  0.500000  1.0  0.1807
  Ag  Ag2  1  0.000000  0.500000  0.500000  1.0  0.1807
  Ag  Ag3  1  0.500000  0.000000  0.000000  1.0  0.1807
  Ag  Ag4  1  0.000000  0.500000  0.000000  1.0  0.1807
  H  H5  1  0.397400  0.265100  0.576700  1.0  0.0282
  H  H6  1  0.329100  0.171700  0.693500  1.0  0.0306
  H  H7  1  0.298100  0.146400  0.243100  1.0  0.2843
  H  H8  1  0.238600  0.058800  0.355800  1.0  0.2751
  H  H9  1  0.897400  0.765100  0.576700  1.0  0.0282
  H  H10  1  0.829100  0.671700  0.693500  1.0  0.0306
  H  H11  1  0.798100  0.646400  0.243100  1.0  0.2843
  H  H12  1  0.738600  0.558800  0.355800  1.0  0.2751
  H  H13  1  0.602600  0.265100  0.923300  1.0  0.0278
  H  H14  1  0.670900  0.171700  0.806500  1.0  0.0301
  H  H15  1  0.701900  0.146400  0.256900  1.0  0.2848
  H  H16  1  0.761400  0.058800  0.144200  1.0  0.2759
  H  H17  1  0.102600  0.765100  0.923300  1.0  0.0278
  H  H18  1  0.170900  0.671700  0.806500  1.0  0.0301
  H  H19  1  0.201900  0.646400  0.256900  1.0  0.2848
  H  H20  1  0.261400  0.558800  0.144200  1.0  0.2759
  H  H21  1  0.602600  0.734900  0.423300  1.0  0.0278
  H  H22  1  0.670900  0.828300  0.306500  1.0  0.0294
  H  H23  1  0.701900  0.853600  0.756900  1.0  0.2849
  H  H24  1  0.761400  0.941200  0.644200  1.0  0.2767
  H  H25  1  0.102600  0.234900  0.423300  1.0  0.0278
  H  H26  1  0.170900  0.328300  0.306500  1.0  0.0294
  H  H27  1  0.201900  0.353600  0.756900  1.0  0.2849
  H  H28  1  0.261400  0.441200  0.644200  1.0  0.2767
  H  H29  1  0.397400  0.734900  0.076700  1.0  0.0279
  H  H30  1  0.329100  0.828300  0.193500  1.0  0.0303
  H  H31  1  0.298100  0.853600  0.743100  1.0  0.2845
  H  H32  1  0.238600  0.941200  0.855800  1.0  0.2758
  H  H33  1  0.897400  0.234900  0.076700  1.0  0.0279
  H  H34  1  0.829100  0.328300  0.193500  1.0  0.0303
  H  H35  1  0.798100  0.353600  0.743100  1.0  0.2845
  H  H36  1  0.738600  0.441200  0.855800  1.0  0.2758
  C  C37  1  0.316600  0.210400  0.546100  1.0  -0.0093
  C  C38  1  0.816600  0.710400  0.546100  1.0  -0.0093
  C  C39  1  0.683400  0.210400  0.953900  1.0  -0.0101
  C  C40  1  0.183400  0.710400  0.953900  1.0  -0.0101
  C  C41  1  0.683400  0.789600  0.453900  1.0  -0.0085
  C  C42  1  0.183400  0.289600  0.453900  1.0  -0.0085
  C  C43  1  0.316600  0.789600  0.046100  1.0  -0.0073
  C  C44  1  0.816600  0.289600  0.046100  1.0  -0.0073
  N  N45  1  0.312500  0.110400  0.381100  1.0  -0.7018
  N  N46  1  0.812500  0.610400  0.381100  1.0  -0.7018
  N  N47  1  0.687500  0.110400  0.118900  1.0  -0.7
  N  N48  1  0.187500  0.610400  0.118900  1.0  -0.7
  N  N49  1  0.687500  0.889600  0.618900  1.0  -0.6985
  N  N50  1  0.187500  0.389600  0.618900  1.0  -0.6985
  N  N51  1  0.312500  0.889600  0.881100  1.0  -0.7001
  N  N52  1  0.812500  0.389600  0.881100  1.0  -0.7001
