# generated using pymatgen
data_AgH8(CN)2
_symmetry_space_group_name_H-M   'P 1'
_cell_length_a   10.23190000
_cell_length_b   10.65310000
_cell_length_c   6.22100000
_cell_angle_alpha   90.00000000
_cell_angle_beta   114.48500000
_cell_angle_gamma   90.00000000
_symmetry_Int_Tables_number   1
_chemical_formula_structural   AgH8(CN)2
_chemical_formula_sum   'Ag4 H32 C8 N8'
_cell_volume   617.11655603
_cell_formula_units_Z   4
loop_
 _symmetry_equiv_pos_site_id
 _symmetry_equiv_pos_as_xyz
  1  'x, y, z'
loop_
 _atom_site_type_symbol
 _atom_site_label
 _atom_site_symmetry_multiplicity
 _atom_site_fract_x
 _atom_site_fract_y
 _atom_site_fract_z
 _atom_site_occupancy
 _atom_site_charge
  Ag  Ag1  1  0.500000  0.000000  0.500000  1.0  0.1794
  Ag  Ag2  1  0.000000  0.500000  0.500000  1.0  0.1794
  Ag  Ag3  1  0.500000  0.000000  0.000000  1.0  0.1792
  Ag  Ag4  1  0.000000  0.500000  0.000000  1.0  0.1792
  H  H5  1  0.400700  0.266400  0.568200  1.0  0.0232
  H  H6  1  0.333700  0.174900  0.700600  1.0  0.0315
  H  H7  1  0.295000  0.143300  0.235800  1.0  0.2729
  H  H8  1  0.234200  0.058000  0.360200  1.0  0.2734
  H  H9  1  0.900700  0.766400  0.568200  1.0  0.0232
  H  H10  1  0.833700  0.674900  0.700600  1.0  0.0315
  H  H11  1  0.795000  0.643300  0.235800  1.0  0.2729
  H  H12  1  0.734200  0.558000  0.360200  1.0  0.2734
  H  H13  1  0.599300  0.266400  0.931800  1.0  0.0238
  H  H14  1  0.666300  0.174900  0.799400  1.0  0.0327
  H  H15  1  0.705000  0.143300  0.264200  1.0  0.2732
  H  H16  1  0.765800  0.058000  0.139800  1.0  0.2736
  H  H17  1  0.099300  0.766400  0.931800  1.0  0.0238
  H  H18  1  0.166300  0.674900  0.799400  1.0  0.0327
  H  H19  1  0.205000  0.643300  0.264200  1.0  0.2732
  H  H20  1  0.265800  0.558000  0.139800  1.0  0.2736
  H  H21  1  0.599300  0.733600  0.431800  1.0  0.0234
  H  H22  1  0.666300  0.825100  0.299400  1.0  0.0324
  H  H23  1  0.705000  0.856700  0.764200  1.0  0.2732
  H  H24  1  0.765800  0.942000  0.639800  1.0  0.2728
  H  H25  1  0.099300  0.233600  0.431800  1.0  0.0234
  H  H26  1  0.166300  0.325100  0.299400  1.0  0.0324
  H  H27  1  0.205000  0.356700  0.764200  1.0  0.2732
  H  H28  1  0.265800  0.442000  0.639800  1.0  0.2728
  H  H29  1  0.400700  0.733600  0.068200  1.0  0.0228
  H  H30  1  0.333700  0.825100  0.200600  1.0  0.0315
  H  H31  1  0.295000  0.856700  0.735800  1.0  0.2733
  H  H32  1  0.234200  0.942000  0.860200  1.0  0.2731
  H  H33  1  0.900700  0.233600  0.068200  1.0  0.0228
  H  H34  1  0.833700  0.325100  0.200600  1.0  0.0315
  H  H35  1  0.795000  0.356700  0.735800  1.0  0.2733
  H  H36  1  0.734200  0.442000  0.860200  1.0  0.2731
  C  C37  1  0.318000  0.211300  0.545300  1.0  0.0128
  C  C38  1  0.818000  0.711300  0.545300  1.0  0.0128
  C  C39  1  0.682000  0.211300  0.954700  1.0  0.0122
  C  C40  1  0.182000  0.711300  0.954700  1.0  0.0122
  C  C41  1  0.682000  0.788700  0.454700  1.0  0.0137
  C  C42  1  0.182000  0.288700  0.454700  1.0  0.0137
  C  C43  1  0.318000  0.788700  0.045300  1.0  0.0149
  C  C44  1  0.818000  0.288700  0.045300  1.0  0.0149
  N  N45  1  0.310800  0.109200  0.380400  1.0  -0.7061
  N  N46  1  0.810800  0.609200  0.380400  1.0  -0.7061
  N  N47  1  0.689200  0.109200  0.119600  1.0  -0.7048
  N  N48  1  0.189200  0.609200  0.119600  1.0  -0.7048
  N  N49  1  0.689200  0.890800  0.619600  1.0  -0.7037
  N  N50  1  0.189200  0.390800  0.619600  1.0  -0.7037
  N  N51  1  0.310800  0.890800  0.880400  1.0  -0.7042
  N  N52  1  0.810800  0.390800  0.880400  1.0  -0.7042
