# generated using pymatgen
data_AgH8(CN)2
_symmetry_space_group_name_H-M   'P 1'
_cell_length_a   10.44880000
_cell_length_b   10.50410000
_cell_length_c   6.30650000
_cell_angle_alpha   90.00000000
_cell_angle_beta   115.27200000
_cell_angle_gamma   90.00000000
_symmetry_Int_Tables_number   1
_chemical_formula_structural   AgH8(CN)2
_chemical_formula_sum   'Ag4 H32 C8 N8'
_cell_volume   625.92458642
_cell_formula_units_Z   4
loop_
 _symmetry_equiv_pos_site_id
 _symmetry_equiv_pos_as_xyz
  1  'x, y, z'
loop_
 _atom_site_type_symbol
 _atom_site_label
 _atom_site_symmetry_multiplicity
 _atom_site_fract_x
 _atom_site_fract_y
 _atom_site_fract_z
 _atom_site_occupancy
 _atom_site_charge
  Ag  Ag1  1  0.500000  0.000000  0.500000  1.0  0.1539
  Ag  Ag2  1  0.000000  0.500000  0.500000  1.0  0.1539
  Ag  Ag3  1  0.500000  0.000000  0.000000  1.0  0.1539
  Ag  Ag4  1  0.000000  0.500000  0.000000  1.0  0.1539
  H  H5  1  0.397200  0.264500  0.580800  1.0  0.0226
  H  H6  1  0.326700  0.170200  0.691900  1.0  0.0303
  H  H7  1  0.300200  0.147800  0.244900  1.0  0.2804
  H  H8  1  0.239700  0.058900  0.353600  1.0  0.2732
  H  H9  1  0.897200  0.764500  0.580800  1.0  0.0226
  H  H10  1  0.826700  0.670200  0.691900  1.0  0.0303
  H  H11  1  0.800200  0.647800  0.244900  1.0  0.2804
  H  H12  1  0.739700  0.558900  0.353600  1.0  0.2732
  H  H13  1  0.602800  0.264500  0.919200  1.0  0.0226
  H  H14  1  0.673300  0.170200  0.808100  1.0  0.0304
  H  H15  1  0.699800  0.147800  0.255100  1.0  0.2816
  H  H16  1  0.760300  0.058900  0.146400  1.0  0.2734
  H  H17  1  0.102800  0.764500  0.919200  1.0  0.0226
  H  H18  1  0.173300  0.670200  0.808100  1.0  0.0304
  H  H19  1  0.199800  0.647800  0.255100  1.0  0.2816
  H  H20  1  0.260300  0.558900  0.146400  1.0  0.2734
  H  H21  1  0.602800  0.735500  0.419200  1.0  0.0223
  H  H22  1  0.673300  0.829800  0.308100  1.0  0.0301
  H  H23  1  0.699800  0.852200  0.755100  1.0  0.2819
  H  H24  1  0.760300  0.941100  0.646400  1.0  0.2745
  H  H25  1  0.102800  0.235500  0.419200  1.0  0.0223
  H  H26  1  0.173300  0.329800  0.308100  1.0  0.0301
  H  H27  1  0.199800  0.352200  0.755100  1.0  0.2819
  H  H28  1  0.260300  0.441100  0.646400  1.0  0.2745
  H  H29  1  0.397200  0.735500  0.080800  1.0  0.0219
  H  H30  1  0.326700  0.829800  0.191900  1.0  0.0302
  H  H31  1  0.300200  0.852200  0.744900  1.0  0.2808
  H  H32  1  0.239700  0.941100  0.853600  1.0  0.2742
  H  H33  1  0.897200  0.235500  0.080800  1.0  0.0219
  H  H34  1  0.826700  0.329800  0.191900  1.0  0.0302
  H  H35  1  0.800200  0.352200  0.744900  1.0  0.2808
  H  H36  1  0.739700  0.441100  0.853600  1.0  0.2742
  C  C37  1  0.315900  0.209900  0.546300  1.0  -0.0083
  C  C38  1  0.815900  0.709900  0.546300  1.0  -0.0083
  C  C39  1  0.684100  0.209900  0.953700  1.0  -0.009
  C  C40  1  0.184100  0.709900  0.953700  1.0  -0.009
  C  C41  1  0.684100  0.790100  0.453700  1.0  -0.0077
  C  C42  1  0.184100  0.290100  0.453700  1.0  -0.0077
  C  C43  1  0.315900  0.790100  0.046300  1.0  -0.0066
  C  C44  1  0.815900  0.290100  0.046300  1.0  -0.0066
  N  N45  1  0.313800  0.110800  0.381600  1.0  -0.6783
  N  N46  1  0.813800  0.610800  0.381600  1.0  -0.6783
  N  N47  1  0.686200  0.110800  0.118400  1.0  -0.6765
  N  N48  1  0.186200  0.610800  0.118400  1.0  -0.6765
  N  N49  1  0.686200  0.889200  0.618400  1.0  -0.6749
  N  N50  1  0.186200  0.389200  0.618400  1.0  -0.6749
  N  N51  1  0.313800  0.889200  0.881600  1.0  -0.677
  N  N52  1  0.813800  0.389200  0.881600  1.0  -0.677
