# generated using pymatgen
data_AgH8(CN)2
_symmetry_space_group_name_H-M   'P 1'
_cell_length_a   20.77500000
_cell_length_b   19.47900000
_cell_length_c   5.95200000
_cell_angle_alpha   90.00000000
_cell_angle_beta   114.10000000
_cell_angle_gamma   90.00000000
_symmetry_Int_Tables_number   1
_chemical_formula_structural   AgH8(CN)2
_chemical_formula_sum   'Ag16 H128 C32 N32'
_cell_volume   2198.68242349
_cell_formula_units_Z   16
loop_
 _symmetry_equiv_pos_site_id
 _symmetry_equiv_pos_as_xyz
  1  'x, y, z'
loop_
 _atom_site_type_symbol
 _atom_site_label
 _atom_site_symmetry_multiplicity
 _atom_site_fract_x
 _atom_site_fract_y
 _atom_site_fract_z
 _atom_site_occupancy
 _atom_site_charge
  Ag  Ag1  1  0.500000  0.000000  0.000000  1.0  0.293
  Ag  Ag2  1  0.000000  0.500000  0.000000  1.0  0.293
  Ag  Ag3  1  0.500000  0.000000  0.500000  1.0  0.293
  Ag  Ag4  1  0.000000  0.500000  0.500000  1.0  0.293
  Ag  Ag5  1  0.750000  0.250000  0.000000  1.0  0.2805
  Ag  Ag6  1  0.250000  0.250000  0.500000  1.0  0.2805
  Ag  Ag7  1  0.250000  0.750000  0.000000  1.0  0.2805
  Ag  Ag8  1  0.750000  0.750000  0.500000  1.0  0.2805
  Ag  Ag9  1  0.750000  0.250000  0.500000  1.0  0.3298
  Ag  Ag10  1  0.250000  0.250000  0.000000  1.0  0.3298
  Ag  Ag11  1  0.250000  0.750000  0.500000  1.0  0.3298
  Ag  Ag12  1  0.750000  0.750000  0.000000  1.0  0.3298
  Ag  Ag13  1  0.000000  0.000000  0.500000  1.0  0.263
  Ag  Ag14  1  0.500000  0.500000  0.500000  1.0  0.263
  Ag  Ag15  1  0.000000  0.000000  0.000000  1.0  0.263
  Ag  Ag16  1  0.500000  0.500000  0.000000  1.0  0.263
  H  H17  1  0.620700  0.060600  0.309100  1.0  0.2849
  H  H18  1  0.640400  0.016500  0.146900  1.0  0.2568
  H  H19  1  0.620900  0.232800  0.886100  1.0  0.2628
  H  H20  1  0.639800  0.189200  0.722100  1.0  0.2825
  H  H21  1  0.887600  0.228000  0.642200  1.0  0.2172
  H  H22  1  0.865200  0.182600  0.794000  1.0  0.23
  H  H23  1  0.890500  0.069600  0.230700  1.0  0.2499
  H  H24  1  0.868500  0.023700  0.380400  1.0  0.2517
  H  H25  1  0.559900  0.132700  0.990300  1.0  0.0249
  H  H26  1  0.581100  0.085700  0.817300  1.0  0.0221
  H  H27  1  0.679000  0.161300  0.214200  1.0  0.0388
  H  H28  1  0.699800  0.114700  0.039500  1.0  0.0285
  H  H29  1  0.829100  0.162200  0.298500  1.0  0.0339
  H  H30  1  0.804300  0.113500  0.460800  1.0  0.0374
  H  H31  1  0.948900  0.140300  0.566200  1.0  0.0273
  H  H32  1  0.923800  0.091100  0.725500  1.0  0.027
  H  H33  1  0.120700  0.560600  0.309100  1.0  0.2849
  H  H34  1  0.140400  0.516500  0.146900  1.0  0.2568
  H  H35  1  0.120900  0.732800  0.886100  1.0  0.2628
  H  H36  1  0.139800  0.689200  0.722100  1.0  0.2825
  H  H37  1  0.387600  0.728000  0.642200  1.0  0.2172
  H  H38  1  0.365200  0.682600  0.794000  1.0  0.23
  H  H39  1  0.390500  0.569600  0.230700  1.0  0.2499
  H  H40  1  0.368500  0.523700  0.380400  1.0  0.2517
  H  H41  1  0.059900  0.632700  0.990300  1.0  0.0249
  H  H42  1  0.081100  0.585700  0.817300  1.0  0.0221
  H  H43  1  0.179000  0.661300  0.214200  1.0  0.0388
  H  H44  1  0.199800  0.614700  0.039500  1.0  0.0285
  H  H45  1  0.329100  0.662200  0.298500  1.0  0.0339
  H  H46  1  0.304300  0.613500  0.460800  1.0  0.0374
  H  H47  1  0.448900  0.640300  0.566200  1.0  0.0273
  H  H48  1  0.423800  0.591100  0.725500  1.0  0.027
  H  H49  1  0.379300  0.060600  0.190900  1.0  0.2836
  H  H50  1  0.359600  0.016500  0.353100  1.0  0.2557
  H  H51  1  0.379100  0.232800  0.613900  1.0  0.2628
  H  H52  1  0.360200  0.189200  0.777900  1.0  0.2826
  H  H53  1  0.112400  0.228000  0.857800  1.0  0.2173
  H  H54  1  0.134800  0.182600  0.706000  1.0  0.2302
  H  H55  1  0.109500  0.069600  0.269300  1.0  0.2496
  H  H56  1  0.131500  0.023700  0.119600  1.0  0.2526
  H  H57  1  0.440100  0.132700  0.509700  1.0  0.0259
  H  H58  1  0.418900  0.085700  0.682700  1.0  0.0199
  H  H59  1  0.321000  0.161300  0.285800  1.0  0.0417
  H  H60  1  0.300200  0.114700  0.460500  1.0  0.0282
  H  H61  1  0.170900  0.162200  0.201500  1.0  0.0326
  H  H62  1  0.195700  0.113500  0.039200  1.0  0.0362
  H  H63  1  0.051100  0.140300  0.933800  1.0  0.0257
  H  H64  1  0.076200  0.091100  0.774500  1.0  0.0283
  H  H65  1  0.879300  0.560600  0.190900  1.0  0.2836
  H  H66  1  0.859600  0.516500  0.353100  1.0  0.2557
  H  H67  1  0.879100  0.732800  0.613900  1.0  0.2628
  H  H68  1  0.860200  0.689200  0.777900  1.0  0.2826
  H  H69  1  0.612400  0.728000  0.857800  1.0  0.2173
  H  H70  1  0.634800  0.682600  0.706000  1.0  0.2302
  H  H71  1  0.609500  0.569600  0.269300  1.0  0.2496
  H  H72  1  0.631500  0.523700  0.119600  1.0  0.2526
  H  H73  1  0.940100  0.632700  0.509700  1.0  0.0259
  H  H74  1  0.918900  0.585700  0.682700  1.0  0.0199
  H  H75  1  0.821000  0.661300  0.285800  1.0  0.0417
  H  H76  1  0.800200  0.614700  0.460500  1.0  0.0282
  H  H77  1  0.670900  0.662200  0.201500  1.0  0.0326
  H  H78  1  0.695700  0.613500  0.039200  1.0  0.0362
  H  H79  1  0.551100  0.640300  0.933800  1.0  0.0257
  H  H80  1  0.576200  0.591100  0.774500  1.0  0.0283
  H  H81  1  0.379300  0.939400  0.690900  1.0  0.2839
  H  H82  1  0.359600  0.983500  0.853100  1.0  0.2566
  H  H83  1  0.379100  0.767200  0.113900  1.0  0.2623
  H  H84  1  0.360200  0.810800  0.277900  1.0  0.2825
  H  H85  1  0.112400  0.772000  0.357800  1.0  0.2182
  H  H86  1  0.134800  0.817400  0.206000  1.0  0.2302
  H  H87  1  0.109500  0.930400  0.769300  1.0  0.2495
  H  H88  1  0.131500  0.976300  0.619600  1.0  0.2532
  H  H89  1  0.440100  0.867300  0.009700  1.0  0.0253
  H  H90  1  0.418900  0.914300  0.182700  1.0  0.0195
  H  H91  1  0.321000  0.838700  0.785800  1.0  0.0418
  H  H92  1  0.300200  0.885300  0.960500  1.0  0.0278
  H  H93  1  0.170900  0.837800  0.701500  1.0  0.0331
  H  H94  1  0.195700  0.886500  0.539200  1.0  0.0367
  H  H95  1  0.051100  0.859700  0.433800  1.0  0.0257
  H  H96  1  0.076200  0.908900  0.274500  1.0  0.0295
  H  H97  1  0.879300  0.439400  0.690900  1.0  0.2839
  H  H98  1  0.859600  0.483500  0.853100  1.0  0.2566
  H  H99  1  0.879100  0.267200  0.113900  1.0  0.2623
  H  H100  1  0.860200  0.310800  0.277900  1.0  0.2825
  H  H101  1  0.612400  0.272000  0.357800  1.0  0.2182
  H  H102  1  0.634800  0.317400  0.206000  1.0  0.2302
  H  H103  1  0.609500  0.430400  0.769300  1.0  0.2495
  H  H104  1  0.631500  0.476300  0.619600  1.0  0.2532
  H  H105  1  0.940100  0.367300  0.009700  1.0  0.0253
  H  H106  1  0.918900  0.414300  0.182700  1.0  0.0195
  H  H107  1  0.821000  0.338700  0.785800  1.0  0.0418
  H  H108  1  0.800200  0.385300  0.960500  1.0  0.0278
  H  H109  1  0.670900  0.337800  0.701500  1.0  0.0331
  H  H110  1  0.695700  0.386500  0.539200  1.0  0.0367
  H  H111  1  0.551100  0.359700  0.433800  1.0  0.0257
  H  H112  1  0.576200  0.408900  0.274500  1.0  0.0295
  H  H113  1  0.620700  0.939400  0.809100  1.0  0.2849
  H  H114  1  0.640400  0.983500  0.646900  1.0  0.2564
  H  H115  1  0.620900  0.767200  0.386100  1.0  0.2624
  H  H116  1  0.639800  0.810800  0.222100  1.0  0.2823
  H  H117  1  0.887600  0.772000  0.142200  1.0  0.2178
  H  H118  1  0.865200  0.817400  0.294000  1.0  0.2307
  H  H119  1  0.890500  0.930400  0.730700  1.0  0.2499
  H  H120  1  0.868500  0.976300  0.880400  1.0  0.2531
  H  H121  1  0.559900  0.867300  0.490300  1.0  0.0252
  H  H122  1  0.581100  0.914300  0.317300  1.0  0.0217
  H  H123  1  0.679000  0.838700  0.714200  1.0  0.0392
  H  H124  1  0.699800  0.885300  0.539500  1.0  0.0291
  H  H125  1  0.829100  0.837800  0.798500  1.0  0.0336
  H  H126  1  0.804300  0.886500  0.960800  1.0  0.0367
  H  H127  1  0.948900  0.859700  0.066200  1.0  0.0264
  H  H128  1  0.923800  0.908900  0.225500  1.0  0.0271
  H  H129  1  0.120700  0.439400  0.809100  1.0  0.2849
  H  H130  1  0.140400  0.483500  0.646900  1.0  0.2564
  H  H131  1  0.120900  0.267200  0.386100  1.0  0.2624
  H  H132  1  0.139800  0.310800  0.222100  1.0  0.2823
  H  H133  1  0.387600  0.272000  0.142200  1.0  0.2178
  H  H134  1  0.365200  0.317400  0.294000  1.0  0.2307
  H  H135  1  0.390500  0.430400  0.730700  1.0  0.2499
  H  H136  1  0.368500  0.476300  0.880400  1.0  0.2531
  H  H137  1  0.059900  0.367300  0.490300  1.0  0.0252
  H  H138  1  0.081100  0.414300  0.317300  1.0  0.0217
  H  H139  1  0.179000  0.338700  0.714200  1.0  0.0392
  H  H140  1  0.199800  0.385300  0.539500  1.0  0.0291
  H  H141  1  0.329100  0.337800  0.798500  1.0  0.0336
  H  H142  1  0.304300  0.386500  0.960800  1.0  0.0367
  H  H143  1  0.448900  0.359700  0.066200  1.0  0.0264
  H  H144  1  0.423800  0.408900  0.225500  1.0  0.0271
  C  C145  1  0.596700  0.103200  0.984000  1.0  -0.004
  C  C146  1  0.663200  0.144400  0.047000  1.0  -0.0058
  C  C147  1  0.841200  0.144200  0.463000  1.0  -0.0317
  C  C148  1  0.912100  0.109000  0.561000  1.0  -0.033
  C  C149  1  0.096700  0.603200  0.984000  1.0  -0.004
  C  C150  1  0.163200  0.644400  0.047000  1.0  -0.0058
  C  C151  1  0.341200  0.644200  0.463000  1.0  -0.0317
  C  C152  1  0.412100  0.609000  0.561000  1.0  -0.033
  C  C153  1  0.403300  0.103200  0.516000  1.0  -0.0016
  C  C154  1  0.336800  0.144400  0.453000  1.0  -0.0085
  C  C155  1  0.158800  0.144200  0.037000  1.0  -0.0318
  C  C156  1  0.087900  0.109000  0.939000  1.0  -0.0335
  C  C157  1  0.903300  0.603200  0.516000  1.0  -0.0016
  C  C158  1  0.836800  0.644400  0.453000  1.0  -0.0085
  C  C159  1  0.658800  0.644200  0.037000  1.0  -0.0318
  C  C160  1  0.587900  0.609000  0.939000  1.0  -0.0335
  C  C161  1  0.403300  0.896800  0.016000  1.0  -0.0013
  C  C162  1  0.336800  0.855600  0.953000  1.0  -0.0088
  C  C163  1  0.158800  0.855800  0.537000  1.0  -0.0319
  C  C164  1  0.087900  0.891000  0.439000  1.0  -0.0342
  C  C165  1  0.903300  0.396800  0.016000  1.0  -0.0013
  C  C166  1  0.836800  0.355600  0.953000  1.0  -0.0088
  C  C167  1  0.658800  0.355800  0.537000  1.0  -0.0319
  C  C168  1  0.587900  0.391000  0.439000  1.0  -0.0342
  C  C169  1  0.596700  0.896800  0.484000  1.0  -0.0038
  C  C170  1  0.663200  0.855600  0.547000  1.0  -0.0061
  C  C171  1  0.841200  0.855800  0.963000  1.0  -0.0316
  C  C172  1  0.912100  0.891000  0.061000  1.0  -0.033
  C  C173  1  0.096700  0.396800  0.484000  1.0  -0.0038
  C  C174  1  0.163200  0.355600  0.547000  1.0  -0.0061
  C  C175  1  0.341200  0.355800  0.963000  1.0  -0.0316
  C  C176  1  0.412100  0.391000  0.061000  1.0  -0.033
  N  N177  1  0.608000  0.046100  0.153000  1.0  -0.6909
  N  N178  1  0.654000  0.203600  0.879000  1.0  -0.7
  N  N179  1  0.853600  0.199300  0.641000  1.0  -0.6907
  N  N180  1  0.903000  0.052500  0.383000  1.0  -0.702
  N  N181  1  0.108000  0.546100  0.153000  1.0  -0.6909
  N  N182  1  0.154000  0.703600  0.879000  1.0  -0.7
  N  N183  1  0.353600  0.699300  0.641000  1.0  -0.6907
  N  N184  1  0.403000  0.552500  0.383000  1.0  -0.702
  N  N185  1  0.392000  0.046100  0.347000  1.0  -0.6909
  N  N186  1  0.346000  0.203600  0.621000  1.0  -0.6996
  N  N187  1  0.146400  0.199300  0.859000  1.0  -0.6925
  N  N188  1  0.097000  0.052500  0.117000  1.0  -0.7007
  N  N189  1  0.892000  0.546100  0.347000  1.0  -0.6909
  N  N190  1  0.846000  0.703600  0.621000  1.0  -0.6996
  N  N191  1  0.646400  0.699300  0.859000  1.0  -0.6925
  N  N192  1  0.597000  0.552500  0.117000  1.0  -0.7007
  N  N193  1  0.392000  0.953900  0.847000  1.0  -0.6907
  N  N194  1  0.346000  0.796400  0.121000  1.0  -0.7001
  N  N195  1  0.146400  0.800700  0.359000  1.0  -0.6934
  N  N196  1  0.097000  0.947500  0.617000  1.0  -0.6996
  N  N197  1  0.892000  0.453900  0.847000  1.0  -0.6907
  N  N198  1  0.846000  0.296400  0.121000  1.0  -0.7001
  N  N199  1  0.646400  0.300700  0.359000  1.0  -0.6934
  N  N200  1  0.597000  0.447500  0.617000  1.0  -0.6996
  N  N201  1  0.608000  0.953900  0.653000  1.0  -0.6904
  N  N202  1  0.654000  0.796400  0.379000  1.0  -0.7012
  N  N203  1  0.853600  0.800700  0.141000  1.0  -0.6908
  N  N204  1  0.903000  0.947500  0.883000  1.0  -0.6995
  N  N205  1  0.108000  0.453900  0.653000  1.0  -0.6904
  N  N206  1  0.154000  0.296400  0.379000  1.0  -0.7012
  N  N207  1  0.353600  0.300700  0.141000  1.0  -0.6908
  N  N208  1  0.403000  0.447500  0.883000  1.0  -0.6995
