# generated using pymatgen
data_AgH8(CN)2
_symmetry_space_group_name_H-M   'P 1'
_cell_length_a   20.11700000
_cell_length_b   19.56500000
_cell_length_c   5.96100000
_cell_angle_alpha   90.00000000
_cell_angle_beta   114.04000000
_cell_angle_gamma   90.00000000
_symmetry_Int_Tables_number   1
_chemical_formula_structural   AgH8(CN)2
_chemical_formula_sum   'Ag16 H128 C32 N32'
_cell_volume   2142.67959940
_cell_formula_units_Z   16
loop_
 _symmetry_equiv_pos_site_id
 _symmetry_equiv_pos_as_xyz
  1  'x, y, z'
loop_
 _atom_site_type_symbol
 _atom_site_label
 _atom_site_symmetry_multiplicity
 _atom_site_fract_x
 _atom_site_fract_y
 _atom_site_fract_z
 _atom_site_occupancy
 _atom_site_charge
  Ag  Ag1  1  0.500000  0.000000  0.000000  1.0  0.6078
  Ag  Ag2  1  0.000000  0.500000  0.000000  1.0  0.6078
  Ag  Ag3  1  0.500000  0.000000  0.500000  1.0  0.6092
  Ag  Ag4  1  0.000000  0.500000  0.500000  1.0  0.6092
  Ag  Ag5  1  0.750000  0.250000  0.000000  1.0  0.3661
  Ag  Ag6  1  0.250000  0.250000  0.500000  1.0  0.3661
  Ag  Ag7  1  0.250000  0.750000  0.000000  1.0  0.3661
  Ag  Ag8  1  0.750000  0.750000  0.500000  1.0  0.3661
  Ag  Ag9  1  0.750000  0.250000  0.500000  1.0  0.3514
  Ag  Ag10  1  0.250000  0.250000  0.000000  1.0  0.3514
  Ag  Ag11  1  0.250000  0.750000  0.500000  1.0  0.3514
  Ag  Ag12  1  0.750000  0.750000  0.000000  1.0  0.3514
  Ag  Ag13  1  0.000000  0.000000  0.500000  1.0  0.203
  Ag  Ag14  1  0.500000  0.500000  0.500000  1.0  0.203
  Ag  Ag15  1  0.000000  0.000000  0.000000  1.0  0.2057
  Ag  Ag16  1  0.500000  0.500000  0.000000  1.0  0.2057
  H  H17  1  0.585900  0.072400  0.258000  1.0  0.1905
  H  H18  1  0.620900  0.025700  0.149200  1.0  0.1899
  H  H19  1  0.611300  0.234200  0.861900  1.0  0.2799
  H  H20  1  0.632700  0.188400  0.709400  1.0  0.2772
  H  H21  1  0.875600  0.219500  0.624800  1.0  0.1919
  H  H22  1  0.844700  0.173800  0.750200  1.0  0.2091
  H  H23  1  0.881700  0.060100  0.216100  1.0  0.2365
  H  H24  1  0.863100  0.017500  0.383600  1.0  0.2107
  H  H25  1  0.538200  0.134900  0.912500  1.0  0.0329
  H  H26  1  0.571300  0.083100  0.784800  1.0  0.0533
  H  H27  1  0.658200  0.163400  0.191500  1.0  0.0201
  H  H28  1  0.688300  0.115900  0.042300  1.0  0.0283
  H  H29  1  0.819100  0.159100  0.264200  1.0  0.0622
  H  H30  1  0.791600  0.107500  0.412600  1.0  0.0338
  H  H31  1  0.940700  0.138600  0.530400  1.0  0.0296
  H  H32  1  0.916200  0.093500  0.703300  1.0  0.0306
  H  H33  1  0.085900  0.572400  0.258000  1.0  0.1905
  H  H34  1  0.120900  0.525700  0.149200  1.0  0.1899
  H  H35  1  0.111300  0.734200  0.861900  1.0  0.2799
  H  H36  1  0.132700  0.688400  0.709400  1.0  0.2772
  H  H37  1  0.375600  0.719500  0.624800  1.0  0.1919
  H  H38  1  0.344700  0.673800  0.750200  1.0  0.2091
  H  H39  1  0.381700  0.560100  0.216100  1.0  0.2365
  H  H40  1  0.363100  0.517500  0.383600  1.0  0.2107
  H  H41  1  0.038200  0.634900  0.912500  1.0  0.0329
  H  H42  1  0.071300  0.583100  0.784800  1.0  0.0533
  H  H43  1  0.158200  0.663400  0.191500  1.0  0.0201
  H  H44  1  0.188300  0.615900  0.042300  1.0  0.0283
  H  H45  1  0.319100  0.659100  0.264200  1.0  0.0622
  H  H46  1  0.291600  0.607500  0.412600  1.0  0.0338
  H  H47  1  0.440700  0.638600  0.530400  1.0  0.0296
  H  H48  1  0.416200  0.593500  0.703300  1.0  0.0306
  H  H49  1  0.414100  0.072400  0.242000  1.0  0.1922
  H  H50  1  0.379100  0.025700  0.350800  1.0  0.1884
  H  H51  1  0.388700  0.234200  0.638100  1.0  0.2796
  H  H52  1  0.367300  0.188400  0.790600  1.0  0.2773
  H  H53  1  0.124400  0.219500  0.875200  1.0  0.1903
  H  H54  1  0.155300  0.173800  0.749800  1.0  0.2084
  H  H55  1  0.118300  0.060100  0.283900  1.0  0.2364
  H  H56  1  0.136900  0.017500  0.116400  1.0  0.2113
  H  H57  1  0.461800  0.134900  0.587500  1.0  0.0335
  H  H58  1  0.428700  0.083100  0.715200  1.0  0.0525
  H  H59  1  0.341800  0.163400  0.308500  1.0  0.0205
  H  H60  1  0.311700  0.115900  0.457700  1.0  0.0284
  H  H61  1  0.180900  0.159100  0.235800  1.0  0.0601
  H  H62  1  0.208400  0.107500  0.087400  1.0  0.033
  H  H63  1  0.059300  0.138600  0.969600  1.0  0.0281
  H  H64  1  0.083800  0.093500  0.796700  1.0  0.0329
  H  H65  1  0.914100  0.572400  0.242000  1.0  0.1922
  H  H66  1  0.879100  0.525700  0.350800  1.0  0.1884
  H  H67  1  0.888700  0.734200  0.638100  1.0  0.2796
  H  H68  1  0.867300  0.688400  0.790600  1.0  0.2773
  H  H69  1  0.624400  0.719500  0.875200  1.0  0.1903
  H  H70  1  0.655300  0.673800  0.749800  1.0  0.2084
  H  H71  1  0.618300  0.560100  0.283900  1.0  0.2364
  H  H72  1  0.636900  0.517500  0.116400  1.0  0.2113
  H  H73  1  0.961800  0.634900  0.587500  1.0  0.0335
  H  H74  1  0.928700  0.583100  0.715200  1.0  0.0525
  H  H75  1  0.841800  0.663400  0.308500  1.0  0.0205
  H  H76  1  0.811700  0.615900  0.457700  1.0  0.0284
  H  H77  1  0.680900  0.659100  0.235800  1.0  0.0601
  H  H78  1  0.708400  0.607500  0.087400  1.0  0.033
  H  H79  1  0.559300  0.638600  0.969600  1.0  0.0281
  H  H80  1  0.583800  0.593500  0.796700  1.0  0.0329
  H  H81  1  0.414100  0.927600  0.742000  1.0  0.192
  H  H82  1  0.379100  0.974300  0.850800  1.0  0.1883
  H  H83  1  0.388700  0.765800  0.138100  1.0  0.2786
  H  H84  1  0.367300  0.811600  0.290600  1.0  0.277
  H  H85  1  0.124400  0.780500  0.375200  1.0  0.1905
  H  H86  1  0.155300  0.826200  0.249800  1.0  0.2089
  H  H87  1  0.118300  0.939900  0.783900  1.0  0.236
  H  H88  1  0.136900  0.982500  0.616400  1.0  0.2096
  H  H89  1  0.461800  0.865100  0.087500  1.0  0.0332
  H  H90  1  0.428700  0.916900  0.215200  1.0  0.0527
  H  H91  1  0.341800  0.836600  0.808500  1.0  0.02
  H  H92  1  0.311700  0.884100  0.957700  1.0  0.0281
  H  H93  1  0.180900  0.840900  0.735800  1.0  0.0594
  H  H94  1  0.208400  0.892500  0.587400  1.0  0.0333
  H  H95  1  0.059300  0.861400  0.469600  1.0  0.0293
  H  H96  1  0.083800  0.906500  0.296700  1.0  0.033
  H  H97  1  0.914100  0.427600  0.742000  1.0  0.192
  H  H98  1  0.879100  0.474300  0.850800  1.0  0.1883
  H  H99  1  0.888700  0.265800  0.138100  1.0  0.2786
  H  H100  1  0.867300  0.311600  0.290600  1.0  0.277
  H  H101  1  0.624400  0.280500  0.375200  1.0  0.1905
  H  H102  1  0.655300  0.326200  0.249800  1.0  0.2089
  H  H103  1  0.618300  0.439900  0.783900  1.0  0.236
  H  H104  1  0.636900  0.482500  0.616400  1.0  0.2096
  H  H105  1  0.961800  0.365100  0.087500  1.0  0.0332
  H  H106  1  0.928700  0.416900  0.215200  1.0  0.0527
  H  H107  1  0.841800  0.336600  0.808500  1.0  0.02
  H  H108  1  0.811700  0.384100  0.957700  1.0  0.0281
  H  H109  1  0.680900  0.340900  0.735800  1.0  0.0594
  H  H110  1  0.708400  0.392500  0.587400  1.0  0.0333
  H  H111  1  0.559300  0.361400  0.469600  1.0  0.0293
  H  H112  1  0.583800  0.406500  0.296700  1.0  0.033
  H  H113  1  0.585900  0.927600  0.758000  1.0  0.1915
  H  H114  1  0.620900  0.974300  0.649200  1.0  0.1887
  H  H115  1  0.611300  0.765800  0.361900  1.0  0.2784
  H  H116  1  0.632700  0.811600  0.209400  1.0  0.2771
  H  H117  1  0.875600  0.780500  0.124800  1.0  0.1925
  H  H118  1  0.844700  0.826200  0.250200  1.0  0.2093
  H  H119  1  0.881700  0.939900  0.716100  1.0  0.2364
  H  H120  1  0.863100  0.982500  0.883600  1.0  0.2094
  H  H121  1  0.538200  0.865100  0.412500  1.0  0.0327
  H  H122  1  0.571300  0.916900  0.284800  1.0  0.0533
  H  H123  1  0.658200  0.836600  0.691500  1.0  0.0202
  H  H124  1  0.688300  0.884100  0.542300  1.0  0.029
  H  H125  1  0.819100  0.840900  0.764200  1.0  0.0618
  H  H126  1  0.791600  0.892500  0.912600  1.0  0.0327
  H  H127  1  0.940700  0.861400  0.030400  1.0  0.0294
  H  H128  1  0.916200  0.906500  0.203300  1.0  0.0309
  H  H129  1  0.085900  0.427600  0.758000  1.0  0.1915
  H  H130  1  0.120900  0.474300  0.649200  1.0  0.1887
  H  H131  1  0.111300  0.265800  0.361900  1.0  0.2784
  H  H132  1  0.132700  0.311600  0.209400  1.0  0.2771
  H  H133  1  0.375600  0.280500  0.124800  1.0  0.1925
  H  H134  1  0.344700  0.326200  0.250200  1.0  0.2093
  H  H135  1  0.381700  0.439900  0.716100  1.0  0.2364
  H  H136  1  0.363100  0.482500  0.883600  1.0  0.2094
  H  H137  1  0.038200  0.365100  0.412500  1.0  0.0327
  H  H138  1  0.071300  0.416900  0.284800  1.0  0.0533
  H  H139  1  0.158200  0.336600  0.691500  1.0  0.0202
  H  H140  1  0.188300  0.384100  0.542300  1.0  0.029
  H  H141  1  0.319100  0.340900  0.764200  1.0  0.0618
  H  H142  1  0.291600  0.392500  0.912600  1.0  0.0327
  H  H143  1  0.440700  0.361400  0.030400  1.0  0.0294
  H  H144  1  0.416200  0.406500  0.203300  1.0  0.0309
  C  C145  1  0.578900  0.104600  0.940000  1.0  -0.0481
  C  C146  1  0.648300  0.145700  0.029000  1.0  -0.028
  C  C147  1  0.829400  0.139900  0.425000  1.0  -0.0447
  C  C148  1  0.903800  0.107400  0.535000  1.0  -0.0369
  C  C149  1  0.078900  0.604600  0.940000  1.0  -0.0481
  C  C150  1  0.148300  0.645700  0.029000  1.0  -0.028
  C  C151  1  0.329400  0.639900  0.425000  1.0  -0.0447
  C  C152  1  0.403800  0.607400  0.535000  1.0  -0.0369
  C  C153  1  0.421100  0.104600  0.560000  1.0  -0.0482
  C  C154  1  0.351700  0.145700  0.471000  1.0  -0.0285
  C  C155  1  0.170600  0.139900  0.075000  1.0  -0.0443
  C  C156  1  0.096200  0.107400  0.965000  1.0  -0.0359
  C  C157  1  0.921100  0.604600  0.560000  1.0  -0.0482
  C  C158  1  0.851700  0.645700  0.471000  1.0  -0.0285
  C  C159  1  0.670600  0.639900  0.075000  1.0  -0.0443
  C  C160  1  0.596200  0.607400  0.965000  1.0  -0.0359
  C  C161  1  0.421100  0.895400  0.060000  1.0  -0.0481
  C  C162  1  0.351700  0.854300  0.971000  1.0  -0.0279
  C  C163  1  0.170600  0.860100  0.575000  1.0  -0.0447
  C  C164  1  0.096200  0.892600  0.465000  1.0  -0.0363
  C  C165  1  0.921100  0.395400  0.060000  1.0  -0.0481
  C  C166  1  0.851700  0.354300  0.971000  1.0  -0.0279
  C  C167  1  0.670600  0.360100  0.575000  1.0  -0.0447
  C  C168  1  0.596200  0.392600  0.465000  1.0  -0.0363
  C  C169  1  0.578900  0.895400  0.440000  1.0  -0.0479
  C  C170  1  0.648300  0.854300  0.529000  1.0  -0.0279
  C  C171  1  0.829400  0.860100  0.925000  1.0  -0.0448
  C  C172  1  0.903800  0.892600  0.035000  1.0  -0.0372
  C  C173  1  0.078900  0.395400  0.440000  1.0  -0.0479
  C  C174  1  0.148300  0.354300  0.529000  1.0  -0.0279
  C  C175  1  0.329400  0.360100  0.925000  1.0  -0.0448
  C  C176  1  0.403800  0.392600  0.035000  1.0  -0.0372
  N  N177  1  0.581600  0.052400  0.117000  1.0  -0.6311
  N  N178  1  0.644900  0.203600  0.864000  1.0  -0.7151
  N  N179  1  0.836800  0.193200  0.605000  1.0  -0.6602
  N  N180  1  0.896200  0.046900  0.374000  1.0  -0.6747
  N  N181  1  0.081600  0.552400  0.117000  1.0  -0.6311
  N  N182  1  0.144900  0.703600  0.864000  1.0  -0.7151
  N  N183  1  0.336800  0.693200  0.605000  1.0  -0.6602
  N  N184  1  0.396200  0.546900  0.374000  1.0  -0.6747
  N  N185  1  0.418400  0.052400  0.383000  1.0  -0.6315
  N  N186  1  0.355100  0.203600  0.636000  1.0  -0.7135
  N  N187  1  0.163200  0.193200  0.895000  1.0  -0.6615
  N  N188  1  0.103800  0.046900  0.126000  1.0  -0.6738
  N  N189  1  0.918400  0.552400  0.383000  1.0  -0.6315
  N  N190  1  0.855100  0.703600  0.636000  1.0  -0.7135
  N  N191  1  0.663200  0.693200  0.895000  1.0  -0.6615
  N  N192  1  0.603800  0.546900  0.126000  1.0  -0.6738
  N  N193  1  0.418400  0.947600  0.883000  1.0  -0.6307
  N  N194  1  0.355100  0.796400  0.136000  1.0  -0.7132
  N  N195  1  0.163200  0.806800  0.395000  1.0  -0.6637
  N  N196  1  0.103800  0.953100  0.626000  1.0  -0.6731
  N  N197  1  0.918400  0.447600  0.883000  1.0  -0.6307
  N  N198  1  0.855100  0.296400  0.136000  1.0  -0.7132
  N  N199  1  0.663200  0.306800  0.395000  1.0  -0.6637
  N  N200  1  0.603800  0.453100  0.626000  1.0  -0.6731
  N  N201  1  0.581600  0.947600  0.617000  1.0  -0.63
  N  N202  1  0.644900  0.796400  0.364000  1.0  -0.716
  N  N203  1  0.836800  0.806800  0.105000  1.0  -0.6616
  N  N204  1  0.896200  0.953100  0.874000  1.0  -0.6745
  N  N205  1  0.081600  0.447600  0.617000  1.0  -0.63
  N  N206  1  0.144900  0.296400  0.364000  1.0  -0.716
  N  N207  1  0.336800  0.306800  0.105000  1.0  -0.6616
  N  N208  1  0.396200  0.453100  0.874000  1.0  -0.6745
