# generated using pymatgen
data_AgH8(CN)2
_symmetry_space_group_name_H-M   'P 1'
_cell_length_a   20.18300000
_cell_length_b   19.60700000
_cell_length_c   5.97780000
_cell_angle_alpha   90.00000000
_cell_angle_beta   113.92000000
_cell_angle_gamma   90.00000000
_symmetry_Int_Tables_number   1
_chemical_formula_structural   AgH8(CN)2
_chemical_formula_sum   'Ag16 H128 C32 N32'
_cell_volume   2162.40923399
_cell_formula_units_Z   16
loop_
 _symmetry_equiv_pos_site_id
 _symmetry_equiv_pos_as_xyz
  1  'x, y, z'
loop_
 _atom_site_type_symbol
 _atom_site_label
 _atom_site_symmetry_multiplicity
 _atom_site_fract_x
 _atom_site_fract_y
 _atom_site_fract_z
 _atom_site_occupancy
 _atom_site_charge
  Ag  Ag1  1  0.500000  0.000000  0.000000  1.0  0.3088
  Ag  Ag2  1  0.000000  0.500000  0.000000  1.0  0.3088
  Ag  Ag3  1  0.500000  0.000000  0.500000  1.0  0.3088
  Ag  Ag4  1  0.000000  0.500000  0.500000  1.0  0.3088
  Ag  Ag5  1  0.750000  0.250000  0.000000  1.0  0.2776
  Ag  Ag6  1  0.250000  0.250000  0.500000  1.0  0.2776
  Ag  Ag7  1  0.250000  0.750000  0.000000  1.0  0.2776
  Ag  Ag8  1  0.750000  0.750000  0.500000  1.0  0.2776
  Ag  Ag9  1  0.750000  0.250000  0.500000  1.0  0.2895
  Ag  Ag10  1  0.250000  0.250000  0.000000  1.0  0.2895
  Ag  Ag11  1  0.250000  0.750000  0.500000  1.0  0.2895
  Ag  Ag12  1  0.750000  0.750000  0.000000  1.0  0.2895
  Ag  Ag13  1  0.000000  0.000000  0.500000  1.0  0.2816
  Ag  Ag14  1  0.500000  0.500000  0.500000  1.0  0.2816
  Ag  Ag15  1  0.000000  0.000000  0.000000  1.0  0.2816
  Ag  Ag16  1  0.500000  0.500000  0.000000  1.0  0.2816
  H  H17  1  0.598900  0.073200  0.285000  1.0  0.2765
  H  H18  1  0.631600  0.027200  0.165400  1.0  0.259
  H  H19  1  0.612300  0.239100  0.882800  1.0  0.2658
  H  H20  1  0.628700  0.195300  0.713100  1.0  0.29
  H  H21  1  0.879700  0.220400  0.617300  1.0  0.2077
  H  H22  1  0.852700  0.175800  0.756800  1.0  0.1992
  H  H23  1  0.886900  0.062400  0.218000  1.0  0.2357
  H  H24  1  0.865200  0.017900  0.372800  1.0  0.2173
  H  H25  1  0.544100  0.134900  0.937700  1.0  0.0241
  H  H26  1  0.576200  0.084500  0.803200  1.0  0.0361
  H  H27  1  0.665300  0.166000  0.199500  1.0  0.0294
  H  H28  1  0.692400  0.121500  0.035800  1.0  0.0234
  H  H29  1  0.822700  0.156600  0.271000  1.0  0.0459
  H  H30  1  0.795400  0.107600  0.426300  1.0  0.0389
  H  H31  1  0.944600  0.136400  0.544300  1.0  0.0288
  H  H32  1  0.918100  0.089100  0.705800  1.0  0.0346
  H  H33  1  0.098900  0.573200  0.285000  1.0  0.2765
  H  H34  1  0.131600  0.527200  0.165400  1.0  0.259
  H  H35  1  0.112300  0.739100  0.882800  1.0  0.2658
  H  H36  1  0.128700  0.695300  0.713100  1.0  0.29
  H  H37  1  0.379700  0.720400  0.617300  1.0  0.2077
  H  H38  1  0.352700  0.675800  0.756800  1.0  0.1992
  H  H39  1  0.386900  0.562400  0.218000  1.0  0.2357
  H  H40  1  0.365200  0.517900  0.372800  1.0  0.2173
  H  H41  1  0.044100  0.634900  0.937700  1.0  0.0241
  H  H42  1  0.076200  0.584500  0.803200  1.0  0.0361
  H  H43  1  0.165300  0.666000  0.199500  1.0  0.0294
  H  H44  1  0.192400  0.621500  0.035800  1.0  0.0234
  H  H45  1  0.322700  0.656600  0.271000  1.0  0.0459
  H  H46  1  0.295400  0.607600  0.426300  1.0  0.0389
  H  H47  1  0.444600  0.636400  0.544300  1.0  0.0288
  H  H48  1  0.418100  0.589100  0.705800  1.0  0.0346
  H  H49  1  0.401100  0.073200  0.215000  1.0  0.2765
  H  H50  1  0.368400  0.027200  0.334600  1.0  0.2607
  H  H51  1  0.387700  0.239100  0.617200  1.0  0.2654
  H  H52  1  0.371300  0.195300  0.786900  1.0  0.2899
  H  H53  1  0.120300  0.220400  0.882700  1.0  0.2067
  H  H54  1  0.147300  0.175800  0.743200  1.0  0.1982
  H  H55  1  0.113100  0.062400  0.282000  1.0  0.2355
  H  H56  1  0.134800  0.017900  0.127200  1.0  0.2174
  H  H57  1  0.455900  0.134900  0.562300  1.0  0.0252
  H  H58  1  0.423800  0.084500  0.696800  1.0  0.0342
  H  H59  1  0.334700  0.166000  0.300500  1.0  0.0315
  H  H60  1  0.307600  0.121500  0.464200  1.0  0.0244
  H  H61  1  0.177300  0.156600  0.229000  1.0  0.043
  H  H62  1  0.204600  0.107600  0.073700  1.0  0.0383
  H  H63  1  0.055400  0.136400  0.955700  1.0  0.0286
  H  H64  1  0.081900  0.089100  0.794200  1.0  0.0372
  H  H65  1  0.901100  0.573200  0.215000  1.0  0.2765
  H  H66  1  0.868400  0.527200  0.334600  1.0  0.2607
  H  H67  1  0.887700  0.739100  0.617200  1.0  0.2654
  H  H68  1  0.871300  0.695300  0.786900  1.0  0.2899
  H  H69  1  0.620300  0.720400  0.882700  1.0  0.2067
  H  H70  1  0.647300  0.675800  0.743200  1.0  0.1982
  H  H71  1  0.613100  0.562400  0.282000  1.0  0.2355
  H  H72  1  0.634800  0.517900  0.127200  1.0  0.2174
  H  H73  1  0.955900  0.634900  0.562300  1.0  0.0252
  H  H74  1  0.923800  0.584500  0.696800  1.0  0.0342
  H  H75  1  0.834700  0.666000  0.300500  1.0  0.0315
  H  H76  1  0.807600  0.621500  0.464200  1.0  0.0244
  H  H77  1  0.677300  0.656600  0.229000  1.0  0.043
  H  H78  1  0.704600  0.607600  0.073700  1.0  0.0383
  H  H79  1  0.555400  0.636400  0.955700  1.0  0.0286
  H  H80  1  0.581900  0.589100  0.794200  1.0  0.0372
  H  H81  1  0.401100  0.926800  0.715000  1.0  0.2765
  H  H82  1  0.368400  0.972800  0.834600  1.0  0.2611
  H  H83  1  0.387700  0.760900  0.117200  1.0  0.2653
  H  H84  1  0.371300  0.804700  0.286900  1.0  0.29
  H  H85  1  0.120300  0.779600  0.382700  1.0  0.2074
  H  H86  1  0.147300  0.824200  0.243200  1.0  0.1987
  H  H87  1  0.113100  0.937600  0.782000  1.0  0.2352
  H  H88  1  0.134800  0.982100  0.627200  1.0  0.2173
  H  H89  1  0.455900  0.865100  0.062300  1.0  0.024
  H  H90  1  0.423800  0.915500  0.196800  1.0  0.0338
  H  H91  1  0.334700  0.834000  0.800500  1.0  0.0315
  H  H92  1  0.307600  0.878500  0.964200  1.0  0.0235
  H  H93  1  0.177300  0.843400  0.729000  1.0  0.043
  H  H94  1  0.204600  0.892400  0.573700  1.0  0.0387
  H  H95  1  0.055400  0.863600  0.455700  1.0  0.0293
  H  H96  1  0.081900  0.910900  0.294200  1.0  0.0371
  H  H97  1  0.901100  0.426800  0.715000  1.0  0.2765
  H  H98  1  0.868400  0.472800  0.834600  1.0  0.2611
  H  H99  1  0.887700  0.260900  0.117200  1.0  0.2653
  H  H100  1  0.871300  0.304700  0.286900  1.0  0.29
  H  H101  1  0.620300  0.279600  0.382700  1.0  0.2074
  H  H102  1  0.647300  0.324200  0.243200  1.0  0.1987
  H  H103  1  0.613100  0.437600  0.782000  1.0  0.2352
  H  H104  1  0.634800  0.482100  0.627200  1.0  0.2173
  H  H105  1  0.955900  0.365100  0.062300  1.0  0.024
  H  H106  1  0.923800  0.415500  0.196800  1.0  0.0338
  H  H107  1  0.834700  0.334000  0.800500  1.0  0.0315
  H  H108  1  0.807600  0.378500  0.964200  1.0  0.0235
  H  H109  1  0.677300  0.343400  0.729000  1.0  0.043
  H  H110  1  0.704600  0.392400  0.573700  1.0  0.0387
  H  H111  1  0.555400  0.363600  0.455700  1.0  0.0293
  H  H112  1  0.581900  0.410900  0.294200  1.0  0.0371
  H  H113  1  0.598900  0.926800  0.785000  1.0  0.2764
  H  H114  1  0.631600  0.972800  0.665400  1.0  0.2599
  H  H115  1  0.612300  0.760900  0.382800  1.0  0.2652
  H  H116  1  0.628700  0.804700  0.213100  1.0  0.2903
  H  H117  1  0.879700  0.779600  0.117300  1.0  0.2091
  H  H118  1  0.852700  0.824200  0.256800  1.0  0.1996
  H  H119  1  0.886900  0.937600  0.718000  1.0  0.236
  H  H120  1  0.865200  0.982100  0.872800  1.0  0.2173
  H  H121  1  0.544100  0.865100  0.437700  1.0  0.0241
  H  H122  1  0.576200  0.915500  0.303200  1.0  0.0366
  H  H123  1  0.665300  0.834000  0.699500  1.0  0.0297
  H  H124  1  0.692400  0.878500  0.535800  1.0  0.024
  H  H125  1  0.822700  0.843400  0.771000  1.0  0.0457
  H  H126  1  0.795400  0.892400  0.926300  1.0  0.038
  H  H127  1  0.944600  0.863600  0.044300  1.0  0.0281
  H  H128  1  0.918100  0.910900  0.205800  1.0  0.0345
  H  H129  1  0.098900  0.426800  0.785000  1.0  0.2764
  H  H130  1  0.131600  0.472800  0.665400  1.0  0.2599
  H  H131  1  0.112300  0.260900  0.382800  1.0  0.2652
  H  H132  1  0.128700  0.304700  0.213100  1.0  0.2903
  H  H133  1  0.379700  0.279600  0.117300  1.0  0.2091
  H  H134  1  0.352700  0.324200  0.256800  1.0  0.1996
  H  H135  1  0.386900  0.437600  0.718000  1.0  0.236
  H  H136  1  0.365200  0.482100  0.872800  1.0  0.2173
  H  H137  1  0.044100  0.365100  0.437700  1.0  0.0241
  H  H138  1  0.076200  0.415500  0.303200  1.0  0.0366
  H  H139  1  0.165300  0.334000  0.699500  1.0  0.0297
  H  H140  1  0.192400  0.378500  0.535800  1.0  0.024
  H  H141  1  0.322700  0.343400  0.771000  1.0  0.0457
  H  H142  1  0.295400  0.392400  0.926300  1.0  0.038
  H  H143  1  0.444600  0.363600  0.044300  1.0  0.0281
  H  H144  1  0.418100  0.410900  0.205800  1.0  0.0345
  C  C145  1  0.585400  0.106200  0.959000  1.0  -0.0125
  C  C146  1  0.652700  0.149500  0.034000  1.0  -0.0122
  C  C147  1  0.833500  0.138900  0.434000  1.0  -0.0247
  C  C148  1  0.906900  0.105200  0.541000  1.0  -0.0273
  C  C149  1  0.085400  0.606200  0.959000  1.0  -0.0125
  C  C150  1  0.152700  0.649500  0.034000  1.0  -0.0122
  C  C151  1  0.333500  0.638900  0.434000  1.0  -0.0247
  C  C152  1  0.406900  0.605200  0.541000  1.0  -0.0273
  C  C153  1  0.414600  0.106200  0.541000  1.0  -0.011
  C  C154  1  0.347300  0.149500  0.466000  1.0  -0.0149
  C  C155  1  0.166500  0.138900  0.066000  1.0  -0.0227
  C  C156  1  0.093100  0.105200  0.959000  1.0  -0.0271
  C  C157  1  0.914600  0.606200  0.541000  1.0  -0.011
  C  C158  1  0.847300  0.649500  0.466000  1.0  -0.0149
  C  C159  1  0.666500  0.638900  0.066000  1.0  -0.0227
  C  C160  1  0.593100  0.605200  0.959000  1.0  -0.0271
  C  C161  1  0.414600  0.893800  0.041000  1.0  -0.0108
  C  C162  1  0.347300  0.850500  0.966000  1.0  -0.0148
  C  C163  1  0.166500  0.861100  0.566000  1.0  -0.023
  C  C164  1  0.093100  0.894800  0.459000  1.0  -0.0273
  C  C165  1  0.914600  0.393800  0.041000  1.0  -0.0108
  C  C166  1  0.847300  0.350500  0.966000  1.0  -0.0148
  C  C167  1  0.666500  0.361100  0.566000  1.0  -0.023
  C  C168  1  0.593100  0.394800  0.459000  1.0  -0.0273
  C  C169  1  0.585400  0.893800  0.459000  1.0  -0.0124
  C  C170  1  0.652700  0.850500  0.534000  1.0  -0.0124
  C  C171  1  0.833500  0.861100  0.934000  1.0  -0.0246
  C  C172  1  0.906900  0.894800  0.041000  1.0  -0.027
  C  C173  1  0.085400  0.393800  0.459000  1.0  -0.0124
  C  C174  1  0.152700  0.350500  0.534000  1.0  -0.0124
  C  C175  1  0.333500  0.361100  0.934000  1.0  -0.0246
  C  C176  1  0.406900  0.394800  0.041000  1.0  -0.027
  N  N177  1  0.593000  0.054100  0.141000  1.0  -0.6886
  N  N178  1  0.643900  0.208700  0.870000  1.0  -0.7069
  N  N179  1  0.842500  0.193500  0.608000  1.0  -0.6561
  N  N180  1  0.899400  0.047200  0.372000  1.0  -0.6627
  N  N181  1  0.093000  0.554100  0.141000  1.0  -0.6886
  N  N182  1  0.143900  0.708700  0.870000  1.0  -0.7069
  N  N183  1  0.342500  0.693500  0.608000  1.0  -0.6561
  N  N184  1  0.399400  0.547200  0.372000  1.0  -0.6627
  N  N185  1  0.407000  0.054100  0.359000  1.0  -0.6907
  N  N186  1  0.356100  0.208700  0.630000  1.0  -0.7058
  N  N187  1  0.157500  0.193500  0.892000  1.0  -0.6563
  N  N188  1  0.100600  0.047200  0.128000  1.0  -0.6625
  N  N189  1  0.907000  0.554100  0.359000  1.0  -0.6907
  N  N190  1  0.856100  0.708700  0.630000  1.0  -0.7058
  N  N191  1  0.657500  0.693500  0.892000  1.0  -0.6563
  N  N192  1  0.600600  0.547200  0.128000  1.0  -0.6625
  N  N193  1  0.407000  0.945900  0.859000  1.0  -0.6908
  N  N194  1  0.356100  0.791300  0.130000  1.0  -0.7054
  N  N195  1  0.157500  0.806500  0.392000  1.0  -0.6579
  N  N196  1  0.100600  0.952800  0.628000  1.0  -0.6627
  N  N197  1  0.907000  0.445900  0.859000  1.0  -0.6908
  N  N198  1  0.856100  0.291300  0.130000  1.0  -0.7054
  N  N199  1  0.657500  0.306500  0.392000  1.0  -0.6579
  N  N200  1  0.600600  0.452800  0.628000  1.0  -0.6627
  N  N201  1  0.593000  0.945900  0.641000  1.0  -0.689
  N  N202  1  0.643900  0.791300  0.370000  1.0  -0.7076
  N  N203  1  0.842500  0.806500  0.108000  1.0  -0.6563
  N  N204  1  0.899400  0.952800  0.872000  1.0  -0.663
  N  N205  1  0.093000  0.445900  0.641000  1.0  -0.689
  N  N206  1  0.143900  0.291300  0.370000  1.0  -0.7076
  N  N207  1  0.342500  0.306500  0.108000  1.0  -0.6563
  N  N208  1  0.399400  0.452800  0.872000  1.0  -0.663
