# generated using pymatgen
data_AgH8(CN)2
_symmetry_space_group_name_H-M   'P 1'
_cell_length_a   10.52100000
_cell_length_b   10.42600000
_cell_length_c   6.20200000
_cell_angle_alpha   90.00000000
_cell_angle_beta   115.00000000
_cell_angle_gamma   90.00000000
_symmetry_Int_Tables_number   1
_chemical_formula_structural   AgH8(CN)2
_chemical_formula_sum   'Ag4 H32 C8 N8'
_cell_volume   616.56975131
_cell_formula_units_Z   4
loop_
 _symmetry_equiv_pos_site_id
 _symmetry_equiv_pos_as_xyz
  1  'x, y, z'
loop_
 _atom_site_type_symbol
 _atom_site_label
 _atom_site_symmetry_multiplicity
 _atom_site_fract_x
 _atom_site_fract_y
 _atom_site_fract_z
 _atom_site_occupancy
 _atom_site_charge
  Ag  Ag1  1  0.500000  0.000000  0.500000  1.0  0.1948
  Ag  Ag2  1  0.000000  0.500000  0.500000  1.0  0.1948
  Ag  Ag3  1  0.500000  0.000000  0.000000  1.0  0.1948
  Ag  Ag4  1  0.000000  0.500000  0.000000  1.0  0.1948
  H  H5  1  0.395400  0.263400  0.574500  1.0  0.0213
  H  H6  1  0.326900  0.171300  0.696100  1.0  0.032
  H  H7  1  0.287100  0.143600  0.233300  1.0  0.2887
  H  H8  1  0.233800  0.055100  0.357300  1.0  0.2728
  H  H9  1  0.895400  0.763400  0.574500  1.0  0.0213
  H  H10  1  0.826900  0.671300  0.696100  1.0  0.032
  H  H11  1  0.787100  0.643600  0.233300  1.0  0.2887
  H  H12  1  0.733800  0.555100  0.357300  1.0  0.2728
  H  H13  1  0.604600  0.263400  0.925500  1.0  0.021
  H  H14  1  0.673100  0.171300  0.803900  1.0  0.0328
  H  H15  1  0.712900  0.143600  0.266700  1.0  0.2885
  H  H16  1  0.766200  0.055100  0.142700  1.0  0.2722
  H  H17  1  0.104600  0.763400  0.925500  1.0  0.021
  H  H18  1  0.173100  0.671300  0.803900  1.0  0.0328
  H  H19  1  0.212900  0.643600  0.266700  1.0  0.2885
  H  H20  1  0.266200  0.555100  0.142700  1.0  0.2722
  H  H21  1  0.604600  0.736600  0.425500  1.0  0.0208
  H  H22  1  0.673100  0.828700  0.303900  1.0  0.0323
  H  H23  1  0.712900  0.856400  0.766700  1.0  0.2887
  H  H24  1  0.766200  0.944900  0.642700  1.0  0.2722
  H  H25  1  0.104600  0.236600  0.425500  1.0  0.0208
  H  H26  1  0.173100  0.328700  0.303900  1.0  0.0323
  H  H27  1  0.212900  0.356400  0.766700  1.0  0.2887
  H  H28  1  0.266200  0.444900  0.642700  1.0  0.2722
  H  H29  1  0.395400  0.736600  0.074500  1.0  0.0205
  H  H30  1  0.326900  0.828700  0.196100  1.0  0.032
  H  H31  1  0.287100  0.856400  0.733300  1.0  0.2889
  H  H32  1  0.233800  0.944900  0.857300  1.0  0.2733
  H  H33  1  0.895400  0.236600  0.074500  1.0  0.0205
  H  H34  1  0.826900  0.328700  0.196100  1.0  0.032
  H  H35  1  0.787100  0.356400  0.733300  1.0  0.2889
  H  H36  1  0.733800  0.444900  0.857300  1.0  0.2733
  C  C37  1  0.314400  0.209800  0.546000  1.0  -0.0094
  C  C38  1  0.814400  0.709800  0.546000  1.0  -0.0094
  C  C39  1  0.685600  0.209800  0.954000  1.0  -0.0104
  C  C40  1  0.185600  0.709800  0.954000  1.0  -0.0104
  C  C41  1  0.685600  0.790200  0.454000  1.0  -0.0072
  C  C42  1  0.185600  0.290200  0.454000  1.0  -0.0072
  C  C43  1  0.314400  0.790200  0.046000  1.0  -0.0057
  C  C44  1  0.814400  0.290200  0.046000  1.0  -0.0057
  N  N45  1  0.305000  0.108300  0.376000  1.0  -0.7043
  N  N46  1  0.805000  0.608300  0.376000  1.0  -0.7043
  N  N47  1  0.695000  0.108300  0.124000  1.0  -0.7042
  N  N48  1  0.195000  0.608300  0.124000  1.0  -0.7042
  N  N49  1  0.695000  0.891700  0.624000  1.0  -0.7032
  N  N50  1  0.195000  0.391700  0.624000  1.0  -0.7032
  N  N51  1  0.305000  0.891700  0.876000  1.0  -0.7031
  N  N52  1  0.805000  0.391700  0.876000  1.0  -0.7031
