# generated using pymatgen
data_AgH8(CN)2
_symmetry_space_group_name_H-M   'P 1'
_cell_length_a   19.20200000
_cell_length_b   21.01200000
_cell_length_c   6.27700000
_cell_angle_alpha   90.00000000
_cell_angle_beta   101.01100000
_cell_angle_gamma   90.00000000
_symmetry_Int_Tables_number   1
_chemical_formula_structural   AgH8(CN)2
_chemical_formula_sum   'Ag16 H128 C32 N32'
_cell_volume   2485.97265464
_cell_formula_units_Z   16
loop_
 _symmetry_equiv_pos_site_id
 _symmetry_equiv_pos_as_xyz
  1  'x, y, z'
loop_
 _atom_site_type_symbol
 _atom_site_label
 _atom_site_symmetry_multiplicity
 _atom_site_fract_x
 _atom_site_fract_y
 _atom_site_fract_z
 _atom_site_occupancy
 _atom_site_charge
  Ag  Ag1  1  0.500000  0.000000  0.000000  1.0  0.1848
  Ag  Ag2  1  0.000000  0.500000  0.000000  1.0  0.1848
  Ag  Ag3  1  0.500000  0.000000  0.500000  1.0  0.1848
  Ag  Ag4  1  0.000000  0.500000  0.500000  1.0  0.1848
  Ag  Ag5  1  0.750000  0.750000  0.500000  1.0  0.173
  Ag  Ag6  1  0.250000  0.750000  0.000000  1.0  0.173
  Ag  Ag7  1  0.250000  0.250000  0.500000  1.0  0.173
  Ag  Ag8  1  0.750000  0.250000  0.000000  1.0  0.173
  Ag  Ag9  1  0.750000  0.750000  0.000000  1.0  0.1585
  Ag  Ag10  1  0.250000  0.750000  0.500000  1.0  0.1585
  Ag  Ag11  1  0.250000  0.250000  0.000000  1.0  0.1585
  Ag  Ag12  1  0.750000  0.250000  0.500000  1.0  0.1585
  Ag  Ag13  1  0.000000  0.000000  0.500000  1.0  0.1525
  Ag  Ag14  1  0.500000  0.500000  0.500000  1.0  0.1525
  Ag  Ag15  1  0.000000  0.000000  0.000000  1.0  0.1525
  Ag  Ag16  1  0.500000  0.500000  0.000000  1.0  0.1525
  H  H17  1  0.602200  0.927400  0.947800  1.0  0.2818
  H  H18  1  0.630900  0.971200  0.122000  1.0  0.2698
  H  H19  1  0.620300  0.779600  0.390100  1.0  0.2754
  H  H20  1  0.651400  0.824300  0.558000  1.0  0.2833
  H  H21  1  0.550300  0.868400  0.179000  1.0  0.0213
  H  H22  1  0.585200  0.914500  0.365900  1.0  0.0325
  H  H23  1  0.662500  0.835400  0.131400  1.0  0.0317
  H  H24  1  0.698400  0.882900  0.311700  1.0  0.0242
  H  H25  1  0.881000  0.779100  0.118500  1.0  0.2805
  H  H26  1  0.851700  0.823000  0.945500  1.0  0.2844
  H  H27  1  0.901100  0.925900  0.560300  1.0  0.2951
  H  H28  1  0.869900  0.970100  0.390900  1.0  0.2683
  H  H29  1  0.835800  0.835700  0.363400  1.0  0.0354
  H  H30  1  0.802100  0.882400  0.177400  1.0  0.0242
  H  H31  1  0.914300  0.913900  0.134500  1.0  0.0309
  H  H32  1  0.948700  0.866400  0.317000  1.0  0.0242
  H  H33  1  0.102200  0.427400  0.947800  1.0  0.2818
  H  H34  1  0.130900  0.471200  0.122000  1.0  0.2698
  H  H35  1  0.120300  0.279600  0.390100  1.0  0.2754
  H  H36  1  0.151400  0.324300  0.558000  1.0  0.2833
  H  H37  1  0.050300  0.368400  0.179000  1.0  0.0213
  H  H38  1  0.085200  0.414500  0.365900  1.0  0.0325
  H  H39  1  0.162500  0.335400  0.131400  1.0  0.0317
  H  H40  1  0.198400  0.382900  0.311700  1.0  0.0242
  H  H41  1  0.381000  0.279100  0.118500  1.0  0.2805
  H  H42  1  0.351700  0.323000  0.945500  1.0  0.2844
  H  H43  1  0.401100  0.425900  0.560300  1.0  0.2951
  H  H44  1  0.369900  0.470100  0.390900  1.0  0.2683
  H  H45  1  0.335800  0.335700  0.363400  1.0  0.0354
  H  H46  1  0.302100  0.382400  0.177400  1.0  0.0242
  H  H47  1  0.414300  0.413900  0.134500  1.0  0.0309
  H  H48  1  0.448700  0.366400  0.317000  1.0  0.0242
  H  H49  1  0.397800  0.927400  0.552200  1.0  0.2825
  H  H50  1  0.369100  0.971200  0.378000  1.0  0.2712
  H  H51  1  0.379700  0.779600  0.109900  1.0  0.2749
  H  H52  1  0.348600  0.824300  0.942000  1.0  0.2815
  H  H53  1  0.449700  0.868400  0.321000  1.0  0.0221
  H  H54  1  0.414800  0.914500  0.134100  1.0  0.0317
  H  H55  1  0.337500  0.835400  0.368600  1.0  0.0321
  H  H56  1  0.301600  0.882900  0.188300  1.0  0.0238
  H  H57  1  0.119000  0.779100  0.381500  1.0  0.2802
  H  H58  1  0.148300  0.823000  0.554500  1.0  0.2859
  H  H59  1  0.098900  0.925900  0.939700  1.0  0.2925
  H  H60  1  0.130100  0.970100  0.109100  1.0  0.2686
  H  H61  1  0.164200  0.835700  0.136600  1.0  0.0356
  H  H62  1  0.197900  0.882400  0.322600  1.0  0.025
  H  H63  1  0.085700  0.913900  0.365500  1.0  0.0308
  H  H64  1  0.051300  0.866400  0.183000  1.0  0.0238
  H  H65  1  0.897800  0.427400  0.552200  1.0  0.2825
  H  H66  1  0.869100  0.471200  0.378000  1.0  0.2712
  H  H67  1  0.879700  0.279600  0.109900  1.0  0.2749
  H  H68  1  0.848600  0.324300  0.942000  1.0  0.2815
  H  H69  1  0.949700  0.368400  0.321000  1.0  0.0221
  H  H70  1  0.914800  0.414500  0.134100  1.0  0.0317
  H  H71  1  0.837500  0.335400  0.368600  1.0  0.0321
  H  H72  1  0.801600  0.382900  0.188300  1.0  0.0238
  H  H73  1  0.619000  0.279100  0.381500  1.0  0.2802
  H  H74  1  0.648300  0.323000  0.554500  1.0  0.2859
  H  H75  1  0.598900  0.425900  0.939700  1.0  0.2925
  H  H76  1  0.630100  0.470100  0.109100  1.0  0.2686
  H  H77  1  0.664200  0.335700  0.136600  1.0  0.0356
  H  H78  1  0.697900  0.382400  0.322600  1.0  0.025
  H  H79  1  0.585700  0.413900  0.365500  1.0  0.0308
  H  H80  1  0.551300  0.366400  0.183000  1.0  0.0238
  H  H81  1  0.397800  0.072600  0.052200  1.0  0.2825
  H  H82  1  0.369100  0.028800  0.878000  1.0  0.2726
  H  H83  1  0.379700  0.220400  0.609900  1.0  0.2758
  H  H84  1  0.348600  0.175700  0.442000  1.0  0.2814
  H  H85  1  0.449700  0.131600  0.821000  1.0  0.0225
  H  H86  1  0.414800  0.085500  0.634100  1.0  0.0319
  H  H87  1  0.337500  0.164600  0.868600  1.0  0.0321
  H  H88  1  0.301600  0.117100  0.688300  1.0  0.0226
  H  H89  1  0.119000  0.220900  0.881500  1.0  0.2808
  H  H90  1  0.148300  0.177000  0.054500  1.0  0.2858
  H  H91  1  0.098900  0.074100  0.439700  1.0  0.2926
  H  H92  1  0.130100  0.029900  0.609100  1.0  0.2675
  H  H93  1  0.164200  0.164300  0.636600  1.0  0.0349
  H  H94  1  0.197900  0.117600  0.822600  1.0  0.0251
  H  H95  1  0.085700  0.086100  0.865500  1.0  0.0308
  H  H96  1  0.051300  0.133600  0.683000  1.0  0.0244
  H  H97  1  0.897800  0.572600  0.052200  1.0  0.2825
  H  H98  1  0.869100  0.528800  0.878000  1.0  0.2726
  H  H99  1  0.879700  0.720400  0.609900  1.0  0.2758
  H  H100  1  0.848600  0.675700  0.442000  1.0  0.2814
  H  H101  1  0.949700  0.631600  0.821000  1.0  0.0225
  H  H102  1  0.914800  0.585500  0.634100  1.0  0.0319
  H  H103  1  0.837500  0.664600  0.868600  1.0  0.0321
  H  H104  1  0.801600  0.617100  0.688300  1.0  0.0226
  H  H105  1  0.619000  0.720900  0.881500  1.0  0.2808
  H  H106  1  0.648300  0.677000  0.054500  1.0  0.2858
  H  H107  1  0.598900  0.574100  0.439700  1.0  0.2926
  H  H108  1  0.630100  0.529900  0.609100  1.0  0.2675
  H  H109  1  0.664200  0.664300  0.636600  1.0  0.0349
  H  H110  1  0.697900  0.617600  0.822600  1.0  0.0251
  H  H111  1  0.585700  0.586100  0.865500  1.0  0.0308
  H  H112  1  0.551300  0.633600  0.683000  1.0  0.0244
  H  H113  1  0.602200  0.072600  0.447800  1.0  0.2813
  H  H114  1  0.630900  0.028800  0.622000  1.0  0.27
  H  H115  1  0.620300  0.220400  0.890100  1.0  0.2755
  H  H116  1  0.651400  0.175700  0.058000  1.0  0.2834
  H  H117  1  0.550300  0.131600  0.679000  1.0  0.0221
  H  H118  1  0.585200  0.085500  0.865900  1.0  0.0321
  H  H119  1  0.662500  0.164600  0.631400  1.0  0.0315
  H  H120  1  0.698400  0.117100  0.811700  1.0  0.0239
  H  H121  1  0.881000  0.220900  0.618500  1.0  0.2807
  H  H122  1  0.851700  0.177000  0.445500  1.0  0.2844
  H  H123  1  0.901100  0.074100  0.060300  1.0  0.2949
  H  H124  1  0.869900  0.029900  0.890900  1.0  0.2683
  H  H125  1  0.835800  0.164300  0.863400  1.0  0.0354
  H  H126  1  0.802100  0.117600  0.677400  1.0  0.024
  H  H127  1  0.914300  0.086100  0.634500  1.0  0.0312
  H  H128  1  0.948700  0.133600  0.817000  1.0  0.0245
  H  H129  1  0.102200  0.572600  0.447800  1.0  0.2813
  H  H130  1  0.130900  0.528800  0.622000  1.0  0.27
  H  H131  1  0.120300  0.720400  0.890100  1.0  0.2755
  H  H132  1  0.151400  0.675700  0.058000  1.0  0.2834
  H  H133  1  0.050300  0.631600  0.679000  1.0  0.0221
  H  H134  1  0.085200  0.585500  0.865900  1.0  0.0321
  H  H135  1  0.162500  0.664600  0.631400  1.0  0.0315
  H  H136  1  0.198400  0.617100  0.811700  1.0  0.0239
  H  H137  1  0.381000  0.720900  0.618500  1.0  0.2807
  H  H138  1  0.351700  0.677000  0.445500  1.0  0.2844
  H  H139  1  0.401100  0.574100  0.060300  1.0  0.2949
  H  H140  1  0.369900  0.529900  0.890900  1.0  0.2683
  H  H141  1  0.335800  0.664300  0.863400  1.0  0.0354
  H  H142  1  0.302100  0.617600  0.677400  1.0  0.024
  H  H143  1  0.414300  0.586100  0.634500  1.0  0.0312
  H  H144  1  0.448700  0.633600  0.817000  1.0  0.0245
  C  C145  1  0.591100  0.895400  0.229800  1.0  -0.0135
  C  C146  1  0.657600  0.855500  0.267000  1.0  -0.0142
  C  C147  1  0.842400  0.854900  0.228100  1.0  -0.0039
  C  C148  1  0.908200  0.894000  0.269300  1.0  -0.0112
  C  C149  1  0.091100  0.395400  0.229800  1.0  -0.0135
  C  C150  1  0.157600  0.355500  0.267000  1.0  -0.0142
  C  C151  1  0.342400  0.354900  0.228100  1.0  -0.0039
  C  C152  1  0.408200  0.394000  0.269300  1.0  -0.0112
  C  C153  1  0.408900  0.895400  0.270200  1.0  -0.0118
  C  C154  1  0.342400  0.855500  0.233000  1.0  -0.0154
  C  C155  1  0.157600  0.854900  0.271900  1.0  -0.0021
  C  C156  1  0.091800  0.894000  0.230700  1.0  -0.0132
  C  C157  1  0.908900  0.395400  0.270200  1.0  -0.0118
  C  C158  1  0.842400  0.355500  0.233000  1.0  -0.0154
  C  C159  1  0.657600  0.354900  0.271900  1.0  -0.0021
  C  C160  1  0.591800  0.394000  0.230700  1.0  -0.0132
  C  C161  1  0.408900  0.104600  0.770200  1.0  -0.0119
  C  C162  1  0.342400  0.144500  0.733000  1.0  -0.016
  C  C163  1  0.157600  0.145100  0.771900  1.0  -0.0019
  C  C164  1  0.091800  0.106000  0.730700  1.0  -0.0127
  C  C165  1  0.908900  0.604600  0.770200  1.0  -0.0119
  C  C166  1  0.842400  0.644500  0.733000  1.0  -0.016
  C  C167  1  0.657600  0.645100  0.771900  1.0  -0.0019
  C  C168  1  0.591800  0.606000  0.730700  1.0  -0.0127
  C  C169  1  0.591100  0.104600  0.729800  1.0  -0.0135
  C  C170  1  0.657600  0.144500  0.767000  1.0  -0.0145
  C  C171  1  0.842400  0.145100  0.728100  1.0  -0.0039
  C  C172  1  0.908200  0.106000  0.769300  1.0  -0.011
  C  C173  1  0.091100  0.604600  0.729800  1.0  -0.0135
  C  C174  1  0.157600  0.644500  0.767000  1.0  -0.0145
  C  C175  1  0.342400  0.645100  0.728100  1.0  -0.0039
  C  C176  1  0.408200  0.606000  0.769300  1.0  -0.011
  N  N177  1  0.594200  0.945300  0.071200  1.0  -0.691
  N  N178  1  0.657600  0.805500  0.434100  1.0  -0.6901
  N  N179  1  0.844100  0.805100  0.069400  1.0  -0.6717
  N  N180  1  0.907300  0.944400  0.436000  1.0  -0.7024
  N  N181  1  0.094200  0.445300  0.071200  1.0  -0.691
  N  N182  1  0.157600  0.305500  0.434100  1.0  -0.6901
  N  N183  1  0.344100  0.305100  0.069400  1.0  -0.6717
  N  N184  1  0.407300  0.444400  0.436000  1.0  -0.7024
  N  N185  1  0.405800  0.945300  0.428800  1.0  -0.6955
  N  N186  1  0.342400  0.805500  0.065900  1.0  -0.6848
  N  N187  1  0.155900  0.805100  0.430600  1.0  -0.6756
  N  N188  1  0.092700  0.944400  0.064000  1.0  -0.6974
  N  N189  1  0.905800  0.445300  0.428800  1.0  -0.6955
  N  N190  1  0.842400  0.305500  0.065900  1.0  -0.6848
  N  N191  1  0.655900  0.305100  0.430600  1.0  -0.6756
  N  N192  1  0.592700  0.444400  0.064000  1.0  -0.6974
  N  N193  1  0.405800  0.054700  0.928800  1.0  -0.6959
  N  N194  1  0.342400  0.194500  0.565900  1.0  -0.6837
  N  N195  1  0.155900  0.194900  0.930600  1.0  -0.6758
  N  N196  1  0.092700  0.055600  0.564000  1.0  -0.6979
  N  N197  1  0.905800  0.554700  0.928800  1.0  -0.6959
  N  N198  1  0.842400  0.694500  0.565900  1.0  -0.6837
  N  N199  1  0.655900  0.694900  0.930600  1.0  -0.6758
  N  N200  1  0.592700  0.555600  0.564000  1.0  -0.6979
  N  N201  1  0.594200  0.054700  0.571200  1.0  -0.6928
  N  N202  1  0.657600  0.194500  0.934100  1.0  -0.6903
  N  N203  1  0.844100  0.194900  0.569400  1.0  -0.6707
  N  N204  1  0.907300  0.055600  0.936000  1.0  -0.7027
  N  N205  1  0.094200  0.554700  0.571200  1.0  -0.6928
  N  N206  1  0.157600  0.694500  0.934100  1.0  -0.6903
  N  N207  1  0.344100  0.694900  0.569400  1.0  -0.6707
  N  N208  1  0.407300  0.555600  0.936000  1.0  -0.7027
