# generated using pymatgen
data_AgH8(CN)2
_symmetry_space_group_name_H-M   'P 1'
_cell_length_a   20.86200000
_cell_length_b   19.68200000
_cell_length_c   6.08900000
_cell_angle_alpha   90.00000000
_cell_angle_beta   114.27100000
_cell_angle_gamma   90.00000000
_symmetry_Int_Tables_number   1
_chemical_formula_structural   AgH8(CN)2
_chemical_formula_sum   'Ag16 H128 C32 N32'
_cell_volume   2279.19200104
_cell_formula_units_Z   16
loop_
 _symmetry_equiv_pos_site_id
 _symmetry_equiv_pos_as_xyz
  1  'x, y, z'
loop_
 _atom_site_type_symbol
 _atom_site_label
 _atom_site_symmetry_multiplicity
 _atom_site_fract_x
 _atom_site_fract_y
 _atom_site_fract_z
 _atom_site_occupancy
 _atom_site_charge
  Ag  Ag1  1  0.500000  0.000000  0.000000  1.0  0.3082
  Ag  Ag2  1  0.000000  0.500000  0.000000  1.0  0.3082
  Ag  Ag3  1  0.500000  0.000000  0.500000  1.0  0.3082
  Ag  Ag4  1  0.000000  0.500000  0.500000  1.0  0.3082
  Ag  Ag5  1  0.750000  0.250000  0.000000  1.0  0.2347
  Ag  Ag6  1  0.250000  0.250000  0.500000  1.0  0.2347
  Ag  Ag7  1  0.250000  0.750000  0.000000  1.0  0.2347
  Ag  Ag8  1  0.750000  0.750000  0.500000  1.0  0.2347
  Ag  Ag9  1  0.750000  0.250000  0.500000  1.0  0.3093
  Ag  Ag10  1  0.250000  0.250000  0.000000  1.0  0.3093
  Ag  Ag11  1  0.250000  0.750000  0.500000  1.0  0.3093
  Ag  Ag12  1  0.750000  0.750000  0.000000  1.0  0.3093
  Ag  Ag13  1  0.000000  0.000000  0.500000  1.0  0.3134
  Ag  Ag14  1  0.500000  0.500000  0.500000  1.0  0.3134
  Ag  Ag15  1  0.000000  0.000000  0.000000  1.0  0.3145
  Ag  Ag16  1  0.500000  0.500000  0.000000  1.0  0.3145
  H  H17  1  0.626300  0.061500  0.294000  1.0  0.275
  H  H18  1  0.643200  0.017600  0.129600  1.0  0.2737
  H  H19  1  0.616700  0.229800  0.855000  1.0  0.2569
  H  H20  1  0.639900  0.187500  0.702400  1.0  0.2767
  H  H21  1  0.888500  0.226300  0.641400  1.0  0.2452
  H  H22  1  0.865500  0.179800  0.782300  1.0  0.2503
  H  H23  1  0.904800  0.078600  0.240700  1.0  0.2714
  H  H24  1  0.872800  0.030900  0.348900  1.0  0.2317
  H  H25  1  0.562100  0.132200  0.984900  1.0  0.0257
  H  H26  1  0.580700  0.085600  0.810300  1.0  0.0288
  H  H27  1  0.680900  0.162000  0.187700  1.0  0.0244
  H  H28  1  0.699700  0.115200  0.014500  1.0  0.0286
  H  H29  1  0.834700  0.162700  0.300700  1.0  0.031
  H  H30  1  0.807300  0.113200  0.448100  1.0  0.0368
  H  H31  1  0.953000  0.141400  0.587600  1.0  0.0164
  H  H32  1  0.923500  0.087900  0.716300  1.0  0.0292
  H  H33  1  0.126300  0.561500  0.294000  1.0  0.275
  H  H34  1  0.143200  0.517600  0.129600  1.0  0.2737
  H  H35  1  0.116700  0.729800  0.855000  1.0  0.2569
  H  H36  1  0.139900  0.687500  0.702400  1.0  0.2767
  H  H37  1  0.388500  0.726300  0.641400  1.0  0.2452
  H  H38  1  0.365500  0.679800  0.782300  1.0  0.2503
  H  H39  1  0.404800  0.578600  0.240700  1.0  0.2714
  H  H40  1  0.372800  0.530900  0.348900  1.0  0.2317
  H  H41  1  0.062100  0.632200  0.984900  1.0  0.0257
  H  H42  1  0.080700  0.585600  0.810300  1.0  0.0288
  H  H43  1  0.180900  0.662000  0.187700  1.0  0.0244
  H  H44  1  0.199700  0.615200  0.014500  1.0  0.0286
  H  H45  1  0.334700  0.662700  0.300700  1.0  0.031
  H  H46  1  0.307300  0.613200  0.448100  1.0  0.0368
  H  H47  1  0.453000  0.641400  0.587600  1.0  0.0164
  H  H48  1  0.423500  0.587900  0.716300  1.0  0.0292
  H  H49  1  0.373700  0.061500  0.206000  1.0  0.2722
  H  H50  1  0.356800  0.017600  0.370400  1.0  0.2735
  H  H51  1  0.383300  0.229800  0.645000  1.0  0.2573
  H  H52  1  0.360100  0.187500  0.797600  1.0  0.276
  H  H53  1  0.111500  0.226300  0.858600  1.0  0.2454
  H  H54  1  0.134500  0.179800  0.717700  1.0  0.2491
  H  H55  1  0.095200  0.078600  0.259300  1.0  0.2699
  H  H56  1  0.127200  0.030900  0.151100  1.0  0.2338
  H  H57  1  0.437900  0.132200  0.515100  1.0  0.0275
  H  H58  1  0.419300  0.085600  0.689700  1.0  0.0276
  H  H59  1  0.319100  0.162000  0.312300  1.0  0.0272
  H  H60  1  0.300300  0.115200  0.485500  1.0  0.0286
  H  H61  1  0.165300  0.162700  0.199300  1.0  0.0311
  H  H62  1  0.192700  0.113200  0.051900  1.0  0.0341
  H  H63  1  0.047000  0.141400  0.912400  1.0  0.0168
  H  H64  1  0.076500  0.087900  0.783700  1.0  0.03
  H  H65  1  0.873700  0.561500  0.206000  1.0  0.2722
  H  H66  1  0.856800  0.517600  0.370400  1.0  0.2735
  H  H67  1  0.883300  0.729800  0.645000  1.0  0.2573
  H  H68  1  0.860100  0.687500  0.797600  1.0  0.276
  H  H69  1  0.611500  0.726300  0.858600  1.0  0.2454
  H  H70  1  0.634500  0.679800  0.717700  1.0  0.2491
  H  H71  1  0.595200  0.578600  0.259300  1.0  0.2699
  H  H72  1  0.627200  0.530900  0.151100  1.0  0.2338
  H  H73  1  0.937900  0.632200  0.515100  1.0  0.0275
  H  H74  1  0.919300  0.585600  0.689700  1.0  0.0276
  H  H75  1  0.819100  0.662000  0.312300  1.0  0.0272
  H  H76  1  0.800300  0.615200  0.485500  1.0  0.0286
  H  H77  1  0.665300  0.662700  0.199300  1.0  0.0311
  H  H78  1  0.692700  0.613200  0.051900  1.0  0.0341
  H  H79  1  0.547000  0.641400  0.912400  1.0  0.0168
  H  H80  1  0.576500  0.587900  0.783700  1.0  0.03
  H  H81  1  0.373700  0.938500  0.706000  1.0  0.2725
  H  H82  1  0.356800  0.982400  0.870400  1.0  0.2741
  H  H83  1  0.383300  0.770200  0.145000  1.0  0.2567
  H  H84  1  0.360100  0.812500  0.297600  1.0  0.2758
  H  H85  1  0.111500  0.773700  0.358600  1.0  0.2461
  H  H86  1  0.134500  0.820200  0.217700  1.0  0.2487
  H  H87  1  0.095200  0.921400  0.759300  1.0  0.27
  H  H88  1  0.127200  0.969100  0.651100  1.0  0.2345
  H  H89  1  0.437900  0.867800  0.015100  1.0  0.0265
  H  H90  1  0.419300  0.914400  0.189700  1.0  0.0273
  H  H91  1  0.319100  0.838000  0.812300  1.0  0.027
  H  H92  1  0.300300  0.884800  0.985500  1.0  0.0279
  H  H93  1  0.165300  0.837300  0.699300  1.0  0.0313
  H  H94  1  0.192700  0.886800  0.551900  1.0  0.0345
  H  H95  1  0.047000  0.858600  0.412400  1.0  0.0181
  H  H96  1  0.076500  0.912100  0.283700  1.0  0.0308
  H  H97  1  0.873700  0.438500  0.706000  1.0  0.2725
  H  H98  1  0.856800  0.482400  0.870400  1.0  0.2741
  H  H99  1  0.883300  0.270200  0.145000  1.0  0.2567
  H  H100  1  0.860100  0.312500  0.297600  1.0  0.2758
  H  H101  1  0.611500  0.273700  0.358600  1.0  0.2461
  H  H102  1  0.634500  0.320200  0.217700  1.0  0.2487
  H  H103  1  0.595200  0.421400  0.759300  1.0  0.27
  H  H104  1  0.627200  0.469100  0.651100  1.0  0.2345
  H  H105  1  0.937900  0.367800  0.015100  1.0  0.0265
  H  H106  1  0.919300  0.414400  0.189700  1.0  0.0273
  H  H107  1  0.819100  0.338000  0.812300  1.0  0.027
  H  H108  1  0.800300  0.384800  0.985500  1.0  0.0279
  H  H109  1  0.665300  0.337300  0.699300  1.0  0.0313
  H  H110  1  0.692700  0.386800  0.551900  1.0  0.0345
  H  H111  1  0.547000  0.358600  0.412400  1.0  0.0181
  H  H112  1  0.576500  0.412100  0.283700  1.0  0.0308
  H  H113  1  0.626300  0.938500  0.794000  1.0  0.2746
  H  H114  1  0.643200  0.982400  0.629600  1.0  0.2735
  H  H115  1  0.616700  0.770200  0.355000  1.0  0.2561
  H  H116  1  0.639900  0.812500  0.202400  1.0  0.2764
  H  H117  1  0.888500  0.773700  0.141400  1.0  0.2459
  H  H118  1  0.865500  0.820200  0.282300  1.0  0.2498
  H  H119  1  0.904800  0.921400  0.740700  1.0  0.2711
  H  H120  1  0.872800  0.969100  0.848900  1.0  0.2332
  H  H121  1  0.562100  0.867800  0.484900  1.0  0.0266
  H  H122  1  0.580700  0.914400  0.310300  1.0  0.0289
  H  H123  1  0.680900  0.838000  0.687700  1.0  0.0246
  H  H124  1  0.699700  0.884800  0.514500  1.0  0.0289
  H  H125  1  0.834700  0.837300  0.800700  1.0  0.0307
  H  H126  1  0.807300  0.886800  0.948100  1.0  0.0365
  H  H127  1  0.953000  0.858600  0.087600  1.0  0.0164
  H  H128  1  0.923500  0.912100  0.216300  1.0  0.0293
  H  H129  1  0.126300  0.438500  0.794000  1.0  0.2746
  H  H130  1  0.143200  0.482400  0.629600  1.0  0.2735
  H  H131  1  0.116700  0.270200  0.355000  1.0  0.2561
  H  H132  1  0.139900  0.312500  0.202400  1.0  0.2764
  H  H133  1  0.388500  0.273700  0.141400  1.0  0.2459
  H  H134  1  0.365500  0.320200  0.282300  1.0  0.2498
  H  H135  1  0.404800  0.421400  0.740700  1.0  0.2711
  H  H136  1  0.372800  0.469100  0.848900  1.0  0.2332
  H  H137  1  0.062100  0.367800  0.484900  1.0  0.0266
  H  H138  1  0.080700  0.414400  0.310300  1.0  0.0289
  H  H139  1  0.180900  0.338000  0.687700  1.0  0.0246
  H  H140  1  0.199700  0.384800  0.514500  1.0  0.0289
  H  H141  1  0.334700  0.337300  0.800700  1.0  0.0307
  H  H142  1  0.307300  0.386800  0.948100  1.0  0.0365
  H  H143  1  0.453000  0.358600  0.087600  1.0  0.0164
  H  H144  1  0.423500  0.412100  0.216300  1.0  0.0293
  C  C145  1  0.598200  0.103200  0.973000  1.0  -0.0166
  C  C146  1  0.663600  0.144400  0.025000  1.0  -0.0129
  C  C147  1  0.844700  0.144000  0.459000  1.0  -0.0365
  C  C148  1  0.915300  0.109300  0.564000  1.0  -0.0316
  C  C149  1  0.098200  0.603200  0.973000  1.0  -0.0166
  C  C150  1  0.163600  0.644400  0.025000  1.0  -0.0129
  C  C151  1  0.344700  0.644000  0.459000  1.0  -0.0365
  C  C152  1  0.415300  0.609300  0.564000  1.0  -0.0316
  C  C153  1  0.401800  0.103200  0.527000  1.0  -0.0135
  C  C154  1  0.336400  0.144400  0.475000  1.0  -0.0157
  C  C155  1  0.155300  0.144000  0.041000  1.0  -0.0365
  C  C156  1  0.084700  0.109300  0.936000  1.0  -0.0319
  C  C157  1  0.901800  0.603200  0.527000  1.0  -0.0135
  C  C158  1  0.836400  0.644400  0.475000  1.0  -0.0157
  C  C159  1  0.655300  0.644000  0.041000  1.0  -0.0365
  C  C160  1  0.584700  0.609300  0.936000  1.0  -0.0319
  C  C161  1  0.401800  0.896800  0.027000  1.0  -0.0134
  C  C162  1  0.336400  0.855600  0.975000  1.0  -0.0156
  C  C163  1  0.155300  0.856000  0.541000  1.0  -0.037
  C  C164  1  0.084700  0.890700  0.436000  1.0  -0.0325
  C  C165  1  0.901800  0.396800  0.027000  1.0  -0.0134
  C  C166  1  0.836400  0.355600  0.975000  1.0  -0.0156
  C  C167  1  0.655300  0.356000  0.541000  1.0  -0.037
  C  C168  1  0.584700  0.390700  0.436000  1.0  -0.0325
  C  C169  1  0.598200  0.896800  0.473000  1.0  -0.0166
  C  C170  1  0.663600  0.855600  0.525000  1.0  -0.0128
  C  C171  1  0.844700  0.856000  0.959000  1.0  -0.0367
  C  C172  1  0.915300  0.890700  0.064000  1.0  -0.0317
  C  C173  1  0.098200  0.396800  0.473000  1.0  -0.0166
  C  C174  1  0.163600  0.355600  0.525000  1.0  -0.0128
  C  C175  1  0.344700  0.356000  0.959000  1.0  -0.0367
  C  C176  1  0.415300  0.390700  0.064000  1.0  -0.0317
  N  N177  1  0.611600  0.047000  0.141000  1.0  -0.6962
  N  N178  1  0.650900  0.202100  0.854000  1.0  -0.7138
  N  N179  1  0.854300  0.197400  0.635000  1.0  -0.6782
  N  N180  1  0.910400  0.057800  0.379000  1.0  -0.7
  N  N181  1  0.111600  0.547000  0.141000  1.0  -0.6962
  N  N182  1  0.150900  0.702100  0.854000  1.0  -0.7138
  N  N183  1  0.354300  0.697400  0.635000  1.0  -0.6782
  N  N184  1  0.410400  0.557800  0.379000  1.0  -0.7
  N  N185  1  0.388400  0.047000  0.359000  1.0  -0.6976
  N  N186  1  0.349100  0.202100  0.646000  1.0  -0.7122
  N  N187  1  0.145700  0.197400  0.865000  1.0  -0.6786
  N  N188  1  0.089600  0.057800  0.121000  1.0  -0.6973
  N  N189  1  0.888400  0.547000  0.359000  1.0  -0.6976
  N  N190  1  0.849100  0.702100  0.646000  1.0  -0.7122
  N  N191  1  0.645700  0.697400  0.865000  1.0  -0.6786
  N  N192  1  0.589600  0.557800  0.121000  1.0  -0.6973
  N  N193  1  0.388400  0.953000  0.859000  1.0  -0.6978
  N  N194  1  0.349100  0.797900  0.146000  1.0  -0.712
  N  N195  1  0.145700  0.802600  0.365000  1.0  -0.6783
  N  N196  1  0.089600  0.942200  0.621000  1.0  -0.6974
  N  N197  1  0.888400  0.453000  0.859000  1.0  -0.6978
  N  N198  1  0.849100  0.297900  0.146000  1.0  -0.712
  N  N199  1  0.645700  0.302600  0.365000  1.0  -0.6783
  N  N200  1  0.589600  0.442200  0.621000  1.0  -0.6974
  N  N201  1  0.611600  0.953000  0.641000  1.0  -0.6957
  N  N202  1  0.650900  0.797900  0.354000  1.0  -0.7145
  N  N203  1  0.854300  0.802600  0.135000  1.0  -0.6777
  N  N204  1  0.910400  0.942200  0.879000  1.0  -0.6993
  N  N205  1  0.111600  0.453000  0.641000  1.0  -0.6957
  N  N206  1  0.150900  0.297900  0.354000  1.0  -0.7145
  N  N207  1  0.354300  0.302600  0.135000  1.0  -0.6777
  N  N208  1  0.410400  0.442200  0.879000  1.0  -0.6993
