# generated using pymatgen
data_AgH8(CN)2
_symmetry_space_group_name_H-M   'P 1'
_cell_length_a   10.59600000
_cell_length_b   10.29500000
_cell_length_c   6.14100000
_cell_angle_alpha   90.00000000
_cell_angle_beta   114.67000000
_cell_angle_gamma   90.00000000
_symmetry_Int_Tables_number   1
_chemical_formula_structural   AgH8(CN)2
_chemical_formula_sum   'Ag4 H32 C8 N8'
_cell_volume   608.75249908
_cell_formula_units_Z   4
loop_
 _symmetry_equiv_pos_site_id
 _symmetry_equiv_pos_as_xyz
  1  'x, y, z'
loop_
 _atom_site_type_symbol
 _atom_site_label
 _atom_site_symmetry_multiplicity
 _atom_site_fract_x
 _atom_site_fract_y
 _atom_site_fract_z
 _atom_site_occupancy
 _atom_site_charge
  Ag  Ag1  1  0.500000  0.000000  0.500000  1.0  0.2175
  Ag  Ag2  1  0.000000  0.500000  0.500000  1.0  0.2175
  Ag  Ag3  1  0.500000  0.000000  0.000000  1.0  0.2195
  Ag  Ag4  1  0.000000  0.500000  0.000000  1.0  0.2195
  H  H5  1  0.393100  0.270400  0.559400  1.0  0.0257
  H  H6  1  0.337700  0.176200  0.701700  1.0  0.0232
  H  H7  1  0.283800  0.143000  0.227500  1.0  0.2923
  H  H8  1  0.233400  0.055300  0.360500  1.0  0.2841
  H  H9  1  0.893100  0.770400  0.559400  1.0  0.0257
  H  H10  1  0.837700  0.676200  0.701700  1.0  0.0232
  H  H11  1  0.783800  0.643000  0.227500  1.0  0.2923
  H  H12  1  0.733400  0.555300  0.360500  1.0  0.2841
  H  H13  1  0.606900  0.270400  0.940600  1.0  0.0249
  H  H14  1  0.662300  0.176200  0.798300  1.0  0.0253
  H  H15  1  0.716200  0.143000  0.272500  1.0  0.293
  H  H16  1  0.766600  0.055300  0.139500  1.0  0.284
  H  H17  1  0.106900  0.770400  0.940600  1.0  0.0249
  H  H18  1  0.162300  0.676200  0.798300  1.0  0.0253
  H  H19  1  0.216200  0.643000  0.272500  1.0  0.293
  H  H20  1  0.266600  0.555300  0.139500  1.0  0.284
  H  H21  1  0.606900  0.729600  0.440600  1.0  0.0246
  H  H22  1  0.662300  0.823800  0.298300  1.0  0.0253
  H  H23  1  0.716200  0.857000  0.772500  1.0  0.2929
  H  H24  1  0.766600  0.944700  0.639500  1.0  0.2852
  H  H25  1  0.106900  0.229600  0.440600  1.0  0.0246
  H  H26  1  0.162300  0.323800  0.298300  1.0  0.0253
  H  H27  1  0.216200  0.357000  0.772500  1.0  0.2929
  H  H28  1  0.266600  0.444700  0.639500  1.0  0.2852
  H  H29  1  0.393100  0.729600  0.059400  1.0  0.0253
  H  H30  1  0.337700  0.823800  0.201700  1.0  0.0231
  H  H31  1  0.283800  0.857000  0.727500  1.0  0.2923
  H  H32  1  0.233400  0.944700  0.860500  1.0  0.286
  H  H33  1  0.893100  0.229600  0.059400  1.0  0.0253
  H  H34  1  0.837700  0.323800  0.201700  1.0  0.0231
  H  H35  1  0.783800  0.357000  0.727500  1.0  0.2923
  H  H36  1  0.733400  0.444700  0.860500  1.0  0.286
  C  C37  1  0.318000  0.212900  0.545000  1.0  -0.0178
  C  C38  1  0.818000  0.712900  0.545000  1.0  -0.0178
  C  C39  1  0.682000  0.212900  0.955000  1.0  -0.0192
  C  C40  1  0.182000  0.712900  0.955000  1.0  -0.0192
  C  C41  1  0.682000  0.787100  0.455000  1.0  -0.0197
  C  C42  1  0.182000  0.287100  0.455000  1.0  -0.0197
  C  C43  1  0.318000  0.787100  0.045000  1.0  -0.0179
  C  C44  1  0.818000  0.287100  0.045000  1.0  -0.0179
  N  N45  1  0.303300  0.108800  0.373000  1.0  -0.7189
  N  N46  1  0.803300  0.608800  0.373000  1.0  -0.7189
  N  N47  1  0.696700  0.108800  0.127000  1.0  -0.7173
  N  N48  1  0.196700  0.608800  0.127000  1.0  -0.7173
  N  N49  1  0.696700  0.891200  0.627000  1.0  -0.7162
  N  N50  1  0.196700  0.391200  0.627000  1.0  -0.7162
  N  N51  1  0.303300  0.891200  0.873000  1.0  -0.7172
  N  N52  1  0.803300  0.391200  0.873000  1.0  -0.7172
