# generated using pymatgen
data_AgH8(CN)2
_symmetry_space_group_name_H-M   'P 1'
_cell_length_a   10.57400000
_cell_length_b   10.34500000
_cell_length_c   6.16600000
_cell_angle_alpha   90.00000000
_cell_angle_beta   114.85000000
_cell_angle_gamma   90.00000000
_symmetry_Int_Tables_number   1
_chemical_formula_structural   AgH8(CN)2
_chemical_formula_sum   'Ag4 H32 C8 N8'
_cell_volume   612.03661583
_cell_formula_units_Z   4
loop_
 _symmetry_equiv_pos_site_id
 _symmetry_equiv_pos_as_xyz
  1  'x, y, z'
loop_
 _atom_site_type_symbol
 _atom_site_label
 _atom_site_symmetry_multiplicity
 _atom_site_fract_x
 _atom_site_fract_y
 _atom_site_fract_z
 _atom_site_occupancy
 _atom_site_charge
  Ag  Ag1  1  0.500000  0.000000  0.500000  1.0  0.1638
  Ag  Ag2  1  0.000000  0.500000  0.500000  1.0  0.1638
  Ag  Ag3  1  0.500000  0.000000  0.000000  1.0  0.1648
  Ag  Ag4  1  0.000000  0.500000  0.000000  1.0  0.1648
  H  H5  1  0.332300  0.175700  0.702600  1.0  0.0317
  H  H6  1  0.394200  0.267200  0.567600  1.0  0.0196
  H  H7  1  0.282900  0.140800  0.233500  1.0  0.2847
  H  H8  1  0.234700  0.053400  0.368300  1.0  0.2894
  H  H9  1  0.832300  0.675700  0.702600  1.0  0.0317
  H  H10  1  0.894200  0.767200  0.567600  1.0  0.0196
  H  H11  1  0.782900  0.640800  0.233500  1.0  0.2847
  H  H12  1  0.734700  0.553400  0.368300  1.0  0.2894
  H  H13  1  0.667700  0.175700  0.797400  1.0  0.032
  H  H14  1  0.605800  0.267200  0.932400  1.0  0.0183
  H  H15  1  0.717100  0.140800  0.266500  1.0  0.2868
  H  H16  1  0.765300  0.053400  0.131700  1.0  0.2892
  H  H17  1  0.167700  0.675700  0.797400  1.0  0.032
  H  H18  1  0.105800  0.767200  0.932400  1.0  0.0183
  H  H19  1  0.217100  0.640800  0.266500  1.0  0.2868
  H  H20  1  0.265300  0.553400  0.131700  1.0  0.2892
  H  H21  1  0.667700  0.824300  0.297400  1.0  0.0316
  H  H22  1  0.605800  0.732800  0.432400  1.0  0.0181
  H  H23  1  0.717100  0.859200  0.766500  1.0  0.2867
  H  H24  1  0.765300  0.946600  0.631700  1.0  0.2895
  H  H25  1  0.167700  0.324300  0.297400  1.0  0.0316
  H  H26  1  0.105800  0.232800  0.432400  1.0  0.0181
  H  H27  1  0.217100  0.359200  0.766500  1.0  0.2867
  H  H28  1  0.265300  0.446600  0.631700  1.0  0.2895
  H  H29  1  0.332300  0.824300  0.202600  1.0  0.032
  H  H30  1  0.394200  0.732800  0.067600  1.0  0.0191
  H  H31  1  0.282900  0.859200  0.733500  1.0  0.2847
  H  H32  1  0.234700  0.946600  0.868300  1.0  0.2905
  H  H33  1  0.832300  0.324300  0.202600  1.0  0.032
  H  H34  1  0.894200  0.232800  0.067600  1.0  0.0191
  H  H35  1  0.782900  0.359200  0.733500  1.0  0.2847
  H  H36  1  0.734700  0.446600  0.868300  1.0  0.2905
  C  C37  1  0.316100  0.211700  0.548000  1.0  -0.0124
  C  C38  1  0.816100  0.711700  0.548000  1.0  -0.0124
  C  C39  1  0.683900  0.211700  0.952000  1.0  -0.0137
  C  C40  1  0.183900  0.711700  0.952000  1.0  -0.0137
  C  C41  1  0.683900  0.788300  0.452000  1.0  -0.0136
  C  C42  1  0.183900  0.288300  0.452000  1.0  -0.0136
  C  C43  1  0.316100  0.788300  0.048000  1.0  -0.0117
  C  C44  1  0.816100  0.288300  0.048000  1.0  -0.0117
  N  N45  1  0.303900  0.107300  0.379300  1.0  -0.6966
  N  N46  1  0.803900  0.607300  0.379300  1.0  -0.6966
  N  N47  1  0.696100  0.107300  0.120700  1.0  -0.6952
  N  N48  1  0.196100  0.607300  0.120700  1.0  -0.6952
  N  N49  1  0.696100  0.892700  0.620700  1.0  -0.6938
  N  N50  1  0.196100  0.392700  0.620700  1.0  -0.6938
  N  N51  1  0.303900  0.892700  0.879300  1.0  -0.6954
  N  N52  1  0.803900  0.392700  0.879300  1.0  -0.6954
