# generated using pymatgen
data_AgH8(CN)2
_symmetry_space_group_name_H-M   'P 1'
_cell_length_a   20.26400000
_cell_length_b   19.64000000
_cell_length_c   5.97570000
_cell_angle_alpha   90.00000000
_cell_angle_beta   113.84000000
_cell_angle_gamma   90.00000000
_symmetry_Int_Tables_number   1
_chemical_formula_structural   AgH8(CN)2
_chemical_formula_sum   'Ag16 H128 C32 N32'
_cell_volume   2175.32196823
_cell_formula_units_Z   16
loop_
 _symmetry_equiv_pos_site_id
 _symmetry_equiv_pos_as_xyz
  1  'x, y, z'
loop_
 _atom_site_type_symbol
 _atom_site_label
 _atom_site_symmetry_multiplicity
 _atom_site_fract_x
 _atom_site_fract_y
 _atom_site_fract_z
 _atom_site_occupancy
 _atom_site_charge
  Ag  Ag1  1  0.500000  0.000000  0.000000  1.0  0.3062
  Ag  Ag2  1  0.000000  0.500000  0.000000  1.0  0.3062
  Ag  Ag3  1  0.500000  0.000000  0.500000  1.0  0.3136
  Ag  Ag4  1  0.000000  0.500000  0.500000  1.0  0.3136
  Ag  Ag5  1  0.750000  0.250000  0.000000  1.0  0.2571
  Ag  Ag6  1  0.250000  0.250000  0.500000  1.0  0.2571
  Ag  Ag7  1  0.250000  0.750000  0.000000  1.0  0.2571
  Ag  Ag8  1  0.750000  0.750000  0.500000  1.0  0.2571
  Ag  Ag9  1  0.750000  0.250000  0.500000  1.0  0.2652
  Ag  Ag10  1  0.250000  0.250000  0.000000  1.0  0.2652
  Ag  Ag11  1  0.250000  0.750000  0.500000  1.0  0.2652
  Ag  Ag12  1  0.750000  0.750000  0.000000  1.0  0.2652
  Ag  Ag13  1  0.000000  0.000000  0.500000  1.0  0.2816
  Ag  Ag14  1  0.500000  0.500000  0.500000  1.0  0.2816
  Ag  Ag15  1  0.000000  0.000000  0.000000  1.0  0.2816
  Ag  Ag16  1  0.500000  0.500000  0.000000  1.0  0.2816
  H  H17  1  0.617000  0.058800  0.289000  1.0  0.2528
  H  H18  1  0.636600  0.015100  0.125600  1.0  0.2364
  H  H19  1  0.610000  0.239200  0.902600  1.0  0.2574
  H  H20  1  0.622200  0.196500  0.721100  1.0  0.2619
  H  H21  1  0.885900  0.227500  0.613100  1.0  0.2164
  H  H22  1  0.865900  0.185800  0.779600  1.0  0.2294
  H  H23  1  0.890200  0.068300  0.225600  1.0  0.2535
  H  H24  1  0.866000  0.023300  0.372800  1.0  0.2352
  H  H25  1  0.547200  0.124800  0.950400  1.0  0.0322
  H  H26  1  0.582000  0.082800  0.802500  1.0  0.0392
  H  H27  1  0.662800  0.164800  0.209000  1.0  0.0341
  H  H28  1  0.695700  0.125000  0.050900  1.0  0.0373
  H  H29  1  0.824000  0.157200  0.290200  1.0  0.0518
  H  H30  1  0.801500  0.112500  0.468000  1.0  0.0411
  H  H31  1  0.948300  0.139200  0.556200  1.0  0.0336
  H  H32  1  0.923400  0.090400  0.717500  1.0  0.0397
  H  H33  1  0.117000  0.558800  0.289000  1.0  0.2528
  H  H34  1  0.136600  0.515100  0.125600  1.0  0.2364
  H  H35  1  0.110000  0.739200  0.902600  1.0  0.2574
  H  H36  1  0.122200  0.696500  0.721100  1.0  0.2619
  H  H37  1  0.385900  0.727500  0.613100  1.0  0.2164
  H  H38  1  0.365900  0.685800  0.779600  1.0  0.2294
  H  H39  1  0.390200  0.568300  0.225600  1.0  0.2535
  H  H40  1  0.366000  0.523300  0.372800  1.0  0.2352
  H  H41  1  0.047200  0.624800  0.950400  1.0  0.0322
  H  H42  1  0.082000  0.582800  0.802500  1.0  0.0392
  H  H43  1  0.162800  0.664800  0.209000  1.0  0.0341
  H  H44  1  0.195700  0.625000  0.050900  1.0  0.0373
  H  H45  1  0.324000  0.657200  0.290200  1.0  0.0518
  H  H46  1  0.301500  0.612500  0.468000  1.0  0.0411
  H  H47  1  0.448300  0.639200  0.556200  1.0  0.0336
  H  H48  1  0.423400  0.590400  0.717500  1.0  0.0397
  H  H49  1  0.383000  0.058800  0.211000  1.0  0.2538
  H  H50  1  0.363400  0.015100  0.374400  1.0  0.2346
  H  H51  1  0.390000  0.239200  0.597400  1.0  0.258
  H  H52  1  0.377800  0.196500  0.778900  1.0  0.2616
  H  H53  1  0.114100  0.227500  0.886900  1.0  0.2165
  H  H54  1  0.134100  0.185800  0.720400  1.0  0.2303
  H  H55  1  0.109800  0.068300  0.274400  1.0  0.2537
  H  H56  1  0.134000  0.023300  0.127200  1.0  0.2365
  H  H57  1  0.452800  0.124800  0.549600  1.0  0.0326
  H  H58  1  0.418000  0.082800  0.697500  1.0  0.0368
  H  H59  1  0.337200  0.164800  0.291000  1.0  0.0368
  H  H60  1  0.304300  0.125000  0.449100  1.0  0.0375
  H  H61  1  0.176000  0.157200  0.209800  1.0  0.0511
  H  H62  1  0.198500  0.112500  0.032000  1.0  0.0405
  H  H63  1  0.051700  0.139200  0.943800  1.0  0.0328
  H  H64  1  0.076600  0.090400  0.782500  1.0  0.0415
  H  H65  1  0.883000  0.558800  0.211000  1.0  0.2538
  H  H66  1  0.863400  0.515100  0.374400  1.0  0.2346
  H  H67  1  0.890000  0.739200  0.597400  1.0  0.258
  H  H68  1  0.877800  0.696500  0.778900  1.0  0.2616
  H  H69  1  0.614100  0.727500  0.886900  1.0  0.2165
  H  H70  1  0.634100  0.685800  0.720400  1.0  0.2303
  H  H71  1  0.609800  0.568300  0.274400  1.0  0.2537
  H  H72  1  0.634000  0.523300  0.127200  1.0  0.2365
  H  H73  1  0.952800  0.624800  0.549600  1.0  0.0326
  H  H74  1  0.918000  0.582800  0.697500  1.0  0.0368
  H  H75  1  0.837200  0.664800  0.291000  1.0  0.0368
  H  H76  1  0.804300  0.625000  0.449100  1.0  0.0375
  H  H77  1  0.676000  0.657200  0.209800  1.0  0.0511
  H  H78  1  0.698500  0.612500  0.032000  1.0  0.0405
  H  H79  1  0.551700  0.639200  0.943800  1.0  0.0328
  H  H80  1  0.576600  0.590400  0.782500  1.0  0.0415
  H  H81  1  0.383000  0.941200  0.711000  1.0  0.2536
  H  H82  1  0.363400  0.984900  0.874400  1.0  0.234
  H  H83  1  0.390000  0.760800  0.097400  1.0  0.259
  H  H84  1  0.377800  0.803500  0.278900  1.0  0.262
  H  H85  1  0.114100  0.772500  0.386900  1.0  0.2171
  H  H86  1  0.134100  0.814200  0.220400  1.0  0.2307
  H  H87  1  0.109800  0.931700  0.774400  1.0  0.2541
  H  H88  1  0.134000  0.976700  0.627200  1.0  0.2362
  H  H89  1  0.452800  0.875200  0.049600  1.0  0.0314
  H  H90  1  0.418000  0.917200  0.197500  1.0  0.0365
  H  H91  1  0.337200  0.835200  0.791000  1.0  0.0366
  H  H92  1  0.304300  0.875000  0.949100  1.0  0.0365
  H  H93  1  0.176000  0.842800  0.709800  1.0  0.0512
  H  H94  1  0.198500  0.887500  0.532000  1.0  0.0408
  H  H95  1  0.051700  0.860800  0.443800  1.0  0.0335
  H  H96  1  0.076600  0.909600  0.282500  1.0  0.0422
  H  H97  1  0.883000  0.441200  0.711000  1.0  0.2536
  H  H98  1  0.863400  0.484900  0.874400  1.0  0.234
  H  H99  1  0.890000  0.260800  0.097400  1.0  0.259
  H  H100  1  0.877800  0.303500  0.278900  1.0  0.262
  H  H101  1  0.614100  0.272500  0.386900  1.0  0.2171
  H  H102  1  0.634100  0.314200  0.220400  1.0  0.2307
  H  H103  1  0.609800  0.431700  0.774400  1.0  0.2541
  H  H104  1  0.634000  0.476700  0.627200  1.0  0.2362
  H  H105  1  0.952800  0.375200  0.049600  1.0  0.0314
  H  H106  1  0.918000  0.417200  0.197500  1.0  0.0365
  H  H107  1  0.837200  0.335200  0.791000  1.0  0.0366
  H  H108  1  0.804300  0.375000  0.949100  1.0  0.0365
  H  H109  1  0.676000  0.342800  0.709800  1.0  0.0512
  H  H110  1  0.698500  0.387500  0.532000  1.0  0.0408
  H  H111  1  0.551700  0.360800  0.443800  1.0  0.0335
  H  H112  1  0.576600  0.409600  0.282500  1.0  0.0422
  H  H113  1  0.617000  0.941200  0.789000  1.0  0.2524
  H  H114  1  0.636600  0.984900  0.625600  1.0  0.2351
  H  H115  1  0.610000  0.760800  0.402600  1.0  0.2579
  H  H116  1  0.622200  0.803500  0.221100  1.0  0.2617
  H  H117  1  0.885900  0.772500  0.113100  1.0  0.2169
  H  H118  1  0.865900  0.814200  0.279600  1.0  0.23
  H  H119  1  0.890200  0.931700  0.725600  1.0  0.2538
  H  H120  1  0.866000  0.976700  0.872800  1.0  0.2359
  H  H121  1  0.547200  0.875200  0.450400  1.0  0.0327
  H  H122  1  0.582000  0.917200  0.302500  1.0  0.0388
  H  H123  1  0.662800  0.835200  0.709000  1.0  0.0338
  H  H124  1  0.695700  0.875000  0.550900  1.0  0.0382
  H  H125  1  0.824000  0.842800  0.790200  1.0  0.0518
  H  H126  1  0.801500  0.887500  0.968000  1.0  0.0407
  H  H127  1  0.948300  0.860800  0.056200  1.0  0.0332
  H  H128  1  0.923400  0.909600  0.217500  1.0  0.04
  H  H129  1  0.117000  0.441200  0.789000  1.0  0.2524
  H  H130  1  0.136600  0.484900  0.625600  1.0  0.2351
  H  H131  1  0.110000  0.260800  0.402600  1.0  0.2579
  H  H132  1  0.122200  0.303500  0.221100  1.0  0.2617
  H  H133  1  0.385900  0.272500  0.113100  1.0  0.2169
  H  H134  1  0.365900  0.314200  0.279600  1.0  0.23
  H  H135  1  0.390200  0.431700  0.725600  1.0  0.2538
  H  H136  1  0.366000  0.476700  0.872800  1.0  0.2359
  H  H137  1  0.047200  0.375200  0.450400  1.0  0.0327
  H  H138  1  0.082000  0.417200  0.302500  1.0  0.0388
  H  H139  1  0.162800  0.335200  0.709000  1.0  0.0338
  H  H140  1  0.195700  0.375000  0.550900  1.0  0.0382
  H  H141  1  0.324000  0.342800  0.790200  1.0  0.0518
  H  H142  1  0.301500  0.387500  0.968000  1.0  0.0407
  H  H143  1  0.448300  0.360800  0.056200  1.0  0.0332
  H  H144  1  0.423400  0.409600  0.217500  1.0  0.04
  C  C145  1  0.590200  0.100500  0.963000  1.0  -0.0186
  C  C146  1  0.653200  0.149000  0.045000  1.0  -0.019
  C  C147  1  0.838300  0.142300  0.458000  1.0  -0.0252
  C  C148  1  0.911000  0.107900  0.554000  1.0  -0.026
  C  C149  1  0.090200  0.600500  0.963000  1.0  -0.0186
  C  C150  1  0.153200  0.649000  0.045000  1.0  -0.019
  C  C151  1  0.338300  0.642300  0.458000  1.0  -0.0252
  C  C152  1  0.411000  0.607900  0.554000  1.0  -0.026
  C  C153  1  0.409800  0.100500  0.537000  1.0  -0.0167
  C  C154  1  0.346800  0.149000  0.455000  1.0  -0.0219
  C  C155  1  0.161700  0.142300  0.042000  1.0  -0.0261
  C  C156  1  0.089000  0.107900  0.946000  1.0  -0.0271
  C  C157  1  0.909800  0.600500  0.537000  1.0  -0.0167
  C  C158  1  0.846800  0.649000  0.455000  1.0  -0.0219
  C  C159  1  0.661700  0.642300  0.042000  1.0  -0.0261
  C  C160  1  0.589000  0.607900  0.946000  1.0  -0.0271
  C  C161  1  0.409800  0.899500  0.037000  1.0  -0.0166
  C  C162  1  0.346800  0.851000  0.955000  1.0  -0.0216
  C  C163  1  0.161700  0.857700  0.542000  1.0  -0.0261
  C  C164  1  0.089000  0.892100  0.446000  1.0  -0.0274
  C  C165  1  0.909800  0.399500  0.037000  1.0  -0.0166
  C  C166  1  0.846800  0.351000  0.955000  1.0  -0.0216
  C  C167  1  0.661700  0.357700  0.542000  1.0  -0.0261
  C  C168  1  0.589000  0.392100  0.446000  1.0  -0.0274
  C  C169  1  0.590200  0.899500  0.463000  1.0  -0.0187
  C  C170  1  0.653200  0.851000  0.545000  1.0  -0.0189
  C  C171  1  0.838300  0.857700  0.958000  1.0  -0.025
  C  C172  1  0.911000  0.892100  0.054000  1.0  -0.0261
  C  C173  1  0.090200  0.399500  0.463000  1.0  -0.0187
  C  C174  1  0.153200  0.351000  0.545000  1.0  -0.0189
  C  C175  1  0.338300  0.357700  0.958000  1.0  -0.025
  C  C176  1  0.411000  0.392100  0.054000  1.0  -0.0261
  N  N177  1  0.603300  0.044100  0.134000  1.0  -0.6923
  N  N178  1  0.640000  0.209100  0.879000  1.0  -0.6985
  N  N179  1  0.851800  0.199800  0.624000  1.0  -0.6474
  N  N180  1  0.901500  0.051600  0.376900  1.0  -0.6805
  N  N181  1  0.103300  0.544100  0.134000  1.0  -0.6923
  N  N182  1  0.140000  0.709100  0.879000  1.0  -0.6985
  N  N183  1  0.351800  0.699800  0.624000  1.0  -0.6474
  N  N184  1  0.401500  0.551600  0.376900  1.0  -0.6805
  N  N185  1  0.396700  0.044100  0.366000  1.0  -0.6944
  N  N186  1  0.360000  0.209100  0.621000  1.0  -0.6991
  N  N187  1  0.148200  0.199800  0.876000  1.0  -0.6475
  N  N188  1  0.098500  0.051600  0.123100  1.0  -0.6804
  N  N189  1  0.896700  0.544100  0.366000  1.0  -0.6944
  N  N190  1  0.860000  0.709100  0.621000  1.0  -0.6991
  N  N191  1  0.648200  0.699800  0.876000  1.0  -0.6475
  N  N192  1  0.598500  0.551600  0.123100  1.0  -0.6804
  N  N193  1  0.396700  0.955900  0.866000  1.0  -0.6945
  N  N194  1  0.360000  0.790900  0.121000  1.0  -0.6994
  N  N195  1  0.148200  0.800200  0.376000  1.0  -0.6477
  N  N196  1  0.098500  0.948400  0.623100  1.0  -0.6799
  N  N197  1  0.896700  0.455900  0.866000  1.0  -0.6945
  N  N198  1  0.860000  0.290900  0.121000  1.0  -0.6994
  N  N199  1  0.648200  0.300200  0.376000  1.0  -0.6477
  N  N200  1  0.598500  0.448400  0.623100  1.0  -0.6799
  N  N201  1  0.603300  0.955900  0.634000  1.0  -0.693
  N  N202  1  0.640000  0.790900  0.379000  1.0  -0.6995
  N  N203  1  0.851800  0.800200  0.124000  1.0  -0.6475
  N  N204  1  0.901500  0.948400  0.876900  1.0  -0.6798
  N  N205  1  0.103300  0.455900  0.634000  1.0  -0.693
  N  N206  1  0.140000  0.290900  0.379000  1.0  -0.6995
  N  N207  1  0.351800  0.300200  0.124000  1.0  -0.6475
  N  N208  1  0.401500  0.448400  0.876900  1.0  -0.6798
