# generated using pymatgen
data_AgH8(CN)2
_symmetry_space_group_name_H-M   'P 1'
_cell_length_a   20.86200000
_cell_length_b   19.93100000
_cell_length_c   6.18950000
_cell_angle_alpha   90.00000000
_cell_angle_beta   114.55000000
_cell_angle_gamma   90.00000000
_symmetry_Int_Tables_number   1
_chemical_formula_structural   AgH8(CN)2
_chemical_formula_sum   'Ag16 H128 C32 N32'
_cell_volume   2340.94165206
_cell_formula_units_Z   16
loop_
 _symmetry_equiv_pos_site_id
 _symmetry_equiv_pos_as_xyz
  1  'x, y, z'
loop_
 _atom_site_type_symbol
 _atom_site_label
 _atom_site_symmetry_multiplicity
 _atom_site_fract_x
 _atom_site_fract_y
 _atom_site_fract_z
 _atom_site_occupancy
 _atom_site_charge
  Ag  Ag1  1  0.500000  0.000000  0.000000  1.0  0.2768
  Ag  Ag2  1  0.000000  0.500000  0.000000  1.0  0.2768
  Ag  Ag3  1  0.500000  0.000000  0.500000  1.0  0.2768
  Ag  Ag4  1  0.000000  0.500000  0.500000  1.0  0.2768
  Ag  Ag5  1  0.750000  0.250000  0.000000  1.0  0.2473
  Ag  Ag6  1  0.250000  0.250000  0.500000  1.0  0.2473
  Ag  Ag7  1  0.250000  0.750000  0.000000  1.0  0.2473
  Ag  Ag8  1  0.750000  0.750000  0.500000  1.0  0.2473
  Ag  Ag9  1  0.750000  0.250000  0.500000  1.0  0.1765
  Ag  Ag10  1  0.250000  0.250000  0.000000  1.0  0.1765
  Ag  Ag11  1  0.250000  0.750000  0.500000  1.0  0.1765
  Ag  Ag12  1  0.750000  0.750000  0.000000  1.0  0.1765
  Ag  Ag13  1  0.000000  0.000000  0.500000  1.0  0.2052
  Ag  Ag14  1  0.500000  0.500000  0.500000  1.0  0.2052
  Ag  Ag15  1  0.000000  0.000000  0.000000  1.0  0.2118
  Ag  Ag16  1  0.500000  0.500000  0.000000  1.0  0.2118
  H  H17  1  0.605900  0.063900  0.253600  1.0  0.2739
  H  H18  1  0.625700  0.021100  0.100000  1.0  0.2795
  H  H19  1  0.614600  0.231900  0.866200  1.0  0.2726
  H  H20  1  0.634900  0.188500  0.715200  1.0  0.283
  H  H21  1  0.883100  0.223600  0.626700  1.0  0.2521
  H  H22  1  0.858700  0.177600  0.760700  1.0  0.2638
  H  H23  1  0.893200  0.076600  0.218000  1.0  0.2863
  H  H24  1  0.863400  0.030400  0.335300  1.0  0.2447
  H  H25  1  0.547500  0.135200  0.946700  1.0  0.0231
  H  H26  1  0.570900  0.089700  0.785200  1.0  0.0242
  H  H27  1  0.665600  0.161200  0.183400  1.0  0.0345
  H  H28  1  0.689400  0.115000  0.025200  1.0  0.0256
  H  H29  1  0.826200  0.163500  0.284700  1.0  0.0315
  H  H30  1  0.799400  0.113800  0.428900  1.0  0.0337
  H  H31  1  0.945000  0.140700  0.555400  1.0  0.0247
  H  H32  1  0.917300  0.089300  0.691100  1.0  0.0306
  H  H33  1  0.105900  0.563900  0.253600  1.0  0.2739
  H  H34  1  0.125700  0.521100  0.100000  1.0  0.2795
  H  H35  1  0.114600  0.731900  0.866200  1.0  0.2726
  H  H36  1  0.134900  0.688500  0.715200  1.0  0.283
  H  H37  1  0.383100  0.723600  0.626700  1.0  0.2521
  H  H38  1  0.358700  0.677600  0.760700  1.0  0.2638
  H  H39  1  0.393200  0.576600  0.218000  1.0  0.2863
  H  H40  1  0.363400  0.530400  0.335300  1.0  0.2447
  H  H41  1  0.047500  0.635200  0.946700  1.0  0.0231
  H  H42  1  0.070900  0.589700  0.785200  1.0  0.0242
  H  H43  1  0.165600  0.661200  0.183400  1.0  0.0345
  H  H44  1  0.189400  0.615000  0.025200  1.0  0.0256
  H  H45  1  0.326200  0.663500  0.284700  1.0  0.0315
  H  H46  1  0.299400  0.613800  0.428900  1.0  0.0337
  H  H47  1  0.445000  0.640700  0.555400  1.0  0.0247
  H  H48  1  0.417300  0.589300  0.691100  1.0  0.0306
  H  H49  1  0.394100  0.063900  0.246400  1.0  0.2758
  H  H50  1  0.374300  0.021100  0.400000  1.0  0.2804
  H  H51  1  0.385400  0.231900  0.633800  1.0  0.2725
  H  H52  1  0.365100  0.188500  0.784800  1.0  0.2831
  H  H53  1  0.116900  0.223600  0.873300  1.0  0.2517
  H  H54  1  0.141300  0.177600  0.739300  1.0  0.2643
  H  H55  1  0.106800  0.076600  0.282000  1.0  0.2881
  H  H56  1  0.136600  0.030400  0.164700  1.0  0.2453
  H  H57  1  0.452500  0.135200  0.553300  1.0  0.0251
  H  H58  1  0.429100  0.089700  0.714800  1.0  0.0211
  H  H59  1  0.334400  0.161200  0.316600  1.0  0.034
  H  H60  1  0.310600  0.115000  0.474800  1.0  0.0249
  H  H61  1  0.173800  0.163500  0.215300  1.0  0.0312
  H  H62  1  0.200600  0.113800  0.071100  1.0  0.0324
  H  H63  1  0.055000  0.140700  0.944600  1.0  0.0246
  H  H64  1  0.082700  0.089300  0.808900  1.0  0.0307
  H  H65  1  0.894100  0.563900  0.246400  1.0  0.2758
  H  H66  1  0.874300  0.521100  0.400000  1.0  0.2804
  H  H67  1  0.885400  0.731900  0.633800  1.0  0.2725
  H  H68  1  0.865100  0.688500  0.784800  1.0  0.2831
  H  H69  1  0.616900  0.723600  0.873300  1.0  0.2517
  H  H70  1  0.641300  0.677600  0.739300  1.0  0.2643
  H  H71  1  0.606800  0.576600  0.282000  1.0  0.2881
  H  H72  1  0.636600  0.530400  0.164700  1.0  0.2453
  H  H73  1  0.952500  0.635200  0.553300  1.0  0.0251
  H  H74  1  0.929100  0.589700  0.714800  1.0  0.0211
  H  H75  1  0.834400  0.661200  0.316600  1.0  0.034
  H  H76  1  0.810600  0.615000  0.474800  1.0  0.0249
  H  H77  1  0.673800  0.663500  0.215300  1.0  0.0312
  H  H78  1  0.700600  0.613800  0.071100  1.0  0.0324
  H  H79  1  0.555000  0.640700  0.944600  1.0  0.0246
  H  H80  1  0.582700  0.589300  0.808900  1.0  0.0307
  H  H81  1  0.394100  0.936100  0.746400  1.0  0.2758
  H  H82  1  0.374300  0.978900  0.900000  1.0  0.2812
  H  H83  1  0.385400  0.768100  0.133800  1.0  0.2716
  H  H84  1  0.365100  0.811500  0.284800  1.0  0.2831
  H  H85  1  0.116900  0.776400  0.373300  1.0  0.2527
  H  H86  1  0.141300  0.822400  0.239300  1.0  0.2639
  H  H87  1  0.106800  0.923400  0.782000  1.0  0.2882
  H  H88  1  0.136600  0.969600  0.664700  1.0  0.2447
  H  H89  1  0.452500  0.864800  0.053300  1.0  0.0235
  H  H90  1  0.429100  0.910300  0.214800  1.0  0.0208
  H  H91  1  0.334400  0.838800  0.816600  1.0  0.0343
  H  H92  1  0.310600  0.885000  0.974800  1.0  0.0242
  H  H93  1  0.173800  0.836500  0.715300  1.0  0.0312
  H  H94  1  0.200600  0.886200  0.571100  1.0  0.0319
  H  H95  1  0.055000  0.859300  0.444600  1.0  0.0251
  H  H96  1  0.082700  0.910700  0.308900  1.0  0.031
  H  H97  1  0.894100  0.436100  0.746400  1.0  0.2758
  H  H98  1  0.874300  0.478900  0.900000  1.0  0.2812
  H  H99  1  0.885400  0.268100  0.133800  1.0  0.2716
  H  H100  1  0.865100  0.311500  0.284800  1.0  0.2831
  H  H101  1  0.616900  0.276400  0.373300  1.0  0.2527
  H  H102  1  0.641300  0.322400  0.239300  1.0  0.2639
  H  H103  1  0.606800  0.423400  0.782000  1.0  0.2882
  H  H104  1  0.636600  0.469600  0.664700  1.0  0.2447
  H  H105  1  0.952500  0.364800  0.053300  1.0  0.0235
  H  H106  1  0.929100  0.410300  0.214800  1.0  0.0208
  H  H107  1  0.834400  0.338800  0.816600  1.0  0.0343
  H  H108  1  0.810600  0.385000  0.974800  1.0  0.0242
  H  H109  1  0.673800  0.336500  0.715300  1.0  0.0312
  H  H110  1  0.700600  0.386200  0.571100  1.0  0.0319
  H  H111  1  0.555000  0.359300  0.444600  1.0  0.0251
  H  H112  1  0.582700  0.410700  0.308900  1.0  0.031
  H  H113  1  0.605900  0.936100  0.753600  1.0  0.2738
  H  H114  1  0.625700  0.978900  0.600000  1.0  0.281
  H  H115  1  0.614600  0.768100  0.366200  1.0  0.2709
  H  H116  1  0.634900  0.811500  0.215200  1.0  0.283
  H  H117  1  0.883100  0.776400  0.126700  1.0  0.2534
  H  H118  1  0.858700  0.822400  0.260700  1.0  0.2636
  H  H119  1  0.893200  0.923400  0.718000  1.0  0.2865
  H  H120  1  0.863400  0.969600  0.835300  1.0  0.2445
  H  H121  1  0.547500  0.864800  0.446700  1.0  0.0239
  H  H122  1  0.570900  0.910300  0.285200  1.0  0.0246
  H  H123  1  0.665600  0.838800  0.683400  1.0  0.0349
  H  H124  1  0.689400  0.885000  0.525200  1.0  0.0259
  H  H125  1  0.826200  0.836500  0.784700  1.0  0.0305
  H  H126  1  0.799400  0.886200  0.928900  1.0  0.0331
  H  H127  1  0.945000  0.859300  0.055400  1.0  0.0245
  H  H128  1  0.917300  0.910700  0.191100  1.0  0.0301
  H  H129  1  0.105900  0.436100  0.753600  1.0  0.2738
  H  H130  1  0.125700  0.478900  0.600000  1.0  0.281
  H  H131  1  0.114600  0.268100  0.366200  1.0  0.2709
  H  H132  1  0.134900  0.311500  0.215200  1.0  0.283
  H  H133  1  0.383100  0.276400  0.126700  1.0  0.2534
  H  H134  1  0.358700  0.322400  0.260700  1.0  0.2636
  H  H135  1  0.393200  0.423400  0.718000  1.0  0.2865
  H  H136  1  0.363400  0.469600  0.835300  1.0  0.2445
  H  H137  1  0.047500  0.364800  0.446700  1.0  0.0239
  H  H138  1  0.070900  0.410300  0.285200  1.0  0.0246
  H  H139  1  0.165600  0.338800  0.683400  1.0  0.0349
  H  H140  1  0.189400  0.385000  0.525200  1.0  0.0259
  H  H141  1  0.326200  0.336500  0.784700  1.0  0.0305
  H  H142  1  0.299400  0.386200  0.928900  1.0  0.0331
  H  H143  1  0.445000  0.359300  0.055400  1.0  0.0245
  H  H144  1  0.417300  0.410700  0.191100  1.0  0.0301
  C  C145  1  0.584500  0.105900  0.946000  1.0  -0.0126
  C  C146  1  0.652400  0.144900  0.023000  1.0  -0.0158
  C  C147  1  0.836900  0.144200  0.440000  1.0  -0.0172
  C  C148  1  0.907500  0.109500  0.538000  1.0  -0.026
  C  C149  1  0.084500  0.605900  0.946000  1.0  -0.0126
  C  C150  1  0.152400  0.644900  0.023000  1.0  -0.0158
  C  C151  1  0.336900  0.644200  0.440000  1.0  -0.0172
  C  C152  1  0.407500  0.609500  0.538000  1.0  -0.026
  C  C153  1  0.415500  0.105900  0.554000  1.0  -0.0102
  C  C154  1  0.347600  0.144900  0.477000  1.0  -0.0183
  C  C155  1  0.163100  0.144200  0.060000  1.0  -0.0167
  C  C156  1  0.092500  0.109500  0.962000  1.0  -0.0267
  C  C157  1  0.915500  0.605900  0.554000  1.0  -0.0102
  C  C158  1  0.847600  0.644900  0.477000  1.0  -0.0183
  C  C159  1  0.663100  0.644200  0.060000  1.0  -0.0167
  C  C160  1  0.592500  0.609500  0.962000  1.0  -0.0267
  C  C161  1  0.415500  0.894100  0.054000  1.0  -0.0101
  C  C162  1  0.347600  0.855100  0.977000  1.0  -0.0179
  C  C163  1  0.163100  0.855800  0.560000  1.0  -0.0166
  C  C164  1  0.092500  0.890500  0.462000  1.0  -0.0273
  C  C165  1  0.915500  0.394100  0.054000  1.0  -0.0101
  C  C166  1  0.847600  0.355100  0.977000  1.0  -0.0179
  C  C167  1  0.663100  0.355800  0.560000  1.0  -0.0166
  C  C168  1  0.592500  0.390500  0.462000  1.0  -0.0273
  C  C169  1  0.584500  0.894100  0.446000  1.0  -0.013
  C  C170  1  0.652400  0.855100  0.523000  1.0  -0.0159
  C  C171  1  0.836900  0.855800  0.940000  1.0  -0.0168
  C  C172  1  0.907500  0.890500  0.038000  1.0  -0.0261
  C  C173  1  0.084500  0.394100  0.446000  1.0  -0.013
  C  C174  1  0.152400  0.355100  0.523000  1.0  -0.0159
  C  C175  1  0.336900  0.355800  0.940000  1.0  -0.0168
  C  C176  1  0.407500  0.390500  0.038000  1.0  -0.0261
  N  N177  1  0.592300  0.049200  0.104000  1.0  -0.688
  N  N178  1  0.647300  0.202600  0.865000  1.0  -0.7104
  N  N179  1  0.847800  0.196000  0.617000  1.0  -0.6739
  N  N180  1  0.900100  0.057500  0.358000  1.0  -0.694
  N  N181  1  0.092300  0.549200  0.104000  1.0  -0.688
  N  N182  1  0.147300  0.702600  0.865000  1.0  -0.7104
  N  N183  1  0.347800  0.696000  0.617000  1.0  -0.6739
  N  N184  1  0.400100  0.557500  0.358000  1.0  -0.694
  N  N185  1  0.407700  0.049200  0.396000  1.0  -0.688
  N  N186  1  0.352700  0.202600  0.635000  1.0  -0.7084
  N  N187  1  0.152200  0.196000  0.883000  1.0  -0.6776
  N  N188  1  0.099900  0.057500  0.142000  1.0  -0.695
  N  N189  1  0.907700  0.549200  0.396000  1.0  -0.688
  N  N190  1  0.852700  0.702600  0.635000  1.0  -0.7084
  N  N191  1  0.652200  0.696000  0.883000  1.0  -0.6776
  N  N192  1  0.599900  0.557500  0.142000  1.0  -0.695
  N  N193  1  0.407700  0.950800  0.896000  1.0  -0.6878
  N  N194  1  0.352700  0.797400  0.135000  1.0  -0.7083
  N  N195  1  0.152200  0.804000  0.383000  1.0  -0.6761
  N  N196  1  0.099900  0.942500  0.642000  1.0  -0.6945
  N  N197  1  0.907700  0.450800  0.896000  1.0  -0.6878
  N  N198  1  0.852700  0.297400  0.135000  1.0  -0.7083
  N  N199  1  0.652200  0.304000  0.383000  1.0  -0.6761
  N  N200  1  0.599900  0.442500  0.642000  1.0  -0.6945
  N  N201  1  0.592300  0.950800  0.604000  1.0  -0.6883
  N  N202  1  0.647300  0.797400  0.365000  1.0  -0.7106
  N  N203  1  0.847800  0.804000  0.117000  1.0  -0.6733
  N  N204  1  0.900100  0.942500  0.858000  1.0  -0.6935
  N  N205  1  0.092300  0.450800  0.604000  1.0  -0.6883
  N  N206  1  0.147300  0.297400  0.365000  1.0  -0.7106
  N  N207  1  0.347800  0.304000  0.117000  1.0  -0.6733
  N  N208  1  0.400100  0.442500  0.858000  1.0  -0.6935
