# generated using pymatgen
data_AgH8(CN)2
_symmetry_space_group_name_H-M   'P 1'
_cell_length_a   20.87800000
_cell_length_b   19.78900000
_cell_length_c   6.16530000
_cell_angle_alpha   90.00000000
_cell_angle_beta   114.42900000
_cell_angle_gamma   90.00000000
_symmetry_Int_Tables_number   1
_chemical_formula_structural   AgH8(CN)2
_chemical_formula_sum   'Ag16 H128 C32 N32'
_cell_volume   2319.18140521
_cell_formula_units_Z   16
loop_
 _symmetry_equiv_pos_site_id
 _symmetry_equiv_pos_as_xyz
  1  'x, y, z'
loop_
 _atom_site_type_symbol
 _atom_site_label
 _atom_site_symmetry_multiplicity
 _atom_site_fract_x
 _atom_site_fract_y
 _atom_site_fract_z
 _atom_site_occupancy
 _atom_site_charge
  Ag  Ag1  1  0.500000  0.000000  0.000000  1.0  0.1506
  Ag  Ag2  1  0.000000  0.500000  0.000000  1.0  0.1506
  Ag  Ag3  1  0.500000  0.000000  0.500000  1.0  0.1531
  Ag  Ag4  1  0.000000  0.500000  0.500000  1.0  0.1531
  Ag  Ag5  1  0.750000  0.250000  0.000000  1.0  0.4856
  Ag  Ag6  1  0.250000  0.250000  0.500000  1.0  0.4856
  Ag  Ag7  1  0.250000  0.750000  0.000000  1.0  0.4856
  Ag  Ag8  1  0.750000  0.750000  0.500000  1.0  0.4856
  Ag  Ag9  1  0.750000  0.250000  0.500000  1.0  0.2234
  Ag  Ag10  1  0.250000  0.250000  0.000000  1.0  0.2234
  Ag  Ag11  1  0.250000  0.750000  0.500000  1.0  0.2234
  Ag  Ag12  1  0.750000  0.750000  0.000000  1.0  0.2234
  Ag  Ag13  1  0.000000  0.000000  0.500000  1.0  0.2841
  Ag  Ag14  1  0.500000  0.500000  0.500000  1.0  0.2841
  Ag  Ag15  1  0.000000  0.000000  0.000000  1.0  0.284
  Ag  Ag16  1  0.500000  0.500000  0.000000  1.0  0.284
  H  H17  1  0.615200  0.059600  0.269300  1.0  0.2813
  H  H18  1  0.631700  0.017700  0.104900  1.0  0.2699
  H  H19  1  0.631500  0.226400  0.887300  1.0  0.2526
  H  H20  1  0.657100  0.183300  0.750300  1.0  0.2716
  H  H21  1  0.883900  0.224700  0.627100  1.0  0.2659
  H  H22  1  0.860500  0.178600  0.764800  1.0  0.2754
  H  H23  1  0.901100  0.072900  0.244600  1.0  0.2561
  H  H24  1  0.873600  0.026800  0.369200  1.0  0.2317
  H  H25  1  0.563200  0.138400  0.983600  1.0  0.0152
  H  H26  1  0.580500  0.093200  0.805700  1.0  0.0278
  H  H27  1  0.682600  0.155600  0.213300  1.0  0.0197
  H  H28  1  0.701700  0.107400  0.047200  1.0  0.0178
  H  H29  1  0.831100  0.159400  0.286200  1.0  0.0306
  H  H30  1  0.803900  0.110000  0.432000  1.0  0.0305
  H  H31  1  0.949200  0.142000  0.572700  1.0  0.0171
  H  H32  1  0.921500  0.091300  0.712600  1.0  0.0252
  H  H33  1  0.115200  0.559600  0.269300  1.0  0.2813
  H  H34  1  0.131700  0.517700  0.104900  1.0  0.2699
  H  H35  1  0.131500  0.726400  0.887300  1.0  0.2526
  H  H36  1  0.157100  0.683300  0.750300  1.0  0.2716
  H  H37  1  0.383900  0.724700  0.627100  1.0  0.2659
  H  H38  1  0.360500  0.678600  0.764800  1.0  0.2754
  H  H39  1  0.401100  0.572900  0.244600  1.0  0.2561
  H  H40  1  0.373600  0.526800  0.369200  1.0  0.2317
  H  H41  1  0.063200  0.638400  0.983600  1.0  0.0152
  H  H42  1  0.080500  0.593200  0.805700  1.0  0.0278
  H  H43  1  0.182600  0.655600  0.213300  1.0  0.0197
  H  H44  1  0.201700  0.607400  0.047200  1.0  0.0178
  H  H45  1  0.331100  0.659400  0.286200  1.0  0.0306
  H  H46  1  0.303900  0.610000  0.432000  1.0  0.0305
  H  H47  1  0.449200  0.642000  0.572700  1.0  0.0171
  H  H48  1  0.421500  0.591300  0.712600  1.0  0.0252
  H  H49  1  0.384800  0.059600  0.230700  1.0  0.2805
  H  H50  1  0.368300  0.017700  0.395100  1.0  0.2699
  H  H51  1  0.368500  0.226400  0.612700  1.0  0.2533
  H  H52  1  0.342900  0.183300  0.749700  1.0  0.2727
  H  H53  1  0.116100  0.224700  0.872900  1.0  0.2669
  H  H54  1  0.139500  0.178600  0.735200  1.0  0.2718
  H  H55  1  0.098900  0.072900  0.255400  1.0  0.2564
  H  H56  1  0.126400  0.026800  0.130800  1.0  0.2342
  H  H57  1  0.436800  0.138400  0.516400  1.0  0.0161
  H  H58  1  0.419500  0.093200  0.694300  1.0  0.0287
  H  H59  1  0.317400  0.155600  0.286700  1.0  0.0216
  H  H60  1  0.298300  0.107400  0.452800  1.0  0.0164
  H  H61  1  0.168900  0.159400  0.213800  1.0  0.0292
  H  H62  1  0.196100  0.110000  0.068000  1.0  0.0285
  H  H63  1  0.050800  0.142000  0.927300  1.0  0.0181
  H  H64  1  0.078500  0.091300  0.787400  1.0  0.0256
  H  H65  1  0.884800  0.559600  0.230700  1.0  0.2805
  H  H66  1  0.868300  0.517700  0.395100  1.0  0.2699
  H  H67  1  0.868500  0.726400  0.612700  1.0  0.2533
  H  H68  1  0.842900  0.683300  0.749700  1.0  0.2727
  H  H69  1  0.616100  0.724700  0.872900  1.0  0.2669
  H  H70  1  0.639500  0.678600  0.735200  1.0  0.2718
  H  H71  1  0.598900  0.572900  0.255400  1.0  0.2564
  H  H72  1  0.626400  0.526800  0.130800  1.0  0.2342
  H  H73  1  0.936800  0.638400  0.516400  1.0  0.0161
  H  H74  1  0.919500  0.593200  0.694300  1.0  0.0287
  H  H75  1  0.817400  0.655600  0.286700  1.0  0.0216
  H  H76  1  0.798300  0.607400  0.452800  1.0  0.0164
  H  H77  1  0.668900  0.659400  0.213800  1.0  0.0292
  H  H78  1  0.696100  0.610000  0.068000  1.0  0.0285
  H  H79  1  0.550800  0.642000  0.927300  1.0  0.0181
  H  H80  1  0.578500  0.591300  0.787400  1.0  0.0256
  H  H81  1  0.384800  0.940400  0.730700  1.0  0.2804
  H  H82  1  0.368300  0.982300  0.895100  1.0  0.2709
  H  H83  1  0.368500  0.773600  0.112700  1.0  0.253
  H  H84  1  0.342900  0.816700  0.249700  1.0  0.2721
  H  H85  1  0.116100  0.775300  0.372900  1.0  0.2648
  H  H86  1  0.139500  0.821400  0.235200  1.0  0.2716
  H  H87  1  0.098900  0.927100  0.755400  1.0  0.2571
  H  H88  1  0.126400  0.973200  0.630800  1.0  0.2333
  H  H89  1  0.436800  0.861600  0.016400  1.0  0.0154
  H  H90  1  0.419500  0.906800  0.194300  1.0  0.0293
  H  H91  1  0.317400  0.844400  0.786700  1.0  0.0213
  H  H92  1  0.298300  0.892600  0.952800  1.0  0.0164
  H  H93  1  0.168900  0.840600  0.713800  1.0  0.0286
  H  H94  1  0.196100  0.890000  0.568000  1.0  0.0286
  H  H95  1  0.050800  0.858000  0.427300  1.0  0.0176
  H  H96  1  0.078500  0.908700  0.287400  1.0  0.0259
  H  H97  1  0.884800  0.440400  0.730700  1.0  0.2804
  H  H98  1  0.868300  0.482300  0.895100  1.0  0.2709
  H  H99  1  0.868500  0.273600  0.112700  1.0  0.253
  H  H100  1  0.842900  0.316700  0.249700  1.0  0.2721
  H  H101  1  0.616100  0.275300  0.372900  1.0  0.2648
  H  H102  1  0.639500  0.321400  0.235200  1.0  0.2716
  H  H103  1  0.598900  0.427100  0.755400  1.0  0.2571
  H  H104  1  0.626400  0.473200  0.630800  1.0  0.2333
  H  H105  1  0.936800  0.361600  0.016400  1.0  0.0154
  H  H106  1  0.919500  0.406800  0.194300  1.0  0.0293
  H  H107  1  0.817400  0.344400  0.786700  1.0  0.0213
  H  H108  1  0.798300  0.392600  0.952800  1.0  0.0164
  H  H109  1  0.668900  0.340600  0.713800  1.0  0.0286
  H  H110  1  0.696100  0.390000  0.568000  1.0  0.0286
  H  H111  1  0.550800  0.358000  0.427300  1.0  0.0176
  H  H112  1  0.578500  0.408700  0.287400  1.0  0.0259
  H  H113  1  0.615200  0.940400  0.769300  1.0  0.2812
  H  H114  1  0.631700  0.982300  0.604900  1.0  0.2703
  H  H115  1  0.631500  0.773600  0.387300  1.0  0.2528
  H  H116  1  0.657100  0.816700  0.250300  1.0  0.271
  H  H117  1  0.883900  0.775300  0.127100  1.0  0.2654
  H  H118  1  0.860500  0.821400  0.264800  1.0  0.2751
  H  H119  1  0.901100  0.927100  0.744600  1.0  0.2568
  H  H120  1  0.873600  0.973200  0.869200  1.0  0.2318
  H  H121  1  0.563200  0.861600  0.483600  1.0  0.0159
  H  H122  1  0.580500  0.906800  0.305700  1.0  0.0277
  H  H123  1  0.682600  0.844400  0.713300  1.0  0.0196
  H  H124  1  0.701700  0.892600  0.547200  1.0  0.0177
  H  H125  1  0.831100  0.840600  0.786200  1.0  0.0299
  H  H126  1  0.803900  0.890000  0.932000  1.0  0.0303
  H  H127  1  0.949200  0.858000  0.072700  1.0  0.016
  H  H128  1  0.921500  0.908700  0.212600  1.0  0.025
  H  H129  1  0.115200  0.440400  0.769300  1.0  0.2812
  H  H130  1  0.131700  0.482300  0.604900  1.0  0.2703
  H  H131  1  0.131500  0.273600  0.387300  1.0  0.2528
  H  H132  1  0.157100  0.316700  0.250300  1.0  0.271
  H  H133  1  0.383900  0.275300  0.127100  1.0  0.2654
  H  H134  1  0.360500  0.321400  0.264800  1.0  0.2751
  H  H135  1  0.401100  0.427100  0.744600  1.0  0.2568
  H  H136  1  0.373600  0.473200  0.869200  1.0  0.2318
  H  H137  1  0.063200  0.361600  0.483600  1.0  0.0159
  H  H138  1  0.080500  0.406800  0.305700  1.0  0.0277
  H  H139  1  0.182600  0.344400  0.713300  1.0  0.0196
  H  H140  1  0.201700  0.392600  0.547200  1.0  0.0177
  H  H141  1  0.331100  0.340600  0.786200  1.0  0.0299
  H  H142  1  0.303900  0.390000  0.932000  1.0  0.0303
  H  H143  1  0.449200  0.358000  0.072700  1.0  0.016
  H  H144  1  0.421500  0.408700  0.212600  1.0  0.025
  C  C145  1  0.596800  0.106500  0.971000  1.0  -0.0175
  C  C146  1  0.667600  0.140300  0.050000  1.0  -0.0175
  C  C147  1  0.840700  0.141500  0.443000  1.0  -0.0295
  C  C148  1  0.912700  0.109500  0.557000  1.0  -0.0288
  C  C149  1  0.096800  0.606500  0.971000  1.0  -0.0175
  C  C150  1  0.167600  0.640300  0.050000  1.0  -0.0175
  C  C151  1  0.340700  0.641500  0.443000  1.0  -0.0295
  C  C152  1  0.412700  0.609500  0.557000  1.0  -0.0288
  C  C153  1  0.403200  0.106500  0.529000  1.0  -0.0157
  C  C154  1  0.332400  0.140300  0.450000  1.0  -0.0198
  C  C155  1  0.159300  0.141500  0.057000  1.0  -0.0289
  C  C156  1  0.087300  0.109500  0.943000  1.0  -0.0301
  C  C157  1  0.903200  0.606500  0.529000  1.0  -0.0157
  C  C158  1  0.832400  0.640300  0.450000  1.0  -0.0198
  C  C159  1  0.659300  0.641500  0.057000  1.0  -0.0289
  C  C160  1  0.587300  0.609500  0.943000  1.0  -0.0301
  C  C161  1  0.403200  0.893500  0.029000  1.0  -0.0156
  C  C162  1  0.332400  0.859700  0.950000  1.0  -0.0199
  C  C163  1  0.159300  0.858500  0.557000  1.0  -0.0288
  C  C164  1  0.087300  0.890500  0.443000  1.0  -0.0307
  C  C165  1  0.903200  0.393500  0.029000  1.0  -0.0156
  C  C166  1  0.832400  0.359700  0.950000  1.0  -0.0199
  C  C167  1  0.659300  0.358500  0.557000  1.0  -0.0288
  C  C168  1  0.587300  0.390500  0.443000  1.0  -0.0307
  C  C169  1  0.596800  0.893500  0.471000  1.0  -0.0175
  C  C170  1  0.667600  0.859700  0.550000  1.0  -0.0177
  C  C171  1  0.840700  0.858500  0.943000  1.0  -0.029
  C  C172  1  0.912700  0.890500  0.057000  1.0  -0.029
  C  C173  1  0.096800  0.393500  0.471000  1.0  -0.0175
  C  C174  1  0.167600  0.359700  0.550000  1.0  -0.0177
  C  C175  1  0.340700  0.358500  0.943000  1.0  -0.029
  C  C176  1  0.412700  0.390500  0.057000  1.0  -0.029
  N  N177  1  0.600400  0.047300  0.116000  1.0  -0.695
  N  N178  1  0.666900  0.198800  0.898000  1.0  -0.6795
  N  N179  1  0.849400  0.196300  0.619200  1.0  -0.6957
  N  N180  1  0.909600  0.054600  0.388000  1.0  -0.6969
  N  N181  1  0.100400  0.547300  0.116000  1.0  -0.695
  N  N182  1  0.166900  0.698800  0.898000  1.0  -0.6795
  N  N183  1  0.349400  0.696300  0.619200  1.0  -0.6957
  N  N184  1  0.409600  0.554600  0.388000  1.0  -0.6969
  N  N185  1  0.399600  0.047300  0.384000  1.0  -0.6954
  N  N186  1  0.333100  0.198800  0.602000  1.0  -0.6787
  N  N187  1  0.150600  0.196300  0.880800  1.0  -0.6977
  N  N188  1  0.090400  0.054600  0.112000  1.0  -0.6933
  N  N189  1  0.899600  0.547300  0.384000  1.0  -0.6954
  N  N190  1  0.833100  0.698800  0.602000  1.0  -0.6787
  N  N191  1  0.650600  0.696300  0.880800  1.0  -0.6977
  N  N192  1  0.590400  0.554600  0.112000  1.0  -0.6933
  N  N193  1  0.399600  0.952700  0.884000  1.0  -0.6951
  N  N194  1  0.333100  0.801200  0.102000  1.0  -0.6783
  N  N195  1  0.150600  0.803700  0.380800  1.0  -0.6982
  N  N196  1  0.090400  0.945400  0.612000  1.0  -0.6931
  N  N197  1  0.899600  0.452700  0.884000  1.0  -0.6951
  N  N198  1  0.833100  0.301200  0.102000  1.0  -0.6783
  N  N199  1  0.650600  0.303700  0.380800  1.0  -0.6982
  N  N200  1  0.590400  0.445400  0.612000  1.0  -0.6931
  N  N201  1  0.600400  0.952700  0.616000  1.0  -0.695
  N  N202  1  0.666900  0.801200  0.398000  1.0  -0.6805
  N  N203  1  0.849400  0.803700  0.119200  1.0  -0.6966
  N  N204  1  0.909600  0.945400  0.888000  1.0  -0.6954
  N  N205  1  0.100400  0.452700  0.616000  1.0  -0.695
  N  N206  1  0.166900  0.301200  0.398000  1.0  -0.6805
  N  N207  1  0.349400  0.303700  0.119200  1.0  -0.6966
  N  N208  1  0.409600  0.445400  0.888000  1.0  -0.6954
