# generated using pymatgen
data_AgH8(CN)2
_symmetry_space_group_name_H-M   'P 1'
_cell_length_a   10.23630000
_cell_length_b   10.65040000
_cell_length_c   6.22250000
_cell_angle_alpha   90.00000000
_cell_angle_beta   114.52200000
_cell_angle_gamma   90.00000000
_symmetry_Int_Tables_number   1
_chemical_formula_structural   AgH8(CN)2
_chemical_formula_sum   'Ag4 H32 C8 N8'
_cell_volume   617.19259111
_cell_formula_units_Z   4
loop_
 _symmetry_equiv_pos_site_id
 _symmetry_equiv_pos_as_xyz
  1  'x, y, z'
loop_
 _atom_site_type_symbol
 _atom_site_label
 _atom_site_symmetry_multiplicity
 _atom_site_fract_x
 _atom_site_fract_y
 _atom_site_fract_z
 _atom_site_occupancy
 _atom_site_charge
  Ag  Ag1  1  0.500000  0.000000  0.500000  1.0  0.1837
  Ag  Ag2  1  0.000000  0.500000  0.500000  1.0  0.1837
  Ag  Ag3  1  0.500000  0.000000  0.000000  1.0  0.1837
  Ag  Ag4  1  0.000000  0.500000  0.000000  1.0  0.1837
  H  H5  1  0.400900  0.265700  0.569600  1.0  0.0238
  H  H6  1  0.333000  0.174200  0.700200  1.0  0.0319
  H  H7  1  0.294900  0.143500  0.235800  1.0  0.2738
  H  H8  1  0.234000  0.057800  0.359500  1.0  0.2693
  H  H9  1  0.900900  0.765700  0.569600  1.0  0.0238
  H  H10  1  0.833000  0.674200  0.700200  1.0  0.0319
  H  H11  1  0.794900  0.643500  0.235800  1.0  0.2738
  H  H12  1  0.734000  0.557800  0.359500  1.0  0.2693
  H  H13  1  0.599100  0.265700  0.930400  1.0  0.0242
  H  H14  1  0.667000  0.174200  0.799800  1.0  0.0335
  H  H15  1  0.705100  0.143500  0.264200  1.0  0.2739
  H  H16  1  0.766000  0.057800  0.140500  1.0  0.2699
  H  H17  1  0.099100  0.765700  0.930400  1.0  0.0242
  H  H18  1  0.167000  0.674200  0.799800  1.0  0.0335
  H  H19  1  0.205100  0.643500  0.264200  1.0  0.2739
  H  H20  1  0.266000  0.557800  0.140500  1.0  0.2699
  H  H21  1  0.599100  0.734300  0.430400  1.0  0.0238
  H  H22  1  0.667000  0.825800  0.299800  1.0  0.0331
  H  H23  1  0.705100  0.856500  0.764200  1.0  0.2739
  H  H24  1  0.766000  0.942200  0.640500  1.0  0.2694
  H  H25  1  0.099100  0.234300  0.430400  1.0  0.0238
  H  H26  1  0.167000  0.325800  0.299800  1.0  0.0331
  H  H27  1  0.205100  0.356500  0.764200  1.0  0.2739
  H  H28  1  0.266000  0.442200  0.640500  1.0  0.2694
  H  H29  1  0.400900  0.734300  0.069600  1.0  0.0234
  H  H30  1  0.333000  0.825800  0.200200  1.0  0.0318
  H  H31  1  0.294900  0.856500  0.735800  1.0  0.2742
  H  H32  1  0.234000  0.942200  0.859500  1.0  0.2692
  H  H33  1  0.900900  0.234300  0.069600  1.0  0.0234
  H  H34  1  0.833000  0.325800  0.200200  1.0  0.0318
  H  H35  1  0.794900  0.356500  0.735800  1.0  0.2742
  H  H36  1  0.734000  0.442200  0.859500  1.0  0.2692
  C  C37  1  0.317900  0.210900  0.545500  1.0  0.0136
  C  C38  1  0.817900  0.710900  0.545500  1.0  0.0136
  C  C39  1  0.682100  0.210900  0.954500  1.0  0.0129
  C  C40  1  0.182100  0.710900  0.954500  1.0  0.0129
  C  C41  1  0.682100  0.789100  0.454500  1.0  0.0143
  C  C42  1  0.182100  0.289100  0.454500  1.0  0.0143
  C  C43  1  0.317900  0.789100  0.045500  1.0  0.0156
  C  C44  1  0.817900  0.289100  0.045500  1.0  0.0156
  N  N45  1  0.310700  0.109100  0.380100  1.0  -0.7068
  N  N46  1  0.810700  0.609100  0.380100  1.0  -0.7068
  N  N47  1  0.689300  0.109100  0.119900  1.0  -0.7056
  N  N48  1  0.189300  0.609100  0.119900  1.0  -0.7056
  N  N49  1  0.689300  0.890900  0.619900  1.0  -0.7051
  N  N50  1  0.189300  0.390900  0.619900  1.0  -0.7051
  N  N51  1  0.310700  0.890900  0.880100  1.0  -0.7053
  N  N52  1  0.810700  0.390900  0.880100  1.0  -0.7053
