# generated using pymatgen
data_AgH8(CN)2
_symmetry_space_group_name_H-M   'P 1'
_cell_length_a   10.18950000
_cell_length_b   10.68380000
_cell_length_c   6.20960000
_cell_angle_alpha   90.00000000
_cell_angle_beta   114.38900000
_cell_angle_gamma   90.00000000
_symmetry_Int_Tables_number   1
_chemical_formula_structural   AgH8(CN)2
_chemical_formula_sum   'Ag4 H32 C8 N8'
_cell_volume   615.66945230
_cell_formula_units_Z   4
loop_
 _symmetry_equiv_pos_site_id
 _symmetry_equiv_pos_as_xyz
  1  'x, y, z'
loop_
 _atom_site_type_symbol
 _atom_site_label
 _atom_site_symmetry_multiplicity
 _atom_site_fract_x
 _atom_site_fract_y
 _atom_site_fract_z
 _atom_site_occupancy
 _atom_site_charge
  Ag  Ag1  1  0.500000  0.000000  0.500000  1.0  0.1818
  Ag  Ag2  1  0.000000  0.500000  0.500000  1.0  0.1818
  Ag  Ag3  1  0.500000  0.000000  0.000000  1.0  0.1815
  Ag  Ag4  1  0.000000  0.500000  0.000000  1.0  0.1815
  H  H5  1  0.294900  0.143200  0.235000  1.0  0.2734
  H  H6  1  0.233300  0.058400  0.359200  1.0  0.2679
  H  H7  1  0.401400  0.265500  0.568000  1.0  0.0259
  H  H8  1  0.333600  0.174600  0.700300  1.0  0.0349
  H  H9  1  0.794900  0.643200  0.235000  1.0  0.2734
  H  H10  1  0.733300  0.558400  0.359200  1.0  0.2679
  H  H11  1  0.901400  0.765500  0.568000  1.0  0.0259
  H  H12  1  0.833600  0.674600  0.700300  1.0  0.0349
  H  H13  1  0.705100  0.143200  0.265000  1.0  0.2736
  H  H14  1  0.766700  0.058400  0.140800  1.0  0.2687
  H  H15  1  0.598600  0.265500  0.932000  1.0  0.026
  H  H16  1  0.666400  0.174600  0.799700  1.0  0.0361
  H  H17  1  0.205100  0.643200  0.265000  1.0  0.2736
  H  H18  1  0.266700  0.558400  0.140800  1.0  0.2687
  H  H19  1  0.098600  0.765500  0.932000  1.0  0.026
  H  H20  1  0.166400  0.674600  0.799700  1.0  0.0361
  H  H21  1  0.705100  0.856800  0.765000  1.0  0.2737
  H  H22  1  0.766700  0.941600  0.640800  1.0  0.2677
  H  H23  1  0.598600  0.734500  0.432000  1.0  0.0257
  H  H24  1  0.666400  0.825400  0.299700  1.0  0.0356
  H  H25  1  0.205100  0.356800  0.765000  1.0  0.2737
  H  H26  1  0.266700  0.441600  0.640800  1.0  0.2677
  H  H27  1  0.098600  0.234500  0.432000  1.0  0.0257
  H  H28  1  0.166400  0.325400  0.299700  1.0  0.0356
  H  H29  1  0.294900  0.856800  0.735000  1.0  0.2738
  H  H30  1  0.233300  0.941600  0.859200  1.0  0.2677
  H  H31  1  0.401400  0.734500  0.068000  1.0  0.0255
  H  H32  1  0.333600  0.825400  0.200300  1.0  0.0349
  H  H33  1  0.794900  0.356800  0.735000  1.0  0.2738
  H  H34  1  0.733300  0.441600  0.859200  1.0  0.2677
  H  H35  1  0.901400  0.234500  0.068000  1.0  0.0255
  H  H36  1  0.833600  0.325400  0.200300  1.0  0.0349
  C  C37  1  0.318100  0.211000  0.545000  1.0  0.0154
  C  C38  1  0.818100  0.711000  0.545000  1.0  0.0154
  C  C39  1  0.681900  0.211000  0.955000  1.0  0.0143
  C  C40  1  0.181900  0.711000  0.955000  1.0  0.0143
  C  C41  1  0.681900  0.789000  0.455000  1.0  0.0102
  C  C42  1  0.181900  0.289000  0.455000  1.0  0.0102
  C  C43  1  0.318100  0.789000  0.045000  1.0  0.0114
  C  C44  1  0.818100  0.289000  0.045000  1.0  0.0114
  N  N45  1  0.310400  0.109200  0.379600  1.0  -0.7072
  N  N46  1  0.810400  0.609200  0.379600  1.0  -0.7072
  N  N47  1  0.689600  0.109200  0.120400  1.0  -0.707
  N  N48  1  0.189600  0.609200  0.120400  1.0  -0.707
  N  N49  1  0.689600  0.890800  0.620400  1.0  -0.706
  N  N50  1  0.189600  0.390800  0.620400  1.0  -0.706
  N  N51  1  0.310400  0.890800  0.879600  1.0  -0.7054
  N  N52  1  0.810400  0.390800  0.879600  1.0  -0.7054
