# generated using pymatgen
data_AgH8(CN)2
_symmetry_space_group_name_H-M   'P 1'
_cell_length_a   10.41800000
_cell_length_b   10.52100000
_cell_length_c   6.28700000
_cell_angle_alpha   90.00000000
_cell_angle_beta   115.16000000
_cell_angle_gamma   90.00000000
_symmetry_Int_Tables_number   1
_chemical_formula_structural   AgH8(CN)2
_chemical_formula_sum   'Ag4 H32 C8 N8'
_cell_volume   623.72471615
_cell_formula_units_Z   4
loop_
 _symmetry_equiv_pos_site_id
 _symmetry_equiv_pos_as_xyz
  1  'x, y, z'
loop_
 _atom_site_type_symbol
 _atom_site_label
 _atom_site_symmetry_multiplicity
 _atom_site_fract_x
 _atom_site_fract_y
 _atom_site_fract_z
 _atom_site_occupancy
 _atom_site_charge
  Ag  Ag1  1  0.500000  0.000000  0.500000  1.0  0.2317
  Ag  Ag2  1  0.000000  0.500000  0.500000  1.0  0.2317
  Ag  Ag3  1  0.500000  0.000000  0.000000  1.0  0.2317
  Ag  Ag4  1  0.000000  0.500000  0.000000  1.0  0.2317
  H  H5  1  0.307600  0.169200  0.264300  1.0  0.0943
  H  H6  1  0.226500  0.054300  0.334700  1.0  0.1797
  H  H7  1  0.397100  0.265400  0.575900  1.0  0.1124
  H  H8  1  0.329400  0.172500  0.694700  1.0  0.101
  H  H9  1  0.807600  0.669200  0.264300  1.0  0.0943
  H  H10  1  0.726500  0.554300  0.334700  1.0  0.1797
  H  H11  1  0.897100  0.765400  0.575900  1.0  0.1124
  H  H12  1  0.829400  0.672500  0.694700  1.0  0.101
  H  H13  1  0.692400  0.169200  0.235700  1.0  0.0964
  H  H14  1  0.773500  0.054300  0.165300  1.0  0.1797
  H  H15  1  0.602900  0.265400  0.924100  1.0  0.111
  H  H16  1  0.670600  0.172500  0.805300  1.0  0.0994
  H  H17  1  0.192400  0.669200  0.235700  1.0  0.0964
  H  H18  1  0.273500  0.554300  0.165300  1.0  0.1797
  H  H19  1  0.102900  0.765400  0.924100  1.0  0.111
  H  H20  1  0.170600  0.672500  0.805300  1.0  0.0994
  H  H21  1  0.692400  0.830800  0.735700  1.0  0.0971
  H  H22  1  0.773500  0.945700  0.665300  1.0  0.179
  H  H23  1  0.602900  0.734600  0.424100  1.0  0.111
  H  H24  1  0.670600  0.827500  0.305300  1.0  0.0997
  H  H25  1  0.192400  0.330800  0.735700  1.0  0.0971
  H  H26  1  0.273500  0.445700  0.665300  1.0  0.179
  H  H27  1  0.102900  0.234600  0.424100  1.0  0.111
  H  H28  1  0.170600  0.327500  0.305300  1.0  0.0997
  H  H29  1  0.307600  0.830800  0.764300  1.0  0.0949
  H  H30  1  0.226500  0.945700  0.834700  1.0  0.1793
  H  H31  1  0.397100  0.734600  0.075900  1.0  0.1114
  H  H32  1  0.329400  0.827500  0.194700  1.0  0.1014
  H  H33  1  0.807600  0.330800  0.764300  1.0  0.0949
  H  H34  1  0.726500  0.445700  0.834700  1.0  0.1793
  H  H35  1  0.897100  0.234600  0.075900  1.0  0.1114
  H  H36  1  0.829400  0.327500  0.194700  1.0  0.1014
  C  C37  1  0.316500  0.210600  0.546400  1.0  0.0107
  C  C38  1  0.816500  0.710600  0.546400  1.0  0.0107
  C  C39  1  0.683500  0.210600  0.953600  1.0  0.0106
  C  C40  1  0.183500  0.710600  0.953600  1.0  0.0106
  C  C41  1  0.683500  0.789400  0.453600  1.0  0.0106
  C  C42  1  0.183500  0.289400  0.453600  1.0  0.0106
  C  C43  1  0.316500  0.789400  0.046400  1.0  0.011
  C  C44  1  0.816500  0.289400  0.046400  1.0  0.011
  N  N45  1  0.312700  0.109800  0.381600  1.0  -0.6142
  N  N46  1  0.812700  0.609800  0.381600  1.0  -0.6142
  N  N47  1  0.687300  0.109800  0.118400  1.0  -0.6155
  N  N48  1  0.187300  0.609800  0.118400  1.0  -0.6155
  N  N49  1  0.687300  0.890200  0.618400  1.0  -0.6124
  N  N50  1  0.187300  0.390200  0.618400  1.0  -0.6124
  N  N51  1  0.312700  0.890200  0.881600  1.0  -0.6122
  N  N52  1  0.812700  0.390200  0.881600  1.0  -0.6122
