# generated using pymatgen
data_AgH8(CN)2
_symmetry_space_group_name_H-M   'P 1'
_cell_length_a   20.79600000
_cell_length_b   19.48500000
_cell_length_c   5.97200000
_cell_angle_alpha   90.00000000
_cell_angle_beta   114.09600000
_cell_angle_gamma   90.00000000
_symmetry_Int_Tables_number   1
_chemical_formula_structural   AgH8(CN)2
_chemical_formula_sum   'Ag16 H128 C32 N32'
_cell_volume   2209.04962053
_cell_formula_units_Z   16
loop_
 _symmetry_equiv_pos_site_id
 _symmetry_equiv_pos_as_xyz
  1  'x, y, z'
loop_
 _atom_site_type_symbol
 _atom_site_label
 _atom_site_symmetry_multiplicity
 _atom_site_fract_x
 _atom_site_fract_y
 _atom_site_fract_z
 _atom_site_occupancy
 _atom_site_charge
  Ag  Ag1  1  0.500000  0.000000  0.000000  1.0  0.2749
  Ag  Ag2  1  0.000000  0.500000  0.000000  1.0  0.2749
  Ag  Ag3  1  0.500000  0.000000  0.500000  1.0  0.2749
  Ag  Ag4  1  0.000000  0.500000  0.500000  1.0  0.2749
  Ag  Ag5  1  0.750000  0.250000  0.000000  1.0  0.2851
  Ag  Ag6  1  0.250000  0.250000  0.500000  1.0  0.2851
  Ag  Ag7  1  0.250000  0.750000  0.000000  1.0  0.2851
  Ag  Ag8  1  0.750000  0.750000  0.500000  1.0  0.2851
  Ag  Ag9  1  0.750000  0.250000  0.500000  1.0  0.3349
  Ag  Ag10  1  0.250000  0.250000  0.000000  1.0  0.3349
  Ag  Ag11  1  0.250000  0.750000  0.500000  1.0  0.3349
  Ag  Ag12  1  0.750000  0.750000  0.000000  1.0  0.3349
  Ag  Ag13  1  0.000000  0.000000  0.500000  1.0  0.2462
  Ag  Ag14  1  0.500000  0.500000  0.500000  1.0  0.2462
  Ag  Ag15  1  0.000000  0.000000  0.000000  1.0  0.2462
  Ag  Ag16  1  0.500000  0.500000  0.000000  1.0  0.2462
  H  H17  1  0.628100  0.051300  0.310700  1.0  0.25
  H  H18  1  0.641900  0.010800  0.126200  1.0  0.2241
  H  H19  1  0.618700  0.229900  0.887500  1.0  0.2687
  H  H20  1  0.637800  0.186200  0.724500  1.0  0.2857
  H  H21  1  0.876700  0.224800  0.628000  1.0  0.2061
  H  H22  1  0.850100  0.176600  0.756500  1.0  0.2368
  H  H23  1  0.897200  0.071900  0.230800  1.0  0.2703
  H  H24  1  0.871500  0.026400  0.369200  1.0  0.2561
  H  H25  1  0.561900  0.128300  0.015700  1.0  0.0314
  H  H26  1  0.578900  0.085900  0.823000  1.0  0.0316
  H  H27  1  0.679300  0.159900  0.217500  1.0  0.0327
  H  H28  1  0.699900  0.113200  0.043400  1.0  0.0291
  H  H29  1  0.826900  0.162400  0.272700  1.0  0.0543
  H  H30  1  0.800500  0.109400  0.417700  1.0  0.0365
  H  H31  1  0.944800  0.145800  0.555900  1.0  0.0237
  H  H32  1  0.919600  0.095800  0.712100  1.0  0.0324
  H  H33  1  0.128100  0.551300  0.310700  1.0  0.25
  H  H34  1  0.141900  0.510800  0.126200  1.0  0.2241
  H  H35  1  0.118700  0.729900  0.887500  1.0  0.2687
  H  H36  1  0.137800  0.686200  0.724500  1.0  0.2857
  H  H37  1  0.376700  0.724800  0.628000  1.0  0.2061
  H  H38  1  0.350100  0.676600  0.756500  1.0  0.2368
  H  H39  1  0.397200  0.571900  0.230800  1.0  0.2703
  H  H40  1  0.371500  0.526400  0.369200  1.0  0.2561
  H  H41  1  0.061900  0.628300  0.015700  1.0  0.0314
  H  H42  1  0.078900  0.585900  0.823000  1.0  0.0316
  H  H43  1  0.179300  0.659900  0.217500  1.0  0.0327
  H  H44  1  0.199900  0.613200  0.043400  1.0  0.0291
  H  H45  1  0.326900  0.662400  0.272700  1.0  0.0543
  H  H46  1  0.300500  0.609400  0.417700  1.0  0.0365
  H  H47  1  0.444800  0.645800  0.555900  1.0  0.0237
  H  H48  1  0.419600  0.595800  0.712100  1.0  0.0324
  H  H49  1  0.371900  0.051300  0.189300  1.0  0.2498
  H  H50  1  0.358100  0.010800  0.373800  1.0  0.2235
  H  H51  1  0.381300  0.229900  0.612500  1.0  0.2678
  H  H52  1  0.362200  0.186200  0.775500  1.0  0.2861
  H  H53  1  0.123300  0.224800  0.872000  1.0  0.2056
  H  H54  1  0.149900  0.176600  0.743500  1.0  0.2363
  H  H55  1  0.102800  0.071900  0.269200  1.0  0.2698
  H  H56  1  0.128500  0.026400  0.130800  1.0  0.2577
  H  H57  1  0.438100  0.128300  0.484300  1.0  0.0336
  H  H58  1  0.421100  0.085900  0.677000  1.0  0.0318
  H  H59  1  0.320700  0.159900  0.282500  1.0  0.0355
  H  H60  1  0.300100  0.113200  0.456600  1.0  0.0293
  H  H61  1  0.173100  0.162400  0.227300  1.0  0.052
  H  H62  1  0.199500  0.109400  0.082300  1.0  0.0374
  H  H63  1  0.055200  0.145800  0.944100  1.0  0.0247
  H  H64  1  0.080400  0.095800  0.787900  1.0  0.0331
  H  H65  1  0.871900  0.551300  0.189300  1.0  0.2498
  H  H66  1  0.858100  0.510800  0.373800  1.0  0.2235
  H  H67  1  0.881300  0.729900  0.612500  1.0  0.2678
  H  H68  1  0.862200  0.686200  0.775500  1.0  0.2861
  H  H69  1  0.623300  0.724800  0.872000  1.0  0.2056
  H  H70  1  0.649900  0.676600  0.743500  1.0  0.2363
  H  H71  1  0.602800  0.571900  0.269200  1.0  0.2698
  H  H72  1  0.628500  0.526400  0.130800  1.0  0.2577
  H  H73  1  0.938100  0.628300  0.484300  1.0  0.0336
  H  H74  1  0.921100  0.585900  0.677000  1.0  0.0318
  H  H75  1  0.820700  0.659900  0.282500  1.0  0.0355
  H  H76  1  0.800100  0.613200  0.456600  1.0  0.0293
  H  H77  1  0.673100  0.662400  0.227300  1.0  0.052
  H  H78  1  0.699500  0.609400  0.082300  1.0  0.0374
  H  H79  1  0.555200  0.645800  0.944100  1.0  0.0247
  H  H80  1  0.580400  0.595800  0.787900  1.0  0.0331
  H  H81  1  0.371900  0.948700  0.689300  1.0  0.25
  H  H82  1  0.358100  0.989200  0.873800  1.0  0.2224
  H  H83  1  0.381300  0.770100  0.112500  1.0  0.2674
  H  H84  1  0.362200  0.813800  0.275500  1.0  0.2861
  H  H85  1  0.123300  0.775200  0.372000  1.0  0.2048
  H  H86  1  0.149900  0.823400  0.243500  1.0  0.2366
  H  H87  1  0.102800  0.928100  0.769200  1.0  0.27
  H  H88  1  0.128500  0.973600  0.630800  1.0  0.2575
  H  H89  1  0.438100  0.871700  0.984300  1.0  0.032
  H  H90  1  0.421100  0.914100  0.177000  1.0  0.0319
  H  H91  1  0.320700  0.840100  0.782500  1.0  0.0348
  H  H92  1  0.300100  0.886800  0.956600  1.0  0.0288
  H  H93  1  0.173100  0.837600  0.727300  1.0  0.0518
  H  H94  1  0.199500  0.890600  0.582300  1.0  0.0377
  H  H95  1  0.055200  0.854200  0.444100  1.0  0.025
  H  H96  1  0.080400  0.904200  0.287900  1.0  0.0334
  H  H97  1  0.871900  0.448700  0.689300  1.0  0.25
  H  H98  1  0.858100  0.489200  0.873800  1.0  0.2224
  H  H99  1  0.881300  0.270100  0.112500  1.0  0.2674
  H  H100  1  0.862200  0.313800  0.275500  1.0  0.2861
  H  H101  1  0.623300  0.275200  0.372000  1.0  0.2048
  H  H102  1  0.649900  0.323400  0.243500  1.0  0.2366
  H  H103  1  0.602800  0.428100  0.769200  1.0  0.27
  H  H104  1  0.628500  0.473600  0.630800  1.0  0.2575
  H  H105  1  0.938100  0.371700  0.984300  1.0  0.032
  H  H106  1  0.921100  0.414100  0.177000  1.0  0.0319
  H  H107  1  0.820700  0.340100  0.782500  1.0  0.0348
  H  H108  1  0.800100  0.386800  0.956600  1.0  0.0288
  H  H109  1  0.673100  0.337600  0.727300  1.0  0.0518
  H  H110  1  0.699500  0.390600  0.582300  1.0  0.0377
  H  H111  1  0.555200  0.354200  0.444100  1.0  0.025
  H  H112  1  0.580400  0.404200  0.287900  1.0  0.0334
  H  H113  1  0.628100  0.948700  0.810700  1.0  0.2501
  H  H114  1  0.641900  0.989200  0.626200  1.0  0.2232
  H  H115  1  0.618700  0.770100  0.387500  1.0  0.2681
  H  H116  1  0.637800  0.813800  0.224500  1.0  0.2849
  H  H117  1  0.876700  0.775200  0.128000  1.0  0.2062
  H  H118  1  0.850100  0.823400  0.256500  1.0  0.237
  H  H119  1  0.897200  0.928100  0.730800  1.0  0.2706
  H  H120  1  0.871500  0.973600  0.869200  1.0  0.257
  H  H121  1  0.561900  0.871700  0.515700  1.0  0.0323
  H  H122  1  0.578900  0.914100  0.323000  1.0  0.0318
  H  H123  1  0.679300  0.840100  0.717500  1.0  0.0327
  H  H124  1  0.699900  0.886800  0.543400  1.0  0.0299
  H  H125  1  0.826900  0.837600  0.772700  1.0  0.0538
  H  H126  1  0.800500  0.890600  0.917700  1.0  0.0361
  H  H127  1  0.944800  0.854200  0.055900  1.0  0.0226
  H  H128  1  0.919600  0.904200  0.212100  1.0  0.033
  H  H129  1  0.128100  0.448700  0.810700  1.0  0.2501
  H  H130  1  0.141900  0.489200  0.626200  1.0  0.2232
  H  H131  1  0.118700  0.270100  0.387500  1.0  0.2681
  H  H132  1  0.137800  0.313800  0.224500  1.0  0.2849
  H  H133  1  0.376700  0.275200  0.128000  1.0  0.2062
  H  H134  1  0.350100  0.323400  0.256500  1.0  0.237
  H  H135  1  0.397200  0.428100  0.730800  1.0  0.2706
  H  H136  1  0.371500  0.473600  0.869200  1.0  0.257
  H  H137  1  0.061900  0.371700  0.515700  1.0  0.0323
  H  H138  1  0.078900  0.414100  0.323000  1.0  0.0318
  H  H139  1  0.179300  0.340100  0.717500  1.0  0.0327
  H  H140  1  0.199900  0.386800  0.543400  1.0  0.0299
  H  H141  1  0.326900  0.337600  0.772700  1.0  0.0538
  H  H142  1  0.300500  0.390600  0.917700  1.0  0.0361
  H  H143  1  0.444800  0.354200  0.055900  1.0  0.0226
  H  H144  1  0.419600  0.404200  0.212100  1.0  0.033
  C  C145  1  0.597400  0.100300  0.993000  1.0  -0.0104
  C  C146  1  0.663200  0.142500  0.051000  1.0  -0.0227
  C  C147  1  0.836400  0.143000  0.433000  1.0  -0.0367
  C  C148  1  0.909400  0.112400  0.548000  1.0  -0.033
  C  C149  1  0.097400  0.600300  0.993000  1.0  -0.0104
  C  C150  1  0.163200  0.642500  0.051000  1.0  -0.0227
  C  C151  1  0.336400  0.643000  0.433000  1.0  -0.0367
  C  C152  1  0.409400  0.612400  0.548000  1.0  -0.033
  C  C153  1  0.402600  0.100300  0.507000  1.0  -0.0072
  C  C154  1  0.336800  0.142500  0.449000  1.0  -0.0257
  C  C155  1  0.163600  0.143000  0.067000  1.0  -0.0364
  C  C156  1  0.090600  0.112400  0.952000  1.0  -0.0342
  C  C157  1  0.902600  0.600300  0.507000  1.0  -0.0072
  C  C158  1  0.836800  0.642500  0.449000  1.0  -0.0257
  C  C159  1  0.663600  0.643000  0.067000  1.0  -0.0364
  C  C160  1  0.590600  0.612400  0.952000  1.0  -0.0342
  C  C161  1  0.402600  0.899700  0.007000  1.0  -0.0072
  C  C162  1  0.336800  0.857500  0.949000  1.0  -0.0252
  C  C163  1  0.163600  0.857000  0.567000  1.0  -0.0366
  C  C164  1  0.090600  0.887600  0.452000  1.0  -0.035
  C  C165  1  0.902600  0.399700  0.007000  1.0  -0.0072
  C  C166  1  0.836800  0.357500  0.949000  1.0  -0.0252
  C  C167  1  0.663600  0.357000  0.567000  1.0  -0.0366
  C  C168  1  0.590600  0.387600  0.452000  1.0  -0.035
  C  C169  1  0.597400  0.899700  0.493000  1.0  -0.0106
  C  C170  1  0.663200  0.857500  0.551000  1.0  -0.0227
  C  C171  1  0.836400  0.857000  0.933000  1.0  -0.0367
  C  C172  1  0.909400  0.887600  0.048000  1.0  -0.0331
  C  C173  1  0.097400  0.399700  0.493000  1.0  -0.0106
  C  C174  1  0.163200  0.357500  0.551000  1.0  -0.0227
  C  C175  1  0.336400  0.357000  0.933000  1.0  -0.0367
  C  C176  1  0.409400  0.387600  0.048000  1.0  -0.0331
  N  N177  1  0.612000  0.040200  0.151000  1.0  -0.6816
  N  N178  1  0.652000  0.201100  0.880000  1.0  -0.714
  N  N179  1  0.841000  0.196100  0.610000  1.0  -0.6581
  N  N180  1  0.906800  0.055000  0.381000  1.0  -0.6839
  N  N181  1  0.112000  0.540200  0.151000  1.0  -0.6816
  N  N182  1  0.152000  0.701100  0.880000  1.0  -0.714
  N  N183  1  0.341000  0.696100  0.610000  1.0  -0.6581
  N  N184  1  0.406800  0.555000  0.381000  1.0  -0.6839
  N  N185  1  0.388000  0.040200  0.349000  1.0  -0.6834
  N  N186  1  0.348000  0.201100  0.620000  1.0  -0.7116
  N  N187  1  0.159000  0.196100  0.890000  1.0  -0.6596
  N  N188  1  0.093200  0.055000  0.119000  1.0  -0.6825
  N  N189  1  0.888000  0.540200  0.349000  1.0  -0.6834
  N  N190  1  0.848000  0.701100  0.620000  1.0  -0.7116
  N  N191  1  0.659000  0.696100  0.890000  1.0  -0.6596
  N  N192  1  0.593200  0.555000  0.119000  1.0  -0.6825
  N  N193  1  0.388000  0.959800  0.849000  1.0  -0.6833
  N  N194  1  0.348000  0.798900  0.120000  1.0  -0.7109
  N  N195  1  0.159000  0.803900  0.390000  1.0  -0.6628
  N  N196  1  0.093200  0.945000  0.619000  1.0  -0.6825
  N  N197  1  0.888000  0.459800  0.849000  1.0  -0.6833
  N  N198  1  0.848000  0.298900  0.120000  1.0  -0.7109
  N  N199  1  0.659000  0.303900  0.390000  1.0  -0.6628
  N  N200  1  0.593200  0.445000  0.619000  1.0  -0.6825
  N  N201  1  0.612000  0.959800  0.651000  1.0  -0.682
  N  N202  1  0.652000  0.798900  0.380000  1.0  -0.7142
  N  N203  1  0.841000  0.803900  0.110000  1.0  -0.6595
  N  N204  1  0.906800  0.945000  0.881000  1.0  -0.6824
  N  N205  1  0.112000  0.459800  0.651000  1.0  -0.682
  N  N206  1  0.152000  0.298900  0.380000  1.0  -0.7142
  N  N207  1  0.341000  0.303900  0.110000  1.0  -0.6595
  N  N208  1  0.406800  0.445000  0.881000  1.0  -0.6824
