# generated using pymatgen
data_AgH8(CN)2
_symmetry_space_group_name_H-M   'P 1'
_cell_length_a   10.34280000
_cell_length_b   10.57490000
_cell_length_c   6.25970000
_cell_angle_alpha   90.00000000
_cell_angle_beta   114.85200000
_cell_angle_gamma   90.00000000
_symmetry_Int_Tables_number   1
_chemical_formula_structural   AgH8(CN)2
_chemical_formula_sum   'Ag4 H32 C8 N8'
_cell_volume   621.24796387
_cell_formula_units_Z   4
loop_
 _symmetry_equiv_pos_site_id
 _symmetry_equiv_pos_as_xyz
  1  'x, y, z'
loop_
 _atom_site_type_symbol
 _atom_site_label
 _atom_site_symmetry_multiplicity
 _atom_site_fract_x
 _atom_site_fract_y
 _atom_site_fract_z
 _atom_site_occupancy
 _atom_site_charge
  Ag  Ag1  1  0.500000  0.000000  0.500000  1.0  0.1836
  Ag  Ag2  1  0.000000  0.500000  0.500000  1.0  0.1836
  Ag  Ag3  1  0.500000  0.000000  0.000000  1.0  0.1836
  Ag  Ag4  1  0.000000  0.500000  0.000000  1.0  0.1836
  H  H5  1  0.398900  0.265600  0.573400  1.0  0.0259
  H  H6  1  0.330800  0.172900  0.696900  1.0  0.0257
  H  H7  1  0.296300  0.145100  0.239600  1.0  0.2838
  H  H8  1  0.236400  0.058200  0.357800  1.0  0.2743
  H  H9  1  0.898900  0.765600  0.573400  1.0  0.0259
  H  H10  1  0.830800  0.672900  0.696900  1.0  0.0257
  H  H11  1  0.796300  0.645100  0.239600  1.0  0.2838
  H  H12  1  0.736400  0.558200  0.357800  1.0  0.2743
  H  H13  1  0.601100  0.265600  0.926600  1.0  0.0254
  H  H14  1  0.669200  0.172900  0.803100  1.0  0.026
  H  H15  1  0.703700  0.145100  0.260400  1.0  0.2854
  H  H16  1  0.763600  0.058200  0.142200  1.0  0.275
  H  H17  1  0.101100  0.765600  0.926600  1.0  0.0254
  H  H18  1  0.169200  0.672900  0.803100  1.0  0.026
  H  H19  1  0.203700  0.645100  0.260400  1.0  0.2854
  H  H20  1  0.263600  0.558200  0.142200  1.0  0.275
  H  H21  1  0.601100  0.734400  0.426600  1.0  0.0255
  H  H22  1  0.669200  0.827100  0.303100  1.0  0.0261
  H  H23  1  0.703700  0.854900  0.760400  1.0  0.2851
  H  H24  1  0.763600  0.941800  0.642200  1.0  0.2755
  H  H25  1  0.101100  0.234400  0.426600  1.0  0.0255
  H  H26  1  0.169200  0.327100  0.303100  1.0  0.0261
  H  H27  1  0.203700  0.354900  0.760400  1.0  0.2851
  H  H28  1  0.263600  0.441800  0.642200  1.0  0.2755
  H  H29  1  0.398900  0.734400  0.073400  1.0  0.0255
  H  H30  1  0.330800  0.827100  0.196900  1.0  0.0258
  H  H31  1  0.296300  0.854900  0.739600  1.0  0.2838
  H  H32  1  0.236400  0.941800  0.857800  1.0  0.275
  H  H33  1  0.898900  0.234400  0.073400  1.0  0.0255
  H  H34  1  0.830800  0.327100  0.196900  1.0  0.0258
  H  H35  1  0.796300  0.354900  0.739600  1.0  0.2838
  H  H36  1  0.736400  0.441800  0.857800  1.0  0.275
  C  C37  1  0.317100  0.210700  0.545900  1.0  0.0047
  C  C38  1  0.817100  0.710700  0.545900  1.0  0.0047
  C  C39  1  0.682900  0.210700  0.954100  1.0  0.0042
  C  C40  1  0.182900  0.710700  0.954100  1.0  0.0042
  C  C41  1  0.682900  0.789300  0.454100  1.0  0.0057
  C  C42  1  0.182900  0.289300  0.454100  1.0  0.0057
  C  C43  1  0.317100  0.789300  0.045900  1.0  0.0067
  C  C44  1  0.817100  0.289300  0.045900  1.0  0.0067
  N  N45  1  0.311500  0.109800  0.380700  1.0  -0.7096
  N  N46  1  0.811500  0.609800  0.380700  1.0  -0.7096
  N  N47  1  0.688500  0.109800  0.119300  1.0  -0.7076
  N  N48  1  0.188500  0.609800  0.119300  1.0  -0.7076
  N  N49  1  0.688500  0.890200  0.619300  1.0  -0.7068
  N  N50  1  0.188500  0.390200  0.619300  1.0  -0.7068
  N  N51  1  0.311500  0.890200  0.880700  1.0  -0.7081
  N  N52  1  0.811500  0.390200  0.880700  1.0  -0.7081
