# generated using pymatgen
data_AgH8(CN)2
_symmetry_space_group_name_H-M   'P 1'
_cell_length_a   10.37250000
_cell_length_b   10.55750000
_cell_length_c   6.27060000
_cell_angle_alpha   90.00000000
_cell_angle_beta   114.94800000
_cell_angle_gamma   90.00000000
_symmetry_Int_Tables_number   1
_chemical_formula_structural   AgH8(CN)2
_chemical_formula_sum   'Ag4 H32 C8 N8'
_cell_volume   622.60545599
_cell_formula_units_Z   4
loop_
 _symmetry_equiv_pos_site_id
 _symmetry_equiv_pos_as_xyz
  1  'x, y, z'
loop_
 _atom_site_type_symbol
 _atom_site_label
 _atom_site_symmetry_multiplicity
 _atom_site_fract_x
 _atom_site_fract_y
 _atom_site_fract_z
 _atom_site_occupancy
 _atom_site_charge
  Ag  Ag1  1  0.500000  0.000000  0.500000  1.0  0.1837
  Ag  Ag2  1  0.000000  0.500000  0.500000  1.0  0.1837
  Ag  Ag3  1  0.500000  0.000000  0.000000  1.0  0.1837
  Ag  Ag4  1  0.000000  0.500000  0.000000  1.0  0.1837
  H  H5  1  0.397700  0.265000  0.574200  1.0  0.0281
  H  H6  1  0.329900  0.172700  0.694500  1.0  0.0298
  H  H7  1  0.297000  0.145200  0.241700  1.0  0.286
  H  H8  1  0.237800  0.058700  0.357300  1.0  0.2751
  H  H9  1  0.897700  0.765000  0.574200  1.0  0.0281
  H  H10  1  0.829900  0.672700  0.694500  1.0  0.0298
  H  H11  1  0.797000  0.645200  0.241700  1.0  0.286
  H  H12  1  0.737800  0.558700  0.357300  1.0  0.2751
  H  H13  1  0.602300  0.265000  0.925800  1.0  0.0277
  H  H14  1  0.670100  0.172700  0.805500  1.0  0.03
  H  H15  1  0.703000  0.145200  0.258300  1.0  0.2874
  H  H16  1  0.762200  0.058700  0.142700  1.0  0.2755
  H  H17  1  0.102300  0.765000  0.925800  1.0  0.0277
  H  H18  1  0.170100  0.672700  0.805500  1.0  0.03
  H  H19  1  0.203000  0.645200  0.258300  1.0  0.2874
  H  H20  1  0.262200  0.558700  0.142700  1.0  0.2755
  H  H21  1  0.602300  0.735000  0.425800  1.0  0.0277
  H  H22  1  0.670100  0.827300  0.305500  1.0  0.0292
  H  H23  1  0.703000  0.854800  0.758300  1.0  0.2871
  H  H24  1  0.762200  0.941300  0.642700  1.0  0.2767
  H  H25  1  0.102300  0.235000  0.425800  1.0  0.0277
  H  H26  1  0.170100  0.327300  0.305500  1.0  0.0292
  H  H27  1  0.203000  0.354800  0.758300  1.0  0.2871
  H  H28  1  0.262200  0.441300  0.642700  1.0  0.2767
  H  H29  1  0.397700  0.735000  0.074200  1.0  0.0276
  H  H30  1  0.329900  0.827300  0.194500  1.0  0.0298
  H  H31  1  0.297000  0.854800  0.741700  1.0  0.284
  H  H32  1  0.237800  0.941300  0.857300  1.0  0.276
  H  H33  1  0.897700  0.235000  0.074200  1.0  0.0276
  H  H34  1  0.829900  0.327300  0.194500  1.0  0.0298
  H  H35  1  0.797000  0.354800  0.741700  1.0  0.284
  H  H36  1  0.737800  0.441300  0.857300  1.0  0.276
  C  C37  1  0.316700  0.210600  0.545700  1.0  -0.006
  C  C38  1  0.816700  0.710600  0.545700  1.0  -0.006
  C  C39  1  0.683300  0.210600  0.954300  1.0  -0.0092
  C  C40  1  0.183300  0.710600  0.954300  1.0  -0.0092
  C  C41  1  0.683300  0.789400  0.454300  1.0  -0.0092
  C  C42  1  0.183300  0.289400  0.454300  1.0  -0.0092
  C  C43  1  0.316700  0.789400  0.045700  1.0  -0.0057
  C  C44  1  0.816700  0.289400  0.045700  1.0  -0.0057
  N  N45  1  0.311900  0.109900  0.380800  1.0  -0.7052
  N  N46  1  0.811900  0.609900  0.380800  1.0  -0.7052
  N  N47  1  0.688100  0.109900  0.119200  1.0  -0.7038
  N  N48  1  0.188100  0.609900  0.119200  1.0  -0.7038
  N  N49  1  0.688100  0.890100  0.619200  1.0  -0.7026
  N  N50  1  0.188100  0.390100  0.619200  1.0  -0.7026
  N  N51  1  0.311900  0.890100  0.880800  1.0  -0.7036
  N  N52  1  0.811900  0.390100  0.880800  1.0  -0.7036
