# generated using pymatgen
data_AgH8(CN)2
_symmetry_space_group_name_H-M   'P 1'
_cell_length_a   10.45100000
_cell_length_b   10.51000000
_cell_length_c   6.26800000
_cell_angle_alpha   90.00000000
_cell_angle_beta   115.08000000
_cell_angle_gamma   90.00000000
_symmetry_Int_Tables_number   1
_chemical_formula_structural   AgH8(CN)2
_chemical_formula_sum   'Ag4 H32 C8 N8'
_cell_volume   623.56536273
_cell_formula_units_Z   4
loop_
 _symmetry_equiv_pos_site_id
 _symmetry_equiv_pos_as_xyz
  1  'x, y, z'
loop_
 _atom_site_type_symbol
 _atom_site_label
 _atom_site_symmetry_multiplicity
 _atom_site_fract_x
 _atom_site_fract_y
 _atom_site_fract_z
 _atom_site_occupancy
 _atom_site_charge
  Ag  Ag1  1  0.500000  0.000000  0.500000  1.0  0.1498
  Ag  Ag2  1  0.000000  0.500000  0.500000  1.0  0.1498
  Ag  Ag3  1  0.500000  0.000000  0.000000  1.0  0.1498
  Ag  Ag4  1  0.000000  0.500000  0.000000  1.0  0.1498
  H  H5  1  0.396000  0.261100  0.580100  1.0  0.0295
  H  H6  1  0.322200  0.168900  0.689200  1.0  0.0345
  H  H7  1  0.296300  0.144700  0.240900  1.0  0.2807
  H  H8  1  0.238100  0.056000  0.354400  1.0  0.2739
  H  H9  1  0.896000  0.761100  0.580100  1.0  0.0295
  H  H10  1  0.822200  0.668900  0.689200  1.0  0.0345
  H  H11  1  0.796300  0.644700  0.240900  1.0  0.2807
  H  H12  1  0.738100  0.556000  0.354400  1.0  0.2739
  H  H13  1  0.604000  0.261100  0.919900  1.0  0.0285
  H  H14  1  0.677800  0.168900  0.810800  1.0  0.0335
  H  H15  1  0.703700  0.144700  0.259100  1.0  0.2804
  H  H16  1  0.761900  0.056000  0.145600  1.0  0.2735
  H  H17  1  0.104000  0.761100  0.919900  1.0  0.0285
  H  H18  1  0.177800  0.668900  0.810800  1.0  0.0335
  H  H19  1  0.203700  0.644700  0.259100  1.0  0.2804
  H  H20  1  0.261900  0.556000  0.145600  1.0  0.2735
  H  H21  1  0.604000  0.738900  0.419900  1.0  0.0285
  H  H22  1  0.677800  0.831100  0.310800  1.0  0.0335
  H  H23  1  0.703700  0.855300  0.759100  1.0  0.2803
  H  H24  1  0.761900  0.944000  0.645600  1.0  0.2736
  H  H25  1  0.104000  0.238900  0.419900  1.0  0.0285
  H  H26  1  0.177800  0.331100  0.310800  1.0  0.0335
  H  H27  1  0.203700  0.355300  0.759100  1.0  0.2803
  H  H28  1  0.261900  0.444000  0.645600  1.0  0.2736
  H  H29  1  0.396000  0.738900  0.080100  1.0  0.0286
  H  H30  1  0.322200  0.831100  0.189200  1.0  0.0343
  H  H31  1  0.296300  0.855300  0.740900  1.0  0.2807
  H  H32  1  0.238100  0.944000  0.854400  1.0  0.2738
  H  H33  1  0.896000  0.238900  0.080100  1.0  0.0286
  H  H34  1  0.822200  0.331100  0.189200  1.0  0.0343
  H  H35  1  0.796300  0.355300  0.740900  1.0  0.2807
  H  H36  1  0.738100  0.444000  0.854400  1.0  0.2738
  C  C37  1  0.313000  0.208500  0.544000  1.0  -0.0125
  C  C38  1  0.813000  0.708500  0.544000  1.0  -0.0125
  C  C39  1  0.687000  0.208500  0.956000  1.0  -0.0134
  C  C40  1  0.187000  0.708500  0.956000  1.0  -0.0134
  C  C41  1  0.687000  0.791500  0.456000  1.0  -0.0093
  C  C42  1  0.187000  0.291500  0.456000  1.0  -0.0093
  C  C43  1  0.313000  0.791500  0.044000  1.0  -0.0081
  C  C44  1  0.813000  0.291500  0.044000  1.0  -0.0081
  N  N45  1  0.311100  0.108700  0.379600  1.0  -0.6822
  N  N46  1  0.811100  0.608700  0.379600  1.0  -0.6822
  N  N47  1  0.688900  0.108700  0.120400  1.0  -0.6805
  N  N48  1  0.188900  0.608700  0.120400  1.0  -0.6805
  N  N49  1  0.688900  0.891300  0.620400  1.0  -0.6802
  N  N50  1  0.188900  0.391300  0.620400  1.0  -0.6802
  N  N51  1  0.311100  0.891300  0.879600  1.0  -0.6813
  N  N52  1  0.811100  0.391300  0.879600  1.0  -0.6813
