# generated using pymatgen
data_AgH8(CN)2
_symmetry_space_group_name_H-M   'P 1'
_cell_length_a   10.16450000
_cell_length_b   10.70480000
_cell_length_c   6.20490000
_cell_angle_alpha   90.00000000
_cell_angle_beta   114.27700000
_cell_angle_gamma   90.00000000
_symmetry_Int_Tables_number   1
_chemical_formula_structural   AgH8(CN)2
_chemical_formula_sum   'Ag4 H32 C8 N8'
_cell_volume   615.44411639
_cell_formula_units_Z   4
loop_
 _symmetry_equiv_pos_site_id
 _symmetry_equiv_pos_as_xyz
  1  'x, y, z'
loop_
 _atom_site_type_symbol
 _atom_site_label
 _atom_site_symmetry_multiplicity
 _atom_site_fract_x
 _atom_site_fract_y
 _atom_site_fract_z
 _atom_site_occupancy
 _atom_site_charge
  Ag  Ag1  1  0.500000  0.000000  0.500000  1.0  0.1828
  Ag  Ag2  1  0.000000  0.500000  0.500000  1.0  0.1828
  Ag  Ag3  1  0.500000  0.000000  0.000000  1.0  0.1827
  Ag  Ag4  1  0.000000  0.500000  0.000000  1.0  0.1827
  H  H5  1  0.401000  0.265800  0.565200  1.0  0.029
  H  H6  1  0.334400  0.175500  0.700100  1.0  0.0345
  H  H7  1  0.294800  0.142200  0.234500  1.0  0.2675
  H  H8  1  0.233300  0.058200  0.360300  1.0  0.2671
  H  H9  1  0.901000  0.765800  0.565200  1.0  0.029
  H  H10  1  0.834400  0.675500  0.700100  1.0  0.0345
  H  H11  1  0.794800  0.642200  0.234500  1.0  0.2675
  H  H12  1  0.733300  0.558200  0.360300  1.0  0.2671
  H  H13  1  0.599000  0.265800  0.934800  1.0  0.0295
  H  H14  1  0.665600  0.175500  0.799900  1.0  0.0362
  H  H15  1  0.705200  0.142200  0.265500  1.0  0.2678
  H  H16  1  0.766700  0.058200  0.139700  1.0  0.2673
  H  H17  1  0.099000  0.765800  0.934800  1.0  0.0295
  H  H18  1  0.165600  0.675500  0.799900  1.0  0.0362
  H  H19  1  0.205200  0.642200  0.265500  1.0  0.2678
  H  H20  1  0.266700  0.558200  0.139700  1.0  0.2673
  H  H21  1  0.599000  0.734200  0.434800  1.0  0.0292
  H  H22  1  0.665600  0.824500  0.299900  1.0  0.0361
  H  H23  1  0.705200  0.857800  0.765500  1.0  0.2678
  H  H24  1  0.766700  0.941800  0.639700  1.0  0.2663
  H  H25  1  0.099000  0.234200  0.434800  1.0  0.0292
  H  H26  1  0.165600  0.324500  0.299900  1.0  0.0361
  H  H27  1  0.205200  0.357800  0.765500  1.0  0.2678
  H  H28  1  0.266700  0.441800  0.639700  1.0  0.2663
  H  H29  1  0.401000  0.734200  0.065200  1.0  0.0288
  H  H30  1  0.334400  0.824500  0.200100  1.0  0.0347
  H  H31  1  0.294800  0.857800  0.734500  1.0  0.2679
  H  H32  1  0.233300  0.941800  0.860300  1.0  0.2667
  H  H33  1  0.901000  0.234200  0.065200  1.0  0.0288
  H  H34  1  0.834400  0.324500  0.200100  1.0  0.0347
  H  H35  1  0.794800  0.357800  0.734500  1.0  0.2679
  H  H36  1  0.733300  0.441800  0.860300  1.0  0.2667
  C  C37  1  0.318000  0.211300  0.544000  1.0  0.015
  C  C38  1  0.818000  0.711300  0.544000  1.0  0.015
  C  C39  1  0.682000  0.211300  0.956000  1.0  0.014
  C  C40  1  0.182000  0.711300  0.956000  1.0  0.014
  C  C41  1  0.682000  0.788700  0.456000  1.0  0.0155
  C  C42  1  0.182000  0.288700  0.456000  1.0  0.0155
  C  C43  1  0.318000  0.788700  0.044000  1.0  0.017
  C  C44  1  0.818000  0.288700  0.044000  1.0  0.017
  N  N45  1  0.310500  0.108800  0.379700  1.0  -0.7068
  N  N46  1  0.810500  0.608800  0.379700  1.0  -0.7068
  N  N47  1  0.689500  0.108800  0.120300  1.0  -0.7066
  N  N48  1  0.189500  0.608800  0.120300  1.0  -0.7066
  N  N49  1  0.689500  0.891200  0.620300  1.0  -0.7053
  N  N50  1  0.189500  0.391200  0.620300  1.0  -0.7053
  N  N51  1  0.310500  0.891200  0.879700  1.0  -0.7049
  N  N52  1  0.810500  0.391200  0.879700  1.0  -0.7049
