# generated using pymatgen
data_AgH8(CN)2
_symmetry_space_group_name_H-M   'P 1'
_cell_length_a   10.40210000
_cell_length_b   10.54100000
_cell_length_c   6.28320000
_cell_angle_alpha   90.00000000
_cell_angle_beta   115.06000000
_cell_angle_gamma   90.00000000
_symmetry_Int_Tables_number   1
_chemical_formula_structural   AgH8(CN)2
_chemical_formula_sum   'Ag4 H32 C8 N8'
_cell_volume   624.08977931
_cell_formula_units_Z   4
loop_
 _symmetry_equiv_pos_site_id
 _symmetry_equiv_pos_as_xyz
  1  'x, y, z'
loop_
 _atom_site_type_symbol
 _atom_site_label
 _atom_site_symmetry_multiplicity
 _atom_site_fract_x
 _atom_site_fract_y
 _atom_site_fract_z
 _atom_site_occupancy
 _atom_site_charge
  Ag  Ag1  1  0.500000  0.000000  0.500000  1.0  0.1845
  Ag  Ag2  1  0.000000  0.500000  0.500000  1.0  0.1845
  Ag  Ag3  1  0.500000  0.000000  0.000000  1.0  0.1845
  Ag  Ag4  1  0.000000  0.500000  0.000000  1.0  0.1845
  H  H5  1  0.397500  0.265200  0.575500  1.0  0.0273
  H  H6  1  0.329500  0.172200  0.693900  1.0  0.0299
  H  H7  1  0.297800  0.146000  0.242400  1.0  0.2858
  H  H8  1  0.238300  0.058800  0.356100  1.0  0.2754
  H  H9  1  0.897500  0.765200  0.575500  1.0  0.0273
  H  H10  1  0.829500  0.672200  0.693900  1.0  0.0299
  H  H11  1  0.797800  0.646000  0.242400  1.0  0.2858
  H  H12  1  0.738300  0.558800  0.356100  1.0  0.2754
  H  H13  1  0.602500  0.265200  0.924500  1.0  0.027
  H  H14  1  0.670500  0.172200  0.806100  1.0  0.0298
  H  H15  1  0.702200  0.146000  0.257600  1.0  0.287
  H  H16  1  0.761700  0.058800  0.143900  1.0  0.2759
  H  H17  1  0.102500  0.765200  0.924500  1.0  0.027
  H  H18  1  0.170500  0.672200  0.806100  1.0  0.0298
  H  H19  1  0.202200  0.646000  0.257600  1.0  0.287
  H  H20  1  0.261700  0.558800  0.143900  1.0  0.2759
  H  H21  1  0.602500  0.734800  0.424500  1.0  0.0272
  H  H22  1  0.670500  0.827800  0.306100  1.0  0.0294
  H  H23  1  0.702200  0.854000  0.757600  1.0  0.2866
  H  H24  1  0.761700  0.941200  0.643900  1.0  0.2767
  H  H25  1  0.102500  0.234800  0.424500  1.0  0.0272
  H  H26  1  0.170500  0.327800  0.306100  1.0  0.0294
  H  H27  1  0.202200  0.354000  0.757600  1.0  0.2866
  H  H28  1  0.261700  0.441200  0.643900  1.0  0.2767
  H  H29  1  0.397500  0.734800  0.075500  1.0  0.0269
  H  H30  1  0.329500  0.827800  0.193900  1.0  0.0299
  H  H31  1  0.297800  0.854000  0.742400  1.0  0.2856
  H  H32  1  0.238300  0.941200  0.856100  1.0  0.2761
  H  H33  1  0.897500  0.234800  0.075500  1.0  0.0269
  H  H34  1  0.829500  0.327800  0.193900  1.0  0.0299
  H  H35  1  0.797800  0.354000  0.742400  1.0  0.2856
  H  H36  1  0.738300  0.441200  0.856100  1.0  0.2761
  C  C37  1  0.316700  0.210500  0.545900  1.0  -0.0098
  C  C38  1  0.816700  0.710500  0.545900  1.0  -0.0098
  C  C39  1  0.683300  0.210500  0.954100  1.0  -0.0104
  C  C40  1  0.183300  0.710500  0.954100  1.0  -0.0104
  C  C41  1  0.683300  0.789500  0.454100  1.0  -0.0089
  C  C42  1  0.183300  0.289500  0.454100  1.0  -0.0089
  C  C43  1  0.316700  0.789500  0.045900  1.0  -0.0078
  C  C44  1  0.816700  0.289500  0.045900  1.0  -0.0078
  N  N45  1  0.312300  0.110200  0.380800  1.0  -0.7036
  N  N46  1  0.812300  0.610200  0.380800  1.0  -0.7036
  N  N47  1  0.687700  0.110200  0.119200  1.0  -0.7022
  N  N48  1  0.187700  0.610200  0.119200  1.0  -0.7022
  N  N49  1  0.687700  0.889800  0.619200  1.0  -0.7009
  N  N50  1  0.187700  0.389800  0.619200  1.0  -0.7009
  N  N51  1  0.312300  0.889800  0.880800  1.0  -0.702
  N  N52  1  0.812300  0.389800  0.880800  1.0  -0.702
