# generated using pymatgen
data_AgH8(CN)2
_symmetry_space_group_name_H-M   'P 1'
_cell_length_a   10.63200000
_cell_length_b   10.21900000
_cell_length_c   6.11500000
_cell_angle_alpha   90.00000000
_cell_angle_beta   114.46000000
_cell_angle_gamma   90.00000000
_symmetry_Int_Tables_number   1
_chemical_formula_structural   AgH8(CN)2
_chemical_formula_sum   'Ag4 H32 C8 N8'
_cell_volume   604.75683162
_cell_formula_units_Z   4
loop_
 _symmetry_equiv_pos_site_id
 _symmetry_equiv_pos_as_xyz
  1  'x, y, z'
loop_
 _atom_site_type_symbol
 _atom_site_label
 _atom_site_symmetry_multiplicity
 _atom_site_fract_x
 _atom_site_fract_y
 _atom_site_fract_z
 _atom_site_occupancy
 _atom_site_charge
  Ag  Ag1  1  0.500000  0.000000  0.500000  1.0  0.1632
  Ag  Ag2  1  0.000000  0.500000  0.500000  1.0  0.1632
  Ag  Ag3  1  0.500000  0.000000  0.000000  1.0  0.1645
  Ag  Ag4  1  0.000000  0.500000  0.000000  1.0  0.1645
  H  H5  1  0.343700  0.182000  0.698600  1.0  0.0338
  H  H6  1  0.386100  0.272000  0.532100  1.0  0.0269
  H  H7  1  0.273000  0.131800  0.221400  1.0  0.2906
  H  H8  1  0.232100  0.048300  0.374900  1.0  0.2843
  H  H9  1  0.843700  0.682000  0.698600  1.0  0.0338
  H  H10  1  0.886100  0.772000  0.532100  1.0  0.0269
  H  H11  1  0.773000  0.631800  0.221400  1.0  0.2906
  H  H12  1  0.732100  0.548300  0.374900  1.0  0.2843
  H  H13  1  0.656300  0.182000  0.801400  1.0  0.0336
  H  H14  1  0.613900  0.272000  0.967900  1.0  0.0272
  H  H15  1  0.727000  0.131800  0.278600  1.0  0.292
  H  H16  1  0.767900  0.048300  0.125100  1.0  0.284
  H  H17  1  0.156300  0.682000  0.801400  1.0  0.0336
  H  H18  1  0.113900  0.772000  0.967900  1.0  0.0272
  H  H19  1  0.227000  0.631800  0.278600  1.0  0.292
  H  H20  1  0.267900  0.548300  0.125100  1.0  0.284
  H  H21  1  0.656300  0.818000  0.301400  1.0  0.0336
  H  H22  1  0.613900  0.728000  0.467900  1.0  0.0279
  H  H23  1  0.727000  0.868200  0.778600  1.0  0.2923
  H  H24  1  0.767900  0.951700  0.625100  1.0  0.2853
  H  H25  1  0.156300  0.318000  0.301400  1.0  0.0336
  H  H26  1  0.113900  0.228000  0.467900  1.0  0.0279
  H  H27  1  0.227000  0.368200  0.778600  1.0  0.2923
  H  H28  1  0.267900  0.451700  0.625100  1.0  0.2853
  H  H29  1  0.343700  0.818000  0.198600  1.0  0.0338
  H  H30  1  0.386100  0.728000  0.032100  1.0  0.0262
  H  H31  1  0.273000  0.868200  0.721400  1.0  0.291
  H  H32  1  0.232100  0.951700  0.874900  1.0  0.286
  H  H33  1  0.843700  0.318000  0.198600  1.0  0.0338
  H  H34  1  0.886100  0.228000  0.032100  1.0  0.0262
  H  H35  1  0.773000  0.368200  0.721400  1.0  0.291
  H  H36  1  0.732100  0.451700  0.874900  1.0  0.286
  C  C37  1  0.315000  0.213900  0.536000  1.0  0.0046
  C  C38  1  0.815000  0.713900  0.536000  1.0  0.0046
  C  C39  1  0.685000  0.213900  0.964000  1.0  0.0034
  C  C40  1  0.185000  0.713900  0.964000  1.0  0.0034
  C  C41  1  0.685000  0.786100  0.464000  1.0  0.0057
  C  C42  1  0.185000  0.286100  0.464000  1.0  0.0057
  C  C43  1  0.315000  0.786100  0.036000  1.0  0.0078
  C  C44  1  0.815000  0.286100  0.036000  1.0  0.0078
  N  N45  1  0.298000  0.103000  0.373000  1.0  -0.7259
  N  N46  1  0.798000  0.603000  0.373000  1.0  -0.7259
  N  N47  1  0.702000  0.103000  0.127000  1.0  -0.7242
  N  N48  1  0.202000  0.603000  0.127000  1.0  -0.7242
  N  N49  1  0.702000  0.897000  0.627000  1.0  -0.7233
  N  N50  1  0.202000  0.397000  0.627000  1.0  -0.7233
  N  N51  1  0.298000  0.897000  0.873000  1.0  -0.7244
  N  N52  1  0.798000  0.397000  0.873000  1.0  -0.7244
