# generated using pymatgen
data_AgH8(CN)2
_symmetry_space_group_name_H-M   'P 1'
_cell_length_a   10.48690000
_cell_length_b   10.47980000
_cell_length_c   6.32790000
_cell_angle_alpha   90.00000000
_cell_angle_beta   115.43100000
_cell_angle_gamma   90.00000000
_symmetry_Int_Tables_number   1
_chemical_formula_structural   AgH8(CN)2
_chemical_formula_sum   'Ag4 H32 C8 N8'
_cell_volume   628.05409866
_cell_formula_units_Z   4
loop_
 _symmetry_equiv_pos_site_id
 _symmetry_equiv_pos_as_xyz
  1  'x, y, z'
loop_
 _atom_site_type_symbol
 _atom_site_label
 _atom_site_symmetry_multiplicity
 _atom_site_fract_x
 _atom_site_fract_y
 _atom_site_fract_z
 _atom_site_occupancy
 _atom_site_charge
  Ag  Ag1  1  0.500000  0.000000  0.500000  1.0  0.1537
  Ag  Ag2  1  0.000000  0.500000  0.500000  1.0  0.1537
  Ag  Ag3  1  0.500000  0.000000  0.000000  1.0  0.1537
  Ag  Ag4  1  0.000000  0.500000  0.000000  1.0  0.1537
  H  H5  1  0.397000  0.263900  0.583700  1.0  0.0251
  H  H6  1  0.325000  0.168800  0.690200  1.0  0.0304
  H  H7  1  0.301200  0.148900  0.246500  1.0  0.283
  H  H8  1  0.240400  0.059000  0.352300  1.0  0.2724
  H  H9  1  0.897000  0.763900  0.583700  1.0  0.0251
  H  H10  1  0.825000  0.668800  0.690200  1.0  0.0304
  H  H11  1  0.801200  0.648900  0.246500  1.0  0.283
  H  H12  1  0.740400  0.559000  0.352300  1.0  0.2724
  H  H13  1  0.603000  0.263900  0.916300  1.0  0.0248
  H  H14  1  0.675000  0.168800  0.809800  1.0  0.03
  H  H15  1  0.698800  0.148900  0.253500  1.0  0.2848
  H  H16  1  0.759600  0.059000  0.147700  1.0  0.2726
  H  H17  1  0.103000  0.763900  0.916300  1.0  0.0248
  H  H18  1  0.175000  0.668800  0.809800  1.0  0.03
  H  H19  1  0.198800  0.648900  0.253500  1.0  0.2848
  H  H20  1  0.259600  0.559000  0.147700  1.0  0.2726
  H  H21  1  0.603000  0.736100  0.416300  1.0  0.0249
  H  H22  1  0.675000  0.831200  0.309800  1.0  0.0299
  H  H23  1  0.698800  0.851100  0.753500  1.0  0.285
  H  H24  1  0.759600  0.941000  0.647700  1.0  0.2735
  H  H25  1  0.103000  0.236100  0.416300  1.0  0.0249
  H  H26  1  0.175000  0.331200  0.309800  1.0  0.0299
  H  H27  1  0.198800  0.351100  0.753500  1.0  0.285
  H  H28  1  0.259600  0.441000  0.647700  1.0  0.2735
  H  H29  1  0.397000  0.736100  0.083700  1.0  0.0247
  H  H30  1  0.325000  0.831200  0.190200  1.0  0.0306
  H  H31  1  0.301200  0.851100  0.746500  1.0  0.2833
  H  H32  1  0.240400  0.941000  0.852300  1.0  0.273
  H  H33  1  0.897000  0.236100  0.083700  1.0  0.0247
  H  H34  1  0.825000  0.331200  0.190200  1.0  0.0306
  H  H35  1  0.801200  0.351100  0.746500  1.0  0.2833
  H  H36  1  0.740400  0.441000  0.852300  1.0  0.273
  C  C37  1  0.315400  0.209500  0.546400  1.0  -0.0063
  C  C38  1  0.815400  0.709500  0.546400  1.0  -0.0063
  C  C39  1  0.684600  0.209500  0.953600  1.0  -0.0072
  C  C40  1  0.184600  0.709500  0.953600  1.0  -0.0072
  C  C41  1  0.684600  0.790500  0.453600  1.0  -0.0056
  C  C42  1  0.184600  0.290500  0.453600  1.0  -0.0056
  C  C43  1  0.315400  0.790500  0.046400  1.0  -0.0044
  C  C44  1  0.815400  0.290500  0.046400  1.0  -0.0044
  N  N45  1  0.314300  0.111200  0.382100  1.0  -0.6841
  N  N46  1  0.814300  0.611200  0.382100  1.0  -0.6841
  N  N47  1  0.685700  0.111200  0.117900  1.0  -0.6823
  N  N48  1  0.185700  0.611200  0.117900  1.0  -0.6823
  N  N49  1  0.685700  0.888800  0.617900  1.0  -0.6818
  N  N50  1  0.185700  0.388800  0.617900  1.0  -0.6818
  N  N51  1  0.314300  0.888800  0.882100  1.0  -0.6837
  N  N52  1  0.814300  0.388800  0.882100  1.0  -0.6837
