# generated using pymatgen
data_AgH8(CN)2
_symmetry_space_group_name_H-M   'P 1'
_cell_length_a   10.44020000
_cell_length_b   10.51300000
_cell_length_c   6.30210000
_cell_angle_alpha   90.00000000
_cell_angle_beta   115.21700000
_cell_angle_gamma   90.00000000
_symmetry_Int_Tables_number   1
_chemical_formula_structural   AgH8(CN)2
_chemical_formula_sum   'Ag4 H32 C8 N8'
_cell_volume   625.78578018
_cell_formula_units_Z   4
loop_
 _symmetry_equiv_pos_site_id
 _symmetry_equiv_pos_as_xyz
  1  'x, y, z'
loop_
 _atom_site_type_symbol
 _atom_site_label
 _atom_site_symmetry_multiplicity
 _atom_site_fract_x
 _atom_site_fract_y
 _atom_site_fract_z
 _atom_site_occupancy
 _atom_site_charge
  Ag  Ag1  1  0.500000  0.000000  0.500000  1.0  0.1527
  Ag  Ag2  1  0.000000  0.500000  0.500000  1.0  0.1527
  Ag  Ag3  1  0.500000  0.000000  0.000000  1.0  0.1527
  Ag  Ag4  1  0.000000  0.500000  0.000000  1.0  0.1527
  H  H5  1  0.397000  0.265100  0.578700  1.0  0.0263
  H  H6  1  0.327600  0.171200  0.692500  1.0  0.0296
  H  H7  1  0.299700  0.147100  0.244400  1.0  0.279
  H  H8  1  0.239600  0.058700  0.354800  1.0  0.2734
  H  H9  1  0.897000  0.765100  0.578700  1.0  0.0263
  H  H10  1  0.827600  0.671200  0.692500  1.0  0.0296
  H  H11  1  0.799700  0.647100  0.244400  1.0  0.279
  H  H12  1  0.739600  0.558700  0.354800  1.0  0.2734
  H  H13  1  0.603000  0.265100  0.921300  1.0  0.0259
  H  H14  1  0.672400  0.171200  0.807500  1.0  0.03
  H  H15  1  0.700300  0.147100  0.255600  1.0  0.2804
  H  H16  1  0.760400  0.058700  0.145200  1.0  0.2736
  H  H17  1  0.103000  0.765100  0.921300  1.0  0.0259
  H  H18  1  0.172400  0.671200  0.807500  1.0  0.03
  H  H19  1  0.200300  0.647100  0.255600  1.0  0.2804
  H  H20  1  0.260400  0.558700  0.145200  1.0  0.2736
  H  H21  1  0.603000  0.734900  0.421300  1.0  0.0258
  H  H22  1  0.672400  0.828800  0.307500  1.0  0.0296
  H  H23  1  0.700300  0.852900  0.755600  1.0  0.2806
  H  H24  1  0.760400  0.941300  0.645200  1.0  0.2748
  H  H25  1  0.103000  0.234900  0.421300  1.0  0.0258
  H  H26  1  0.172400  0.328800  0.307500  1.0  0.0296
  H  H27  1  0.200300  0.352900  0.755600  1.0  0.2806
  H  H28  1  0.260400  0.441300  0.645200  1.0  0.2748
  H  H29  1  0.397000  0.734900  0.078700  1.0  0.0258
  H  H30  1  0.327600  0.828800  0.192500  1.0  0.0295
  H  H31  1  0.299700  0.852900  0.744400  1.0  0.2791
  H  H32  1  0.239600  0.941300  0.854800  1.0  0.2744
  H  H33  1  0.897000  0.234900  0.078700  1.0  0.0258
  H  H34  1  0.827600  0.328800  0.192500  1.0  0.0295
  H  H35  1  0.799700  0.352900  0.744400  1.0  0.2791
  H  H36  1  0.739600  0.441300  0.854800  1.0  0.2744
  C  C37  1  0.316000  0.210300  0.546000  1.0  -0.008
  C  C38  1  0.816000  0.710300  0.546000  1.0  -0.008
  C  C39  1  0.684000  0.210300  0.954000  1.0  -0.0087
  C  C40  1  0.184000  0.710300  0.954000  1.0  -0.0087
  C  C41  1  0.684000  0.789700  0.454000  1.0  -0.0074
  C  C42  1  0.184000  0.289700  0.454000  1.0  -0.0074
  C  C43  1  0.316000  0.789700  0.046000  1.0  -0.0063
  C  C44  1  0.816000  0.289700  0.046000  1.0  -0.0063
  N  N45  1  0.313600  0.110600  0.381700  1.0  -0.6796
  N  N46  1  0.813600  0.610600  0.381700  1.0  -0.6796
  N  N47  1  0.686400  0.110600  0.118300  1.0  -0.6781
  N  N48  1  0.186400  0.610600  0.118300  1.0  -0.6781
  N  N49  1  0.686400  0.889400  0.618300  1.0  -0.677
  N  N50  1  0.186400  0.389400  0.618300  1.0  -0.677
  N  N51  1  0.313600  0.889400  0.881700  1.0  -0.6785
  N  N52  1  0.813600  0.389400  0.881700  1.0  -0.6785
