# generated using pymatgen
data_AgH8(CN)2
_symmetry_space_group_name_H-M   'P 1'
_cell_length_a   10.28750000
_cell_length_b   10.61250000
_cell_length_c   6.24000000
_cell_angle_alpha   90.00000000
_cell_angle_beta   114.68800000
_cell_angle_gamma   90.00000000
_symmetry_Int_Tables_number   1
_chemical_formula_structural   AgH8(CN)2
_chemical_formula_sum   'Ag4 H32 C8 N8'
_cell_volume   618.98882227
_cell_formula_units_Z   4
loop_
 _symmetry_equiv_pos_site_id
 _symmetry_equiv_pos_as_xyz
  1  'x, y, z'
loop_
 _atom_site_type_symbol
 _atom_site_label
 _atom_site_symmetry_multiplicity
 _atom_site_fract_x
 _atom_site_fract_y
 _atom_site_fract_z
 _atom_site_occupancy
 _atom_site_charge
  Ag  Ag1  1  0.500000  0.000000  0.500000  1.0  0.1854
  Ag  Ag2  1  0.000000  0.500000  0.500000  1.0  0.1854
  Ag  Ag3  1  0.500000  0.000000  0.000000  1.0  0.1854
  Ag  Ag4  1  0.000000  0.500000  0.000000  1.0  0.1854
  H  H5  1  0.400100  0.266100  0.570300  1.0  0.0228
  H  H6  1  0.332400  0.173700  0.699200  1.0  0.0314
  H  H7  1  0.295400  0.144100  0.236800  1.0  0.2736
  H  H8  1  0.234900  0.057500  0.359200  1.0  0.2703
  H  H9  1  0.900100  0.766100  0.570300  1.0  0.0228
  H  H10  1  0.832400  0.673700  0.699200  1.0  0.0314
  H  H11  1  0.795400  0.644100  0.236800  1.0  0.2736
  H  H12  1  0.734900  0.557500  0.359200  1.0  0.2703
  H  H13  1  0.599900  0.266100  0.929700  1.0  0.0233
  H  H14  1  0.667600  0.173700  0.800800  1.0  0.0328
  H  H15  1  0.704600  0.144100  0.263200  1.0  0.2741
  H  H16  1  0.765100  0.057500  0.140800  1.0  0.2705
  H  H17  1  0.099900  0.766100  0.929700  1.0  0.0233
  H  H18  1  0.167600  0.673700  0.800800  1.0  0.0328
  H  H19  1  0.204600  0.644100  0.263200  1.0  0.2741
  H  H20  1  0.265100  0.557500  0.140800  1.0  0.2705
  H  H21  1  0.599900  0.733900  0.429700  1.0  0.0228
  H  H22  1  0.667600  0.826300  0.300800  1.0  0.0326
  H  H23  1  0.704600  0.855900  0.763200  1.0  0.2741
  H  H24  1  0.765100  0.942500  0.640800  1.0  0.27
  H  H25  1  0.099900  0.233900  0.429700  1.0  0.0228
  H  H26  1  0.167600  0.326300  0.300800  1.0  0.0326
  H  H27  1  0.204600  0.355900  0.763200  1.0  0.2741
  H  H28  1  0.265100  0.442500  0.640800  1.0  0.27
  H  H29  1  0.400100  0.733900  0.070300  1.0  0.0226
  H  H30  1  0.332400  0.826300  0.199200  1.0  0.0316
  H  H31  1  0.295400  0.855900  0.736800  1.0  0.274
  H  H32  1  0.234900  0.942500  0.859200  1.0  0.2704
  H  H33  1  0.900100  0.233900  0.070300  1.0  0.0226
  H  H34  1  0.832400  0.326300  0.199200  1.0  0.0316
  H  H35  1  0.795400  0.355900  0.736800  1.0  0.274
  H  H36  1  0.734900  0.442500  0.859200  1.0  0.2704
  C  C37  1  0.317400  0.210900  0.545200  1.0  0.0145
  C  C38  1  0.817400  0.710900  0.545200  1.0  0.0145
  C  C39  1  0.682600  0.210900  0.954800  1.0  0.0136
  C  C40  1  0.182600  0.710900  0.954800  1.0  0.0136
  C  C41  1  0.682600  0.789100  0.454800  1.0  0.015
  C  C42  1  0.182600  0.289100  0.454800  1.0  0.015
  C  C43  1  0.317400  0.789100  0.045200  1.0  0.0164
  C  C44  1  0.817400  0.289100  0.045200  1.0  0.0164
  N  N45  1  0.311100  0.109300  0.380600  1.0  -0.708
  N  N46  1  0.811100  0.609300  0.380600  1.0  -0.708
  N  N47  1  0.688900  0.109300  0.119400  1.0  -0.7069
  N  N48  1  0.188900  0.609300  0.119400  1.0  -0.7069
  N  N49  1  0.688900  0.890700  0.619400  1.0  -0.706
  N  N50  1  0.188900  0.390700  0.619400  1.0  -0.706
  N  N51  1  0.311100  0.890700  0.880600  1.0  -0.7063
  N  N52  1  0.811100  0.390700  0.880600  1.0  -0.7063
