# generated using pymatgen
data_AgH8(CN)2
_symmetry_space_group_name_H-M   'P 1'
_cell_length_a   10.43050000
_cell_length_b   10.52720000
_cell_length_c   6.29560000
_cell_angle_alpha   90.00000000
_cell_angle_beta   115.16000000
_cell_angle_gamma   90.00000000
_symmetry_Int_Tables_number   1
_chemical_formula_structural   AgH8(CN)2
_chemical_formula_sum   'Ag4 H32 C8 N8'
_cell_volume   625.69581190
_cell_formula_units_Z   4
loop_
 _symmetry_equiv_pos_site_id
 _symmetry_equiv_pos_as_xyz
  1  'x, y, z'
loop_
 _atom_site_type_symbol
 _atom_site_label
 _atom_site_symmetry_multiplicity
 _atom_site_fract_x
 _atom_site_fract_y
 _atom_site_fract_z
 _atom_site_occupancy
 _atom_site_charge
  Ag  Ag1  1  0.500000  0.000000  0.500000  1.0  0.1801
  Ag  Ag2  1  0.000000  0.500000  0.500000  1.0  0.1801
  Ag  Ag3  1  0.500000  0.000000  0.000000  1.0  0.1801
  Ag  Ag4  1  0.000000  0.500000  0.000000  1.0  0.1801
  H  H5  1  0.397200  0.265200  0.577300  1.0  0.0273
  H  H6  1  0.328600  0.171700  0.693300  1.0  0.0308
  H  H7  1  0.298700  0.146600  0.243600  1.0  0.284
  H  H8  1  0.239000  0.058800  0.355600  1.0  0.2744
  H  H9  1  0.897200  0.765200  0.577300  1.0  0.0273
  H  H10  1  0.828600  0.671700  0.693300  1.0  0.0308
  H  H11  1  0.798700  0.646600  0.243600  1.0  0.284
  H  H12  1  0.739000  0.558800  0.355600  1.0  0.2744
  H  H13  1  0.602800  0.265200  0.922700  1.0  0.0266
  H  H14  1  0.671400  0.171700  0.806700  1.0  0.0302
  H  H15  1  0.701300  0.146600  0.256400  1.0  0.2848
  H  H16  1  0.761000  0.058800  0.144400  1.0  0.2751
  H  H17  1  0.102800  0.765200  0.922700  1.0  0.0266
  H  H18  1  0.171400  0.671700  0.806700  1.0  0.0302
  H  H19  1  0.201300  0.646600  0.256400  1.0  0.2848
  H  H20  1  0.261000  0.558800  0.144400  1.0  0.2751
  H  H21  1  0.602800  0.734800  0.422700  1.0  0.0266
  H  H22  1  0.671400  0.828300  0.306700  1.0  0.0295
  H  H23  1  0.701300  0.853400  0.756400  1.0  0.2848
  H  H24  1  0.761000  0.941200  0.644400  1.0  0.2758
  H  H25  1  0.102800  0.234800  0.422700  1.0  0.0266
  H  H26  1  0.171400  0.328300  0.306700  1.0  0.0295
  H  H27  1  0.201300  0.353400  0.756400  1.0  0.2848
  H  H28  1  0.261000  0.441200  0.644400  1.0  0.2758
  H  H29  1  0.397200  0.734800  0.077300  1.0  0.027
  H  H30  1  0.328600  0.828300  0.193300  1.0  0.0305
  H  H31  1  0.298700  0.853400  0.743600  1.0  0.284
  H  H32  1  0.239000  0.941200  0.855600  1.0  0.275
  H  H33  1  0.897200  0.234800  0.077300  1.0  0.027
  H  H34  1  0.828600  0.328300  0.193300  1.0  0.0305
  H  H35  1  0.798700  0.353400  0.743600  1.0  0.284
  H  H36  1  0.739000  0.441200  0.855600  1.0  0.275
  C  C37  1  0.316400  0.210400  0.546100  1.0  -0.0063
  C  C38  1  0.816400  0.710400  0.546100  1.0  -0.0063
  C  C39  1  0.683600  0.210400  0.953900  1.0  -0.0071
  C  C40  1  0.183600  0.710400  0.953900  1.0  -0.0071
  C  C41  1  0.683600  0.789600  0.453900  1.0  -0.0057
  C  C42  1  0.183600  0.289600  0.453900  1.0  -0.0057
  C  C43  1  0.316400  0.789600  0.046100  1.0  -0.0045
  C  C44  1  0.816400  0.289600  0.046100  1.0  -0.0045
  N  N45  1  0.313000  0.110400  0.381400  1.0  -0.7023
  N  N46  1  0.813000  0.610400  0.381400  1.0  -0.7023
  N  N47  1  0.687000  0.110400  0.118600  1.0  -0.7007
  N  N48  1  0.187000  0.610400  0.118600  1.0  -0.7007
  N  N49  1  0.687000  0.889600  0.618600  1.0  -0.6993
  N  N50  1  0.187000  0.389600  0.618600  1.0  -0.6993
  N  N51  1  0.313000  0.889600  0.881400  1.0  -0.7006
  N  N52  1  0.813000  0.389600  0.881400  1.0  -0.7006
