# generated using pymatgen
data_AgH8(CN)2
_symmetry_space_group_name_H-M   'P 1'
_cell_length_a   10.31590000
_cell_length_b   10.59350000
_cell_length_c   6.24950000
_cell_angle_alpha   90.00000000
_cell_angle_beta   114.77200000
_cell_angle_gamma   90.00000000
_symmetry_Int_Tables_number   1
_chemical_formula_structural   AgH8(CN)2
_chemical_formula_sum   'Ag4 H32 C8 N8'
_cell_volume   620.11077090
_cell_formula_units_Z   4
loop_
 _symmetry_equiv_pos_site_id
 _symmetry_equiv_pos_as_xyz
  1  'x, y, z'
loop_
 _atom_site_type_symbol
 _atom_site_label
 _atom_site_symmetry_multiplicity
 _atom_site_fract_x
 _atom_site_fract_y
 _atom_site_fract_z
 _atom_site_occupancy
 _atom_site_charge
  Ag  Ag1  1  0.500000  0.000000  0.500000  1.0  0.1816
  Ag  Ag2  1  0.000000  0.500000  0.500000  1.0  0.1816
  Ag  Ag3  1  0.500000  0.000000  0.000000  1.0  0.1816
  Ag  Ag4  1  0.000000  0.500000  0.000000  1.0  0.1816
  H  H5  1  0.399200  0.265700  0.572200  1.0  0.0242
  H  H6  1  0.331600  0.173600  0.697600  1.0  0.0252
  H  H7  1  0.296100  0.144500  0.239300  1.0  0.285
  H  H8  1  0.236300  0.058200  0.358800  1.0  0.2749
  H  H9  1  0.899200  0.765700  0.572200  1.0  0.0242
  H  H10  1  0.831600  0.673600  0.697600  1.0  0.0252
  H  H11  1  0.796100  0.644500  0.239300  1.0  0.285
  H  H12  1  0.736300  0.558200  0.358800  1.0  0.2749
  H  H13  1  0.600800  0.265700  0.927800  1.0  0.0236
  H  H14  1  0.668400  0.173600  0.802400  1.0  0.0258
  H  H15  1  0.703900  0.144500  0.260700  1.0  0.2869
  H  H16  1  0.763700  0.058200  0.141200  1.0  0.275
  H  H17  1  0.100800  0.765700  0.927800  1.0  0.0236
  H  H18  1  0.168400  0.673600  0.802400  1.0  0.0258
  H  H19  1  0.203900  0.644500  0.260700  1.0  0.2869
  H  H20  1  0.263700  0.558200  0.141200  1.0  0.275
  H  H21  1  0.600800  0.734300  0.427800  1.0  0.0233
  H  H22  1  0.668400  0.826400  0.302400  1.0  0.0259
  H  H23  1  0.703900  0.855500  0.760700  1.0  0.2868
  H  H24  1  0.763700  0.941800  0.641200  1.0  0.2755
  H  H25  1  0.100800  0.234300  0.427800  1.0  0.0233
  H  H26  1  0.168400  0.326400  0.302400  1.0  0.0259
  H  H27  1  0.203900  0.355500  0.760700  1.0  0.2868
  H  H28  1  0.263700  0.441800  0.641200  1.0  0.2755
  H  H29  1  0.399200  0.734300  0.072200  1.0  0.0238
  H  H30  1  0.331600  0.826400  0.197600  1.0  0.0254
  H  H31  1  0.296100  0.855500  0.739300  1.0  0.285
  H  H32  1  0.236300  0.941800  0.858800  1.0  0.2757
  H  H33  1  0.899200  0.234300  0.072200  1.0  0.0238
  H  H34  1  0.831600  0.326400  0.197600  1.0  0.0254
  H  H35  1  0.796100  0.355500  0.739300  1.0  0.285
  H  H36  1  0.736300  0.441800  0.858800  1.0  0.2757
  C  C37  1  0.317400  0.210900  0.545900  1.0  0.0035
  C  C38  1  0.817400  0.710900  0.545900  1.0  0.0035
  C  C39  1  0.682600  0.210900  0.954100  1.0  0.0027
  C  C40  1  0.182600  0.710900  0.954100  1.0  0.0027
  C  C41  1  0.682600  0.789100  0.454100  1.0  0.0042
  C  C42  1  0.182600  0.289100  0.454100  1.0  0.0042
  C  C43  1  0.317400  0.789100  0.045900  1.0  0.0055
  C  C44  1  0.817400  0.289100  0.045900  1.0  0.0055
  N  N45  1  0.311500  0.109600  0.381000  1.0  -0.7078
  N  N46  1  0.811500  0.609600  0.381000  1.0  -0.7078
  N  N47  1  0.688500  0.109600  0.119000  1.0  -0.7041
  N  N48  1  0.188500  0.609600  0.119000  1.0  -0.7041
  N  N49  1  0.688500  0.890400  0.619000  1.0  -0.703
  N  N50  1  0.188500  0.390400  0.619000  1.0  -0.703
  N  N51  1  0.311500  0.890400  0.881000  1.0  -0.7061
  N  N52  1  0.811500  0.390400  0.881000  1.0  -0.7061
