# generated using pymatgen
data_AgH8(CN)2
_symmetry_space_group_name_H-M   'P 1'
_cell_length_a   10.29970000
_cell_length_b   10.61070000
_cell_length_c   6.24300000
_cell_angle_alpha   90.00000000
_cell_angle_beta   114.71300000
_cell_angle_gamma   90.00000000
_symmetry_Int_Tables_number   1
_chemical_formula_structural   AgH8(CN)2
_chemical_formula_sum   'Ag4 H32 C8 N8'
_cell_volume   619.79126398
_cell_formula_units_Z   4
loop_
 _symmetry_equiv_pos_site_id
 _symmetry_equiv_pos_as_xyz
  1  'x, y, z'
loop_
 _atom_site_type_symbol
 _atom_site_label
 _atom_site_symmetry_multiplicity
 _atom_site_fract_x
 _atom_site_fract_y
 _atom_site_fract_z
 _atom_site_occupancy
 _atom_site_charge
  Ag  Ag1  1  0.500000  0.000000  0.500000  1.0  0.1821
  Ag  Ag2  1  0.000000  0.500000  0.500000  1.0  0.1821
  Ag  Ag3  1  0.500000  0.000000  0.000000  1.0  0.1821
  Ag  Ag4  1  0.000000  0.500000  0.000000  1.0  0.1821
  H  H5  1  0.399300  0.265500  0.571200  1.0  0.0263
  H  H6  1  0.331900  0.173700  0.697500  1.0  0.0266
  H  H7  1  0.295900  0.144200  0.238400  1.0  0.2788
  H  H8  1  0.235800  0.058300  0.358300  1.0  0.2792
  H  H9  1  0.899300  0.765500  0.571200  1.0  0.0263
  H  H10  1  0.831900  0.673700  0.697500  1.0  0.0266
  H  H11  1  0.795900  0.644200  0.238400  1.0  0.2788
  H  H12  1  0.735800  0.558300  0.358300  1.0  0.2792
  H  H13  1  0.600700  0.265500  0.928800  1.0  0.026
  H  H14  1  0.668100  0.173700  0.802500  1.0  0.0271
  H  H15  1  0.704100  0.144200  0.261600  1.0  0.2794
  H  H16  1  0.764200  0.058300  0.141700  1.0  0.2793
  H  H17  1  0.100700  0.765500  0.928800  1.0  0.026
  H  H18  1  0.168100  0.673700  0.802500  1.0  0.0271
  H  H19  1  0.204100  0.644200  0.261600  1.0  0.2794
  H  H20  1  0.264200  0.558300  0.141700  1.0  0.2793
  H  H21  1  0.600700  0.734500  0.428800  1.0  0.0257
  H  H22  1  0.668100  0.826300  0.302500  1.0  0.0271
  H  H23  1  0.704100  0.855800  0.761600  1.0  0.2794
  H  H24  1  0.764200  0.941700  0.641700  1.0  0.2791
  H  H25  1  0.100700  0.234500  0.428800  1.0  0.0257
  H  H26  1  0.168100  0.326300  0.302500  1.0  0.0271
  H  H27  1  0.204100  0.355800  0.761600  1.0  0.2794
  H  H28  1  0.264200  0.441700  0.641700  1.0  0.2791
  H  H29  1  0.399300  0.734500  0.071200  1.0  0.0258
  H  H30  1  0.331900  0.826300  0.197500  1.0  0.0268
  H  H31  1  0.295900  0.855800  0.738400  1.0  0.279
  H  H32  1  0.235800  0.941700  0.858300  1.0  0.2794
  H  H33  1  0.899300  0.234500  0.071200  1.0  0.0258
  H  H34  1  0.831900  0.326300  0.197500  1.0  0.0268
  H  H35  1  0.795900  0.355800  0.738400  1.0  0.279
  H  H36  1  0.735800  0.441700  0.858300  1.0  0.2794
  C  C37  1  0.317400  0.210900  0.545500  1.0  0.0034
  C  C38  1  0.817400  0.710900  0.545500  1.0  0.0034
  C  C39  1  0.682600  0.210900  0.954500  1.0  0.0023
  C  C40  1  0.182600  0.710900  0.954500  1.0  0.0023
  C  C41  1  0.682600  0.789100  0.454500  1.0  0.0037
  C  C42  1  0.182600  0.289100  0.454500  1.0  0.0037
  C  C43  1  0.317400  0.789100  0.045500  1.0  0.0053
  C  C44  1  0.817400  0.289100  0.045500  1.0  0.0053
  N  N45  1  0.311200  0.109500  0.380300  1.0  -0.7082
  N  N46  1  0.811200  0.609500  0.380300  1.0  -0.7082
  N  N47  1  0.688800  0.109500  0.119700  1.0  -0.705
  N  N48  1  0.188800  0.609500  0.119700  1.0  -0.705
  N  N49  1  0.688800  0.890500  0.619700  1.0  -0.704
  N  N50  1  0.188800  0.390500  0.619700  1.0  -0.704
  N  N51  1  0.311200  0.890500  0.880300  1.0  -0.7066
  N  N52  1  0.811200  0.390500  0.880300  1.0  -0.7066
