# generated using pymatgen
data_AgH8(CN)2
_symmetry_space_group_name_H-M   'P 1'
_cell_length_a   10.46180000
_cell_length_b   10.49470000
_cell_length_c   6.31300000
_cell_angle_alpha   90.00000000
_cell_angle_beta   115.31800000
_cell_angle_gamma   90.00000000
_symmetry_Int_Tables_number   1
_chemical_formula_structural   AgH8(CN)2
_chemical_formula_sum   'Ag4 H32 C8 N8'
_cell_volume   626.55009148
_cell_formula_units_Z   4
loop_
 _symmetry_equiv_pos_site_id
 _symmetry_equiv_pos_as_xyz
  1  'x, y, z'
loop_
 _atom_site_type_symbol
 _atom_site_label
 _atom_site_symmetry_multiplicity
 _atom_site_fract_x
 _atom_site_fract_y
 _atom_site_fract_z
 _atom_site_occupancy
 _atom_site_charge
  Ag  Ag1  1  0.500000  0.000000  0.500000  1.0  0.1516
  Ag  Ag2  1  0.000000  0.500000  0.500000  1.0  0.1516
  Ag  Ag3  1  0.500000  0.000000  0.000000  1.0  0.1516
  Ag  Ag4  1  0.000000  0.500000  0.000000  1.0  0.1516
  H  H5  1  0.396800  0.264600  0.581700  1.0  0.0202
  H  H6  1  0.325800  0.170000  0.691200  1.0  0.0285
  H  H7  1  0.300700  0.148200  0.245400  1.0  0.2805
  H  H8  1  0.240000  0.058900  0.353000  1.0  0.2729
  H  H9  1  0.896800  0.764600  0.581700  1.0  0.0202
  H  H10  1  0.825800  0.670000  0.691200  1.0  0.0285
  H  H11  1  0.800700  0.648200  0.245400  1.0  0.2805
  H  H12  1  0.740000  0.558900  0.353000  1.0  0.2729
  H  H13  1  0.603200  0.264600  0.918300  1.0  0.0204
  H  H14  1  0.674200  0.170000  0.808800  1.0  0.0285
  H  H15  1  0.699300  0.148200  0.254600  1.0  0.2815
  H  H16  1  0.760000  0.058900  0.147000  1.0  0.2733
  H  H17  1  0.103200  0.764600  0.918300  1.0  0.0204
  H  H18  1  0.174200  0.670000  0.808800  1.0  0.0285
  H  H19  1  0.199300  0.648200  0.254600  1.0  0.2815
  H  H20  1  0.260000  0.558900  0.147000  1.0  0.2733
  H  H21  1  0.603200  0.735400  0.418300  1.0  0.0204
  H  H22  1  0.674200  0.830000  0.308800  1.0  0.0284
  H  H23  1  0.699300  0.851800  0.754600  1.0  0.2818
  H  H24  1  0.760000  0.941100  0.647000  1.0  0.2743
  H  H25  1  0.103200  0.235400  0.418300  1.0  0.0204
  H  H26  1  0.174200  0.330000  0.308800  1.0  0.0284
  H  H27  1  0.199300  0.351800  0.754600  1.0  0.2818
  H  H28  1  0.260000  0.441100  0.647000  1.0  0.2743
  H  H29  1  0.396800  0.735400  0.081700  1.0  0.0194
  H  H30  1  0.325800  0.830000  0.191200  1.0  0.0285
  H  H31  1  0.300700  0.851800  0.745400  1.0  0.2808
  H  H32  1  0.240000  0.941100  0.853000  1.0  0.2738
  H  H33  1  0.896800  0.235400  0.081700  1.0  0.0194
  H  H34  1  0.825800  0.330000  0.191200  1.0  0.0285
  H  H35  1  0.800700  0.351800  0.745400  1.0  0.2808
  H  H36  1  0.740000  0.441100  0.853000  1.0  0.2738
  C  C37  1  0.315400  0.210000  0.546200  1.0  -0.0057
  C  C38  1  0.815400  0.710000  0.546200  1.0  -0.0057
  C  C39  1  0.684600  0.210000  0.953800  1.0  -0.0066
  C  C40  1  0.184600  0.710000  0.953800  1.0  -0.0066
  C  C41  1  0.684600  0.790000  0.453800  1.0  -0.0052
  C  C42  1  0.184600  0.290000  0.453800  1.0  -0.0052
  C  C43  1  0.315400  0.790000  0.046200  1.0  -0.0039
  C  C44  1  0.815400  0.290000  0.046200  1.0  -0.0039
  N  N45  1  0.314000  0.110900  0.381700  1.0  -0.6755
  N  N46  1  0.814000  0.610900  0.381700  1.0  -0.6755
  N  N47  1  0.686000  0.110900  0.118300  1.0  -0.6734
  N  N48  1  0.186000  0.610900  0.118300  1.0  -0.6734
  N  N49  1  0.686000  0.889100  0.618300  1.0  -0.6719
  N  N50  1  0.186000  0.389100  0.618300  1.0  -0.6719
  N  N51  1  0.314000  0.889100  0.881700  1.0  -0.6742
  N  N52  1  0.814000  0.389100  0.881700  1.0  -0.6742
