# generated using pymatgen
data_AgH8(CN)2
_symmetry_space_group_name_H-M   'P 1'
_cell_length_a   10.50800000
_cell_length_b   10.46400000
_cell_length_c   6.33600000
_cell_angle_alpha   90.00000000
_cell_angle_beta   115.49000000
_cell_angle_gamma   90.00000000
_symmetry_Int_Tables_number   1
_chemical_formula_structural   AgH8(CN)2
_chemical_formula_sum   'Ag4 H32 C8 N8'
_cell_volume   628.86490421
_cell_formula_units_Z   4
loop_
 _symmetry_equiv_pos_site_id
 _symmetry_equiv_pos_as_xyz
  1  'x, y, z'
loop_
 _atom_site_type_symbol
 _atom_site_label
 _atom_site_symmetry_multiplicity
 _atom_site_fract_x
 _atom_site_fract_y
 _atom_site_fract_z
 _atom_site_occupancy
 _atom_site_charge
  Ag  Ag1  1  0.500000  0.000000  0.500000  1.0  0.1545
  Ag  Ag2  1  0.000000  0.500000  0.500000  1.0  0.1545
  Ag  Ag3  1  0.500000  0.000000  0.000000  1.0  0.1545
  Ag  Ag4  1  0.000000  0.500000  0.000000  1.0  0.1545
  H  H5  1  0.396400  0.264600  0.583900  1.0  0.0215
  H  H6  1  0.324600  0.168800  0.689600  1.0  0.0294
  H  H7  1  0.302100  0.149600  0.247400  1.0  0.2818
  H  H8  1  0.241100  0.059300  0.351900  1.0  0.2728
  H  H9  1  0.896400  0.764600  0.583900  1.0  0.0215
  H  H10  1  0.824600  0.668800  0.689600  1.0  0.0294
  H  H11  1  0.802100  0.649600  0.247400  1.0  0.2818
  H  H12  1  0.741100  0.559300  0.351900  1.0  0.2728
  H  H13  1  0.603600  0.264600  0.916100  1.0  0.0213
  H  H14  1  0.675400  0.168800  0.810400  1.0  0.0283
  H  H15  1  0.697900  0.149600  0.252600  1.0  0.2833
  H  H16  1  0.758900  0.059300  0.148100  1.0  0.2732
  H  H17  1  0.103600  0.764600  0.916100  1.0  0.0213
  H  H18  1  0.175400  0.668800  0.810400  1.0  0.0283
  H  H19  1  0.197900  0.649600  0.252600  1.0  0.2833
  H  H20  1  0.258900  0.559300  0.148100  1.0  0.2732
  H  H21  1  0.603600  0.735400  0.416100  1.0  0.0216
  H  H22  1  0.675400  0.831200  0.310400  1.0  0.0282
  H  H23  1  0.697900  0.850400  0.752600  1.0  0.2835
  H  H24  1  0.758900  0.940700  0.648100  1.0  0.274
  H  H25  1  0.103600  0.235400  0.416100  1.0  0.0216
  H  H26  1  0.175400  0.331200  0.310400  1.0  0.0282
  H  H27  1  0.197900  0.350400  0.752600  1.0  0.2835
  H  H28  1  0.258900  0.440700  0.648100  1.0  0.274
  H  H29  1  0.396400  0.735400  0.083900  1.0  0.021
  H  H30  1  0.324600  0.831200  0.189600  1.0  0.0295
  H  H31  1  0.302100  0.850400  0.747400  1.0  0.2819
  H  H32  1  0.241100  0.940700  0.851900  1.0  0.2731
  H  H33  1  0.896400  0.235400  0.083900  1.0  0.021
  H  H34  1  0.824600  0.331200  0.189600  1.0  0.0295
  H  H35  1  0.802100  0.350400  0.747400  1.0  0.2819
  H  H36  1  0.741100  0.440700  0.851900  1.0  0.2731
  C  C37  1  0.315100  0.209700  0.546100  1.0  -0.0027
  C  C38  1  0.815100  0.709700  0.546100  1.0  -0.0027
  C  C39  1  0.684900  0.209700  0.953900  1.0  -0.0036
  C  C40  1  0.184900  0.709700  0.953900  1.0  -0.0036
  C  C41  1  0.684900  0.790300  0.453900  1.0  -0.0022
  C  C42  1  0.184900  0.290300  0.453900  1.0  -0.0022
  C  C43  1  0.315100  0.790300  0.046100  1.0  -0.0007
  C  C44  1  0.815100  0.290300  0.046100  1.0  -0.0007
  N  N45  1  0.315000  0.111600  0.382500  1.0  -0.6825
  N  N46  1  0.815000  0.611600  0.382500  1.0  -0.6825
  N  N47  1  0.685000  0.111600  0.117500  1.0  -0.68
  N  N48  1  0.185000  0.611600  0.117500  1.0  -0.68
  N  N49  1  0.685000  0.888400  0.617500  1.0  -0.6796
  N  N50  1  0.185000  0.388400  0.617500  1.0  -0.6796
  N  N51  1  0.315000  0.888400  0.882500  1.0  -0.6819
  N  N52  1  0.815000  0.388400  0.882500  1.0  -0.6819
