# generated using pymatgen
data_AgH8(CN)2
_symmetry_space_group_name_H-M   'P 1'
_cell_length_a   10.25510000
_cell_length_b   10.63420000
_cell_length_c   6.22960000
_cell_angle_alpha   90.00000000
_cell_angle_beta   114.56800000
_cell_angle_gamma   90.00000000
_symmetry_Int_Tables_number   1
_chemical_formula_structural   AgH8(CN)2
_chemical_formula_sum   'Ag4 H32 C8 N8'
_cell_volume   617.86348382
_cell_formula_units_Z   4
loop_
 _symmetry_equiv_pos_site_id
 _symmetry_equiv_pos_as_xyz
  1  'x, y, z'
loop_
 _atom_site_type_symbol
 _atom_site_label
 _atom_site_symmetry_multiplicity
 _atom_site_fract_x
 _atom_site_fract_y
 _atom_site_fract_z
 _atom_site_occupancy
 _atom_site_charge
  Ag  Ag1  1  0.500000  0.000000  0.500000  1.0  0.1843
  Ag  Ag2  1  0.000000  0.500000  0.500000  1.0  0.1843
  Ag  Ag3  1  0.500000  0.000000  0.000000  1.0  0.1843
  Ag  Ag4  1  0.000000  0.500000  0.000000  1.0  0.1843
  H  H5  1  0.400600  0.266000  0.569600  1.0  0.0231
  H  H6  1  0.332900  0.174100  0.699900  1.0  0.0314
  H  H7  1  0.295000  0.143600  0.236000  1.0  0.2733
  H  H8  1  0.234400  0.057600  0.359500  1.0  0.2699
  H  H9  1  0.900600  0.766000  0.569600  1.0  0.0231
  H  H10  1  0.832900  0.674100  0.699900  1.0  0.0314
  H  H11  1  0.795000  0.643600  0.236000  1.0  0.2733
  H  H12  1  0.734400  0.557600  0.359500  1.0  0.2699
  H  H13  1  0.599400  0.266000  0.930400  1.0  0.0237
  H  H14  1  0.667100  0.174100  0.800100  1.0  0.0329
  H  H15  1  0.705000  0.143600  0.264000  1.0  0.2735
  H  H16  1  0.765600  0.057600  0.140500  1.0  0.2702
  H  H17  1  0.099400  0.766000  0.930400  1.0  0.0237
  H  H18  1  0.167100  0.674100  0.800100  1.0  0.0329
  H  H19  1  0.205000  0.643600  0.264000  1.0  0.2735
  H  H20  1  0.265600  0.557600  0.140500  1.0  0.2702
  H  H21  1  0.599400  0.734000  0.430400  1.0  0.0231
  H  H22  1  0.667100  0.825900  0.300100  1.0  0.0326
  H  H23  1  0.705000  0.856400  0.764000  1.0  0.2734
  H  H24  1  0.765600  0.942400  0.640500  1.0  0.2696
  H  H25  1  0.099400  0.234000  0.430400  1.0  0.0231
  H  H26  1  0.167100  0.325900  0.300100  1.0  0.0326
  H  H27  1  0.205000  0.356400  0.764000  1.0  0.2734
  H  H28  1  0.265600  0.442400  0.640500  1.0  0.2696
  H  H29  1  0.400600  0.734000  0.069600  1.0  0.0228
  H  H30  1  0.332900  0.825900  0.199900  1.0  0.0315
  H  H31  1  0.295000  0.856400  0.736000  1.0  0.2736
  H  H32  1  0.234400  0.942400  0.859500  1.0  0.2697
  H  H33  1  0.900600  0.234000  0.069600  1.0  0.0228
  H  H34  1  0.832900  0.325900  0.199900  1.0  0.0315
  H  H35  1  0.795000  0.356400  0.736000  1.0  0.2736
  H  H36  1  0.734400  0.442400  0.859500  1.0  0.2697
  C  C37  1  0.317700  0.211000  0.545400  1.0  0.0133
  C  C38  1  0.817700  0.711000  0.545400  1.0  0.0133
  C  C39  1  0.682300  0.211000  0.954600  1.0  0.013
  C  C40  1  0.182300  0.711000  0.954600  1.0  0.013
  C  C41  1  0.682300  0.789000  0.454600  1.0  0.0145
  C  C42  1  0.182300  0.289000  0.454600  1.0  0.0145
  C  C43  1  0.317700  0.789000  0.045400  1.0  0.0153
  C  C44  1  0.817700  0.289000  0.045400  1.0  0.0153
  N  N45  1  0.310800  0.109100  0.380200  1.0  -0.706
  N  N46  1  0.810800  0.609100  0.380200  1.0  -0.706
  N  N47  1  0.689200  0.109100  0.119800  1.0  -0.7047
  N  N48  1  0.189200  0.609100  0.119800  1.0  -0.7047
  N  N49  1  0.689200  0.890900  0.619800  1.0  -0.7039
  N  N50  1  0.189200  0.390900  0.619800  1.0  -0.7039
  N  N51  1  0.310800  0.890900  0.880200  1.0  -0.7042
  N  N52  1  0.810800  0.390900  0.880200  1.0  -0.7042
