# generated using pymatgen
data_AgH8(CN)2
_symmetry_space_group_name_H-M   'P 1'
_cell_length_a   10.47670000
_cell_length_b   10.48740000
_cell_length_c   6.32250000
_cell_angle_alpha   90.00000000
_cell_angle_beta   115.38500000
_cell_angle_gamma   90.00000000
_symmetry_Int_Tables_number   1
_chemical_formula_structural   AgH8(CN)2
_chemical_formula_sum   'Ag4 H32 C8 N8'
_cell_volume   627.60172216
_cell_formula_units_Z   4
loop_
 _symmetry_equiv_pos_site_id
 _symmetry_equiv_pos_as_xyz
  1  'x, y, z'
loop_
 _atom_site_type_symbol
 _atom_site_label
 _atom_site_symmetry_multiplicity
 _atom_site_fract_x
 _atom_site_fract_y
 _atom_site_fract_z
 _atom_site_occupancy
 _atom_site_charge
  Ag  Ag1  1  0.500000  0.000000  0.500000  1.0  0.1521
  Ag  Ag2  1  0.000000  0.500000  0.500000  1.0  0.1521
  Ag  Ag3  1  0.500000  0.000000  0.000000  1.0  0.1521
  Ag  Ag4  1  0.000000  0.500000  0.000000  1.0  0.1521
  H  H5  1  0.397100  0.264500  0.582700  1.0  0.0204
  H  H6  1  0.325900  0.169700  0.691300  1.0  0.0294
  H  H7  1  0.300900  0.148300  0.246100  1.0  0.2821
  H  H8  1  0.240400  0.058800  0.353200  1.0  0.2718
  H  H9  1  0.897100  0.764500  0.582700  1.0  0.0204
  H  H10  1  0.825900  0.669700  0.691300  1.0  0.0294
  H  H11  1  0.800900  0.648300  0.246100  1.0  0.2821
  H  H12  1  0.740400  0.558800  0.353200  1.0  0.2718
  H  H13  1  0.602900  0.264500  0.917300  1.0  0.0209
  H  H14  1  0.674100  0.169700  0.808700  1.0  0.0291
  H  H15  1  0.699100  0.148300  0.253900  1.0  0.2832
  H  H16  1  0.759600  0.058800  0.146800  1.0  0.272
  H  H17  1  0.102900  0.764500  0.917300  1.0  0.0209
  H  H18  1  0.174100  0.669700  0.808700  1.0  0.0291
  H  H19  1  0.199100  0.648300  0.253900  1.0  0.2832
  H  H20  1  0.259600  0.558800  0.146800  1.0  0.272
  H  H21  1  0.602900  0.735500  0.417300  1.0  0.021
  H  H22  1  0.674100  0.830300  0.308700  1.0  0.0291
  H  H23  1  0.699100  0.851700  0.753900  1.0  0.2834
  H  H24  1  0.759600  0.941200  0.646800  1.0  0.2729
  H  H25  1  0.102900  0.235500  0.417300  1.0  0.021
  H  H26  1  0.174100  0.330300  0.308700  1.0  0.0291
  H  H27  1  0.199100  0.351700  0.753900  1.0  0.2834
  H  H28  1  0.259600  0.441200  0.646800  1.0  0.2729
  H  H29  1  0.397100  0.735500  0.082700  1.0  0.0197
  H  H30  1  0.325900  0.830300  0.191300  1.0  0.0293
  H  H31  1  0.300900  0.851700  0.746100  1.0  0.2824
  H  H32  1  0.240400  0.941200  0.853200  1.0  0.2725
  H  H33  1  0.897100  0.235500  0.082700  1.0  0.0197
  H  H34  1  0.825900  0.330300  0.191300  1.0  0.0293
  H  H35  1  0.800900  0.351700  0.746100  1.0  0.2824
  H  H36  1  0.740400  0.441200  0.853200  1.0  0.2725
  C  C37  1  0.315700  0.209800  0.546700  1.0  -0.0042
  C  C38  1  0.815700  0.709800  0.546700  1.0  -0.0042
  C  C39  1  0.684300  0.209800  0.953300  1.0  -0.0049
  C  C40  1  0.184300  0.709800  0.953300  1.0  -0.0049
  C  C41  1  0.684300  0.790200  0.453300  1.0  -0.0035
  C  C42  1  0.184300  0.290200  0.453300  1.0  -0.0035
  C  C43  1  0.315700  0.790200  0.046700  1.0  -0.0023
  C  C44  1  0.815700  0.290200  0.046700  1.0  -0.0023
  N  N45  1  0.314300  0.110900  0.382100  1.0  -0.6788
  N  N46  1  0.814300  0.610900  0.382100  1.0  -0.6788
  N  N47  1  0.685700  0.110900  0.117900  1.0  -0.6766
  N  N48  1  0.185700  0.610900  0.117900  1.0  -0.6766
  N  N49  1  0.685700  0.889100  0.617900  1.0  -0.6754
  N  N50  1  0.185700  0.389100  0.617900  1.0  -0.6754
  N  N51  1  0.314300  0.889100  0.882100  1.0  -0.6776
  N  N52  1  0.814300  0.389100  0.882100  1.0  -0.6776
