# generated using pymatgen
data_AgH8(CN)2
_symmetry_space_group_name_H-M   'P 1'
_cell_length_a   20.85500000
_cell_length_b   19.60000000
_cell_length_c   6.04090000
_cell_angle_alpha   90.00000000
_cell_angle_beta   114.21500000
_cell_angle_gamma   90.00000000
_symmetry_Int_Tables_number   1
_chemical_formula_structural   AgH8(CN)2
_chemical_formula_sum   'Ag16 H128 C32 N32'
_cell_volume   2252.00230231
_cell_formula_units_Z   16
loop_
 _symmetry_equiv_pos_site_id
 _symmetry_equiv_pos_as_xyz
  1  'x, y, z'
loop_
 _atom_site_type_symbol
 _atom_site_label
 _atom_site_symmetry_multiplicity
 _atom_site_fract_x
 _atom_site_fract_y
 _atom_site_fract_z
 _atom_site_occupancy
 _atom_site_charge
  Ag  Ag1  1  0.500000  0.000000  0.000000  1.0  0.21
  Ag  Ag2  1  0.000000  0.500000  0.000000  1.0  0.21
  Ag  Ag3  1  0.500000  0.000000  0.500000  1.0  0.21
  Ag  Ag4  1  0.000000  0.500000  0.500000  1.0  0.21
  Ag  Ag5  1  0.750000  0.250000  0.000000  1.0  0.4388
  Ag  Ag6  1  0.250000  0.250000  0.500000  1.0  0.4388
  Ag  Ag7  1  0.250000  0.750000  0.000000  1.0  0.4388
  Ag  Ag8  1  0.750000  0.750000  0.500000  1.0  0.4388
  Ag  Ag9  1  0.750000  0.250000  0.500000  1.0  0.3448
  Ag  Ag10  1  0.250000  0.250000  0.000000  1.0  0.3448
  Ag  Ag11  1  0.250000  0.750000  0.500000  1.0  0.3448
  Ag  Ag12  1  0.750000  0.750000  0.000000  1.0  0.3448
  Ag  Ag13  1  0.000000  0.000000  0.500000  1.0  0.2466
  Ag  Ag14  1  0.500000  0.500000  0.500000  1.0  0.2466
  Ag  Ag15  1  0.000000  0.000000  0.000000  1.0  0.2466
  Ag  Ag16  1  0.500000  0.500000  0.000000  1.0  0.2466
  H  H17  1  0.620900  0.065400  0.277000  1.0  0.2779
  H  H18  1  0.637900  0.022800  0.110000  1.0  0.2723
  H  H19  1  0.626400  0.237900  0.878300  1.0  0.228
  H  H20  1  0.646700  0.195000  0.719100  1.0  0.2626
  H  H21  1  0.884700  0.228800  0.612400  1.0  0.2118
  H  H22  1  0.866500  0.185300  0.775400  1.0  0.233
  H  H23  1  0.888600  0.064700  0.235500  1.0  0.2454
  H  H24  1  0.870300  0.021800  0.398500  1.0  0.2576
  H  H25  1  0.562100  0.140800  0.975500  1.0  0.0266
  H  H26  1  0.581000  0.095200  0.797200  1.0  0.0295
  H  H27  1  0.681500  0.164400  0.199500  1.0  0.035
  H  H28  1  0.700900  0.118100  0.024700  1.0  0.0237
  H  H29  1  0.827000  0.158300  0.289700  1.0  0.0352
  H  H30  1  0.805100  0.112000  0.461700  1.0  0.0267
  H  H31  1  0.947500  0.140900  0.547400  1.0  0.0194
  H  H32  1  0.925700  0.095000  0.720000  1.0  0.0288
  H  H33  1  0.120900  0.565400  0.277000  1.0  0.2779
  H  H34  1  0.137900  0.522800  0.110000  1.0  0.2723
  H  H35  1  0.126400  0.737900  0.878300  1.0  0.228
  H  H36  1  0.146700  0.695000  0.719100  1.0  0.2626
  H  H37  1  0.384700  0.728800  0.612400  1.0  0.2118
  H  H38  1  0.366500  0.685300  0.775400  1.0  0.233
  H  H39  1  0.388600  0.564700  0.235500  1.0  0.2454
  H  H40  1  0.370300  0.521800  0.398500  1.0  0.2576
  H  H41  1  0.062100  0.640800  0.975500  1.0  0.0266
  H  H42  1  0.081000  0.595200  0.797200  1.0  0.0295
  H  H43  1  0.181500  0.664400  0.199500  1.0  0.035
  H  H44  1  0.200900  0.618100  0.024700  1.0  0.0237
  H  H45  1  0.327000  0.658300  0.289700  1.0  0.0352
  H  H46  1  0.305100  0.612000  0.461700  1.0  0.0267
  H  H47  1  0.447500  0.640900  0.547400  1.0  0.0194
  H  H48  1  0.425700  0.595000  0.720000  1.0  0.0288
  H  H49  1  0.379100  0.065400  0.223000  1.0  0.2775
  H  H50  1  0.362100  0.022800  0.390000  1.0  0.2712
  H  H51  1  0.373600  0.237900  0.621700  1.0  0.2279
  H  H52  1  0.353300  0.195000  0.780900  1.0  0.2629
  H  H53  1  0.115300  0.228800  0.887600  1.0  0.2117
  H  H54  1  0.133500  0.185300  0.724600  1.0  0.2336
  H  H55  1  0.111400  0.064700  0.264500  1.0  0.2463
  H  H56  1  0.129700  0.021800  0.101500  1.0  0.2581
  H  H57  1  0.437900  0.140800  0.524500  1.0  0.0283
  H  H58  1  0.419000  0.095200  0.702800  1.0  0.0297
  H  H59  1  0.318500  0.164400  0.300500  1.0  0.0367
  H  H60  1  0.299100  0.118100  0.475300  1.0  0.0257
  H  H61  1  0.173000  0.158300  0.210300  1.0  0.0337
  H  H62  1  0.194900  0.112000  0.038300  1.0  0.0263
  H  H63  1  0.052500  0.140900  0.952600  1.0  0.0207
  H  H64  1  0.074300  0.095000  0.780000  1.0  0.0303
  H  H65  1  0.879100  0.565400  0.223000  1.0  0.2775
  H  H66  1  0.862100  0.522800  0.390000  1.0  0.2712
  H  H67  1  0.873600  0.737900  0.621700  1.0  0.2279
  H  H68  1  0.853300  0.695000  0.780900  1.0  0.2629
  H  H69  1  0.615300  0.728800  0.887600  1.0  0.2117
  H  H70  1  0.633500  0.685300  0.724600  1.0  0.2336
  H  H71  1  0.611400  0.564700  0.264500  1.0  0.2463
  H  H72  1  0.629700  0.521800  0.101500  1.0  0.2581
  H  H73  1  0.937900  0.640800  0.524500  1.0  0.0283
  H  H74  1  0.919000  0.595200  0.702800  1.0  0.0297
  H  H75  1  0.818500  0.664400  0.300500  1.0  0.0367
  H  H76  1  0.799100  0.618100  0.475300  1.0  0.0257
  H  H77  1  0.673000  0.658300  0.210300  1.0  0.0337
  H  H78  1  0.694900  0.612000  0.038300  1.0  0.0263
  H  H79  1  0.552500  0.640900  0.952600  1.0  0.0207
  H  H80  1  0.574300  0.595000  0.780000  1.0  0.0303
  H  H81  1  0.379100  0.934600  0.723000  1.0  0.2776
  H  H82  1  0.362100  0.977200  0.890000  1.0  0.2723
  H  H83  1  0.373600  0.762100  0.121700  1.0  0.2289
  H  H84  1  0.353300  0.805000  0.280900  1.0  0.2624
  H  H85  1  0.115300  0.771200  0.387600  1.0  0.2132
  H  H86  1  0.133500  0.814700  0.224600  1.0  0.2337
  H  H87  1  0.111400  0.935300  0.764500  1.0  0.2468
  H  H88  1  0.129700  0.978200  0.601500  1.0  0.2582
  H  H89  1  0.437900  0.859200  0.024500  1.0  0.028
  H  H90  1  0.419000  0.904800  0.202800  1.0  0.0302
  H  H91  1  0.318500  0.835600  0.800500  1.0  0.0371
  H  H92  1  0.299100  0.881900  0.975300  1.0  0.0252
  H  H93  1  0.173000  0.841700  0.710300  1.0  0.0334
  H  H94  1  0.194900  0.888000  0.538300  1.0  0.0269
  H  H95  1  0.052500  0.859100  0.452600  1.0  0.021
  H  H96  1  0.074300  0.905000  0.280000  1.0  0.0304
  H  H97  1  0.879100  0.434600  0.723000  1.0  0.2776
  H  H98  1  0.862100  0.477200  0.890000  1.0  0.2723
  H  H99  1  0.873600  0.262100  0.121700  1.0  0.2289
  H  H100  1  0.853300  0.305000  0.280900  1.0  0.2624
  H  H101  1  0.615300  0.271200  0.387600  1.0  0.2132
  H  H102  1  0.633500  0.314700  0.224600  1.0  0.2337
  H  H103  1  0.611400  0.435300  0.764500  1.0  0.2468
  H  H104  1  0.629700  0.478200  0.601500  1.0  0.2582
  H  H105  1  0.937900  0.359200  0.024500  1.0  0.028
  H  H106  1  0.919000  0.404800  0.202800  1.0  0.0302
  H  H107  1  0.818500  0.335600  0.800500  1.0  0.0371
  H  H108  1  0.799100  0.381900  0.975300  1.0  0.0252
  H  H109  1  0.673000  0.341700  0.710300  1.0  0.0334
  H  H110  1  0.694900  0.388000  0.538300  1.0  0.0269
  H  H111  1  0.552500  0.359100  0.452600  1.0  0.021
  H  H112  1  0.574300  0.405000  0.280000  1.0  0.0304
  H  H113  1  0.620900  0.934600  0.777000  1.0  0.2776
  H  H114  1  0.637900  0.977200  0.610000  1.0  0.2723
  H  H115  1  0.626400  0.762100  0.378300  1.0  0.2286
  H  H116  1  0.646700  0.805000  0.219100  1.0  0.2628
  H  H117  1  0.884700  0.771200  0.112400  1.0  0.2127
  H  H118  1  0.866500  0.814700  0.275400  1.0  0.2334
  H  H119  1  0.888600  0.935300  0.735500  1.0  0.2464
  H  H120  1  0.870300  0.978200  0.898500  1.0  0.2593
  H  H121  1  0.562100  0.859200  0.475500  1.0  0.0268
  H  H122  1  0.581000  0.904800  0.297200  1.0  0.0295
  H  H123  1  0.681500  0.835600  0.699500  1.0  0.0349
  H  H124  1  0.700900  0.881900  0.524700  1.0  0.0236
  H  H125  1  0.827000  0.841700  0.789700  1.0  0.0347
  H  H126  1  0.805100  0.888000  0.961700  1.0  0.0271
  H  H127  1  0.947500  0.859100  0.047400  1.0  0.019
  H  H128  1  0.925700  0.905000  0.220000  1.0  0.0291
  H  H129  1  0.120900  0.434600  0.777000  1.0  0.2776
  H  H130  1  0.137900  0.477200  0.610000  1.0  0.2723
  H  H131  1  0.126400  0.262100  0.378300  1.0  0.2286
  H  H132  1  0.146700  0.305000  0.219100  1.0  0.2628
  H  H133  1  0.384700  0.271200  0.112400  1.0  0.2127
  H  H134  1  0.366500  0.314700  0.275400  1.0  0.2334
  H  H135  1  0.388600  0.435300  0.735500  1.0  0.2464
  H  H136  1  0.370300  0.478200  0.898500  1.0  0.2593
  H  H137  1  0.062100  0.359200  0.475500  1.0  0.0268
  H  H138  1  0.081000  0.404800  0.297200  1.0  0.0295
  H  H139  1  0.181500  0.335600  0.699500  1.0  0.0349
  H  H140  1  0.200900  0.381900  0.524700  1.0  0.0236
  H  H141  1  0.327000  0.341700  0.789700  1.0  0.0347
  H  H142  1  0.305100  0.388000  0.961700  1.0  0.0271
  H  H143  1  0.447500  0.359100  0.047400  1.0  0.019
  H  H144  1  0.425700  0.405000  0.220000  1.0  0.0291
  C  C145  1  0.597400  0.110500  0.964000  1.0  -0.0087
  C  C146  1  0.665600  0.148900  0.033000  1.0  -0.0273
  C  C147  1  0.840700  0.142900  0.455000  1.0  -0.0379
  C  C148  1  0.912100  0.109800  0.554000  1.0  -0.0338
  C  C149  1  0.097400  0.610500  0.964000  1.0  -0.0087
  C  C150  1  0.165600  0.648900  0.033000  1.0  -0.0273
  C  C151  1  0.340700  0.642900  0.455000  1.0  -0.0379
  C  C152  1  0.412100  0.609800  0.554000  1.0  -0.0338
  C  C153  1  0.402600  0.110500  0.536000  1.0  -0.0066
  C  C154  1  0.334400  0.148900  0.467000  1.0  -0.0296
  C  C155  1  0.159300  0.142900  0.045000  1.0  -0.0379
  C  C156  1  0.087900  0.109800  0.946000  1.0  -0.0349
  C  C157  1  0.902600  0.610500  0.536000  1.0  -0.0066
  C  C158  1  0.834400  0.648900  0.467000  1.0  -0.0296
  C  C159  1  0.659300  0.642900  0.045000  1.0  -0.0379
  C  C160  1  0.587900  0.609800  0.946000  1.0  -0.0349
  C  C161  1  0.402600  0.889500  0.036000  1.0  -0.0066
  C  C162  1  0.334400  0.851100  0.967000  1.0  -0.0295
  C  C163  1  0.159300  0.857100  0.545000  1.0  -0.038
  C  C164  1  0.087900  0.890200  0.446000  1.0  -0.0353
  C  C165  1  0.902600  0.389500  0.036000  1.0  -0.0066
  C  C166  1  0.834400  0.351100  0.967000  1.0  -0.0295
  C  C167  1  0.659300  0.357100  0.545000  1.0  -0.038
  C  C168  1  0.587900  0.390200  0.446000  1.0  -0.0353
  C  C169  1  0.597400  0.889500  0.464000  1.0  -0.0087
  C  C170  1  0.665600  0.851100  0.533000  1.0  -0.0276
  C  C171  1  0.840700  0.857100  0.955000  1.0  -0.0378
  C  C172  1  0.912100  0.890200  0.054000  1.0  -0.0339
  C  C173  1  0.097400  0.389500  0.464000  1.0  -0.0087
  C  C174  1  0.165600  0.351100  0.533000  1.0  -0.0276
  C  C175  1  0.340700  0.357100  0.955000  1.0  -0.0378
  C  C176  1  0.412100  0.390200  0.054000  1.0  -0.0339
  N  N177  1  0.606000  0.051900  0.122000  1.0  -0.7031
  N  N178  1  0.659000  0.208500  0.874000  1.0  -0.6576
  N  N179  1  0.852200  0.200000  0.621000  1.0  -0.6835
  N  N180  1  0.903000  0.050400  0.390000  1.0  -0.6847
  N  N181  1  0.106000  0.551900  0.122000  1.0  -0.7031
  N  N182  1  0.159000  0.708500  0.874000  1.0  -0.6576
  N  N183  1  0.352200  0.700000  0.621000  1.0  -0.6835
  N  N184  1  0.403000  0.550400  0.390000  1.0  -0.6847
  N  N185  1  0.394000  0.051900  0.378000  1.0  -0.7044
  N  N186  1  0.341000  0.208500  0.626000  1.0  -0.6585
  N  N187  1  0.147800  0.200000  0.879000  1.0  -0.6854
  N  N188  1  0.097000  0.050400  0.110000  1.0  -0.6852
  N  N189  1  0.894000  0.551900  0.378000  1.0  -0.7044
  N  N190  1  0.841000  0.708500  0.626000  1.0  -0.6585
  N  N191  1  0.647800  0.700000  0.879000  1.0  -0.6854
  N  N192  1  0.597000  0.550400  0.110000  1.0  -0.6852
  N  N193  1  0.394000  0.948100  0.878000  1.0  -0.7041
  N  N194  1  0.341000  0.791500  0.126000  1.0  -0.6585
  N  N195  1  0.147800  0.800000  0.379000  1.0  -0.6861
  N  N196  1  0.097000  0.949600  0.610000  1.0  -0.6843
  N  N197  1  0.894000  0.448100  0.878000  1.0  -0.7041
  N  N198  1  0.841000  0.291500  0.126000  1.0  -0.6585
  N  N199  1  0.647800  0.300000  0.379000  1.0  -0.6861
  N  N200  1  0.597000  0.449600  0.610000  1.0  -0.6843
  N  N201  1  0.606000  0.948100  0.622000  1.0  -0.7027
  N  N202  1  0.659000  0.791500  0.374000  1.0  -0.6575
  N  N203  1  0.852200  0.800000  0.121000  1.0  -0.6842
  N  N204  1  0.903000  0.949600  0.890000  1.0  -0.6838
  N  N205  1  0.106000  0.448100  0.622000  1.0  -0.7027
  N  N206  1  0.159000  0.291500  0.374000  1.0  -0.6575
  N  N207  1  0.352200  0.300000  0.121000  1.0  -0.6842
  N  N208  1  0.403000  0.449600  0.890000  1.0  -0.6838
