# generated using pymatgen
data_AgH8(CN)2
_symmetry_space_group_name_H-M   'P 1'
_cell_length_a   10.36120000
_cell_length_b   10.56860000
_cell_length_c   6.26690000
_cell_angle_alpha   90.00000000
_cell_angle_beta   114.90700000
_cell_angle_gamma   90.00000000
_symmetry_Int_Tables_number   1
_chemical_formula_structural   AgH8(CN)2
_chemical_formula_sum   'Ag4 H32 C8 N8'
_cell_volume   622.42067650
_cell_formula_units_Z   4
loop_
 _symmetry_equiv_pos_site_id
 _symmetry_equiv_pos_as_xyz
  1  'x, y, z'
loop_
 _atom_site_type_symbol
 _atom_site_label
 _atom_site_symmetry_multiplicity
 _atom_site_fract_x
 _atom_site_fract_y
 _atom_site_fract_z
 _atom_site_occupancy
 _atom_site_charge
  Ag  Ag1  1  0.500000  0.000000  0.500000  1.0  0.1882
  Ag  Ag2  1  0.000000  0.500000  0.500000  1.0  0.1882
  Ag  Ag3  1  0.500000  0.000000  0.000000  1.0  0.1882
  Ag  Ag4  1  0.000000  0.500000  0.000000  1.0  0.1882
  H  H5  1  0.398500  0.265600  0.573200  1.0  0.0305
  H  H6  1  0.330500  0.172600  0.695900  1.0  0.0298
  H  H7  1  0.296800  0.145300  0.239900  1.0  0.2894
  H  H8  1  0.236900  0.058100  0.357300  1.0  0.251
  H  H9  1  0.898500  0.765600  0.573200  1.0  0.0305
  H  H10  1  0.830500  0.672600  0.695900  1.0  0.0298
  H  H11  1  0.796800  0.645300  0.239900  1.0  0.2894
  H  H12  1  0.736900  0.558100  0.357300  1.0  0.251
  H  H13  1  0.601500  0.265600  0.926800  1.0  0.0302
  H  H14  1  0.669500  0.172600  0.804100  1.0  0.0301
  H  H15  1  0.703200  0.145300  0.260100  1.0  0.291
  H  H16  1  0.763100  0.058100  0.142700  1.0  0.2519
  H  H17  1  0.101500  0.765600  0.926800  1.0  0.0302
  H  H18  1  0.169500  0.672600  0.804100  1.0  0.0301
  H  H19  1  0.203200  0.645300  0.260100  1.0  0.291
  H  H20  1  0.263100  0.558100  0.142700  1.0  0.2519
  H  H21  1  0.601500  0.734400  0.426800  1.0  0.0303
  H  H22  1  0.669500  0.827400  0.304100  1.0  0.0303
  H  H23  1  0.703200  0.854700  0.760100  1.0  0.2908
  H  H24  1  0.763100  0.941900  0.642700  1.0  0.2521
  H  H25  1  0.101500  0.234400  0.426800  1.0  0.0303
  H  H26  1  0.169500  0.327400  0.304100  1.0  0.0303
  H  H27  1  0.203200  0.354700  0.760100  1.0  0.2908
  H  H28  1  0.263100  0.441900  0.642700  1.0  0.2521
  H  H29  1  0.398500  0.734400  0.073200  1.0  0.0299
  H  H30  1  0.330500  0.827400  0.195900  1.0  0.03
  H  H31  1  0.296800  0.854700  0.739900  1.0  0.2893
  H  H32  1  0.236900  0.941900  0.857300  1.0  0.2517
  H  H33  1  0.898500  0.234400  0.073200  1.0  0.0299
  H  H34  1  0.830500  0.327400  0.195900  1.0  0.03
  H  H35  1  0.796800  0.354700  0.739900  1.0  0.2893
  H  H36  1  0.736900  0.441900  0.857300  1.0  0.2517
  C  C37  1  0.316700  0.210600  0.545200  1.0  0.0017
  C  C38  1  0.816700  0.710600  0.545200  1.0  0.0017
  C  C39  1  0.683300  0.210600  0.954800  1.0  0.001
  C  C40  1  0.183300  0.710600  0.954800  1.0  0.001
  C  C41  1  0.683300  0.789400  0.454800  1.0  0.0024
  C  C42  1  0.183300  0.289400  0.454800  1.0  0.0024
  C  C43  1  0.316700  0.789400  0.045200  1.0  0.0035
  C  C44  1  0.816700  0.289400  0.045200  1.0  0.0035
  N  N45  1  0.311900  0.109900  0.380800  1.0  -0.7007
  N  N46  1  0.811900  0.609900  0.380800  1.0  -0.7007
  N  N47  1  0.688100  0.109900  0.119200  1.0  -0.6977
  N  N48  1  0.188100  0.609900  0.119200  1.0  -0.6977
  N  N49  1  0.688100  0.890100  0.619200  1.0  -0.6963
  N  N50  1  0.188100  0.390100  0.619200  1.0  -0.6963
  N  N51  1  0.311900  0.890100  0.880800  1.0  -0.6986
  N  N52  1  0.811900  0.390100  0.880800  1.0  -0.6986
