# generated using pymatgen
data_MnH4(C2O)4
_symmetry_space_group_name_H-M   'P 1'
_cell_length_a   9.53470000
_cell_length_b   13.37780000
_cell_length_c   14.47440000
_cell_angle_alpha   79.94770000
_cell_angle_beta   70.76970000
_cell_angle_gamma   69.12300000
_symmetry_Int_Tables_number   1
_chemical_formula_structural   MnH4(C2O)4
_chemical_formula_sum   'Mn6 H24 C48 O24'
_cell_volume   1625.36883008
_cell_formula_units_Z   6
loop_
 _symmetry_equiv_pos_site_id
 _symmetry_equiv_pos_as_xyz
  1  'x, y, z'
loop_
 _atom_site_type_symbol
 _atom_site_label
 _atom_site_symmetry_multiplicity
 _atom_site_fract_x
 _atom_site_fract_y
 _atom_site_fract_z
 _atom_site_occupancy
 _atom_site_charge
  Mn  Mn1  1  0.520410  0.467520  0.884560  1.0  1.0966
  Mn  Mn2  1  0.872490  0.032480  0.615440  1.0  1.1
  Mn  Mn3  1  0.479590  0.532480  0.115440  1.0  1.0983
  Mn  Mn4  1  0.127510  0.967520  0.384560  1.0  1.1004
  Mn  Mn5  1  0.788880  0.250000  0.750000  1.0  1.241
  Mn  Mn6  1  0.211120  0.750000  0.250000  1.0  1.2422
  H  H7  1  0.776300  0.092100  0.979300  1.0  0.0885
  H  H8  1  0.886400  0.956200  0.081000  1.0  0.1028
  H  H9  1  0.799800  0.168900  0.270700  1.0  0.1061
  H  H10  1  0.676400  0.304600  0.173400  1.0  0.1013
  H  H11  1  0.443100  0.643300  0.589700  1.0  0.1054
  H  H12  1  0.570200  0.327200  0.569200  1.0  0.1053
  H  H13  1  0.847700  0.407900  0.520700  1.0  0.0869
  H  H14  1  0.923600  0.543800  0.419000  1.0  0.1027
  H  H15  1  0.239400  0.331100  0.229300  1.0  0.1059
  H  H16  1  0.154400  0.195400  0.326600  1.0  0.1023
  H  H17  1  0.676100  0.856700  0.910300  1.0  0.1065
  H  H18  1  0.466600  0.172800  0.930800  1.0  0.1056
  H  H19  1  0.223700  0.907900  0.020700  1.0  0.0882
  H  H20  1  0.113600  0.043800  0.919000  1.0  0.1025
  H  H21  1  0.200200  0.831100  0.729300  1.0  0.1062
  H  H22  1  0.323600  0.695400  0.826600  1.0  0.1011
  H  H23  1  0.556900  0.356700  0.410300  1.0  0.1061
  H  H24  1  0.429800  0.672800  0.430800  1.0  0.106
  H  H25  1  0.152300  0.592100  0.479300  1.0  0.0867
  H  H26  1  0.076400  0.456200  0.581000  1.0  0.1028
  H  H27  1  0.760600  0.668900  0.770700  1.0  0.1061
  H  H28  1  0.845600  0.804600  0.673400  1.0  0.1023
  H  H29  1  0.323900  0.143300  0.089700  1.0  0.1064
  H  H30  1  0.533400  0.827200  0.069200  1.0  0.1053
  C  C31  1  0.650100  0.301000  0.998000  1.0  0.7281
  C  C32  1  0.717400  0.212300  0.065300  1.0  -0.1467
  C  C33  1  0.779800  0.107700  0.038500  1.0  -0.0364
  C  C34  1  0.847100  0.026600  0.099000  1.0  -0.0567
  C  C35  1  0.856900  0.048800  0.186200  1.0  -0.1283
  C  C36  1  0.794000  0.152800  0.212400  1.0  -0.0472
  C  C37  1  0.721800  0.234700  0.153500  1.0  -0.0415
  C  C38  1  0.945800  0.962700  0.247700  1.0  0.7177
  C  C39  1  0.516200  0.463400  0.699000  1.0  0.6897
  C  C40  1  0.506000  0.481500  0.596100  1.0  -0.1284
  C  C41  1  0.465500  0.585600  0.553600  1.0  -0.0562
  C  C42  1  0.541300  0.397000  0.541600  1.0  -0.0452
  C  C43  1  0.949100  0.199000  0.502000  1.0  0.7286
  C  C44  1  0.995000  0.287700  0.434700  1.0  -0.1478
  C  C45  1  0.926000  0.392300  0.461500  1.0  -0.0352
  C  C46  1  0.972700  0.473400  0.401000  1.0  -0.0585
  C  C47  1  0.091900  0.451200  0.313800  1.0  -0.1288
  C  C48  1  0.159200  0.347200  0.287600  1.0  -0.0473
  C  C49  1  0.110000  0.265300  0.346500  1.0  -0.0413
  C  C50  1  0.156200  0.537300  0.252300  1.0  0.7187
  C  C51  1  0.678600  0.036600  0.801000  1.0  0.6909
  C  C52  1  0.583600  0.018500  0.903900  1.0  -0.1249
  C  C53  1  0.604700  0.914400  0.946400  1.0  -0.0552
  C  C54  1  0.479900  0.103000  0.958400  1.0  -0.0469
  C  C55  1  0.349900  0.699000  0.002000  1.0  0.7282
  C  C56  1  0.282600  0.787700  0.934700  1.0  -0.1484
  C  C57  1  0.220200  0.892300  0.961500  1.0  -0.0361
  C  C58  1  0.152900  0.973400  0.901000  1.0  -0.0582
  C  C59  1  0.143100  0.951200  0.813800  1.0  -0.1301
  C  C60  1  0.206000  0.847200  0.787600  1.0  -0.0485
  C  C61  1  0.278200  0.765300  0.846500  1.0  -0.0419
  C  C62  1  0.054200  0.037300  0.752300  1.0  0.7206
  C  C63  1  0.483800  0.536600  0.301000  1.0  0.6893
  C  C64  1  0.494000  0.518500  0.403900  1.0  -0.1285
  C  C65  1  0.534500  0.414400  0.446400  1.0  -0.055
  C  C66  1  0.458700  0.603000  0.458400  1.0  -0.0441
  C  C67  1  0.050900  0.801000  0.498000  1.0  0.7276
  C  C68  1  0.005000  0.712300  0.565300  1.0  -0.1471
  C  C69  1  0.074000  0.607700  0.538500  1.0  -0.0372
  C  C70  1  0.027300  0.526600  0.599000  1.0  -0.0562
  C  C71  1  0.908100  0.548800  0.686200  1.0  -0.1265
  C  C72  1  0.840800  0.652800  0.712400  1.0  -0.0477
  C  C73  1  0.890000  0.734700  0.653500  1.0  -0.0413
  C  C74  1  0.843800  0.462700  0.747700  1.0  0.7197
  C  C75  1  0.321400  0.963400  0.199000  1.0  0.6907
  C  C76  1  0.416400  0.981500  0.096100  1.0  -0.1241
  C  C77  1  0.395300  0.085600  0.053600  1.0  -0.0561
  C  C78  1  0.520100  0.897000  0.041600  1.0  -0.0453
  O  O79  1  0.577580  0.393940  0.028300  1.0  -0.6446
  O  O80  1  0.466700  0.541800  0.749800  1.0  -0.58
  O  O81  1  0.575980  0.369440  0.731800  1.0  -0.6609
  O  O82  1  0.666200  0.284000  0.912200  1.0  -0.6458
  O  O83  1  0.017650  0.872200  0.214900  1.0  -0.6113
  O  O84  1  0.941320  0.989360  0.328000  1.0  -0.6375
  O  O85  1  0.999820  0.106060  0.471700  1.0  -0.6447
  O  O86  1  0.758300  0.958200  0.750200  1.0  -0.5798
  O  O87  1  0.677220  0.130560  0.768200  1.0  -0.6621
  O  O88  1  0.862400  0.216000  0.587800  1.0  -0.6467
  O  O89  1  0.104750  0.627800  0.285100  1.0  -0.6109
  O  O90  1  0.258680  0.510640  0.172000  1.0  -0.6393
  O  O91  1  0.422420  0.606060  0.971700  1.0  -0.6455
  O  O92  1  0.533300  0.458200  0.250200  1.0  -0.5805
  O  O93  1  0.424020  0.630560  0.268200  1.0  -0.66
  O  O94  1  0.333800  0.716000  0.087800  1.0  -0.6454
  O  O95  1  0.982350  0.127800  0.785100  1.0  -0.6103
  O  O96  1  0.058680  0.010640  0.672000  1.0  -0.6367
  O  O97  1  0.000180  0.893940  0.528300  1.0  -0.6448
  O  O98  1  0.241700  0.041800  0.249800  1.0  -0.5801
  O  O99  1  0.322780  0.869440  0.231800  1.0  -0.662
  O  O100  1  0.137600  0.784000  0.412200  1.0  -0.6472
  O  O101  1  0.895250  0.372200  0.714900  1.0  -0.6097
  O  O102  1  0.741320  0.489360  0.828000  1.0  -0.6366
