# generated using pymatgen
data_MnH4(C2O)4
_symmetry_space_group_name_H-M   'P 1'
_cell_length_a   9.53400000
_cell_length_b   13.38840000
_cell_length_c   14.48170000
_cell_angle_alpha   79.94010000
_cell_angle_beta   70.78140000
_cell_angle_gamma   69.14190000
_symmetry_Int_Tables_number   1
_chemical_formula_structural   MnH4(C2O)4
_chemical_formula_sum   'Mn6 H24 C48 O24'
_cell_volume   1627.64331578
_cell_formula_units_Z   6
loop_
 _symmetry_equiv_pos_site_id
 _symmetry_equiv_pos_as_xyz
  1  'x, y, z'
loop_
 _atom_site_type_symbol
 _atom_site_label
 _atom_site_symmetry_multiplicity
 _atom_site_fract_x
 _atom_site_fract_y
 _atom_site_fract_z
 _atom_site_occupancy
 _atom_site_charge
  Mn  Mn1  1  0.372300  0.532440  0.115500  1.0  1.0963
  Mn  Mn2  1  0.020240  0.967560  0.384500  1.0  1.094
  Mn  Mn3  1  0.627700  0.467560  0.884500  1.0  1.1
  Mn  Mn4  1  0.979760  0.032440  0.615500  1.0  1.0967
  Mn  Mn5  1  0.288740  0.750000  0.250000  1.0  1.2484
  Mn  Mn6  1  0.711260  0.250000  0.750000  1.0  1.2406
  H  H7  1  0.614800  0.544200  0.417800  1.0  0.1004
  H  H8  1  0.723100  0.408300  0.520700  1.0  0.0869
  H  H9  1  0.822200  0.196100  0.326500  1.0  0.1008
  H  H10  1  0.701500  0.331000  0.228800  1.0  0.1065
  H  H11  1  0.965500  0.673000  0.430400  1.0  0.108
  H  H12  1  0.174700  0.357000  0.409400  1.0  0.1066
  H  H13  1  0.576800  0.955800  0.082200  1.0  0.1009
  H  H14  1  0.652100  0.091700  0.979300  1.0  0.0856
  H  H15  1  0.344800  0.303900  0.173500  1.0  0.1019
  H  H16  1  0.261300  0.169000  0.271200  1.0  0.1066
  H  H17  1  0.068900  0.827000  0.069600  1.0  0.1083
  H  H18  1  0.941100  0.143000  0.090600  1.0  0.1056
  H  H19  1  0.385200  0.455800  0.582200  1.0  0.101
  H  H20  1  0.276900  0.591700  0.479300  1.0  0.0872
  H  H21  1  0.177800  0.803900  0.673500  1.0  0.1009
  H  H22  1  0.298500  0.669000  0.771200  1.0  0.1062
  H  H23  1  0.034500  0.327000  0.569600  1.0  0.108
  H  H24  1  0.825300  0.643000  0.590600  1.0  0.1067
  H  H25  1  0.423200  0.044200  0.917800  1.0  0.1007
  H  H26  1  0.347900  0.908300  0.020700  1.0  0.0857
  H  H27  1  0.655200  0.696100  0.826500  1.0  0.1019
  H  H28  1  0.738700  0.831000  0.728800  1.0  0.1066
  H  H29  1  0.931100  0.173000  0.930400  1.0  0.1087
  H  H30  1  0.058900  0.857000  0.909400  1.0  0.106
  C  C31  1  0.555060  0.537080  0.252200  1.0  0.7203
  C  C32  1  0.642760  0.451080  0.314000  1.0  -0.1334
  C  C33  1  0.653170  0.473660  0.400400  1.0  -0.0524
  C  C34  1  0.720100  0.392500  0.461500  1.0  -0.0337
  C  C35  1  0.782420  0.287910  0.434850  1.0  -0.1577
  C  C36  1  0.777410  0.265880  0.346300  1.0  -0.0415
  C  C37  1  0.706570  0.346860  0.287400  1.0  -0.0556
  C  C38  1  0.849090  0.198970  0.502450  1.0  0.7312
  C  C39  1  0.178190  0.537340  0.300880  1.0  0.6899
  C  C40  1  0.083720  0.517980  0.403980  1.0  -0.1215
  C  C41  1  0.979500  0.603320  0.458280  1.0  -0.0472
  C  C42  1  0.104230  0.414740  0.445800  1.0  -0.0464
  C  C43  1  0.344340  0.962920  0.247800  1.0  0.7178
  C  C44  1  0.407840  0.048920  0.186000  1.0  -0.1297
  C  C45  1  0.527230  0.026340  0.099600  1.0  -0.0501
  C  C46  1  0.574100  0.107500  0.038500  1.0  -0.0349
  C  C47  1  0.505180  0.212090  0.065150  1.0  -0.1556
  C  C48  1  0.389590  0.234120  0.153700  1.0  -0.0422
  C  C49  1  0.340830  0.153140  0.212600  1.0  -0.0536
  C  C50  1  0.550510  0.301030  0.997550  1.0  0.7306
  C  C51  1  0.016410  0.962660  0.199120  1.0  0.6892
  C  C52  1  0.005680  0.982020  0.096020  1.0  -0.1239
  C  C53  1  0.041100  0.896680  0.041720  1.0  -0.046
  C  C54  1  0.964770  0.085260  0.054200  1.0  -0.0461
  C  C55  1  0.444940  0.462920  0.747800  1.0  0.7169
  C  C56  1  0.357240  0.548920  0.686000  1.0  -0.1308
  C  C57  1  0.346830  0.526340  0.599600  1.0  -0.0515
  C  C58  1  0.279900  0.607500  0.538500  1.0  -0.0416
  C  C59  1  0.217580  0.712090  0.565150  1.0  -0.1556
  C  C60  1  0.222590  0.734120  0.653700  1.0  -0.0418
  C  C61  1  0.293430  0.653140  0.712600  1.0  -0.0551
  C  C62  1  0.150910  0.801030  0.497550  1.0  0.7309
  C  C63  1  0.821810  0.462660  0.699120  1.0  0.6896
  C  C64  1  0.916280  0.482020  0.596020  1.0  -0.1217
  C  C65  1  0.020500  0.396680  0.541720  1.0  -0.0467
  C  C66  1  0.895770  0.585260  0.554200  1.0  -0.0472
  C  C67  1  0.655660  0.037080  0.752200  1.0  0.7168
  C  C68  1  0.592160  0.951080  0.814000  1.0  -0.1305
  C  C69  1  0.472770  0.973660  0.900400  1.0  -0.0518
  C  C70  1  0.425900  0.892500  0.961500  1.0  -0.0406
  C  C71  1  0.494820  0.787910  0.934850  1.0  -0.1566
  C  C72  1  0.610410  0.765880  0.846300  1.0  -0.0414
  C  C73  1  0.659170  0.846860  0.787400  1.0  -0.0536
  C  C74  1  0.449490  0.698970  0.002450  1.0  0.7317
  C  C75  1  0.983590  0.037340  0.800880  1.0  0.6876
  C  C76  1  0.994320  0.017980  0.903980  1.0  -0.1255
  C  C77  1  0.958900  0.103320  0.958280  1.0  -0.0454
  C  C78  1  0.035230  0.914740  0.945800  1.0  -0.0468
  O  O79  1  0.482760  0.627930  0.285150  1.0  -0.6137
  O  O80  1  0.558820  0.510460  0.172500  1.0  -0.6308
  O  O81  1  0.833240  0.216120  0.588200  1.0  -0.6377
  O  O82  1  0.922200  0.106150  0.472050  1.0  -0.6487
  O  O83  1  0.176920  0.630210  0.268350  1.0  -0.6604
  O  O84  1  0.257070  0.458440  0.250420  1.0  -0.5857
  O  O85  1  0.395840  0.872070  0.214850  1.0  -0.6139
  O  O86  1  0.241780  0.989540  0.327500  1.0  -0.6306
  O  O87  1  0.637560  0.283880  0.911800  1.0  -0.6393
  O  O88  1  0.500400  0.393850  0.027950  1.0  -0.6497
  O  O89  1  0.075480  0.869790  0.231650  1.0  -0.6597
  O  O90  1  0.965930  0.041560  0.249580  1.0  -0.5852
  O  O91  1  0.517240  0.372070  0.714850  1.0  -0.615
  O  O92  1  0.441180  0.489540  0.827500  1.0  -0.6314
  O  O93  1  0.166760  0.783880  0.411800  1.0  -0.638
  O  O94  1  0.077800  0.893850  0.527950  1.0  -0.6463
  O  O95  1  0.823080  0.369790  0.731650  1.0  -0.6608
  O  O96  1  0.742930  0.541560  0.749580  1.0  -0.5854
  O  O97  1  0.604160  0.127930  0.785150  1.0  -0.6147
  O  O98  1  0.758220  0.010460  0.672500  1.0  -0.6327
  O  O99  1  0.362440  0.716120  0.088200  1.0  -0.6389
  O  O100  1  0.499600  0.606150  0.972050  1.0  -0.6472
  O  O101  1  0.924520  0.130210  0.768350  1.0  -0.6594
  O  O102  1  0.034070  0.958440  0.750420  1.0  -0.5853
