# generated using pymatgen
data_CuH15C18(NO2)2
_symmetry_space_group_name_H-M   'P 1'
_cell_length_a   12.61000000
_cell_length_b   18.00300000
_cell_length_c   19.35600000
_cell_angle_alpha   104.37000000
_cell_angle_beta   90.00000000
_cell_angle_gamma   90.00000000
_symmetry_Int_Tables_number   1
_chemical_formula_structural   CuH15C18(NO2)2
_chemical_formula_sum   'Cu8 H120 C144 N16 O32'
_cell_volume   4256.67818745
_cell_formula_units_Z   8
loop_
 _symmetry_equiv_pos_site_id
 _symmetry_equiv_pos_as_xyz
  1  'x, y, z'
loop_
 _atom_site_type_symbol
 _atom_site_label
 _atom_site_symmetry_multiplicity
 _atom_site_fract_x
 _atom_site_fract_y
 _atom_site_fract_z
 _atom_site_occupancy
 _atom_site_charge
  Cu  Cu1  1  0.742800  0.748490  0.010470  1.0  0.8218
  Cu  Cu2  1  0.257900  0.757200  0.035270  1.0  0.7945
  Cu  Cu3  1  0.242800  0.751510  0.489530  1.0  0.8214
  Cu  Cu4  1  0.757900  0.742800  0.464730  1.0  0.7957
  Cu  Cu5  1  0.257200  0.251510  0.989530  1.0  0.8213
  Cu  Cu6  1  0.742100  0.242800  0.964730  1.0  0.7959
  Cu  Cu7  1  0.757200  0.248490  0.510470  1.0  0.8216
  Cu  Cu8  1  0.242100  0.257200  0.535270  1.0  0.7949
  H  H9  1  0.038500  0.214200  0.587200  1.0  0.0812
  H  H10  1  0.901400  0.130900  0.552500  1.0  0.1287
  H  H11  1  0.066300  0.038200  0.373900  1.0  0.1377
  H  H12  1  0.199100  0.122300  0.418400  1.0  0.0898
  H  H13  1  0.808700  0.050300  0.437500  1.0  0.1016
  H  H14  1  0.868000  0.985200  0.462400  1.0  0.0962
  H  H15  1  0.940700  0.940500  0.348900  1.0  0.0742
  H  H16  1  0.884400  0.007000  0.323600  1.0  0.0597
  H  H17  1  0.717900  0.956400  0.349500  1.0  0.0952
  H  H18  1  0.778800  0.886600  0.365200  1.0  0.1077
  H  H19  1  0.621300  0.907800  0.242700  1.0  0.1384
  H  H20  1  0.611100  0.842200  0.126700  1.0  0.0734
  H  H21  1  0.923800  0.841800  0.243300  1.0  0.1399
  H  H22  1  0.904700  0.780700  0.125300  1.0  0.0803
  H  H23  1  0.678000  0.017800  0.984600  1.0  0.0933
  H  H24  1  0.451200  0.280400  0.469300  1.0  0.0819
  H  H25  1  0.586600  0.365700  0.486800  1.0  0.1197
  H  H26  1  0.415000  0.499500  0.642700  1.0  0.1241
  H  H27  1  0.285600  0.411800  0.619200  1.0  0.0954
  H  H28  1  0.677200  0.473900  0.568000  1.0  0.101
  H  H29  1  0.600400  0.539300  0.559700  1.0  0.0938
  H  H30  1  0.635000  0.498200  0.685800  1.0  0.0473
  H  H31  1  0.560400  0.564500  0.677200  1.0  0.0672
  H  H32  1  0.781100  0.567300  0.664300  1.0  0.1004
  H  H33  1  0.706400  0.633700  0.655400  1.0  0.1092
  H  H34  1  0.574000  0.670200  0.773400  1.0  0.1251
  H  H35  1  0.585600  0.727800  0.892600  1.0  0.0996
  H  H36  1  0.875200  0.600300  0.775100  1.0  0.1329
  H  H37  1  0.876400  0.652800  0.895800  1.0  0.0876
  H  H38  1  0.822700  0.477600  0.011300  1.0  0.0897
  H  H39  1  0.538500  0.285800  0.912800  1.0  0.0814
  H  H40  1  0.401400  0.369100  0.947500  1.0  0.1291
  H  H41  1  0.566300  0.461800  0.126100  1.0  0.1362
  H  H42  1  0.699100  0.377700  0.081600  1.0  0.0893
  H  H43  1  0.308700  0.449700  0.062500  1.0  0.101
  H  H44  1  0.368000  0.514800  0.037600  1.0  0.0963
  H  H45  1  0.440700  0.559500  0.151100  1.0  0.075
  H  H46  1  0.384400  0.493000  0.176400  1.0  0.06
  H  H47  1  0.217900  0.543600  0.150500  1.0  0.0952
  H  H48  1  0.278800  0.613400  0.134800  1.0  0.1068
  H  H49  1  0.121300  0.592200  0.257300  1.0  0.1387
  H  H50  1  0.111100  0.657800  0.373300  1.0  0.0733
  H  H51  1  0.423800  0.658200  0.256700  1.0  0.1394
  H  H52  1  0.404700  0.719300  0.374700  1.0  0.0801
  H  H53  1  0.178000  0.482200  0.515400  1.0  0.0939
  H  H54  1  0.951200  0.219600  0.030700  1.0  0.0819
  H  H55  1  0.086600  0.134300  0.013200  1.0  0.1196
  H  H56  1  0.915000  0.000500  0.857300  1.0  0.1236
  H  H57  1  0.785600  0.088200  0.880800  1.0  0.0947
  H  H58  1  0.177200  0.026100  0.932000  1.0  0.1009
  H  H59  1  0.100400  0.960700  0.940300  1.0  0.0937
  H  H60  1  0.135000  0.001800  0.814200  1.0  0.0499
  H  H61  1  0.060400  0.935500  0.822800  1.0  0.0644
  H  H62  1  0.281100  0.932700  0.835700  1.0  0.1005
  H  H63  1  0.206400  0.866300  0.844600  1.0  0.1101
  H  H64  1  0.074000  0.829800  0.726600  1.0  0.126
  H  H65  1  0.085600  0.772200  0.607400  1.0  0.0995
  H  H66  1  0.375200  0.899700  0.724900  1.0  0.1335
  H  H67  1  0.376400  0.847200  0.604200  1.0  0.0875
  H  H68  1  0.322700  0.022400  0.488700  1.0  0.0897
  H  H69  1  0.961500  0.785800  0.412800  1.0  0.0816
  H  H70  1  0.098600  0.869100  0.447500  1.0  0.129
  H  H71  1  0.933700  0.961800  0.626100  1.0  0.1352
  H  H72  1  0.800900  0.877700  0.581600  1.0  0.0893
  H  H73  1  0.191300  0.949700  0.562500  1.0  0.1004
  H  H74  1  0.132000  0.014800  0.537600  1.0  0.0962
  H  H75  1  0.059300  0.059500  0.651100  1.0  0.0761
  H  H76  1  0.115600  0.993000  0.676400  1.0  0.0596
  H  H77  1  0.282100  0.043600  0.650500  1.0  0.0953
  H  H78  1  0.221200  0.113400  0.634800  1.0  0.1067
  H  H79  1  0.378700  0.092200  0.757300  1.0  0.1387
  H  H80  1  0.388900  0.157800  0.873300  1.0  0.0741
  H  H81  1  0.076200  0.158200  0.756700  1.0  0.1384
  H  H82  1  0.095300  0.219300  0.874700  1.0  0.08
  H  H83  1  0.322000  0.982200  0.015400  1.0  0.0933
  H  H84  1  0.548800  0.719600  0.530700  1.0  0.0822
  H  H85  1  0.413400  0.634300  0.513200  1.0  0.1194
  H  H86  1  0.585000  0.500500  0.357300  1.0  0.1242
  H  H87  1  0.714400  0.588200  0.380800  1.0  0.0956
  H  H88  1  0.322800  0.526100  0.432000  1.0  0.1025
  H  H89  1  0.399600  0.460700  0.440300  1.0  0.0935
  H  H90  1  0.365000  0.501800  0.314200  1.0  0.0503
  H  H91  1  0.439600  0.435500  0.322800  1.0  0.0664
  H  H92  1  0.218900  0.432700  0.335700  1.0  0.101
  H  H93  1  0.293600  0.366300  0.344600  1.0  0.1104
  H  H94  1  0.426000  0.329800  0.226600  1.0  0.125
  H  H95  1  0.414400  0.272200  0.107400  1.0  0.0997
  H  H96  1  0.124800  0.399700  0.224900  1.0  0.1338
  H  H97  1  0.123600  0.347200  0.104200  1.0  0.0867
  H  H98  1  0.177300  0.522400  0.988700  1.0  0.089
  H  H99  1  0.461500  0.714200  0.087200  1.0  0.0815
  H  H100  1  0.598600  0.630900  0.052500  1.0  0.1289
  H  H101  1  0.433700  0.538200  0.873900  1.0  0.1364
  H  H102  1  0.300900  0.622300  0.918400  1.0  0.089
  H  H103  1  0.691300  0.550300  0.937500  1.0  0.1004
  H  H104  1  0.632000  0.485200  0.962400  1.0  0.0962
  H  H105  1  0.559300  0.440500  0.848900  1.0  0.0749
  H  H106  1  0.615600  0.507000  0.823600  1.0  0.0595
  H  H107  1  0.782100  0.456400  0.849500  1.0  0.0954
  H  H108  1  0.721200  0.386600  0.865200  1.0  0.1074
  H  H109  1  0.878700  0.407800  0.742700  1.0  0.1385
  H  H110  1  0.888900  0.342200  0.626700  1.0  0.0741
  H  H111  1  0.576200  0.341800  0.743300  1.0  0.1393
  H  H112  1  0.595300  0.280700  0.625300  1.0  0.0803
  H  H113  1  0.822000  0.517800  0.484600  1.0  0.0939
  H  H114  1  0.048800  0.780400  0.969300  1.0  0.0822
  H  H115  1  0.913400  0.865700  0.986800  1.0  0.1199
  H  H116  1  0.085000  0.999500  0.142700  1.0  0.1242
  H  H117  1  0.214400  0.911800  0.119200  1.0  0.0953
  H  H118  1  0.822800  0.973900  0.068000  1.0  0.1017
  H  H119  1  0.899600  0.039300  0.059700  1.0  0.0933
  H  H120  1  0.865000  0.998200  0.185800  1.0  0.0479
  H  H121  1  0.939600  0.064500  0.177200  1.0  0.069
  H  H122  1  0.718900  0.067300  0.164300  1.0  0.1011
  H  H123  1  0.793600  0.133700  0.155400  1.0  0.1091
  H  H124  1  0.926000  0.170200  0.273400  1.0  0.1251
  H  H125  1  0.914400  0.227800  0.392600  1.0  0.0997
  H  H126  1  0.624800  0.100300  0.275100  1.0  0.1342
  H  H127  1  0.623600  0.152800  0.395800  1.0  0.0863
  H  H128  1  0.677300  0.977600  0.511300  1.0  0.0897
  C  C129  1  0.044000  0.177700  0.543900  1.0  0.1835
  C  C130  1  0.960400  0.128300  0.523200  1.0  -0.223
  C  C131  1  0.964800  0.073800  0.457200  1.0  0.1647
  C  C132  1  0.058100  0.073100  0.417900  1.0  -0.2302
  C  C133  1  0.137200  0.124400  0.444900  1.0  0.188
  C  C134  1  0.873400  0.020200  0.431600  1.0  -0.2075
  C  C135  1  0.878400  0.973100  0.355300  1.0  -0.0948
  C  C136  1  0.779700  0.923900  0.336600  1.0  -0.1991
  C  C137  1  0.770800  0.881100  0.257700  1.0  0.1627
  C  C138  1  0.680300  0.881200  0.220600  1.0  -0.2341
  C  C139  1  0.675400  0.842100  0.150200  1.0  0.1981
  C  C140  1  0.859000  0.842500  0.220500  1.0  -0.2274
  C  C141  1  0.846500  0.806000  0.149900  1.0  0.1819
  C  C142  1  0.648700  0.872500  0.977000  1.0  0.6509
  C  C143  1  0.569300  0.937300  0.986600  1.0  -0.109
  C  C144  1  0.605900  0.010800  0.990900  1.0  -0.0726
  C  C145  1  0.458900  0.926800  0.996000  1.0  -0.0579
  C  C146  1  0.408300  0.850600  0.986500  1.0  0.6905
  C  C147  1  0.444500  0.325200  0.505400  1.0  0.1868
  C  C148  1  0.526800  0.376300  0.515700  1.0  -0.2324
  C  C149  1  0.521600  0.443300  0.568600  1.0  0.1642
  C  C150  1  0.425100  0.454700  0.607100  1.0  -0.229
  C  C151  1  0.348200  0.401900  0.593100  1.0  0.1717
  C  C152  1  0.611800  0.500300  0.585600  1.0  -0.1819
  C  C153  1  0.625700  0.537700  0.660200  1.0  -0.0647
  C  C154  1  0.715200  0.593700  0.680500  1.0  -0.1848
  C  C155  1  0.724300  0.629700  0.757300  1.0  0.1702
  C  C156  1  0.637700  0.667700  0.796900  1.0  -0.2186
  C  C157  1  0.643800  0.701300  0.869000  1.0  0.1636
  C  C158  1  0.815100  0.625200  0.797300  1.0  -0.2304
  C  C159  1  0.815600  0.657800  0.870200  1.0  0.1833
  C  C160  1  0.850000  0.624400  0.047900  1.0  0.6714
  C  C161  1  0.930400  0.561300  0.026000  1.0  -0.0793
  C  C162  1  0.894500  0.486900  0.006500  1.0  -0.0713
  C  C163  1  0.038200  0.575400  0.020300  1.0  -0.0768
  C  C164  1  0.086700  0.653500  0.050500  1.0  0.6707
  C  C165  1  0.544000  0.322300  0.956100  1.0  0.184
  C  C166  1  0.460400  0.371700  0.976800  1.0  -0.2209
  C  C167  1  0.464800  0.426200  0.042800  1.0  0.165
  C  C168  1  0.558100  0.426900  0.082100  1.0  -0.2311
  C  C169  1  0.637200  0.375600  0.055100  1.0  0.1873
  C  C170  1  0.373400  0.479800  0.068400  1.0  -0.2066
  C  C171  1  0.378400  0.526900  0.144700  1.0  -0.0949
  C  C172  1  0.279700  0.576100  0.163400  1.0  -0.1973
  C  C173  1  0.270800  0.618900  0.242300  1.0  0.1629
  C  C174  1  0.180300  0.618800  0.279400  1.0  -0.2341
  C  C175  1  0.175400  0.657900  0.349800  1.0  0.1978
  C  C176  1  0.359000  0.657500  0.279500  1.0  -0.226
  C  C177  1  0.346500  0.694000  0.350100  1.0  0.1819
  C  C178  1  0.148700  0.627500  0.523000  1.0  0.653
  C  C179  1  0.069300  0.562700  0.513400  1.0  -0.1072
  C  C180  1  0.105900  0.489200  0.509100  1.0  -0.0731
  C  C181  1  0.958900  0.573200  0.504000  1.0  -0.0576
  C  C182  1  0.908300  0.649400  0.513500  1.0  0.6908
  C  C183  1  0.944500  0.174800  0.994600  1.0  0.1881
  C  C184  1  0.026800  0.123700  0.984300  1.0  -0.233
  C  C185  1  0.021600  0.056700  0.931400  1.0  0.1641
  C  C186  1  0.925100  0.045300  0.892900  1.0  -0.2293
  C  C187  1  0.848200  0.098100  0.906900  1.0  0.1714
  C  C188  1  0.111800  0.999700  0.914400  1.0  -0.1827
  C  C189  1  0.125700  0.962300  0.839800  1.0  -0.0637
  C  C190  1  0.215200  0.906300  0.819500  1.0  -0.1864
  C  C191  1  0.224300  0.870300  0.742700  1.0  0.1672
  C  C192  1  0.137700  0.832300  0.703100  1.0  -0.2237
  C  C193  1  0.143800  0.798700  0.631000  1.0  0.1635
  C  C194  1  0.315100  0.874800  0.702700  1.0  -0.2311
  C  C195  1  0.315600  0.842200  0.629800  1.0  0.1817
  C  C196  1  0.350000  0.875600  0.452100  1.0  0.6715
  C  C197  1  0.430400  0.938700  0.474000  1.0  -0.0808
  C  C198  1  0.394500  0.013100  0.493500  1.0  -0.0716
  C  C199  1  0.538200  0.924600  0.479700  1.0  -0.0775
  C  C200  1  0.586700  0.846500  0.449500  1.0  0.6707
  C  C201  1  0.956000  0.822300  0.456100  1.0  0.1841
  C  C202  1  0.039600  0.871700  0.476800  1.0  -0.2194
  C  C203  1  0.035200  0.926200  0.542800  1.0  0.1654
  C  C204  1  0.941900  0.926900  0.582100  1.0  -0.2316
  C  C205  1  0.862800  0.875600  0.555100  1.0  0.1877
  C  C206  1  0.126600  0.979800  0.568400  1.0  -0.2048
  C  C207  1  0.121600  0.026900  0.644700  1.0  -0.0953
  C  C208  1  0.220300  0.076100  0.663400  1.0  -0.1987
  C  C209  1  0.229200  0.118900  0.742300  1.0  0.1638
  C  C210  1  0.319700  0.118800  0.779400  1.0  -0.2333
  C  C211  1  0.324600  0.157900  0.849800  1.0  0.1978
  C  C212  1  0.141000  0.157500  0.779500  1.0  -0.2262
  C  C213  1  0.153500  0.194000  0.850100  1.0  0.1816
  C  C214  1  0.351300  0.127500  0.023000  1.0  0.652
  C  C215  1  0.430700  0.062700  0.013400  1.0  -0.1056
  C  C216  1  0.394100  0.989200  0.009100  1.0  -0.0746
  C  C217  1  0.541100  0.073200  0.004000  1.0  -0.0572
  C  C218  1  0.591700  0.149400  0.013500  1.0  0.691
  C  C219  1  0.555500  0.674800  0.494600  1.0  0.1877
  C  C220  1  0.473200  0.623700  0.484300  1.0  -0.2331
  C  C221  1  0.478400  0.556700  0.431400  1.0  0.1643
  C  C222  1  0.574900  0.545300  0.392900  1.0  -0.2294
  C  C223  1  0.651800  0.598100  0.406900  1.0  0.173
  C  C224  1  0.388200  0.499700  0.414400  1.0  -0.1834
  C  C225  1  0.374300  0.462300  0.339800  1.0  -0.0645
  C  C226  1  0.284800  0.406300  0.319500  1.0  -0.1857
  C  C227  1  0.275700  0.370300  0.242700  1.0  0.1705
  C  C228  1  0.362300  0.332300  0.203100  1.0  -0.2263
  C  C229  1  0.356200  0.298700  0.131000  1.0  0.163
  C  C230  1  0.184900  0.374800  0.202700  1.0  -0.2282
  C  C231  1  0.184400  0.342200  0.129800  1.0  0.181
  C  C232  1  0.150000  0.375600  0.952100  1.0  0.6725
  C  C233  1  0.069600  0.438700  0.974000  1.0  -0.0811
  C  C234  1  0.105500  0.513100  0.993500  1.0  -0.072
  C  C235  1  0.961800  0.424600  0.979700  1.0  -0.0778
  C  C236  1  0.913300  0.346500  0.949500  1.0  0.671
  C  C237  1  0.456000  0.677700  0.043900  1.0  0.1835
  C  C238  1  0.539600  0.628300  0.023200  1.0  -0.2204
  C  C239  1  0.535200  0.573800  0.957200  1.0  0.165
  C  C240  1  0.441900  0.573100  0.917900  1.0  -0.2298
  C  C241  1  0.362800  0.624400  0.944900  1.0  0.1876
  C  C242  1  0.626600  0.520200  0.931600  1.0  -0.2045
  C  C243  1  0.621600  0.473100  0.855300  1.0  -0.095
  C  C244  1  0.720300  0.423900  0.836600  1.0  -0.1991
  C  C245  1  0.729200  0.381100  0.757700  1.0  0.1635
  C  C246  1  0.819700  0.381200  0.720600  1.0  -0.2331
  C  C247  1  0.824600  0.342100  0.650200  1.0  0.1975
  C  C248  1  0.641000  0.342500  0.720500  1.0  -0.2266
  C  C249  1  0.653500  0.306000  0.649900  1.0  0.1821
  C  C250  1  0.851300  0.372500  0.477000  1.0  0.6507
  C  C251  1  0.930700  0.437300  0.486600  1.0  -0.1077
  C  C252  1  0.894100  0.510800  0.490900  1.0  -0.074
  C  C253  1  0.041100  0.426800  0.496000  1.0  -0.0576
  C  C254  1  0.091700  0.350600  0.486500  1.0  0.6905
  C  C255  1  0.055500  0.825200  0.005400  1.0  0.1863
  C  C256  1  0.973200  0.876300  0.015700  1.0  -0.2322
  C  C257  1  0.978400  0.943300  0.068600  1.0  0.1645
  C  C258  1  0.074900  0.954700  0.107100  1.0  -0.2283
  C  C259  1  0.151800  0.901900  0.093100  1.0  0.1716
  C  C260  1  0.888200  0.000300  0.085600  1.0  -0.182
  C  C261  1  0.874300  0.037700  0.160200  1.0  -0.0652
  C  C262  1  0.784800  0.093700  0.180500  1.0  -0.1836
  C  C263  1  0.775700  0.129700  0.257300  1.0  0.1715
  C  C264  1  0.862300  0.167700  0.296900  1.0  -0.2216
  C  C265  1  0.856200  0.201300  0.369000  1.0  0.1647
  C  C266  1  0.684900  0.125200  0.297300  1.0  -0.2277
  C  C267  1  0.684400  0.157800  0.370200  1.0  0.1805
  C  C268  1  0.650000  0.124400  0.547900  1.0  0.6726
  C  C269  1  0.569600  0.061300  0.526000  1.0  -0.0797
  C  C270  1  0.605500  0.986900  0.506500  1.0  -0.0719
  C  C271  1  0.461800  0.075400  0.520300  1.0  -0.0773
  C  C272  1  0.413300  0.153500  0.550500  1.0  0.6708
  N  N273  1  0.130900  0.176700  0.506600  1.0  -0.3327
  N  N274  1  0.753800  0.804800  0.113900  1.0  -0.3462
  N  N275  1  0.733300  0.696200  0.905700  1.0  -0.3543
  N  N276  1  0.356600  0.335100  0.542900  1.0  -0.3339
  N  N277  1  0.630900  0.323300  0.993400  1.0  -0.3314
  N  N278  1  0.253800  0.695200  0.386100  1.0  -0.3458
  N  N279  1  0.233300  0.803800  0.594300  1.0  -0.356
  N  N280  1  0.856600  0.164900  0.957100  1.0  -0.3335
  N  N281  1  0.869100  0.823300  0.493400  1.0  -0.3301
  N  N282  1  0.246200  0.195200  0.886100  1.0  -0.3464
  N  N283  1  0.266700  0.303800  0.094300  1.0  -0.3561
  N  N284  1  0.643400  0.664900  0.457100  1.0  -0.3346
  N  N285  1  0.369100  0.676700  0.006600  1.0  -0.3305
  N  N286  1  0.746200  0.304800  0.613900  1.0  -0.3463
  N  N287  1  0.766700  0.196200  0.405700  1.0  -0.3543
  N  N288  1  0.143400  0.835100  0.042900  1.0  -0.3341
  O  O289  1  0.624800  0.816200  0.002900  1.0  -0.5849
  O  O290  1  0.735400  0.878500  0.948000  1.0  -0.6087
  O  O291  1  0.404800  0.807200  0.926300  1.0  -0.6052
  O  O292  1  0.364300  0.838900  0.041700  1.0  -0.5978
  O  O293  1  0.857300  0.678100  0.017000  1.0  -0.5942
  O  O294  1  0.777000  0.618500  0.089500  1.0  -0.6082
  O  O295  1  0.152600  0.673000  0.009800  1.0  -0.6041
  O  O296  1  0.061900  0.691000  0.110500  1.0  -0.5979
  O  O297  1  0.124800  0.683800  0.497100  1.0  -0.5864
  O  O298  1  0.235400  0.621500  0.552000  1.0  -0.6063
  O  O299  1  0.904800  0.692800  0.573700  1.0  -0.6061
  O  O300  1  0.864300  0.661100  0.458300  1.0  -0.5966
  O  O301  1  0.357300  0.821900  0.483000  1.0  -0.5934
  O  O302  1  0.277000  0.881500  0.410500  1.0  -0.6103
  O  O303  1  0.652600  0.827000  0.490200  1.0  -0.6044
  O  O304  1  0.561900  0.809000  0.389500  1.0  -0.5986
  O  O305  1  0.375200  0.183800  0.997100  1.0  -0.5865
  O  O306  1  0.264600  0.121500  0.052000  1.0  -0.6061
  O  O307  1  0.595200  0.192800  0.073700  1.0  -0.6062
  O  O308  1  0.635700  0.161100  0.958300  1.0  -0.5963
  O  O309  1  0.142700  0.321900  0.983000  1.0  -0.5929
  O  O310  1  0.223000  0.381500  0.910500  1.0  -0.6099
  O  O311  1  0.847400  0.327000  0.990200  1.0  -0.6039
  O  O312  1  0.938100  0.309000  0.889500  1.0  -0.5993
  O  O313  1  0.875200  0.316200  0.502900  1.0  -0.5853
  O  O314  1  0.764600  0.378500  0.448000  1.0  -0.6088
  O  O315  1  0.095200  0.307200  0.426300  1.0  -0.6056
  O  O316  1  0.135700  0.338900  0.541700  1.0  -0.5973
  O  O317  1  0.642700  0.178100  0.517000  1.0  -0.5941
  O  O318  1  0.723000  0.118500  0.589500  1.0  -0.609
  O  O319  1  0.347400  0.173000  0.509800  1.0  -0.6038
  O  O320  1  0.438100  0.191000  0.610500  1.0  -0.5983
