# generated using pymatgen
data_Mn2H44C49(N3O4)2
_symmetry_space_group_name_H-M   'P 1'
_cell_length_a   11.34750000
_cell_length_b   11.78600000
_cell_length_c   21.20300000
_cell_angle_alpha   96.25900000
_cell_angle_beta   90.97800000
_cell_angle_gamma   108.25800000
_symmetry_Int_Tables_number   1
_chemical_formula_structural   Mn2H44C49(N3O4)2
_chemical_formula_sum   'Mn4 H88 C98 N12 O16'
_cell_volume   2672.96423975
_cell_formula_units_Z   2
loop_
 _symmetry_equiv_pos_site_id
 _symmetry_equiv_pos_as_xyz
  1  'x, y, z'
loop_
 _atom_site_type_symbol
 _atom_site_label
 _atom_site_symmetry_multiplicity
 _atom_site_fract_x
 _atom_site_fract_y
 _atom_site_fract_z
 _atom_site_occupancy
 _atom_site_charge
  Mn  Mn1  1  0.137150  0.477700  0.240590  1.0  0.949
  Mn  Mn2  1  0.862850  0.522300  0.759410  1.0  0.947
  Mn  Mn3  1  0.000000  0.000000  0.500000  1.0  1.0994
  Mn  Mn4  1  0.500000  0.500000  0.000000  1.0  1.0828
  H  H5  1  0.029300  0.660900  0.320800  1.0  0.0747
  H  H6  1  0.601500  0.601000  0.870600  1.0  0.081
  H  H7  1  0.545700  0.607400  0.766900  1.0  0.1182
  H  H8  1  0.341400  0.646300  0.158100  1.0  0.0745
  H  H9  1  0.263200  0.412100  0.902000  1.0  0.0757
  H  H10  1  0.198200  0.412700  0.799800  1.0  0.1072
  H  H11  1  0.544500  0.769100  0.162200  1.0  0.128
  H  H12  1  0.562400  0.742800  0.348600  1.0  0.1135
  H  H13  1  0.095400  0.122300  0.377100  1.0  0.0757
  H  H14  1  0.963700  0.826000  0.317600  1.0  0.122
  H  H15  1  0.361400  0.620200  0.339500  1.0  0.0813
  H  H16  1  0.760800  0.792100  0.280800  1.0  0.088
  H  H17  1  0.727100  0.910800  0.293900  1.0  0.1082
  H  H18  1  0.886300  0.384400  0.152200  1.0  0.0597
  H  H19  1  0.688500  0.251000  0.139500  1.0  0.1296
  H  H20  1  0.748500  0.136800  0.305100  1.0  0.1166
  H  H21  1  0.018000  0.809500  0.131100  1.0  0.1327
  H  H22  1  0.763200  0.819200  0.170100  1.0  0.0777
  H  H23  1  0.751900  0.947300  0.190400  1.0  0.0756
  H  H24  1  0.206900  0.882600  0.451000  1.0  0.0683
  H  H25  1  0.327300  0.865900  0.367000  1.0  0.1222
  H  H26  1  0.287000  0.425700  0.682500  1.0  0.1069
  H  H27  1  0.248200  0.539700  0.703500  1.0  0.1042
  H  H28  1  0.447500  0.662000  0.679500  1.0  0.069
  H  H29  1  0.478700  0.545200  0.654300  1.0  0.0701
  H  H30  1  0.086000  0.647500  0.139300  1.0  0.0771
  H  H31  1  0.211900  0.112200  0.290600  1.0  0.1277
  H  H32  1  0.319000  0.993900  0.223500  1.0  0.0945
  H  H33  1  0.369900  0.901400  0.253500  1.0  0.0858
  H  H34  1  0.945800  0.269500  0.311500  1.0  0.0728
  H  H35  1  0.570100  0.006800  0.197400  1.0  0.0942
  H  H36  1  0.518200  0.107900  0.179300  1.0  0.1007
  H  H37  1  0.341100  0.759500  0.527500  1.0  0.1237
  H  H38  1  0.592600  0.598400  0.563800  1.0  0.1156
  H  H39  1  0.900200  0.355300  0.563300  1.0  0.0978
  H  H40  1  0.944000  0.991700  0.256200  1.0  0.0932
  H  H41  1  0.962200  0.981300  0.182800  1.0  0.1147
  H  H42  1  0.327000  0.501100  0.572000  1.0  0.1121
  H  H43  1  0.285200  0.610900  0.598700  1.0  0.103
  H  H44  1  0.877200  0.326100  0.036700  1.0  0.1042
  H  H45  1  0.535700  0.054000  0.304100  1.0  0.0757
  H  H46  1  0.480300  0.152200  0.284800  1.0  0.076
  H  H47  1  0.727300  0.724000  0.503000  1.0  0.072
  H  H48  1  0.483700  0.879500  0.467200  1.0  0.066
  H  H49  1  0.970700  0.339100  0.679200  1.0  0.0757
  H  H50  1  0.398500  0.399000  0.129400  1.0  0.081
  H  H51  1  0.454300  0.392600  0.233100  1.0  0.1186
  H  H52  1  0.658600  0.353700  0.841900  1.0  0.074
  H  H53  1  0.736800  0.587900  0.098000  1.0  0.0755
  H  H54  1  0.801800  0.587300  0.200200  1.0  0.1064
  H  H55  1  0.455500  0.230900  0.837800  1.0  0.1278
  H  H56  1  0.437600  0.257200  0.651400  1.0  0.1143
  H  H57  1  0.904600  0.877700  0.622900  1.0  0.0752
  H  H58  1  0.036300  0.174000  0.682400  1.0  0.1223
  H  H59  1  0.638600  0.379800  0.660500  1.0  0.0822
  H  H60  1  0.239200  0.207900  0.719200  1.0  0.0892
  H  H61  1  0.272900  0.089200  0.706100  1.0  0.1083
  H  H62  1  0.113700  0.615600  0.847800  1.0  0.0595
  H  H63  1  0.311500  0.749000  0.860500  1.0  0.1259
  H  H64  1  0.251500  0.863200  0.694900  1.0  0.1151
  H  H65  1  0.982000  0.190500  0.868900  1.0  0.1312
  H  H66  1  0.236800  0.180800  0.829900  1.0  0.0778
  H  H67  1  0.248100  0.052700  0.809600  1.0  0.0754
  H  H68  1  0.793100  0.117400  0.549000  1.0  0.0683
  H  H69  1  0.672700  0.134100  0.633000  1.0  0.1224
  H  H70  1  0.713000  0.574300  0.317500  1.0  0.1064
  H  H71  1  0.751800  0.460300  0.296500  1.0  0.1052
  H  H72  1  0.552500  0.338000  0.320500  1.0  0.0708
  H  H73  1  0.521300  0.454800  0.345700  1.0  0.0722
  H  H74  1  0.914000  0.352500  0.860700  1.0  0.0768
  H  H75  1  0.788100  0.887800  0.709400  1.0  0.1269
  H  H76  1  0.681000  0.006100  0.776500  1.0  0.0938
  H  H77  1  0.630100  0.098600  0.746500  1.0  0.0859
  H  H78  1  0.054200  0.730500  0.688500  1.0  0.0731
  H  H79  1  0.429900  0.993200  0.802600  1.0  0.094
  H  H80  1  0.481800  0.892100  0.820700  1.0  0.1017
  H  H81  1  0.658900  0.240500  0.472500  1.0  0.1229
  H  H82  1  0.407400  0.401600  0.436200  1.0  0.1158
  H  H83  1  0.099800  0.644700  0.436700  1.0  0.0976
  H  H84  1  0.056000  0.008300  0.743800  1.0  0.0938
  H  H85  1  0.037800  0.018700  0.817200  1.0  0.1155
  H  H86  1  0.673000  0.498900  0.428000  1.0  0.1097
  H  H87  1  0.714800  0.389100  0.401300  1.0  0.1018
  H  H88  1  0.122800  0.673900  0.963300  1.0  0.1042
  H  H89  1  0.464300  0.946000  0.695900  1.0  0.0749
  H  H90  1  0.519700  0.847800  0.715200  1.0  0.0759
  H  H91  1  0.272700  0.276000  0.497000  1.0  0.0721
  H  H92  1  0.516300  0.120500  0.532800  1.0  0.0663
  C  C93  1  0.967900  0.243130  0.464860  1.0  0.683
  C  C94  1  0.115400  0.437100  0.385130  1.0  0.6671
  C  C95  1  0.992300  0.377870  0.482660  1.0  -0.0745
  C  C96  1  0.026900  0.690900  0.282180  1.0  0.1811
  C  C97  1  0.519200  0.562800  0.856230  1.0  0.1899
  C  C98  1  0.486300  0.566700  0.793280  1.0  -0.2369
  C  C99  1  0.053900  0.466690  0.444530  1.0  -0.1137
  C  C100  1  0.386900  0.665100  0.196860  1.0  0.1901
  C  C101  1  0.320800  0.451900  0.874650  1.0  0.1823
  C  C102  1  0.281000  0.451700  0.812880  1.0  -0.2156
  C  C103  1  0.509700  0.739400  0.198790  1.0  -0.2235
  C  C104  1  0.579500  0.768600  0.255930  1.0  0.1466
  C  C105  1  0.519800  0.723300  0.309070  1.0  -0.2102
  C  C106  1  0.141500  0.069300  0.374760  1.0  0.19
  C  C107  1  0.103600  0.377900  0.088510  1.0  0.6915
  C  C108  1  0.986400  0.790300  0.280520  1.0  -0.2326
  C  C109  1  0.979600  0.836700  0.223010  1.0  0.1517
  C  C110  1  0.364200  0.509600  0.769670  1.0  0.1531
  C  C111  1  0.398400  0.650000  0.303320  1.0  0.1686
  C  C112  1  0.717200  0.841100  0.262990  1.0  -0.2115
  C  C113  1  0.858800  0.332900  0.182990  1.0  0.1817
  C  C114  1  0.738700  0.252800  0.175000  1.0  -0.2238
  C  C115  1  0.693700  0.175000  0.220640  1.0  0.1461
  C  C116  1  0.774600  0.184900  0.272770  1.0  -0.2213
  C  C117  1  0.019000  0.780900  0.170240  1.0  -0.2162
  C  C118  1  0.782500  0.885300  0.204160  1.0  -0.0858
  C  C119  1  0.207200  0.928600  0.417980  1.0  0.1842
  C  C120  1  0.280600  0.918300  0.367590  1.0  -0.2118
  C  C121  1  0.284000  0.987400  0.317600  1.0  0.1442
  C  C122  1  0.318000  0.508700  0.701980  1.0  -0.2156
  C  C123  1  0.411900  0.580000  0.659210  1.0  -0.0897
  C  C124  1  0.059700  0.682700  0.175460  1.0  0.1839
  C  C125  1  0.212300  0.064100  0.322540  1.0  -0.2218
  C  C126  1  0.361300  0.981000  0.260870  1.0  -0.1973
  C  C127  1  0.893500  0.266100  0.276620  1.0  0.1858
  C  C128  1  0.563800  0.085400  0.212290  1.0  -0.1934
  C  C129  1  0.269100  0.584800  0.027790  1.0  0.6971
  C  C130  1  0.418800  0.749500  0.523260  1.0  -0.2388
  C  C131  1  0.567400  0.654900  0.544590  1.0  -0.233
  C  C132  1  0.940200  0.413300  0.537660  1.0  -0.0563
  C  C133  1  0.925100  0.936700  0.217230  1.0  -0.2076
  C  C134  1  0.356300  0.582400  0.593810  1.0  -0.1928
  C  C135  1  0.926600  0.396400  0.022130  1.0  -0.0539
  C  C136  1  0.489600  0.074500  0.270620  1.0  -0.085
  C  C137  1  0.648500  0.731200  0.507510  1.0  0.1969
  C  C138  1  0.505900  0.821800  0.486820  1.0  0.1773
  C  C139  1  0.448900  0.662800  0.553020  1.0  0.1545
  C  C140  1  0.128300  0.543100  0.016120  1.0  -0.1241
  C  C141  1  0.053700  0.438200  0.039260  1.0  -0.0831
  C  C142  1  0.032100  0.756870  0.535140  1.0  0.6819
  C  C143  1  0.884600  0.562900  0.614870  1.0  0.6663
  C  C144  1  0.007700  0.622130  0.517340  1.0  -0.0744
  C  C145  1  0.973100  0.309100  0.717820  1.0  0.1812
  C  C146  1  0.480800  0.437200  0.143770  1.0  0.1903
  C  C147  1  0.513700  0.433300  0.206720  1.0  -0.2399
  C  C148  1  0.946100  0.533310  0.555470  1.0  -0.1127
  C  C149  1  0.613100  0.334900  0.803140  1.0  0.1884
  C  C150  1  0.679200  0.548100  0.125350  1.0  0.1837
  C  C151  1  0.719000  0.548300  0.187120  1.0  -0.2167
  C  C152  1  0.490300  0.260600  0.801210  1.0  -0.2205
  C  C153  1  0.420500  0.231400  0.744070  1.0  0.1475
  C  C154  1  0.480200  0.276700  0.690930  1.0  -0.2101
  C  C155  1  0.858500  0.930700  0.625240  1.0  0.1893
  C  C156  1  0.896400  0.622100  0.911490  1.0  0.6939
  C  C157  1  0.013600  0.209700  0.719480  1.0  -0.2312
  C  C158  1  0.020400  0.163300  0.776990  1.0  0.151
  C  C159  1  0.635800  0.490400  0.230330  1.0  0.1532
  C  C160  1  0.601600  0.350000  0.696680  1.0  0.1688
  C  C161  1  0.282800  0.158900  0.737010  1.0  -0.21
  C  C162  1  0.141200  0.667100  0.817010  1.0  0.183
  C  C163  1  0.261300  0.747200  0.825000  1.0  -0.2243
  C  C164  1  0.306300  0.825000  0.779360  1.0  0.1464
  C  C165  1  0.225400  0.815100  0.727230  1.0  -0.2196
  C  C166  1  0.981000  0.219100  0.829760  1.0  -0.2162
  C  C167  1  0.217500  0.114700  0.795840  1.0  -0.0853
  C  C168  1  0.792800  0.071400  0.582020  1.0  0.1852
  C  C169  1  0.719400  0.081700  0.632410  1.0  -0.211
  C  C170  1  0.716000  0.012600  0.682400  1.0  0.1457
  C  C171  1  0.682000  0.491300  0.298020  1.0  -0.2138
  C  C172  1  0.588100  0.420000  0.340790  1.0  -0.0914
  C  C173  1  0.940300  0.317300  0.824540  1.0  0.1843
  C  C174  1  0.787700  0.935900  0.677460  1.0  -0.2181
  C  C175  1  0.638700  0.019000  0.739130  1.0  -0.1978
  C  C176  1  0.106500  0.733900  0.723380  1.0  0.1841
  C  C177  1  0.436200  0.914600  0.787710  1.0  -0.1963
  C  C178  1  0.730900  0.415200  0.972210  1.0  0.6909
  C  C179  1  0.581200  0.250500  0.476740  1.0  -0.2369
  C  C180  1  0.432600  0.345100  0.455410  1.0  -0.2319
  C  C181  1  0.059800  0.586700  0.462340  1.0  -0.0545
  C  C182  1  0.074900  0.063300  0.782770  1.0  -0.2054
  C  C183  1  0.643700  0.417600  0.406190  1.0  -0.1931
  C  C184  1  0.073400  0.603600  0.977870  1.0  -0.0539
  C  C185  1  0.510400  0.925500  0.729380  1.0  -0.0837
  C  C186  1  0.351500  0.268800  0.492490  1.0  0.1956
  C  C187  1  0.494100  0.178200  0.513180  1.0  0.1776
  C  C188  1  0.551100  0.337200  0.446980  1.0  0.1544
  C  C189  1  0.871700  0.456900  0.983880  1.0  -0.1253
  C  C190  1  0.946300  0.561800  0.960740  1.0  -0.083
  N  N191  1  0.439100  0.507000  0.897410  1.0  -0.4214
  N  N192  1  0.136480  0.001260  0.421980  1.0  -0.4224
  N  N193  1  0.062900  0.636130  0.230590  1.0  -0.3546
  N  N194  1  0.937790  0.340700  0.232370  1.0  -0.3727
  N  N195  1  0.620000  0.813300  0.478290  1.0  -0.4579
  N  N196  1  0.330220  0.618990  0.247480  1.0  -0.3719
  N  N197  1  0.560900  0.493000  0.102590  1.0  -0.4188
  N  N198  1  0.863520  0.998740  0.578020  1.0  -0.4233
  N  N199  1  0.937100  0.363870  0.769410  1.0  -0.3516
  N  N200  1  0.062210  0.659300  0.767630  1.0  -0.3747
  N  N201  1  0.380000  0.186700  0.521710  1.0  -0.46
  N  N202  1  0.669780  0.381010  0.752520  1.0  -0.3715
  O  O203  1  0.123680  0.506550  0.342140  1.0  -0.6286
  O  O204  1  0.025600  0.191910  0.497970  1.0  -0.655
  O  O205  1  0.153220  0.347960  0.381380  1.0  -0.6013
  O  O206  1  0.886310  0.191870  0.421590  1.0  -0.623
  O  O207  1  0.150440  0.443960  0.139540  1.0  -0.6563
  O  O208  1  0.089600  0.267400  0.077210  1.0  -0.6138
  O  O209  1  0.318870  0.503490  0.027650  1.0  -0.6441
  O  O210  1  0.325520  0.695300  0.035000  1.0  -0.5919
  O  O211  1  0.876320  0.493450  0.657860  1.0  -0.6281
  O  O212  1  0.974400  0.808090  0.502030  1.0  -0.6545
  O  O213  1  0.846780  0.652040  0.618620  1.0  -0.5998
  O  O214  1  0.113690  0.808130  0.578410  1.0  -0.6237
  O  O215  1  0.849560  0.556040  0.860460  1.0  -0.6563
  O  O216  1  0.910400  0.732600  0.922790  1.0  -0.612
  O  O217  1  0.681130  0.496510  0.972350  1.0  -0.6451
  O  O218  1  0.674480  0.304700  0.965000  1.0  -0.5767
