# generated using pymatgen
data_Eu3H22C52N9O20
_symmetry_space_group_name_H-M   'P 1'
_cell_length_a   15.13210000
_cell_length_b   16.97620000
_cell_length_c   17.04130000
_cell_angle_alpha   110.92200000
_cell_angle_beta   93.25500000
_cell_angle_gamma   97.51100000
_symmetry_Int_Tables_number   1
_chemical_formula_structural   Eu3H22C52N9O20
_chemical_formula_sum   'Eu6 H44 C104 N18 O40'
_cell_volume   4028.56970817
_cell_formula_units_Z   2
loop_
 _symmetry_equiv_pos_site_id
 _symmetry_equiv_pos_as_xyz
  1  'x, y, z'
loop_
 _atom_site_type_symbol
 _atom_site_label
 _atom_site_symmetry_multiplicity
 _atom_site_fract_x
 _atom_site_fract_y
 _atom_site_fract_z
 _atom_site_occupancy
 _atom_site_charge
  Eu  Eu1  1  0.057850  0.621270  0.528600  1.0  2.1271
  Eu  Eu2  1  0.947610  0.970340  0.880810  1.0  2.1127
  Eu  Eu3  1  0.007930  0.860270  0.644100  1.0  2.1517
  Eu  Eu4  1  0.942150  0.378730  0.471400  1.0  2.1306
  Eu  Eu5  1  0.052390  0.029660  0.119190  1.0  2.1106
  Eu  Eu6  1  0.992070  0.139730  0.355900  1.0  2.1546
  H  H7  1  0.051700  0.229000  0.022800  1.0  0.0695
  H  H8  1  0.876600  0.324000  0.684100  1.0  0.1356
  H  H9  1  0.917800  0.078400  0.579400  1.0  0.129
  H  H10  1  0.906900  0.676800  0.667700  1.0  0.1244
  H  H11  1  0.889300  0.179300  0.828400  1.0  0.1278
  H  H12  1  0.905800  0.164800  0.178300  1.0  0.125
  H  H13  1  0.687100  0.090300  0.007200  1.0  0.1261
  H  H14  1  0.678800  0.504500  0.586500  1.0  0.1416
  H  H15  1  0.154400  0.095600  0.920100  1.0  0.1125
  H  H16  1  0.142000  0.414500  0.593800  1.0  0.1153
  H  H17  1  0.324600  0.980700  0.757600  1.0  0.1278
  H  H18  1  0.670300  0.244200  0.248000  1.0  0.1252
  H  H19  1  0.307300  0.254500  0.473600  1.0  0.1259
  H  H20  1  0.273100  0.155800  0.028200  1.0  0.1245
  H  H21  1  0.671800  0.747300  0.744200  1.0  0.132
  H  H22  1  0.262300  0.524200  0.654500  1.0  0.1335
  H  H23  1  0.443400  0.041100  0.863500  1.0  0.1341
  H  H24  1  0.431200  0.362200  0.538100  1.0  0.1469
  H  H25  1  0.950400  0.593300  0.249100  1.0  0.1385
  H  H26  1  0.920700  0.561800  0.108400  1.0  0.1148
  H  H27  1  0.919400  0.341400  0.208300  1.0  0.0961
  H  H28  1  0.896900  0.307100  0.061700  1.0  0.13
  H  H29  1  0.948300  0.771000  0.977200  1.0  0.0714
  H  H30  1  0.123400  0.676000  0.315900  1.0  0.1347
  H  H31  1  0.082200  0.921600  0.420600  1.0  0.1295
  H  H32  1  0.093100  0.323200  0.332300  1.0  0.1252
  H  H33  1  0.110700  0.820700  0.171600  1.0  0.1282
  H  H34  1  0.094200  0.835200  0.821700  1.0  0.1245
  H  H35  1  0.312900  0.909700  0.992800  1.0  0.126
  H  H36  1  0.321200  0.495500  0.413500  1.0  0.1405
  H  H37  1  0.845600  0.904400  0.079900  1.0  0.1115
  H  H38  1  0.858000  0.585500  0.406200  1.0  0.1167
  H  H39  1  0.675400  0.019300  0.242400  1.0  0.1277
  H  H40  1  0.329700  0.755800  0.752000  1.0  0.1236
  H  H41  1  0.692700  0.745500  0.526400  1.0  0.1252
  H  H42  1  0.726900  0.844200  0.971800  1.0  0.1246
  H  H43  1  0.328200  0.252700  0.255800  1.0  0.1309
  H  H44  1  0.737700  0.475800  0.345500  1.0  0.1334
  H  H45  1  0.556600  0.958900  0.136500  1.0  0.1335
  H  H46  1  0.568800  0.637800  0.461900  1.0  0.1458
  H  H47  1  0.049600  0.406700  0.750900  1.0  0.1381
  H  H48  1  0.079300  0.438200  0.891600  1.0  0.114
  H  H49  1  0.080600  0.658600  0.791700  1.0  0.0959
  H  H50  1  0.103100  0.692900  0.938300  1.0  0.1303
  C  C51  1  0.959300  0.485500  0.332900  1.0  0.6877
  C  C52  1  0.045800  0.169700  0.013000  1.0  0.6742
  C  C53  1  0.906400  0.116800  0.704700  1.0  -0.133
  C  C54  1  0.902800  0.211100  0.535400  1.0  0.7668
  C  C55  1  0.794500  0.210900  0.227500  1.0  -0.0892
  C  C56  1  0.895300  0.201300  0.618200  1.0  -0.1376
  C  C57  1  0.884000  0.271200  0.689000  1.0  -0.0246
  C  C58  1  0.803200  0.118100  0.083400  1.0  -0.1156
  C  C59  1  0.844100  0.814900  0.759700  1.0  0.697
  C  C60  1  0.148500  0.976700  0.765700  1.0  0.7199
  C  C61  1  0.919400  0.035100  0.712700  1.0  0.781
  C  C62  1  0.907900  0.125300  0.627300  1.0  0.0371
  C  C63  1  0.883700  0.262100  0.767600  1.0  -0.0842
  C  C64  1  0.799600  0.582100  0.616300  1.0  -0.1311
  C  C65  1  0.843700  0.663600  0.665600  1.0  -0.0719
  C  C66  1  0.838200  0.256800  0.315800  1.0  0.7252
  C  C67  1  0.796200  0.725500  0.711700  1.0  -0.1186
  C  C68  1  0.892600  0.185400  0.775300  1.0  0.0226
  C  C69  1  0.851200  0.060200  0.016900  1.0  0.7136
  C  C70  1  0.848000  0.515500  0.561100  1.0  0.7068
  C  C71  1  0.844000  0.164500  0.164800  1.0  -0.0479
  C  C72  1  0.226900  0.026500  0.829100  1.0  -0.0914
  C  C73  1  0.132500  0.261700  0.471800  1.0  0.686
  C  C74  1  0.714600  0.120900  0.063400  1.0  0.0078
  C  C75  1  0.708800  0.561000  0.617800  1.0  0.0128
  C  C76  1  0.212900  0.083000  0.909500  1.0  -0.0637
  C  C77  1  0.200600  0.404900  0.580100  1.0  -0.0662
  C  C78  1  0.313700  0.014900  0.812800  1.0  0.0004
  C  C79  1  0.704300  0.212500  0.206100  1.0  -0.0053
  C  C80  1  0.298300  0.309600  0.509300  1.0  0.0074
  C  C81  1  0.211800  0.325800  0.522800  1.0  -0.1174
  C  C82  1  0.283600  0.120400  0.973400  1.0  -0.0797
  C  C83  1  0.704600  0.705100  0.712100  1.0  -0.0321
  C  C84  1  0.879200  0.338800  0.845200  1.0  0.332
  C  C85  1  0.271700  0.469700  0.617500  1.0  -0.0672
  C  C86  1  0.664300  0.167900  0.124100  1.0  -0.0878
  C  C87  1  0.661100  0.623100  0.665700  1.0  -0.0727
  C  C88  1  0.384600  0.051900  0.875300  1.0  -0.0235
  C  C89  1  0.357100  0.453900  0.600000  1.0  -0.0603
  C  C90  1  0.570100  0.168600  0.098900  1.0  0.3092
  C  C91  1  0.563700  0.597000  0.664700  1.0  0.321
  C  C92  1  0.370300  0.105400  0.956300  1.0  -0.007
  C  C93  1  0.444200  0.140800  0.024900  1.0  0.3605
  C  C94  1  0.433500  0.524000  0.636700  1.0  0.3297
  C  C95  1  0.372000  0.373300  0.547500  1.0  -0.0485
  C  C96  1  0.940000  0.535300  0.211500  1.0  -0.0903
  C  C97  1  0.943300  0.470600  0.243200  1.0  -0.1611
  C  C98  1  0.922300  0.516300  0.128200  1.0  -0.0336
  C  C99  1  0.887000  0.413500  0.975700  1.0  0.3878
  C  C100  1  0.905800  0.431800  0.068900  1.0  -0.0899
  C  C101  1  0.922700  0.386100  0.186800  1.0  -0.0182
  C  C102  1  0.906800  0.365000  0.099500  1.0  -0.0952
  C  C103  1  0.040700  0.514500  0.667100  1.0  0.6869
  C  C104  1  0.954200  0.830300  0.987000  1.0  0.6727
  C  C105  1  0.093600  0.883200  0.295300  1.0  -0.1326
  C  C106  1  0.097200  0.788900  0.464600  1.0  0.7671
  C  C107  1  0.205500  0.789100  0.772500  1.0  -0.087
  C  C108  1  0.104700  0.798700  0.381800  1.0  -0.1394
  C  C109  1  0.116000  0.728800  0.311000  1.0  -0.0251
  C  C110  1  0.196800  0.881900  0.916600  1.0  -0.1148
  C  C111  1  0.155900  0.185100  0.240300  1.0  0.6979
  C  C112  1  0.851500  0.023300  0.234300  1.0  0.7189
  C  C113  1  0.080600  0.964900  0.287300  1.0  0.7822
  C  C114  1  0.092100  0.874700  0.372700  1.0  0.0355
  C  C115  1  0.116300  0.737900  0.232400  1.0  -0.0845
  C  C116  1  0.200400  0.417900  0.383700  1.0  -0.1301
  C  C117  1  0.156300  0.336400  0.334400  1.0  -0.0716
  C  C118  1  0.161800  0.743200  0.684200  1.0  0.7251
  C  C119  1  0.203800  0.274500  0.288300  1.0  -0.1178
  C  C120  1  0.107400  0.814600  0.224700  1.0  0.0253
  C  C121  1  0.148800  0.939800  0.983100  1.0  0.7144
  C  C122  1  0.152000  0.484500  0.438900  1.0  0.7086
  C  C123  1  0.156000  0.835500  0.835200  1.0  -0.0473
  C  C124  1  0.773100  0.973500  0.170900  1.0  -0.0885
  C  C125  1  0.867500  0.738300  0.528200  1.0  0.6879
  C  C126  1  0.285400  0.879100  0.936600  1.0  0.0064
  C  C127  1  0.291200  0.439000  0.382200  1.0  0.015
  C  C128  1  0.787100  0.917000  0.090500  1.0  -0.0642
  C  C129  1  0.799400  0.595100  0.419900  1.0  -0.0663
  C  C130  1  0.686300  0.985100  0.187200  1.0  0.0016
  C  C131  1  0.295700  0.787500  0.793900  1.0  -0.0067
  C  C132  1  0.701700  0.690400  0.490700  1.0  0.0101
  C  C133  1  0.788200  0.674200  0.477200  1.0  -0.1169
  C  C134  1  0.716400  0.879600  0.026600  1.0  -0.0802
  C  C135  1  0.295400  0.294900  0.287900  1.0  -0.0318
  C  C136  1  0.120800  0.661200  0.154800  1.0  0.3302
  C  C137  1  0.728300  0.530300  0.382500  1.0  -0.0703
  C  C138  1  0.335700  0.832100  0.875900  1.0  -0.0877
  C  C139  1  0.338900  0.376900  0.334300  1.0  -0.0727
  C  C140  1  0.615400  0.948100  0.124700  1.0  -0.0237
  C  C141  1  0.642900  0.546100  0.400000  1.0  -0.0621
  C  C142  1  0.429900  0.831400  0.901100  1.0  0.3102
  C  C143  1  0.436300  0.403000  0.335300  1.0  0.3202
  C  C144  1  0.629700  0.894600  0.043700  1.0  -0.0089
  C  C145  1  0.555800  0.859200  0.975100  1.0  0.3613
  C  C146  1  0.566500  0.476000  0.363300  1.0  0.3302
  C  C147  1  0.628000  0.626700  0.452500  1.0  -0.0495
  C  C148  1  0.060000  0.464700  0.788500  1.0  -0.0883
  C  C149  1  0.056700  0.529400  0.756800  1.0  -0.1613
  C  C150  1  0.077700  0.483700  0.871800  1.0  -0.0323
  C  C151  1  0.113000  0.586500  0.024300  1.0  0.3888
  C  C152  1  0.094200  0.568200  0.931100  1.0  -0.0936
  C  C153  1  0.077300  0.613900  0.813200  1.0  -0.0166
  C  C154  1  0.093200  0.635000  0.900500  1.0  -0.095
  N  N155  1  0.526100  0.121900  0.021300  1.0  -0.3723
  N  N156  1  0.519600  0.519300  0.620300  1.0  -0.3945
  N  N157  1  0.434800  0.197100  0.100600  1.0  -0.2469
  N  N158  1  0.896700  0.334700  0.923500  1.0  -0.4316
  N  N159  1  0.507000  0.648400  0.704400  1.0  -0.2208
  N  N160  1  0.514900  0.212600  0.148200  1.0  -0.2364
  N  N161  1  0.424600  0.601400  0.688500  1.0  -0.2798
  N  N162  1  0.862400  0.410900  0.848900  1.0  -0.2898
  N  N163  1  0.865000  0.458400  0.936000  1.0  -0.157
  N  N164  1  0.473900  0.878100  0.978700  1.0  -0.3684
  N  N165  1  0.480400  0.480700  0.379700  1.0  -0.3976
  N  N166  1  0.565200  0.802900  0.899400  1.0  -0.2461
  N  N167  1  0.103300  0.665300  0.076500  1.0  -0.4317
  N  N168  1  0.493000  0.351600  0.295600  1.0  -0.2214
  N  N169  1  0.485100  0.787400  0.851800  1.0  -0.235
  N  N170  1  0.575400  0.398600  0.311500  1.0  -0.2792
  N  N171  1  0.137600  0.589100  0.151100  1.0  -0.2889
  N  N172  1  0.135000  0.541600  0.064000  1.0  -0.1593
  O  O173  1  0.918600  0.247600  0.335100  1.0  -0.7627
  O  O174  1  0.926100  0.834400  0.750500  1.0  -0.7376
  O  O175  1  0.820600  0.038200  0.941000  1.0  -0.6329
  O  O176  1  0.881300  0.275900  0.524200  1.0  -0.7269
  O  O177  1  0.920800  0.035500  0.038700  1.0  -0.7333
  O  O178  1  0.056500  0.286900  0.466800  1.0  -0.7477
  O  O179  1  0.068700  0.969600  0.789700  1.0  -0.7491
  O  O180  1  0.920700  0.537200  0.535500  1.0  -0.7359
  O  O181  1  0.896600  0.019300  0.775600  1.0  -0.7142
  O  O182  1  0.814100  0.437200  0.539500  1.0  -0.6205
  O  O183  1  0.999400  0.560000  0.382800  1.0  -0.6184
  O  O184  1  0.074800  0.150000  0.072700  1.0  -0.6235
  O  O185  1  0.008900  0.117600  0.939600  1.0  -0.6252
  O  O186  1  0.803600  0.868300  0.808600  1.0  -0.6548
  O  O187  1  0.141600  0.186100  0.431400  1.0  -0.6258
  O  O188  1  0.798600  0.304300  0.370600  1.0  -0.6435
  O  O189  1  0.929900  0.150600  0.478500  1.0  -0.666
  O  O190  1  0.929900  0.425800  0.355000  1.0  -0.6303
  O  O191  1  0.160000  0.938500  0.689900  1.0  -0.6316
  O  O192  1  0.957000  0.984900  0.653400  1.0  -0.6433
  O  O193  1  0.081400  0.752400  0.664900  1.0  -0.7602
  O  O194  1  0.073900  0.165600  0.249500  1.0  -0.7369
  O  O195  1  0.179400  0.961800  0.059000  1.0  -0.6306
  O  O196  1  0.118700  0.724100  0.475800  1.0  -0.7263
  O  O197  1  0.079200  0.964500  0.961300  1.0  -0.7326
  O  O198  1  0.943500  0.713100  0.533200  1.0  -0.746
  O  O199  1  0.931300  0.030400  0.210300  1.0  -0.7504
  O  O200  1  0.079300  0.462800  0.464500  1.0  -0.7359
  O  O201  1  0.103400  0.980700  0.224400  1.0  -0.7146
  O  O202  1  0.185900  0.562800  0.460500  1.0  -0.6209
  O  O203  1  0.000600  0.440000  0.617200  1.0  -0.617
  O  O204  1  0.925200  0.850000  0.927300  1.0  -0.625
  O  O205  1  0.991100  0.882400  0.060400  1.0  -0.6245
  O  O206  1  0.196400  0.131700  0.191400  1.0  -0.6578
  O  O207  1  0.858400  0.813900  0.568600  1.0  -0.6281
  O  O208  1  0.201400  0.695700  0.629400  1.0  -0.6471
  O  O209  1  0.070100  0.849400  0.521500  1.0  -0.6662
  O  O210  1  0.070100  0.574200  0.645000  1.0  -0.6296
  O  O211  1  0.840000  0.061500  0.310100  1.0  -0.6341
  O  O212  1  0.043000  0.015100  0.346600  1.0  -0.6423
