# generated using pymatgen
data_Gd3H25C52N9O20
_symmetry_space_group_name_H-M   'P 1'
_cell_length_a   15.09750000
_cell_length_b   16.77520000
_cell_length_c   16.90140000
_cell_angle_alpha   110.49300000
_cell_angle_beta   91.56200000
_cell_angle_gamma   99.17600000
_symmetry_Int_Tables_number   1
_chemical_formula_structural   Gd3H25C52N9O20
_chemical_formula_sum   'Gd6 H50 C104 N18 O40'
_cell_volume   3942.29621152
_cell_formula_units_Z   2
loop_
 _symmetry_equiv_pos_site_id
 _symmetry_equiv_pos_as_xyz
  1  'x, y, z'
loop_
 _atom_site_type_symbol
 _atom_site_label
 _atom_site_symmetry_multiplicity
 _atom_site_fract_x
 _atom_site_fract_y
 _atom_site_fract_z
 _atom_site_occupancy
 _atom_site_charge
  Gd  Gd1  1  0.559880  0.122260  0.028720  1.0  2.1467
  Gd  Gd2  1  0.514990  0.362490  0.146300  1.0  2.1836
  Gd  Gd3  1  0.450860  0.470780  0.381900  1.0  2.1511
  Gd  Gd4  1  0.440120  0.877740  0.971280  1.0  2.1485
  Gd  Gd5  1  0.485010  0.637510  0.853700  1.0  2.1836
  Gd  Gd6  1  0.549140  0.529220  0.618100  1.0  2.1519
  H  H7  1  0.416500  0.793500  0.435500  1.0  0.2887
  H  H8  1  0.035800  0.970800  0.088700  1.0  0.2976
  H  H9  1  0.949100  0.411600  0.522200  1.0  0.2867
  H  H10  1  0.452100  0.097400  0.750400  1.0  0.1235
  H  H11  1  0.419000  0.064600  0.606100  1.0  0.1311
  H  H12  1  0.408400  0.811900  0.561800  1.0  0.1149
  H  H13  1  0.439600  0.842100  0.707500  1.0  0.1061
  H  H14  1  0.368600  0.821800  0.183800  1.0  0.1189
  H  H15  1  0.419100  0.577200  0.077200  1.0  0.1188
  H  H16  1  0.396100  0.679100  0.330700  1.0  0.1201
  H  H17  1  0.174100  0.247100  0.248300  1.0  0.1093
  H  H18  1  0.175800  0.003900  0.085000  1.0  0.1082
  H  H19  1  0.409300  0.176200  0.166200  1.0  0.1111
  H  H20  1  0.758000  0.019400  0.160000  1.0  0.1113
  H  H21  1  0.633600  0.911300  0.092900  1.0  0.1029
  H  H22  1  0.803000  0.751200  0.971800  1.0  0.1224
  H  H23  1  0.924400  0.860300  0.033100  1.0  0.1197
  H  H24  1  0.593900  0.336100  0.322100  1.0  0.1084
  H  H25  1  0.812300  0.413000  0.491000  1.0  0.1037
  H  H26  1  0.830700  0.254500  0.251800  1.0  0.1108
  H  H27  1  0.050500  0.455500  0.636000  1.0  0.1171
  H  H28  1  0.167000  0.515000  0.744200  1.0  0.1199
  H  H29  1  0.341600  0.403600  0.578200  1.0  0.1029
  H  H30  1  0.224100  0.341100  0.472300  1.0  0.1079
  H  H31  1  0.553300  0.733000  0.521500  1.0  0.0909
  H  H32  1  0.583500  0.206500  0.564500  1.0  0.2886
  H  H33  1  0.964200  0.029200  0.911300  1.0  0.2968
  H  H34  1  0.050900  0.588400  0.477800  1.0  0.2877
  H  H35  1  0.547900  0.902600  0.249600  1.0  0.1228
  H  H36  1  0.581000  0.935400  0.393900  1.0  0.1298
  H  H37  1  0.591600  0.188100  0.438200  1.0  0.1146
  H  H38  1  0.560400  0.157900  0.292500  1.0  0.1061
  H  H39  1  0.631400  0.178200  0.816200  1.0  0.1178
  H  H40  1  0.580900  0.422800  0.922800  1.0  0.1196
  H  H41  1  0.603900  0.320900  0.669300  1.0  0.1194
  H  H42  1  0.825900  0.752900  0.751700  1.0  0.1099
  H  H43  1  0.824200  0.996100  0.915000  1.0  0.109
  H  H44  1  0.590700  0.823800  0.833800  1.0  0.1116
  H  H45  1  0.242000  0.980600  0.840000  1.0  0.111
  H  H46  1  0.366400  0.088700  0.907100  1.0  0.1036
  H  H47  1  0.197000  0.248800  0.028200  1.0  0.1226
  H  H48  1  0.075600  0.139700  0.966900  1.0  0.1196
  H  H49  1  0.406100  0.663900  0.677900  1.0  0.1089
  H  H50  1  0.187700  0.587000  0.509000  1.0  0.1039
  H  H51  1  0.169300  0.745500  0.748200  1.0  0.1109
  H  H52  1  0.949500  0.544500  0.364000  1.0  0.1169
  H  H53  1  0.833000  0.485000  0.255800  1.0  0.1201
  H  H54  1  0.658400  0.596400  0.421800  1.0  0.1037
  H  H55  1  0.775900  0.658900  0.527700  1.0  0.1069
  H  H56  1  0.446700  0.267000  0.478500  1.0  0.093
  C  C57  1  0.466700  0.986700  0.835000  1.0  0.6832
  C  C58  1  0.448300  0.973300  0.742300  1.0  -0.1241
  C  C59  1  0.442500  0.039000  0.712300  1.0  -0.0579
  C  C60  1  0.422900  0.019800  0.627500  1.0  -0.0329
  C  C61  1  0.408700  0.935100  0.573600  1.0  -0.017
  C  C62  1  0.416200  0.869700  0.601000  1.0  -0.1141
  C  C63  1  0.435400  0.887500  0.686900  1.0  -0.0196
  C  C64  1  0.388500  0.913400  0.478100  1.0  0.24
  C  C65  1  0.378000  0.836100  0.347300  1.0  0.3334
  C  C66  1  0.382300  0.762100  0.268500  1.0  -0.0056
  C  C67  1  0.378600  0.769400  0.189400  1.0  -0.0522
  C  C68  1  0.389900  0.698900  0.117600  1.0  -0.1542
  C  C69  1  0.394300  0.708800  0.033500  1.0  0.7762
  C  C70  1  0.407800  0.623400  0.125500  1.0  0.0136
  C  C71  1  0.409200  0.616000  0.205500  1.0  -0.1412
  C  C72  1  0.427800  0.534500  0.213400  1.0  0.7604
  C  C73  1  0.396000  0.684700  0.276700  1.0  -0.1019
  C  C74  1  0.347600  0.314400  0.262200  1.0  0.677
  C  C75  1  0.298700  0.224900  0.213500  1.0  -0.1325
  C  C76  1  0.206100  0.204600  0.215000  1.0  -0.0147
  C  C77  1  0.159900  0.120700  0.167000  1.0  -0.0728
  C  C78  1  0.207000  0.060200  0.118400  1.0  -0.1077
  C  C79  1  0.300300  0.080500  0.117500  1.0  -0.133
  C  C80  1  0.347300  0.014300  0.060700  1.0  0.6981
  C  C81  1  0.345700  0.162500  0.165700  1.0  -0.0396
  C  C82  1  0.062800  0.095700  0.165700  1.0  0.3197
  C  C83  1  0.929500  0.021800  0.137400  1.0  0.3907
  C  C84  1  0.853600  0.950400  0.101100  1.0  -0.0174
  C  C85  1  0.766400  0.965600  0.120000  1.0  -0.0253
  C  C86  1  0.692600  0.901300  0.079800  1.0  -0.0376
  C  C87  1  0.703900  0.822700  0.020800  1.0  -0.1037
  C  C88  1  0.625400  0.757900  0.969900  1.0  0.6918
  C  C89  1  0.793600  0.806700  0.007300  1.0  -0.0761
  C  C90  1  0.865300  0.870500  0.045200  1.0  -0.0853
  C  C91  1  0.664000  0.242900  0.182400  1.0  0.6747
  C  C92  1  0.705600  0.288700  0.270500  1.0  -0.1653
  C  C93  1  0.655500  0.336000  0.334800  1.0  -0.0479
  C  C94  1  0.696100  0.382000  0.416000  1.0  -0.0751
  C  C95  1  0.647500  0.439300  0.481800  1.0  0.6755
  C  C96  1  0.785000  0.380600  0.435200  1.0  -0.0965
  C  C97  1  0.834800  0.334000  0.375900  1.0  -0.1343
  C  C98  1  0.796100  0.287300  0.293000  1.0  -0.0179
  C  C99  1  0.928000  0.331900  0.400200  1.0  0.3284
  C  C100  1  0.054900  0.358900  0.474100  1.0  0.3908
  C  C101  1  0.124700  0.392100  0.544000  1.0  0.0461
  C  C102  1  0.109600  0.444600  0.624600  1.0  -0.0781
  C  C103  1  0.179000  0.481400  0.688700  1.0  -0.0709
  C  C104  1  0.267400  0.469000  0.671100  1.0  -0.1604
  C  C105  1  0.345100  0.519800  0.733700  1.0  0.7034
  C  C106  1  0.282600  0.414500  0.589800  1.0  -0.0402
  C  C107  1  0.212900  0.377100  0.527200  1.0  -0.0337
  C  C108  1  0.547400  0.673000  0.512000  1.0  0.5923
  C  C109  1  0.533300  0.013300  0.165000  1.0  0.6833
  C  C110  1  0.551700  0.026700  0.257700  1.0  -0.1243
  C  C111  1  0.557500  0.961000  0.287700  1.0  -0.0565
  C  C112  1  0.577100  0.980200  0.372500  1.0  -0.0322
  C  C113  1  0.591300  0.064900  0.426400  1.0  -0.0165
  C  C114  1  0.583800  0.130300  0.399000  1.0  -0.1138
  C  C115  1  0.564600  0.112500  0.313100  1.0  -0.0213
  C  C116  1  0.611500  0.086600  0.521900  1.0  0.2414
  C  C117  1  0.622000  0.163900  0.652700  1.0  0.3327
  C  C118  1  0.617700  0.237900  0.731500  1.0  -0.0064
  C  C119  1  0.621400  0.230600  0.810600  1.0  -0.0532
  C  C120  1  0.610100  0.301100  0.882400  1.0  -0.1547
  C  C121  1  0.605700  0.291200  0.966500  1.0  0.777
  C  C122  1  0.592200  0.376600  0.874500  1.0  0.0127
  C  C123  1  0.590800  0.384000  0.794500  1.0  -0.1407
  C  C124  1  0.572200  0.465500  0.786600  1.0  0.7483
  C  C125  1  0.604000  0.315300  0.723300  1.0  -0.1036
  C  C126  1  0.652400  0.685600  0.737800  1.0  0.6772
  C  C127  1  0.701300  0.775100  0.786500  1.0  -0.1318
  C  C128  1  0.793900  0.795400  0.785000  1.0  -0.013
  C  C129  1  0.840100  0.879300  0.833000  1.0  -0.0717
  C  C130  1  0.793000  0.939800  0.881600  1.0  -0.1062
  C  C131  1  0.699700  0.919500  0.882500  1.0  -0.134
  C  C132  1  0.652700  0.985700  0.939300  1.0  0.7008
  C  C133  1  0.654300  0.837500  0.834300  1.0  -0.038
  C  C134  1  0.937200  0.904300  0.834300  1.0  0.3186
  C  C135  1  0.070500  0.978200  0.862600  1.0  0.3904
  C  C136  1  0.146400  0.049600  0.898900  1.0  -0.019
  C  C137  1  0.233600  0.034400  0.880000  1.0  -0.0263
  C  C138  1  0.307400  0.098700  0.920200  1.0  -0.0393
  C  C139  1  0.296100  0.177300  0.979200  1.0  -0.1058
  C  C140  1  0.374600  0.242100  0.030100  1.0  0.6931
  C  C141  1  0.206400  0.193300  0.992700  1.0  -0.0731
  C  C142  1  0.134700  0.129500  0.954800  1.0  -0.0861
  C  C143  1  0.336000  0.757100  0.817600  1.0  0.6737
  C  C144  1  0.294400  0.711300  0.729500  1.0  -0.1638
  C  C145  1  0.344500  0.664000  0.665200  1.0  -0.0479
  C  C146  1  0.303900  0.618000  0.584000  1.0  -0.0766
  C  C147  1  0.352500  0.560700  0.518200  1.0  0.6751
  C  C148  1  0.215000  0.619400  0.564800  1.0  -0.0968
  C  C149  1  0.165200  0.666000  0.624100  1.0  -0.1354
  C  C150  1  0.203900  0.712700  0.707000  1.0  -0.0189
  C  C151  1  0.072000  0.668100  0.599800  1.0  0.3311
  C  C152  1  0.945100  0.641100  0.525900  1.0  0.3866
  C  C153  1  0.875300  0.607900  0.456000  1.0  0.047
  C  C154  1  0.890400  0.555400  0.375400  1.0  -0.0789
  C  C155  1  0.821000  0.518600  0.311300  1.0  -0.0729
  C  C156  1  0.732600  0.531000  0.328900  1.0  -0.162
  C  C157  1  0.654900  0.480200  0.266300  1.0  0.7071
  C  C158  1  0.717400  0.585500  0.410200  1.0  -0.0384
  C  C159  1  0.787100  0.622900  0.472800  1.0  -0.0333
  C  C160  1  0.452600  0.327000  0.488000  1.0  0.595
  N  N161  1  0.399100  0.835700  0.423200  1.0  -0.2619
  N  N162  1  0.358900  0.958700  0.438900  1.0  -0.2913
  N  N163  1  0.355100  0.909900  0.351400  1.0  -0.2995
  N  N164  1  0.015100  0.016300  0.121200  1.0  -0.2802
  N  N165  1  0.005400  0.146300  0.206500  1.0  -0.213
  N  N166  1  0.919800  0.098900  0.189500  1.0  -0.3345
  N  N167  1  0.971200  0.377200  0.478000  1.0  -0.2717
  N  N168  1  0.984600  0.289600  0.350600  1.0  -0.2466
  N  N169  1  0.065100  0.304100  0.397400  1.0  -0.3269
  N  N170  1  0.600900  0.164300  0.576800  1.0  -0.262
  N  N171  1  0.641100  0.041300  0.561100  1.0  -0.2914
  N  N172  1  0.644900  0.090100  0.648600  1.0  -0.305
  N  N173  1  0.984900  0.983700  0.878800  1.0  -0.2832
  N  N174  1  0.994600  0.853700  0.793500  1.0  -0.2128
  N  N175  1  0.080200  0.901100  0.810500  1.0  -0.3333
  N  N176  1  0.028800  0.622800  0.522000  1.0  -0.2698
  N  N177  1  0.015400  0.710400  0.649400  1.0  -0.2471
  N  N178  1  0.934900  0.695900  0.602600  1.0  -0.3287
  O  O179  1  0.435500  0.925300  0.856800  1.0  -0.6536
  O  O180  1  0.505200  0.061700  0.884000  1.0  -0.5942
  O  O181  1  0.373500  0.774900  0.024200  1.0  -0.6979
  O  O182  1  0.419200  0.647700  0.975500  1.0  -0.6807
  O  O183  1  0.466500  0.487000  0.155200  1.0  -0.6273
  O  O184  1  0.402900  0.519100  0.278900  1.0  -0.7025
  O  O185  1  0.307600  0.368600  0.313100  1.0  -0.6766
  O  O186  1  0.430100  0.334600  0.251900  1.0  -0.6899
  O  O187  1  0.420900  0.036500  0.032300  1.0  -0.7663
  O  O188  1  0.313300  0.934800  0.040400  1.0  -0.6423
  O  O189  1  0.634100  0.682400  0.927200  1.0  -0.6332
  O  O190  1  0.549800  0.784700  0.965200  1.0  -0.7586
  O  O191  1  0.584900  0.254600  0.164000  1.0  -0.7469
  O  O192  1  0.703600  0.194400  0.128500  1.0  -0.6523
  O  O193  1  0.577500  0.465300  0.461000  1.0  -0.8121
  O  O194  1  0.675400  0.462200  0.558400  1.0  -0.646
  O  O195  1  0.332900  0.558000  0.809700  1.0  -0.6375
  O  O196  1  0.425700  0.527200  0.709000  1.0  -0.8111
  O  O197  1  0.513100  0.617900  0.438900  1.0  -0.6295
  O  O198  1  0.573900  0.650500  0.572100  1.0  -0.6564
  O  O199  1  0.564500  0.074700  0.143200  1.0  -0.6535
  O  O200  1  0.494800  0.938300  0.116000  1.0  -0.5943
  O  O201  1  0.626500  0.225100  0.975800  1.0  -0.698
  O  O202  1  0.580800  0.352300  0.024500  1.0  -0.679
  O  O203  1  0.533500  0.513000  0.844800  1.0  -0.6253
  O  O204  1  0.597100  0.480900  0.721100  1.0  -0.702
  O  O205  1  0.692400  0.631400  0.686900  1.0  -0.6774
  O  O206  1  0.569900  0.665400  0.748100  1.0  -0.6891
  O  O207  1  0.579100  0.963500  0.967700  1.0  -0.7658
  O  O208  1  0.686700  0.065200  0.959600  1.0  -0.6441
  O  O209  1  0.365900  0.317600  0.072800  1.0  -0.632
  O  O210  1  0.450200  0.215300  0.034800  1.0  -0.7573
  O  O211  1  0.415100  0.745400  0.836000  1.0  -0.7484
  O  O212  1  0.296400  0.805600  0.871500  1.0  -0.6488
  O  O213  1  0.422500  0.534700  0.539000  1.0  -0.8126
  O  O214  1  0.324600  0.537800  0.441600  1.0  -0.6475
  O  O215  1  0.667100  0.442000  0.190300  1.0  -0.6332
  O  O216  1  0.574300  0.472800  0.291000  1.0  -0.8082
  O  O217  1  0.486900  0.382100  0.561100  1.0  -0.6309
  O  O218  1  0.426100  0.349500  0.427900  1.0  -0.659
