# generated using pymatgen
data_TbH8C18N3O8
_symmetry_space_group_name_H-M   'P 1'
_cell_length_a   11.50020000
_cell_length_b   40.70680000
_cell_length_c   17.02380000
_cell_angle_alpha   90.00000000
_cell_angle_beta   90.00000000
_cell_angle_gamma   90.00000000
_symmetry_Int_Tables_number   1
_chemical_formula_structural   TbH8C18N3O8
_chemical_formula_sum   'Tb16 H128 C288 N48 O128'
_cell_volume   7969.45944804
_cell_formula_units_Z   16
loop_
 _symmetry_equiv_pos_site_id
 _symmetry_equiv_pos_as_xyz
  1  'x, y, z'
loop_
 _atom_site_type_symbol
 _atom_site_label
 _atom_site_symmetry_multiplicity
 _atom_site_fract_x
 _atom_site_fract_y
 _atom_site_fract_z
 _atom_site_occupancy
 _atom_site_charge
  Tb  Tb1  1  0.019620  0.264580  0.433540  1.0  2.2338
  Tb  Tb2  1  0.019620  0.764580  0.933540  1.0  2.2338
  Tb  Tb3  1  0.519620  0.264580  0.933540  1.0  2.2338
  Tb  Tb4  1  0.519620  0.764580  0.433540  1.0  2.2338
  Tb  Tb5  1  0.980380  0.735420  0.433540  1.0  2.2344
  Tb  Tb6  1  0.980380  0.235420  0.933540  1.0  2.2344
  Tb  Tb7  1  0.480380  0.735420  0.933540  1.0  2.2344
  Tb  Tb8  1  0.480380  0.235420  0.433540  1.0  2.2344
  Tb  Tb9  1  0.269620  0.985420  0.683540  1.0  2.2336
  Tb  Tb10  1  0.269620  0.485420  0.183540  1.0  2.2336
  Tb  Tb11  1  0.769620  0.985420  0.183540  1.0  2.2336
  Tb  Tb12  1  0.769620  0.485420  0.683540  1.0  2.2336
  Tb  Tb13  1  0.230380  0.514580  0.683540  1.0  2.2345
  Tb  Tb14  1  0.230380  0.014580  0.183540  1.0  2.2345
  Tb  Tb15  1  0.730380  0.514580  0.183540  1.0  2.2345
  Tb  Tb16  1  0.730380  0.014580  0.683540  1.0  2.2345
  H  H17  1  0.994900  0.416900  0.492500  1.0  0.4008
  H  H18  1  0.142200  0.351000  0.458900  1.0  0.1194
  H  H19  1  0.884600  0.444400  0.294600  1.0  0.1245
  H  H20  1  0.822600  0.347700  0.339000  1.0  0.1116
  H  H21  1  0.348800  0.428600  0.410900  1.0  0.119
  H  H22  1  0.481400  0.336800  0.401900  1.0  0.1151
  H  H23  1  0.138300  0.376600  0.257700  1.0  0.108
  H  H24  1  0.539100  0.450200  0.394100  1.0  0.3488
  H  H25  1  0.994900  0.916900  0.992500  1.0  0.4008
  H  H26  1  0.142200  0.851000  0.958900  1.0  0.1194
  H  H27  1  0.884600  0.944400  0.794600  1.0  0.1245
  H  H28  1  0.822600  0.847700  0.839000  1.0  0.1116
  H  H29  1  0.348800  0.928600  0.910900  1.0  0.119
  H  H30  1  0.481400  0.836800  0.901900  1.0  0.1151
  H  H31  1  0.138300  0.876600  0.757700  1.0  0.108
  H  H32  1  0.539100  0.950200  0.894100  1.0  0.3488
  H  H33  1  0.494900  0.416900  0.992500  1.0  0.4008
  H  H34  1  0.642200  0.351000  0.958900  1.0  0.1194
  H  H35  1  0.384600  0.444400  0.794600  1.0  0.1245
  H  H36  1  0.322600  0.347700  0.839000  1.0  0.1116
  H  H37  1  0.848800  0.428600  0.910900  1.0  0.119
  H  H38  1  0.981400  0.336800  0.901900  1.0  0.1151
  H  H39  1  0.638300  0.376600  0.757700  1.0  0.108
  H  H40  1  0.039100  0.450200  0.894100  1.0  0.3488
  H  H41  1  0.494900  0.916900  0.492500  1.0  0.4008
  H  H42  1  0.642200  0.851000  0.458900  1.0  0.1194
  H  H43  1  0.384600  0.944400  0.294600  1.0  0.1245
  H  H44  1  0.322600  0.847700  0.339000  1.0  0.1116
  H  H45  1  0.848800  0.928600  0.410900  1.0  0.119
  H  H46  1  0.981400  0.836800  0.401900  1.0  0.1151
  H  H47  1  0.638300  0.876600  0.257700  1.0  0.108
  H  H48  1  0.039100  0.950200  0.394100  1.0  0.3488
  H  H49  1  0.005100  0.583100  0.492500  1.0  0.403
  H  H50  1  0.857800  0.649000  0.458900  1.0  0.1197
  H  H51  1  0.115400  0.555600  0.294600  1.0  0.1245
  H  H52  1  0.177400  0.652300  0.339000  1.0  0.1111
  H  H53  1  0.651200  0.571400  0.410900  1.0  0.1207
  H  H54  1  0.518600  0.663200  0.401900  1.0  0.1159
  H  H55  1  0.861700  0.623400  0.257700  1.0  0.1082
  H  H56  1  0.460900  0.549800  0.394100  1.0  0.3507
  H  H57  1  0.005100  0.083100  0.992500  1.0  0.403
  H  H58  1  0.857800  0.149000  0.958900  1.0  0.1197
  H  H59  1  0.115400  0.055600  0.794600  1.0  0.1245
  H  H60  1  0.177400  0.152300  0.839000  1.0  0.1111
  H  H61  1  0.651200  0.071400  0.910900  1.0  0.1207
  H  H62  1  0.518600  0.163200  0.901900  1.0  0.1159
  H  H63  1  0.861700  0.123400  0.757700  1.0  0.1082
  H  H64  1  0.460900  0.049800  0.894100  1.0  0.3507
  H  H65  1  0.505100  0.583100  0.992500  1.0  0.403
  H  H66  1  0.357800  0.649000  0.958900  1.0  0.1197
  H  H67  1  0.615400  0.555600  0.794600  1.0  0.1245
  H  H68  1  0.677400  0.652300  0.839000  1.0  0.1111
  H  H69  1  0.151200  0.571400  0.910900  1.0  0.1207
  H  H70  1  0.018600  0.663200  0.901900  1.0  0.1159
  H  H71  1  0.361700  0.623400  0.757700  1.0  0.1082
  H  H72  1  0.960900  0.549800  0.894100  1.0  0.3507
  H  H73  1  0.505100  0.083100  0.492500  1.0  0.403
  H  H74  1  0.357800  0.149000  0.458900  1.0  0.1197
  H  H75  1  0.615400  0.055600  0.294600  1.0  0.1245
  H  H76  1  0.677400  0.152300  0.339000  1.0  0.1111
  H  H77  1  0.151200  0.071400  0.410900  1.0  0.1207
  H  H78  1  0.018600  0.163200  0.401900  1.0  0.1159
  H  H79  1  0.361700  0.123400  0.257700  1.0  0.1082
  H  H80  1  0.960900  0.049800  0.394100  1.0  0.3507
  H  H81  1  0.244900  0.833100  0.742500  1.0  0.4024
  H  H82  1  0.392200  0.899000  0.708900  1.0  0.1194
  H  H83  1  0.134600  0.805600  0.544600  1.0  0.1244
  H  H84  1  0.072600  0.902300  0.589000  1.0  0.1118
  H  H85  1  0.598800  0.821400  0.660900  1.0  0.1208
  H  H86  1  0.731400  0.913200  0.651900  1.0  0.1156
  H  H87  1  0.388300  0.873400  0.507700  1.0  0.1081
  H  H88  1  0.789100  0.799800  0.644100  1.0  0.3506
  H  H89  1  0.244900  0.333100  0.242500  1.0  0.4024
  H  H90  1  0.392200  0.399000  0.208900  1.0  0.1194
  H  H91  1  0.134600  0.305600  0.044600  1.0  0.1244
  H  H92  1  0.072600  0.402300  0.089000  1.0  0.1118
  H  H93  1  0.598800  0.321400  0.160900  1.0  0.1208
  H  H94  1  0.731400  0.413200  0.151900  1.0  0.1156
  H  H95  1  0.388300  0.373400  0.007700  1.0  0.1081
  H  H96  1  0.789100  0.299800  0.144100  1.0  0.3506
  H  H97  1  0.744900  0.833100  0.242500  1.0  0.4024
  H  H98  1  0.892200  0.899000  0.208900  1.0  0.1194
  H  H99  1  0.634600  0.805600  0.044600  1.0  0.1244
  H  H100  1  0.572600  0.902300  0.089000  1.0  0.1118
  H  H101  1  0.098800  0.821400  0.160900  1.0  0.1208
  H  H102  1  0.231400  0.913200  0.151900  1.0  0.1156
  H  H103  1  0.888300  0.873400  0.007700  1.0  0.1081
  H  H104  1  0.289100  0.799800  0.144100  1.0  0.3506
  H  H105  1  0.744900  0.333100  0.742500  1.0  0.4024
  H  H106  1  0.892200  0.399000  0.708900  1.0  0.1194
  H  H107  1  0.634600  0.305600  0.544600  1.0  0.1244
  H  H108  1  0.572600  0.402300  0.589000  1.0  0.1118
  H  H109  1  0.098800  0.321400  0.660900  1.0  0.1208
  H  H110  1  0.231400  0.413200  0.651900  1.0  0.1156
  H  H111  1  0.888300  0.373400  0.507700  1.0  0.1081
  H  H112  1  0.289100  0.299800  0.644100  1.0  0.3506
  H  H113  1  0.255100  0.666900  0.742500  1.0  0.4005
  H  H114  1  0.107800  0.601000  0.708900  1.0  0.1199
  H  H115  1  0.365400  0.694400  0.544600  1.0  0.1242
  H  H116  1  0.427400  0.597700  0.589000  1.0  0.1117
  H  H117  1  0.901200  0.678600  0.660900  1.0  0.119
  H  H118  1  0.768600  0.586800  0.651900  1.0  0.115
  H  H119  1  0.111700  0.626600  0.507700  1.0  0.108
  H  H120  1  0.710900  0.700200  0.644100  1.0  0.3482
  H  H121  1  0.255100  0.166900  0.242500  1.0  0.4005
  H  H122  1  0.107800  0.101000  0.208900  1.0  0.1199
  H  H123  1  0.365400  0.194400  0.044600  1.0  0.1242
  H  H124  1  0.427400  0.097700  0.089000  1.0  0.1117
  H  H125  1  0.901200  0.178600  0.160900  1.0  0.119
  H  H126  1  0.768600  0.086800  0.151900  1.0  0.115
  H  H127  1  0.111700  0.126600  0.007700  1.0  0.108
  H  H128  1  0.710900  0.200200  0.144100  1.0  0.3482
  H  H129  1  0.755100  0.666900  0.242500  1.0  0.4005
  H  H130  1  0.607800  0.601000  0.208900  1.0  0.1199
  H  H131  1  0.865400  0.694400  0.044600  1.0  0.1242
  H  H132  1  0.927400  0.597700  0.089000  1.0  0.1117
  H  H133  1  0.401200  0.678600  0.160900  1.0  0.119
  H  H134  1  0.268600  0.586800  0.151900  1.0  0.115
  H  H135  1  0.611700  0.626600  0.007700  1.0  0.108
  H  H136  1  0.210900  0.700200  0.144100  1.0  0.3482
  H  H137  1  0.755100  0.166900  0.742500  1.0  0.4005
  H  H138  1  0.607800  0.101000  0.708900  1.0  0.1199
  H  H139  1  0.865400  0.194400  0.544600  1.0  0.1242
  H  H140  1  0.927400  0.097700  0.589000  1.0  0.1117
  H  H141  1  0.401200  0.178600  0.660900  1.0  0.119
  H  H142  1  0.268600  0.086800  0.651900  1.0  0.115
  H  H143  1  0.611700  0.126600  0.507700  1.0  0.108
  H  H144  1  0.210900  0.200200  0.644100  1.0  0.3482
  C  C145  1  0.310200  0.338280  0.432700  1.0  -0.1401
  C  C146  1  0.544600  0.400090  0.384500  1.0  0.2938
  C  C147  1  0.216500  0.359540  0.445600  1.0  -0.0324
  C  C148  1  0.232600  0.393010  0.439040  1.0  -0.1591
  C  C149  1  0.720690  0.405670  0.349120  1.0  0.4844
  C  C150  1  0.022500  0.321340  0.298090  1.0  0.7119
  C  C151  1  0.107990  0.440360  0.249530  1.0  0.7082
  C  C152  1  0.910610  0.422250  0.296420  1.0  -0.0366
  C  C153  1  0.873300  0.364670  0.321800  1.0  -0.0303
  C  C154  1  0.137300  0.416920  0.454100  1.0  0.6426
  C  C155  1  0.339600  0.405520  0.417200  1.0  -0.1306
  C  C156  1  0.432900  0.385070  0.404500  1.0  -0.1339
  C  C157  1  0.417900  0.351180  0.411600  1.0  -0.0462
  C  C158  1  0.294600  0.301780  0.443600  1.0  0.7623
  C  C159  1  0.984700  0.356870  0.296400  1.0  -0.1193
  C  C160  1  0.061200  0.381830  0.273300  1.0  -0.0984
  C  C161  1  0.024300  0.414310  0.273200  1.0  -0.1311
  C  C162  1  0.835300  0.397210  0.322400  1.0  -0.0978
  C  C163  1  0.310200  0.838280  0.932700  1.0  -0.1401
  C  C164  1  0.544600  0.900090  0.884500  1.0  0.2938
  C  C165  1  0.216500  0.859540  0.945600  1.0  -0.0324
  C  C166  1  0.232600  0.893010  0.939040  1.0  -0.1591
  C  C167  1  0.720690  0.905670  0.849120  1.0  0.4844
  C  C168  1  0.022500  0.821340  0.798090  1.0  0.7119
  C  C169  1  0.107990  0.940360  0.749530  1.0  0.7082
  C  C170  1  0.910610  0.922250  0.796420  1.0  -0.0366
  C  C171  1  0.873300  0.864670  0.821800  1.0  -0.0303
  C  C172  1  0.137300  0.916920  0.954100  1.0  0.6426
  C  C173  1  0.339600  0.905520  0.917200  1.0  -0.1306
  C  C174  1  0.432900  0.885070  0.904500  1.0  -0.1339
  C  C175  1  0.417900  0.851180  0.911600  1.0  -0.0462
  C  C176  1  0.294600  0.801780  0.943600  1.0  0.7623
  C  C177  1  0.984700  0.856870  0.796400  1.0  -0.1193
  C  C178  1  0.061200  0.881830  0.773300  1.0  -0.0984
  C  C179  1  0.024300  0.914310  0.773200  1.0  -0.1311
  C  C180  1  0.835300  0.897210  0.822400  1.0  -0.0978
  C  C181  1  0.810200  0.338280  0.932700  1.0  -0.1401
  C  C182  1  0.044600  0.400090  0.884500  1.0  0.2938
  C  C183  1  0.716500  0.359540  0.945600  1.0  -0.0324
  C  C184  1  0.732600  0.393010  0.939040  1.0  -0.1591
  C  C185  1  0.220690  0.405670  0.849120  1.0  0.4844
  C  C186  1  0.522500  0.321340  0.798090  1.0  0.7119
  C  C187  1  0.607990  0.440360  0.749530  1.0  0.7082
  C  C188  1  0.410610  0.422250  0.796420  1.0  -0.0366
  C  C189  1  0.373300  0.364670  0.821800  1.0  -0.0303
  C  C190  1  0.637300  0.416920  0.954100  1.0  0.6426
  C  C191  1  0.839600  0.405520  0.917200  1.0  -0.1306
  C  C192  1  0.932900  0.385070  0.904500  1.0  -0.1339
  C  C193  1  0.917900  0.351180  0.911600  1.0  -0.0462
  C  C194  1  0.794600  0.301780  0.943600  1.0  0.7623
  C  C195  1  0.484700  0.356870  0.796400  1.0  -0.1193
  C  C196  1  0.561200  0.381830  0.773300  1.0  -0.0984
  C  C197  1  0.524300  0.414310  0.773200  1.0  -0.1311
  C  C198  1  0.335300  0.397210  0.822400  1.0  -0.0978
  C  C199  1  0.810200  0.838280  0.432700  1.0  -0.1401
  C  C200  1  0.044600  0.900090  0.384500  1.0  0.2938
  C  C201  1  0.716500  0.859540  0.445600  1.0  -0.0324
  C  C202  1  0.732600  0.893010  0.439040  1.0  -0.1591
  C  C203  1  0.220690  0.905670  0.349120  1.0  0.4844
  C  C204  1  0.522500  0.821340  0.298090  1.0  0.7119
  C  C205  1  0.607990  0.940360  0.249530  1.0  0.7082
  C  C206  1  0.410610  0.922250  0.296420  1.0  -0.0366
  C  C207  1  0.373300  0.864670  0.321800  1.0  -0.0303
  C  C208  1  0.637300  0.916920  0.454100  1.0  0.6426
  C  C209  1  0.839600  0.905520  0.417200  1.0  -0.1306
  C  C210  1  0.932900  0.885070  0.404500  1.0  -0.1339
  C  C211  1  0.917900  0.851180  0.411600  1.0  -0.0462
  C  C212  1  0.794600  0.801780  0.443600  1.0  0.7623
  C  C213  1  0.484700  0.856870  0.296400  1.0  -0.1193
  C  C214  1  0.561200  0.881830  0.273300  1.0  -0.0984
  C  C215  1  0.524300  0.914310  0.273200  1.0  -0.1311
  C  C216  1  0.335300  0.897210  0.322400  1.0  -0.0978
  C  C217  1  0.689800  0.661720  0.432700  1.0  -0.1396
  C  C218  1  0.455400  0.599910  0.384500  1.0  0.2947
  C  C219  1  0.783500  0.640460  0.445600  1.0  -0.0333
  C  C220  1  0.767400  0.606990  0.439040  1.0  -0.1599
  C  C221  1  0.279310  0.594330  0.349120  1.0  0.4821
  C  C222  1  0.977500  0.678660  0.298090  1.0  0.7126
  C  C223  1  0.892010  0.559640  0.249530  1.0  0.7069
  C  C224  1  0.089390  0.577750  0.296420  1.0  -0.0362
  C  C225  1  0.126700  0.635330  0.321800  1.0  -0.0305
  C  C226  1  0.862700  0.583080  0.454100  1.0  0.6427
  C  C227  1  0.660400  0.594480  0.417200  1.0  -0.1311
  C  C228  1  0.567100  0.614930  0.404500  1.0  -0.1344
  C  C229  1  0.582100  0.648820  0.411600  1.0  -0.0461
  C  C230  1  0.705400  0.698220  0.443600  1.0  0.7657
  C  C231  1  0.015300  0.643130  0.296400  1.0  -0.1194
  C  C232  1  0.938800  0.618170  0.273300  1.0  -0.0981
  C  C233  1  0.975700  0.585690  0.273200  1.0  -0.1301
  C  C234  1  0.164700  0.602790  0.322400  1.0  -0.0974
  C  C235  1  0.689800  0.161720  0.932700  1.0  -0.1396
  C  C236  1  0.455400  0.099910  0.884500  1.0  0.2947
  C  C237  1  0.783500  0.140460  0.945600  1.0  -0.0333
  C  C238  1  0.767400  0.106990  0.939040  1.0  -0.1599
  C  C239  1  0.279310  0.094330  0.849120  1.0  0.4821
  C  C240  1  0.977500  0.178660  0.798090  1.0  0.7126
  C  C241  1  0.892010  0.059640  0.749530  1.0  0.7069
  C  C242  1  0.089390  0.077750  0.796420  1.0  -0.0362
  C  C243  1  0.126700  0.135330  0.821800  1.0  -0.0305
  C  C244  1  0.862700  0.083080  0.954100  1.0  0.6427
  C  C245  1  0.660400  0.094480  0.917200  1.0  -0.1311
  C  C246  1  0.567100  0.114930  0.904500  1.0  -0.1344
  C  C247  1  0.582100  0.148820  0.911600  1.0  -0.0461
  C  C248  1  0.705400  0.198220  0.943600  1.0  0.7657
  C  C249  1  0.015300  0.143130  0.796400  1.0  -0.1194
  C  C250  1  0.938800  0.118170  0.773300  1.0  -0.0981
  C  C251  1  0.975700  0.085690  0.773200  1.0  -0.1301
  C  C252  1  0.164700  0.102790  0.822400  1.0  -0.0974
  C  C253  1  0.189800  0.661720  0.932700  1.0  -0.1396
  C  C254  1  0.955400  0.599910  0.884500  1.0  0.2947
  C  C255  1  0.283500  0.640460  0.945600  1.0  -0.0333
  C  C256  1  0.267400  0.606990  0.939040  1.0  -0.1599
  C  C257  1  0.779310  0.594330  0.849120  1.0  0.4821
  C  C258  1  0.477500  0.678660  0.798090  1.0  0.7126
  C  C259  1  0.392010  0.559640  0.749530  1.0  0.7069
  C  C260  1  0.589390  0.577750  0.796420  1.0  -0.0362
  C  C261  1  0.626700  0.635330  0.821800  1.0  -0.0305
  C  C262  1  0.362700  0.583080  0.954100  1.0  0.6427
  C  C263  1  0.160400  0.594480  0.917200  1.0  -0.1311
  C  C264  1  0.067100  0.614930  0.904500  1.0  -0.1344
  C  C265  1  0.082100  0.648820  0.911600  1.0  -0.0461
  C  C266  1  0.205400  0.698220  0.943600  1.0  0.7657
  C  C267  1  0.515300  0.643130  0.796400  1.0  -0.1194
  C  C268  1  0.438800  0.618170  0.773300  1.0  -0.0981
  C  C269  1  0.475700  0.585690  0.773200  1.0  -0.1301
  C  C270  1  0.664700  0.602790  0.822400  1.0  -0.0974
  C  C271  1  0.189800  0.161720  0.432700  1.0  -0.1396
  C  C272  1  0.955400  0.099910  0.384500  1.0  0.2947
  C  C273  1  0.283500  0.140460  0.445600  1.0  -0.0333
  C  C274  1  0.267400  0.106990  0.439040  1.0  -0.1599
  C  C275  1  0.779310  0.094330  0.349120  1.0  0.4821
  C  C276  1  0.477500  0.178660  0.298090  1.0  0.7126
  C  C277  1  0.392010  0.059640  0.249530  1.0  0.7069
  C  C278  1  0.589390  0.077750  0.296420  1.0  -0.0362
  C  C279  1  0.626700  0.135330  0.321800  1.0  -0.0305
  C  C280  1  0.362700  0.083080  0.454100  1.0  0.6427
  C  C281  1  0.160400  0.094480  0.417200  1.0  -0.1311
  C  C282  1  0.067100  0.114930  0.404500  1.0  -0.1344
  C  C283  1  0.082100  0.148820  0.411600  1.0  -0.0461
  C  C284  1  0.205400  0.198220  0.443600  1.0  0.7657
  C  C285  1  0.515300  0.143130  0.296400  1.0  -0.1194
  C  C286  1  0.438800  0.118170  0.273300  1.0  -0.0981
  C  C287  1  0.475700  0.085690  0.273200  1.0  -0.1301
  C  C288  1  0.664700  0.102790  0.322400  1.0  -0.0974
  C  C289  1  0.560200  0.911720  0.682700  1.0  -0.14
  C  C290  1  0.794600  0.849910  0.634500  1.0  0.2933
  C  C291  1  0.466500  0.890460  0.695600  1.0  -0.0331
  C  C292  1  0.482600  0.856990  0.689040  1.0  -0.1598
  C  C293  1  0.970690  0.844330  0.599120  1.0  0.4844
  C  C294  1  0.272500  0.928660  0.548090  1.0  0.7121
  C  C295  1  0.357990  0.809640  0.499530  1.0  0.7077
  C  C296  1  0.160610  0.827750  0.546420  1.0  -0.0363
  C  C297  1  0.123300  0.885330  0.571800  1.0  -0.0311
  C  C298  1  0.387300  0.833080  0.704100  1.0  0.6453
  C  C299  1  0.589600  0.844480  0.667200  1.0  -0.1308
  C  C300  1  0.682900  0.864930  0.654500  1.0  -0.1341
  C  C301  1  0.667900  0.898820  0.661600  1.0  -0.0454
  C  C302  1  0.544600  0.948220  0.693600  1.0  0.7656
  C  C303  1  0.234700  0.893130  0.546400  1.0  -0.1193
  C  C304  1  0.311200  0.868170  0.523300  1.0  -0.0981
  C  C305  1  0.274300  0.835690  0.523200  1.0  -0.13
  C  C306  1  0.085300  0.852790  0.572400  1.0  -0.0977
  C  C307  1  0.560200  0.411720  0.182700  1.0  -0.14
  C  C308  1  0.794600  0.349910  0.134500  1.0  0.2933
  C  C309  1  0.466500  0.390460  0.195600  1.0  -0.0331
  C  C310  1  0.482600  0.356990  0.189040  1.0  -0.1598
  C  C311  1  0.970690  0.344330  0.099120  1.0  0.4844
  C  C312  1  0.272500  0.428660  0.048090  1.0  0.7121
  C  C313  1  0.357990  0.309640  0.999530  1.0  0.7077
  C  C314  1  0.160610  0.327750  0.046420  1.0  -0.0363
  C  C315  1  0.123300  0.385330  0.071800  1.0  -0.0311
  C  C316  1  0.387300  0.333080  0.204100  1.0  0.6453
  C  C317  1  0.589600  0.344480  0.167200  1.0  -0.1308
  C  C318  1  0.682900  0.364930  0.154500  1.0  -0.1341
  C  C319  1  0.667900  0.398820  0.161600  1.0  -0.0454
  C  C320  1  0.544600  0.448220  0.193600  1.0  0.7656
  C  C321  1  0.234700  0.393130  0.046400  1.0  -0.1193
  C  C322  1  0.311200  0.368170  0.023300  1.0  -0.0981
  C  C323  1  0.274300  0.335690  0.023200  1.0  -0.13
  C  C324  1  0.085300  0.352790  0.072400  1.0  -0.0977
  C  C325  1  0.060200  0.911720  0.182700  1.0  -0.14
  C  C326  1  0.294600  0.849910  0.134500  1.0  0.2933
  C  C327  1  0.966500  0.890460  0.195600  1.0  -0.0331
  C  C328  1  0.982600  0.856990  0.189040  1.0  -0.1598
  C  C329  1  0.470690  0.844330  0.099120  1.0  0.4844
  C  C330  1  0.772500  0.928660  0.048090  1.0  0.7121
  C  C331  1  0.857990  0.809640  0.999530  1.0  0.7077
  C  C332  1  0.660610  0.827750  0.046420  1.0  -0.0363
  C  C333  1  0.623300  0.885330  0.071800  1.0  -0.0311
  C  C334  1  0.887300  0.833080  0.204100  1.0  0.6453
  C  C335  1  0.089600  0.844480  0.167200  1.0  -0.1308
  C  C336  1  0.182900  0.864930  0.154500  1.0  -0.1341
  C  C337  1  0.167900  0.898820  0.161600  1.0  -0.0454
  C  C338  1  0.044600  0.948220  0.193600  1.0  0.7656
  C  C339  1  0.734700  0.893130  0.046400  1.0  -0.1193
  C  C340  1  0.811200  0.868170  0.023300  1.0  -0.0981
  C  C341  1  0.774300  0.835690  0.023200  1.0  -0.13
  C  C342  1  0.585300  0.852790  0.072400  1.0  -0.0977
  C  C343  1  0.060200  0.411720  0.682700  1.0  -0.14
  C  C344  1  0.294600  0.349910  0.634500  1.0  0.2933
  C  C345  1  0.966500  0.390460  0.695600  1.0  -0.0331
  C  C346  1  0.982600  0.356990  0.689040  1.0  -0.1598
  C  C347  1  0.470690  0.344330  0.599120  1.0  0.4844
  C  C348  1  0.772500  0.428660  0.548090  1.0  0.7121
  C  C349  1  0.857990  0.309640  0.499530  1.0  0.7077
  C  C350  1  0.660610  0.327750  0.546420  1.0  -0.0363
  C  C351  1  0.623300  0.385330  0.571800  1.0  -0.0311
  C  C352  1  0.887300  0.333080  0.704100  1.0  0.6453
  C  C353  1  0.089600  0.344480  0.667200  1.0  -0.1308
  C  C354  1  0.182900  0.364930  0.654500  1.0  -0.1341
  C  C355  1  0.167900  0.398820  0.661600  1.0  -0.0454
  C  C356  1  0.044600  0.448220  0.693600  1.0  0.7656
  C  C357  1  0.734700  0.393130  0.546400  1.0  -0.1193
  C  C358  1  0.811200  0.368170  0.523300  1.0  -0.0981
  C  C359  1  0.774300  0.335690  0.523200  1.0  -0.13
  C  C360  1  0.585300  0.352790  0.572400  1.0  -0.0977
  C  C361  1  0.939800  0.588280  0.682700  1.0  -0.1397
  C  C362  1  0.705400  0.650090  0.634500  1.0  0.2948
  C  C363  1  0.033500  0.609540  0.695600  1.0  -0.033
  C  C364  1  0.017400  0.643010  0.689040  1.0  -0.1597
  C  C365  1  0.529310  0.655670  0.599120  1.0  0.4826
  C  C366  1  0.227500  0.571340  0.548090  1.0  0.7126
  C  C367  1  0.142010  0.690360  0.499530  1.0  0.7069
  C  C368  1  0.339390  0.672250  0.546420  1.0  -0.0354
  C  C369  1  0.376700  0.614670  0.571800  1.0  -0.0298
  C  C370  1  0.112700  0.666920  0.704100  1.0  0.6416
  C  C371  1  0.910400  0.655520  0.667200  1.0  -0.1312
  C  C372  1  0.817100  0.635070  0.654500  1.0  -0.1338
  C  C373  1  0.832100  0.601180  0.661600  1.0  -0.0458
  C  C374  1  0.955400  0.551780  0.693600  1.0  0.7626
  C  C375  1  0.265300  0.606870  0.546400  1.0  -0.1195
  C  C376  1  0.188800  0.631830  0.523300  1.0  -0.0982
  C  C377  1  0.225700  0.664310  0.523200  1.0  -0.1312
  C  C378  1  0.414700  0.647210  0.572400  1.0  -0.0977
  C  C379  1  0.939800  0.088280  0.182700  1.0  -0.1397
  C  C380  1  0.705400  0.150090  0.134500  1.0  0.2948
  C  C381  1  0.033500  0.109540  0.195600  1.0  -0.033
  C  C382  1  0.017400  0.143010  0.189040  1.0  -0.1597
  C  C383  1  0.529310  0.155670  0.099120  1.0  0.4826
  C  C384  1  0.227500  0.071340  0.048090  1.0  0.7126
  C  C385  1  0.142010  0.190360  0.999530  1.0  0.7069
  C  C386  1  0.339390  0.172250  0.046420  1.0  -0.0354
  C  C387  1  0.376700  0.114670  0.071800  1.0  -0.0298
  C  C388  1  0.112700  0.166920  0.204100  1.0  0.6416
  C  C389  1  0.910400  0.155520  0.167200  1.0  -0.1312
  C  C390  1  0.817100  0.135070  0.154500  1.0  -0.1338
  C  C391  1  0.832100  0.101180  0.161600  1.0  -0.0458
  C  C392  1  0.955400  0.051780  0.193600  1.0  0.7626
  C  C393  1  0.265300  0.106870  0.046400  1.0  -0.1195
  C  C394  1  0.188800  0.131830  0.023300  1.0  -0.0982
  C  C395  1  0.225700  0.164310  0.023200  1.0  -0.1312
  C  C396  1  0.414700  0.147210  0.072400  1.0  -0.0977
  C  C397  1  0.439800  0.588280  0.182700  1.0  -0.1397
  C  C398  1  0.205400  0.650090  0.134500  1.0  0.2948
  C  C399  1  0.533500  0.609540  0.195600  1.0  -0.033
  C  C400  1  0.517400  0.643010  0.189040  1.0  -0.1597
  C  C401  1  0.029310  0.655670  0.099120  1.0  0.4826
  C  C402  1  0.727500  0.571340  0.048090  1.0  0.7126
  C  C403  1  0.642010  0.690360  0.999530  1.0  0.7069
  C  C404  1  0.839390  0.672250  0.046420  1.0  -0.0354
  C  C405  1  0.876700  0.614670  0.071800  1.0  -0.0298
  C  C406  1  0.612700  0.666920  0.204100  1.0  0.6416
  C  C407  1  0.410400  0.655520  0.167200  1.0  -0.1312
  C  C408  1  0.317100  0.635070  0.154500  1.0  -0.1338
  C  C409  1  0.332100  0.601180  0.161600  1.0  -0.0458
  C  C410  1  0.455400  0.551780  0.193600  1.0  0.7626
  C  C411  1  0.765300  0.606870  0.046400  1.0  -0.1195
  C  C412  1  0.688800  0.631830  0.023300  1.0  -0.0982
  C  C413  1  0.725700  0.664310  0.023200  1.0  -0.1312
  C  C414  1  0.914700  0.647210  0.072400  1.0  -0.0977
  C  C415  1  0.439800  0.088280  0.682700  1.0  -0.1397
  C  C416  1  0.205400  0.150090  0.634500  1.0  0.2948
  C  C417  1  0.533500  0.109540  0.695600  1.0  -0.033
  C  C418  1  0.517400  0.143010  0.689040  1.0  -0.1597
  C  C419  1  0.029310  0.155670  0.599120  1.0  0.4826
  C  C420  1  0.727500  0.071340  0.548090  1.0  0.7126
  C  C421  1  0.642010  0.190360  0.499530  1.0  0.7069
  C  C422  1  0.839390  0.172250  0.546420  1.0  -0.0354
  C  C423  1  0.876700  0.114670  0.571800  1.0  -0.0298
  C  C424  1  0.612700  0.166920  0.704100  1.0  0.6416
  C  C425  1  0.410400  0.155520  0.667200  1.0  -0.1312
  C  C426  1  0.317100  0.135070  0.654500  1.0  -0.1338
  C  C427  1  0.332100  0.101180  0.661600  1.0  -0.0458
  C  C428  1  0.455400  0.051780  0.693600  1.0  0.7626
  C  C429  1  0.765300  0.106870  0.546400  1.0  -0.1195
  C  C430  1  0.688800  0.131830  0.523300  1.0  -0.0982
  C  C431  1  0.725700  0.164310  0.523200  1.0  -0.1312
  C  C432  1  0.914700  0.147210  0.572400  1.0  -0.0977
  N  N433  1  0.637600  0.382490  0.361400  1.0  -0.5175
  N  N434  1  0.685500  0.434830  0.364000  1.0  -0.3049
  N  N435  1  0.566400  0.431590  0.388800  1.0  -0.2972
  N  N436  1  0.637600  0.882490  0.861400  1.0  -0.5175
  N  N437  1  0.685500  0.934830  0.864000  1.0  -0.3049
  N  N438  1  0.566400  0.931590  0.888800  1.0  -0.2972
  N  N439  1  0.137600  0.382490  0.861400  1.0  -0.5175
  N  N440  1  0.185500  0.434830  0.864000  1.0  -0.3049
  N  N441  1  0.066400  0.431590  0.888800  1.0  -0.2972
  N  N442  1  0.137600  0.882490  0.361400  1.0  -0.5175
  N  N443  1  0.185500  0.934830  0.364000  1.0  -0.3049
  N  N444  1  0.066400  0.931590  0.388800  1.0  -0.2972
  N  N445  1  0.362400  0.617510  0.361400  1.0  -0.5176
  N  N446  1  0.314500  0.565170  0.364000  1.0  -0.3043
  N  N447  1  0.433600  0.568410  0.388800  1.0  -0.299
  N  N448  1  0.362400  0.117510  0.861400  1.0  -0.5176
  N  N449  1  0.314500  0.065170  0.864000  1.0  -0.3043
  N  N450  1  0.433600  0.068410  0.888800  1.0  -0.299
  N  N451  1  0.862400  0.617510  0.861400  1.0  -0.5176
  N  N452  1  0.814500  0.565170  0.864000  1.0  -0.3043
  N  N453  1  0.933600  0.568410  0.888800  1.0  -0.299
  N  N454  1  0.862400  0.117510  0.361400  1.0  -0.5176
  N  N455  1  0.814500  0.065170  0.364000  1.0  -0.3043
  N  N456  1  0.933600  0.068410  0.388800  1.0  -0.299
  N  N457  1  0.887600  0.867510  0.611400  1.0  -0.5178
  N  N458  1  0.935500  0.815170  0.614000  1.0  -0.3028
  N  N459  1  0.816400  0.818410  0.638800  1.0  -0.2976
  N  N460  1  0.887600  0.367510  0.111400  1.0  -0.5178
  N  N461  1  0.935500  0.315170  0.114000  1.0  -0.3028
  N  N462  1  0.816400  0.318410  0.138800  1.0  -0.2976
  N  N463  1  0.387600  0.867510  0.111400  1.0  -0.5178
  N  N464  1  0.435500  0.815170  0.114000  1.0  -0.3028
  N  N465  1  0.316400  0.818410  0.138800  1.0  -0.2976
  N  N466  1  0.387600  0.367510  0.611400  1.0  -0.5178
  N  N467  1  0.435500  0.315170  0.614000  1.0  -0.3028
  N  N468  1  0.316400  0.318410  0.638800  1.0  -0.2976
  N  N469  1  0.612400  0.632490  0.611400  1.0  -0.5171
  N  N470  1  0.564500  0.684830  0.614000  1.0  -0.3054
  N  N471  1  0.683600  0.681590  0.638800  1.0  -0.2983
  N  N472  1  0.612400  0.132490  0.111400  1.0  -0.5171
  N  N473  1  0.564500  0.184830  0.114000  1.0  -0.3054
  N  N474  1  0.683600  0.181590  0.138800  1.0  -0.2983
  N  N475  1  0.112400  0.632490  0.111400  1.0  -0.5171
  N  N476  1  0.064500  0.684830  0.114000  1.0  -0.3054
  N  N477  1  0.183600  0.681590  0.138800  1.0  -0.2983
  N  N478  1  0.112400  0.132490  0.611400  1.0  -0.5171
  N  N479  1  0.064500  0.184830  0.614000  1.0  -0.3054
  N  N480  1  0.183600  0.181590  0.638800  1.0  -0.2983
  O  O481  1  0.193000  0.290770  0.446000  1.0  -0.7192
  O  O482  1  0.040500  0.402850  0.473600  1.0  -0.4899
  O  O483  1  0.214500  0.435110  0.252100  1.0  -0.6143
  O  O484  1  0.384800  0.284830  0.451300  1.0  -0.7843
  O  O485  1  0.149300  0.446210  0.448300  1.0  -0.4932
  O  O486  1  0.960300  0.301710  0.336700  1.0  -0.6654
  O  O487  1  0.069790  0.467340  0.223230  1.0  -0.6516
  O  O488  1  0.114300  0.312950  0.264100  1.0  -0.5956
  O  O489  1  0.193000  0.790770  0.946000  1.0  -0.7192
  O  O490  1  0.040500  0.902850  0.973600  1.0  -0.4899
  O  O491  1  0.214500  0.935110  0.752100  1.0  -0.6143
  O  O492  1  0.384800  0.784830  0.951300  1.0  -0.7843
  O  O493  1  0.149300  0.946210  0.948300  1.0  -0.4932
  O  O494  1  0.960300  0.801710  0.836700  1.0  -0.6654
  O  O495  1  0.069790  0.967340  0.723230  1.0  -0.6516
  O  O496  1  0.114300  0.812950  0.764100  1.0  -0.5956
  O  O497  1  0.693000  0.290770  0.946000  1.0  -0.7192
  O  O498  1  0.540500  0.402850  0.973600  1.0  -0.4899
  O  O499  1  0.714500  0.435110  0.752100  1.0  -0.6143
  O  O500  1  0.884800  0.284830  0.951300  1.0  -0.7843
  O  O501  1  0.649300  0.446210  0.948300  1.0  -0.4932
  O  O502  1  0.460300  0.301710  0.836700  1.0  -0.6654
  O  O503  1  0.569790  0.467340  0.723230  1.0  -0.6516
  O  O504  1  0.614300  0.312950  0.764100  1.0  -0.5956
  O  O505  1  0.693000  0.790770  0.446000  1.0  -0.7192
  O  O506  1  0.540500  0.902850  0.473600  1.0  -0.4899
  O  O507  1  0.714500  0.935110  0.252100  1.0  -0.6143
  O  O508  1  0.884800  0.784830  0.451300  1.0  -0.7843
  O  O509  1  0.649300  0.946210  0.448300  1.0  -0.4932
  O  O510  1  0.460300  0.801710  0.336700  1.0  -0.6654
  O  O511  1  0.569790  0.967340  0.223230  1.0  -0.6516
  O  O512  1  0.614300  0.812950  0.264100  1.0  -0.5956
  O  O513  1  0.807000  0.709230  0.446000  1.0  -0.7197
  O  O514  1  0.959500  0.597150  0.473600  1.0  -0.4909
  O  O515  1  0.785500  0.564890  0.252100  1.0  -0.6133
  O  O516  1  0.615200  0.715170  0.451300  1.0  -0.7835
  O  O517  1  0.850700  0.553790  0.448300  1.0  -0.4941
  O  O518  1  0.039700  0.698290  0.336700  1.0  -0.6672
  O  O519  1  0.930210  0.532660  0.223230  1.0  -0.6483
  O  O520  1  0.885700  0.687050  0.264100  1.0  -0.594
  O  O521  1  0.807000  0.209230  0.946000  1.0  -0.7197
  O  O522  1  0.959500  0.097150  0.973600  1.0  -0.4909
  O  O523  1  0.785500  0.064890  0.752100  1.0  -0.6133
  O  O524  1  0.615200  0.215170  0.951300  1.0  -0.7835
  O  O525  1  0.850700  0.053790  0.948300  1.0  -0.4941
  O  O526  1  0.039700  0.198290  0.836700  1.0  -0.6672
  O  O527  1  0.930210  0.032660  0.723230  1.0  -0.6483
  O  O528  1  0.885700  0.187050  0.764100  1.0  -0.594
  O  O529  1  0.307000  0.709230  0.946000  1.0  -0.7197
  O  O530  1  0.459500  0.597150  0.973600  1.0  -0.4909
  O  O531  1  0.285500  0.564890  0.752100  1.0  -0.6133
  O  O532  1  0.115200  0.715170  0.951300  1.0  -0.7835
  O  O533  1  0.350700  0.553790  0.948300  1.0  -0.4941
  O  O534  1  0.539700  0.698290  0.836700  1.0  -0.6672
  O  O535  1  0.430210  0.532660  0.723230  1.0  -0.6483
  O  O536  1  0.385700  0.687050  0.764100  1.0  -0.594
  O  O537  1  0.307000  0.209230  0.446000  1.0  -0.7197
  O  O538  1  0.459500  0.097150  0.473600  1.0  -0.4909
  O  O539  1  0.285500  0.064890  0.252100  1.0  -0.6133
  O  O540  1  0.115200  0.215170  0.451300  1.0  -0.7835
  O  O541  1  0.350700  0.053790  0.448300  1.0  -0.4941
  O  O542  1  0.539700  0.198290  0.336700  1.0  -0.6672
  O  O543  1  0.430210  0.032660  0.223230  1.0  -0.6483
  O  O544  1  0.385700  0.187050  0.264100  1.0  -0.594
  O  O545  1  0.443000  0.959230  0.696000  1.0  -0.7196
  O  O546  1  0.290500  0.847150  0.723600  1.0  -0.4902
  O  O547  1  0.464500  0.814890  0.502100  1.0  -0.6147
  O  O548  1  0.634800  0.965170  0.701300  1.0  -0.7836
  O  O549  1  0.399300  0.803790  0.698300  1.0  -0.4937
  O  O550  1  0.210300  0.948290  0.586700  1.0  -0.6669
  O  O551  1  0.319790  0.782660  0.473230  1.0  -0.6505
  O  O552  1  0.364300  0.937050  0.514100  1.0  -0.5937
  O  O553  1  0.443000  0.459230  0.196000  1.0  -0.7196
  O  O554  1  0.290500  0.347150  0.223600  1.0  -0.4902
  O  O555  1  0.464500  0.314890  0.002100  1.0  -0.6147
  O  O556  1  0.634800  0.465170  0.201300  1.0  -0.7836
  O  O557  1  0.399300  0.303790  0.198300  1.0  -0.4937
  O  O558  1  0.210300  0.448290  0.086700  1.0  -0.6669
  O  O559  1  0.319790  0.282660  0.973230  1.0  -0.6505
  O  O560  1  0.364300  0.437050  0.014100  1.0  -0.5937
  O  O561  1  0.943000  0.959230  0.196000  1.0  -0.7196
  O  O562  1  0.790500  0.847150  0.223600  1.0  -0.4902
  O  O563  1  0.964500  0.814890  0.002100  1.0  -0.6147
  O  O564  1  0.134800  0.965170  0.201300  1.0  -0.7836
  O  O565  1  0.899300  0.803790  0.198300  1.0  -0.4937
  O  O566  1  0.710300  0.948290  0.086700  1.0  -0.6669
  O  O567  1  0.819790  0.782660  0.973230  1.0  -0.6505
  O  O568  1  0.864300  0.937050  0.014100  1.0  -0.5937
  O  O569  1  0.943000  0.459230  0.696000  1.0  -0.7196
  O  O570  1  0.790500  0.347150  0.723600  1.0  -0.4902
  O  O571  1  0.964500  0.314890  0.502100  1.0  -0.6147
  O  O572  1  0.134800  0.465170  0.701300  1.0  -0.7836
  O  O573  1  0.899300  0.303790  0.698300  1.0  -0.4937
  O  O574  1  0.710300  0.448290  0.586700  1.0  -0.6669
  O  O575  1  0.819790  0.282660  0.473230  1.0  -0.6505
  O  O576  1  0.864300  0.437050  0.514100  1.0  -0.5937
  O  O577  1  0.057000  0.540770  0.696000  1.0  -0.7194
  O  O578  1  0.209500  0.652850  0.723600  1.0  -0.4898
  O  O579  1  0.035500  0.685110  0.502100  1.0  -0.6155
  O  O580  1  0.865200  0.534830  0.701300  1.0  -0.7842
  O  O581  1  0.100700  0.696210  0.698300  1.0  -0.4935
  O  O582  1  0.289700  0.551710  0.586700  1.0  -0.6655
  O  O583  1  0.180210  0.717340  0.473230  1.0  -0.6519
  O  O584  1  0.135700  0.562950  0.514100  1.0  -0.5955
  O  O585  1  0.057000  0.040770  0.196000  1.0  -0.7194
  O  O586  1  0.209500  0.152850  0.223600  1.0  -0.4898
  O  O587  1  0.035500  0.185110  0.002100  1.0  -0.6155
  O  O588  1  0.865200  0.034830  0.201300  1.0  -0.7842
  O  O589  1  0.100700  0.196210  0.198300  1.0  -0.4935
  O  O590  1  0.289700  0.051710  0.086700  1.0  -0.6655
  O  O591  1  0.180210  0.217340  0.973230  1.0  -0.6519
  O  O592  1  0.135700  0.062950  0.014100  1.0  -0.5955
  O  O593  1  0.557000  0.540770  0.196000  1.0  -0.7194
  O  O594  1  0.709500  0.652850  0.223600  1.0  -0.4898
  O  O595  1  0.535500  0.685110  0.002100  1.0  -0.6155
  O  O596  1  0.365200  0.534830  0.201300  1.0  -0.7842
  O  O597  1  0.600700  0.696210  0.198300  1.0  -0.4935
  O  O598  1  0.789700  0.551710  0.086700  1.0  -0.6655
  O  O599  1  0.680210  0.717340  0.973230  1.0  -0.6519
  O  O600  1  0.635700  0.562950  0.014100  1.0  -0.5955
  O  O601  1  0.557000  0.040770  0.696000  1.0  -0.7194
  O  O602  1  0.709500  0.152850  0.723600  1.0  -0.4898
  O  O603  1  0.535500  0.185110  0.502100  1.0  -0.6155
  O  O604  1  0.365200  0.034830  0.701300  1.0  -0.7842
  O  O605  1  0.600700  0.196210  0.698300  1.0  -0.4935
  O  O606  1  0.789700  0.051710  0.586700  1.0  -0.6655
  O  O607  1  0.680210  0.217340  0.473230  1.0  -0.6519
  O  O608  1  0.635700  0.062950  0.514100  1.0  -0.5955
