# generated using pymatgen
data_Dy3H25C52N9O20
_symmetry_space_group_name_H-M   'P 1'
_cell_length_a   15.15890000
_cell_length_b   16.86090000
_cell_length_c   16.97000000
_cell_angle_alpha   110.90200000
_cell_angle_beta   92.49000000
_cell_angle_gamma   98.55200000
_symmetry_Int_Tables_number   1
_chemical_formula_structural   Dy3H25C52N9O20
_chemical_formula_sum   'Dy6 H50 C104 N18 O40'
_cell_volume   3984.99851345
_cell_formula_units_Z   2
loop_
 _symmetry_equiv_pos_site_id
 _symmetry_equiv_pos_as_xyz
  1  'x, y, z'
loop_
 _atom_site_type_symbol
 _atom_site_label
 _atom_site_symmetry_multiplicity
 _atom_site_fract_x
 _atom_site_fract_y
 _atom_site_fract_z
 _atom_site_occupancy
 _atom_site_charge
  Dy  Dy1  1  0.058440  0.621890  0.028390  1.0  2.228
  Dy  Dy2  1  0.012320  0.861190  0.145830  1.0  2.2515
  Dy  Dy3  1  0.950160  0.970720  0.381340  1.0  2.2242
  Dy  Dy4  1  0.941560  0.378110  0.971610  1.0  2.2314
  Dy  Dy5  1  0.987680  0.138810  0.854170  1.0  2.2524
  Dy  Dy6  1  0.049840  0.029280  0.618660  1.0  2.2238
  H  H7  1  0.448500  0.913300  0.522400  1.0  0.2954
  H  H8  1  0.081300  0.708200  0.564500  1.0  0.3021
  H  H9  1  0.460500  0.528400  0.910200  1.0  0.2958
  H  H10  1  0.841200  0.905700  0.578200  1.0  0.0951
  H  H11  1  0.721900  0.840800  0.472200  1.0  0.1116
  H  H12  1  0.553000  0.956900  0.638000  1.0  0.1205
  H  H13  1  0.672300  0.020100  0.742800  1.0  0.113
  H  H14  1  0.327200  0.753700  0.252400  1.0  0.1055
  H  H15  1  0.092600  0.834600  0.320900  1.0  0.1049
  H  H16  1  0.310700  0.911700  0.493800  1.0  0.1082
  H  H17  1  0.080700  0.922300  0.922600  1.0  0.1148
  H  H18  1  0.104900  0.822200  0.670800  1.0  0.1136
  H  H19  1  0.126400  0.677300  0.815700  1.0  0.1111
  H  H20  1  0.080000  0.436000  0.391500  1.0  0.1134
  H  H21  1  0.050400  0.404500  0.247300  1.0  0.1205
  H  H22  1  0.071800  0.660000  0.292900  1.0  0.0881
  H  H23  1  0.098200  0.691700  0.438400  1.0  0.1203
  H  H24  1  0.861900  0.584900  0.909400  1.0  0.0968
  H  H25  1  0.737400  0.477100  0.842800  1.0  0.1123
  H  H26  1  0.573900  0.641400  0.964600  1.0  0.1185
  H  H27  1  0.698000  0.747900  0.030400  1.0  0.112
  H  H28  1  0.326900  0.253600  0.755600  1.0  0.1094
  H  H29  1  0.090900  0.323200  0.833300  1.0  0.1031
  H  H30  1  0.321600  0.496100  0.915800  1.0  0.1094
  H  H31  1  0.944900  0.770500  0.478200  1.0  0.0385
  H  H32  1  0.551500  0.086700  0.477600  1.0  0.2962
  H  H33  1  0.918700  0.291800  0.435500  1.0  0.3006
  H  H34  1  0.539500  0.471600  0.089800  1.0  0.2977
  H  H35  1  0.158800  0.094300  0.421800  1.0  0.0962
  H  H36  1  0.278100  0.159200  0.527800  1.0  0.1113
  H  H37  1  0.447000  0.043100  0.362000  1.0  0.1211
  H  H38  1  0.327700  0.979900  0.257200  1.0  0.1128
  H  H39  1  0.672800  0.246300  0.747600  1.0  0.1052
  H  H40  1  0.907400  0.165400  0.679100  1.0  0.1054
  H  H41  1  0.689300  0.088300  0.506200  1.0  0.1088
  H  H42  1  0.919300  0.077700  0.077400  1.0  0.1138
  H  H43  1  0.895100  0.177800  0.329200  1.0  0.1146
  H  H44  1  0.873600  0.322700  0.184300  1.0  0.1116
  H  H45  1  0.920000  0.564000  0.608500  1.0  0.1149
  H  H46  1  0.949600  0.595500  0.752700  1.0  0.1212
  H  H47  1  0.928200  0.340000  0.707100  1.0  0.0886
  H  H48  1  0.901800  0.308300  0.561600  1.0  0.1203
  H  H49  1  0.138100  0.415100  0.090600  1.0  0.0969
  H  H50  1  0.262600  0.522900  0.157200  1.0  0.1123
  H  H51  1  0.426100  0.358600  0.035400  1.0  0.1183
  H  H52  1  0.302000  0.252100  0.969600  1.0  0.1122
  H  H53  1  0.673100  0.746400  0.244400  1.0  0.1098
  H  H54  1  0.909100  0.676800  0.166700  1.0  0.1032
  H  H55  1  0.678400  0.503900  0.084200  1.0  0.1094
  H  H56  1  0.055100  0.229500  0.521800  1.0  0.0367
  C  C57  1  0.847000  0.021600  0.733200  1.0  0.6936
  C  C58  1  0.768900  0.971400  0.670100  1.0  -0.156
  C  C59  1  0.782500  0.916600  0.589800  1.0  -0.0589
  C  C60  1  0.712000  0.878000  0.526800  1.0  -0.0476
  C  C61  1  0.625300  0.894500  0.544500  1.0  -0.0352
  C  C62  1  0.611800  0.946900  0.625400  1.0  -0.0894
  C  C63  1  0.682500  0.984700  0.687500  1.0  -0.052
  C  C64  1  0.551700  0.858000  0.475400  1.0  0.3886
  C  C65  1  0.426400  0.830800  0.401900  1.0  0.3722
  C  C66  1  0.333700  0.831700  0.377000  1.0  0.0166
  C  C67  1  0.293600  0.786300  0.294200  1.0  -0.0247
  C  C68  1  0.203800  0.788700  0.272500  1.0  -0.138
  C  C69  1  0.163000  0.743400  0.183400  1.0  0.677
  C  C70  1  0.154100  0.835000  0.334800  1.0  -0.0404
  C  C71  1  0.194200  0.881600  0.416800  1.0  -0.1305
  C  C72  1  0.146900  0.938500  0.483100  1.0  0.7014
  C  C73  1  0.283500  0.879800  0.437600  1.0  -0.083
  C  C74  1  0.100500  0.790400  0.966200  1.0  0.7712
  C  C75  1  0.104500  0.799700  0.881700  1.0  -0.1292
  C  C76  1  0.090700  0.875600  0.874200  1.0  0.0017
  C  C77  1  0.091400  0.883800  0.795300  1.0  -0.1395
  C  C78  1  0.073400  0.966100  0.787200  1.0  0.7577
  C  C79  1  0.104200  0.816000  0.724200  1.0  -0.1088
  C  C80  1  0.116300  0.737200  0.731300  1.0  -0.0155
  C  C81  1  0.117200  0.729700  0.810200  1.0  -0.0533
  C  C82  1  0.121400  0.665100  0.653600  1.0  0.3309
  C  C83  1  0.109200  0.588600  0.521800  1.0  0.2548
  C  C84  1  0.091600  0.567500  0.429400  1.0  -0.0446
  C  C85  1  0.077400  0.481500  0.371300  1.0  -0.0318
  C  C86  1  0.059700  0.462600  0.285900  1.0  -0.0148
  C  C87  1  0.055500  0.528900  0.256400  1.0  -0.1459
  C  C88  1  0.038200  0.513600  0.165100  1.0  0.6666
  C  C89  1  0.072100  0.614500  0.313500  1.0  -0.0207
  C  C90  1  0.088800  0.633500  0.399800  1.0  -0.1219
  C  C91  1  0.871200  0.739300  0.029700  1.0  0.6759
  C  C92  1  0.792200  0.676700  0.978500  1.0  -0.1385
  C  C93  1  0.803200  0.595900  0.921300  1.0  -0.0889
  C  C94  1  0.729300  0.531500  0.881800  1.0  -0.0257
  C  C95  1  0.643700  0.547200  0.899700  1.0  -0.0588
  C  C96  1  0.632500  0.629400  0.954400  1.0  -0.1109
  C  C97  1  0.706200  0.692700  0.993200  1.0  -0.0327
  C  C98  1  0.567400  0.476100  0.864200  1.0  0.3795
  C  C99  1  0.435900  0.403500  0.837800  1.0  0.3776
  C  C100  1  0.338700  0.377800  0.835400  1.0  -0.0562
  C  C101  1  0.294600  0.295900  0.788300  1.0  -0.0301
  C  C102  1  0.201100  0.274800  0.788700  1.0  -0.135
  C  C103  1  0.153500  0.184700  0.739200  1.0  0.6548
  C  C104  1  0.154200  0.337000  0.835000  1.0  -0.0539
  C  C105  1  0.198500  0.419600  0.884000  1.0  -0.1562
  C  C106  1  0.151800  0.486600  0.939400  1.0  0.7067
  C  C107  1  0.290800  0.439500  0.883200  1.0  -0.0886
  C  C108  1  0.951700  0.830200  0.487500  1.0  0.6653
  C  C109  1  0.153000  0.978400  0.266800  1.0  0.6975
  C  C110  1  0.231100  0.028600  0.329900  1.0  -0.1591
  C  C111  1  0.217500  0.083400  0.410200  1.0  -0.0581
  C  C112  1  0.288000  0.122000  0.473200  1.0  -0.0505
  C  C113  1  0.374700  0.105500  0.455500  1.0  -0.0342
  C  C114  1  0.388200  0.053100  0.374600  1.0  -0.0891
  C  C115  1  0.317500  0.015300  0.312500  1.0  -0.0537
  C  C116  1  0.448300  0.142000  0.524600  1.0  0.3847
  C  C117  1  0.573600  0.169200  0.598100  1.0  0.3716
  C  C118  1  0.666300  0.168300  0.623000  1.0  0.0145
  C  C119  1  0.706400  0.213700  0.705800  1.0  -0.0248
  C  C120  1  0.796200  0.211300  0.727500  1.0  -0.1367
  C  C121  1  0.837000  0.256600  0.816600  1.0  0.6763
  C  C122  1  0.845900  0.165000  0.665200  1.0  -0.0403
  C  C123  1  0.805800  0.118400  0.583200  1.0  -0.1309
  C  C124  1  0.853100  0.061500  0.516900  1.0  0.7006
  C  C125  1  0.716500  0.120200  0.562400  1.0  -0.0829
  C  C126  1  0.899500  0.209600  0.033800  1.0  0.771
  C  C127  1  0.895500  0.200300  0.118300  1.0  -0.1287
  C  C128  1  0.909300  0.124400  0.125800  1.0  0.0026
  C  C129  1  0.908600  0.116200  0.204700  1.0  -0.1395
  C  C130  1  0.926600  0.033900  0.212800  1.0  0.7573
  C  C131  1  0.895800  0.184000  0.275800  1.0  -0.1083
  C  C132  1  0.883700  0.262800  0.268700  1.0  -0.0141
  C  C133  1  0.882800  0.270300  0.189800  1.0  -0.0532
  C  C134  1  0.878600  0.334900  0.346400  1.0  0.3334
  C  C135  1  0.890800  0.411400  0.478200  1.0  0.2527
  C  C136  1  0.908400  0.432500  0.570600  1.0  -0.0451
  C  C137  1  0.922600  0.518500  0.628700  1.0  -0.0324
  C  C138  1  0.940300  0.537400  0.714100  1.0  -0.015
  C  C139  1  0.944500  0.471100  0.743600  1.0  -0.1455
  C  C140  1  0.961800  0.486400  0.834900  1.0  0.6669
  C  C141  1  0.927900  0.385500  0.686500  1.0  -0.0217
  C  C142  1  0.911200  0.366500  0.600200  1.0  -0.1215
  C  C143  1  0.128800  0.260700  0.970300  1.0  0.675
  C  C144  1  0.207800  0.323300  0.021500  1.0  -0.1381
  C  C145  1  0.196800  0.404100  0.078700  1.0  -0.087
  C  C146  1  0.270700  0.468500  0.118200  1.0  -0.025
  C  C147  1  0.356300  0.452800  0.100300  1.0  -0.0568
  C  C148  1  0.367500  0.370600  0.045600  1.0  -0.1093
  C  C149  1  0.293800  0.307300  0.006800  1.0  -0.0338
  C  C150  1  0.432600  0.523900  0.135800  1.0  0.3779
  C  C151  1  0.564100  0.596500  0.162200  1.0  0.3796
  C  C152  1  0.661300  0.622200  0.164600  1.0  -0.0558
  C  C153  1  0.705400  0.704100  0.211700  1.0  -0.0322
  C  C154  1  0.798900  0.725200  0.211300  1.0  -0.1349
  C  C155  1  0.846500  0.815300  0.260800  1.0  0.6538
  C  C156  1  0.845800  0.663000  0.165000  1.0  -0.0547
  C  C157  1  0.801500  0.580400  0.116000  1.0  -0.1562
  C  C158  1  0.848200  0.513400  0.060600  1.0  0.705
  C  C159  1  0.709200  0.560500  0.116800  1.0  -0.0898
  C  C160  1  0.048300  0.169800  0.512500  1.0  0.667
  N  N161  1  0.469700  0.877500  0.478900  1.0  -0.2787
  N  N162  1  0.480500  0.785900  0.353200  1.0  -0.2333
  N  N163  1  0.561800  0.802100  0.399500  1.0  -0.3363
  N  N164  1  0.137200  0.543300  0.562100  1.0  -0.2199
  N  N165  1  0.144000  0.591300  0.648500  1.0  -0.3147
  N  N166  1  0.098900  0.666000  0.576500  1.0  -0.2763
  N  N167  1  0.491600  0.352100  0.798900  1.0  -0.2291
  N  N168  1  0.577600  0.398200  0.816900  1.0  -0.3447
  N  N169  1  0.481500  0.482300  0.879500  1.0  -0.2957
  N  N170  1  0.530300  0.122500  0.521100  1.0  -0.2767
  N  N171  1  0.519500  0.214100  0.646800  1.0  -0.2331
  N  N172  1  0.438200  0.197900  0.600500  1.0  -0.3354
  N  N173  1  0.862800  0.456700  0.437900  1.0  -0.2172
  N  N174  1  0.856000  0.408700  0.351500  1.0  -0.3105
  N  N175  1  0.901100  0.334000  0.423500  1.0  -0.2755
  N  N176  1  0.508400  0.647900  0.201100  1.0  -0.2292
  N  N177  1  0.422400  0.601800  0.183100  1.0  -0.3455
  N  N178  1  0.518500  0.517700  0.120500  1.0  -0.2943
  O  O179  1  0.926800  0.028900  0.709130  1.0  -0.8243
  O  O180  1  0.835700  0.060800  0.809400  1.0  -0.6426
  O  O181  1  0.202400  0.695600  0.128000  1.0  -0.6707
  O  O182  1  0.082100  0.753400  0.164260  1.0  -0.7883
  O  O183  1  0.076600  0.964600  0.461700  1.0  -0.8182
  O  O184  1  0.175000  0.962500  0.560000  1.0  -0.6255
  O  O185  1  0.035500  0.014300  0.845000  1.0  -0.6344
  O  O186  1  0.097200  0.980300  0.722100  1.0  -0.7038
  O  O187  1  0.074100  0.850700  0.023880  1.0  -0.694
  O  O188  1  0.121300  0.724000  0.974900  1.0  -0.6946
  O  O189  1  0.998300  0.439500  0.115900  1.0  -0.6161
  O  O190  1  0.066700  0.575400  0.142200  1.0  -0.6475
  O  O191  1  0.863400  0.815800  0.071500  1.0  -0.6455
  O  O192  1  0.947400  0.714600  0.034600  1.0  -0.7635
  O  O193  1  0.192400  0.131100  0.689900  1.0  -0.6365
  O  O194  1  0.070000  0.164400  0.748770  1.0  -0.7313
  O  O195  1  0.077900  0.463500  0.966500  1.0  -0.7887
  O  O196  1  0.184300  0.564700  0.960400  1.0  -0.6373
  O  O197  1  0.924100  0.849700  0.426600  1.0  -0.6581
  O  O198  1  0.987400  0.882500  0.559700  1.0  -0.6335
  O  O199  1  0.073200  0.971100  0.290870  1.0  -0.8207
  O  O200  1  0.164300  0.939200  0.190600  1.0  -0.6391
  O  O201  1  0.797600  0.304400  0.872000  1.0  -0.6677
  O  O202  1  0.917900  0.246600  0.835740  1.0  -0.7893
  O  O203  1  0.923400  0.035400  0.538300  1.0  -0.818
  O  O204  1  0.825000  0.037500  0.440000  1.0  -0.6252
  O  O205  1  0.964500  0.985700  0.155000  1.0  -0.6368
  O  O206  1  0.902800  0.019700  0.277900  1.0  -0.7049
  O  O207  1  0.925900  0.149300  0.976120  1.0  -0.6955
  O  O208  1  0.878700  0.276000  0.025100  1.0  -0.6936
  O  O209  1  0.001700  0.560500  0.884100  1.0  -0.6157
  O  O210  1  0.933300  0.424600  0.857800  1.0  -0.6488
  O  O211  1  0.136600  0.184200  0.928500  1.0  -0.645
  O  O212  1  0.052600  0.285400  0.965400  1.0  -0.7647
  O  O213  1  0.807600  0.868900  0.310100  1.0  -0.6348
  O  O214  1  0.930000  0.835600  0.251230  1.0  -0.7312
  O  O215  1  0.922100  0.536500  0.033500  1.0  -0.7892
  O  O216  1  0.815700  0.435300  0.039600  1.0  -0.6386
  O  O217  1  0.075900  0.150300  0.573400  1.0  -0.656
  O  O218  1  0.012600  0.117500  0.440300  1.0  -0.6328
