# generated using pymatgen
data_GdH8C18N3O8
_symmetry_space_group_name_H-M   'P 1'
_cell_length_a   11.54860000
_cell_length_b   40.86350000
_cell_length_c   16.77770000
_cell_angle_alpha   90.00000000
_cell_angle_beta   90.00000000
_cell_angle_gamma   90.00000000
_symmetry_Int_Tables_number   1
_chemical_formula_structural   GdH8C18N3O8
_chemical_formula_sum   'Gd16 H128 C288 N48 O128'
_cell_volume   7917.66869886
_cell_formula_units_Z   16
loop_
 _symmetry_equiv_pos_site_id
 _symmetry_equiv_pos_as_xyz
  1  'x, y, z'
loop_
 _atom_site_type_symbol
 _atom_site_label
 _atom_site_symmetry_multiplicity
 _atom_site_fract_x
 _atom_site_fract_y
 _atom_site_fract_z
 _atom_site_occupancy
 _atom_site_charge
  Gd  Gd1  1  0.731390  0.514450  0.712800  1.0  2.1743
  Gd  Gd2  1  0.731390  0.014450  0.212800  1.0  2.1743
  Gd  Gd3  1  0.231390  0.514450  0.212800  1.0  2.1743
  Gd  Gd4  1  0.231390  0.014450  0.712800  1.0  2.1743
  Gd  Gd5  1  0.268610  0.485550  0.712800  1.0  2.1744
  Gd  Gd6  1  0.268610  0.985550  0.212800  1.0  2.1744
  Gd  Gd7  1  0.768610  0.485550  0.212800  1.0  2.1744
  Gd  Gd8  1  0.768610  0.985550  0.712800  1.0  2.1744
  Gd  Gd9  1  0.981390  0.735550  0.962800  1.0  2.1744
  Gd  Gd10  1  0.981390  0.235550  0.462800  1.0  2.1744
  Gd  Gd11  1  0.481390  0.735550  0.462800  1.0  2.1744
  Gd  Gd12  1  0.481390  0.235550  0.962800  1.0  2.1744
  Gd  Gd13  1  0.518610  0.764450  0.962800  1.0  2.1736
  Gd  Gd14  1  0.518610  0.264450  0.462800  1.0  2.1736
  Gd  Gd15  1  0.018610  0.764450  0.462800  1.0  2.1736
  Gd  Gd16  1  0.018610  0.264450  0.962800  1.0  2.1736
  H  H17  1  0.608800  0.600200  0.737400  1.0  0.1237
  H  H18  1  0.865300  0.693500  0.573300  1.0  0.1233
  H  H19  1  0.928800  0.597200  0.613500  1.0  0.1235
  H  H20  1  0.402800  0.677700  0.686300  1.0  0.1272
  H  H21  1  0.612500  0.626600  0.535900  1.0  0.1143
  H  H22  1  0.269500  0.585600  0.682000  1.0  0.1275
  H  H23  1  0.752000  0.665900  0.774000  1.0  0.4076
  H  H24  1  0.048000  0.692000  0.596000  1.0  0.2945
  H  H25  1  0.608800  0.100200  0.237400  1.0  0.1237
  H  H26  1  0.865300  0.193500  0.073300  1.0  0.1233
  H  H27  1  0.928800  0.097200  0.113500  1.0  0.1235
  H  H28  1  0.402800  0.177700  0.186300  1.0  0.1272
  H  H29  1  0.612500  0.126600  0.035900  1.0  0.1143
  H  H30  1  0.269500  0.085600  0.182000  1.0  0.1275
  H  H31  1  0.752000  0.165900  0.274000  1.0  0.4076
  H  H32  1  0.048000  0.192000  0.096000  1.0  0.2945
  H  H33  1  0.108800  0.600200  0.237400  1.0  0.1237
  H  H34  1  0.365300  0.693500  0.073300  1.0  0.1233
  H  H35  1  0.428800  0.597200  0.113500  1.0  0.1235
  H  H36  1  0.902800  0.677700  0.186300  1.0  0.1272
  H  H37  1  0.112500  0.626600  0.035900  1.0  0.1143
  H  H38  1  0.769500  0.585600  0.182000  1.0  0.1275
  H  H39  1  0.252000  0.665900  0.274000  1.0  0.4076
  H  H40  1  0.548000  0.692000  0.096000  1.0  0.2945
  H  H41  1  0.108800  0.100200  0.737400  1.0  0.1237
  H  H42  1  0.365300  0.193500  0.573300  1.0  0.1233
  H  H43  1  0.428800  0.097200  0.613500  1.0  0.1235
  H  H44  1  0.902800  0.177700  0.686300  1.0  0.1272
  H  H45  1  0.112500  0.126600  0.535900  1.0  0.1143
  H  H46  1  0.769500  0.085600  0.682000  1.0  0.1275
  H  H47  1  0.252000  0.165900  0.774000  1.0  0.4076
  H  H48  1  0.548000  0.192000  0.596000  1.0  0.2945
  H  H49  1  0.391200  0.399800  0.737400  1.0  0.1236
  H  H50  1  0.134700  0.306500  0.573300  1.0  0.125
  H  H51  1  0.071200  0.402800  0.613500  1.0  0.1239
  H  H52  1  0.597200  0.322300  0.686300  1.0  0.1279
  H  H53  1  0.387500  0.373400  0.535900  1.0  0.1144
  H  H54  1  0.730500  0.414400  0.682000  1.0  0.1277
  H  H55  1  0.248000  0.334100  0.774000  1.0  0.4088
  H  H56  1  0.952000  0.308000  0.596000  1.0  0.2934
  H  H57  1  0.391200  0.899800  0.237400  1.0  0.1236
  H  H58  1  0.134700  0.806500  0.073300  1.0  0.125
  H  H59  1  0.071200  0.902800  0.113500  1.0  0.1239
  H  H60  1  0.597200  0.822300  0.186300  1.0  0.1279
  H  H61  1  0.387500  0.873400  0.035900  1.0  0.1144
  H  H62  1  0.730500  0.914400  0.182000  1.0  0.1277
  H  H63  1  0.248000  0.834100  0.274000  1.0  0.4088
  H  H64  1  0.952000  0.808000  0.096000  1.0  0.2934
  H  H65  1  0.891200  0.399800  0.237400  1.0  0.1236
  H  H66  1  0.634700  0.306500  0.073300  1.0  0.125
  H  H67  1  0.571200  0.402800  0.113500  1.0  0.1239
  H  H68  1  0.097200  0.322300  0.186300  1.0  0.1279
  H  H69  1  0.887500  0.373400  0.035900  1.0  0.1144
  H  H70  1  0.230500  0.414400  0.182000  1.0  0.1277
  H  H71  1  0.748000  0.334100  0.274000  1.0  0.4088
  H  H72  1  0.452000  0.308000  0.096000  1.0  0.2934
  H  H73  1  0.891200  0.899800  0.737400  1.0  0.1236
  H  H74  1  0.634700  0.806500  0.573300  1.0  0.125
  H  H75  1  0.571200  0.902800  0.613500  1.0  0.1239
  H  H76  1  0.097200  0.822300  0.686300  1.0  0.1279
  H  H77  1  0.887500  0.873400  0.535900  1.0  0.1144
  H  H78  1  0.230500  0.914400  0.682000  1.0  0.1277
  H  H79  1  0.748000  0.834100  0.774000  1.0  0.4088
  H  H80  1  0.452000  0.808000  0.596000  1.0  0.2934
  H  H81  1  0.858800  0.649800  0.987400  1.0  0.1235
  H  H82  1  0.115300  0.556500  0.823300  1.0  0.1248
  H  H83  1  0.178800  0.652800  0.863500  1.0  0.1233
  H  H84  1  0.652800  0.572300  0.936300  1.0  0.1281
  H  H85  1  0.862500  0.623400  0.785900  1.0  0.1145
  H  H86  1  0.519500  0.664400  0.932000  1.0  0.1284
  H  H87  1  0.002000  0.584100  0.024000  1.0  0.4094
  H  H88  1  0.298000  0.558000  0.846000  1.0  0.293
  H  H89  1  0.858800  0.149800  0.487400  1.0  0.1235
  H  H90  1  0.115300  0.056500  0.323300  1.0  0.1248
  H  H91  1  0.178800  0.152800  0.363500  1.0  0.1233
  H  H92  1  0.652800  0.072300  0.436300  1.0  0.1281
  H  H93  1  0.862500  0.123400  0.285900  1.0  0.1145
  H  H94  1  0.519500  0.164400  0.432000  1.0  0.1284
  H  H95  1  0.002000  0.084100  0.524000  1.0  0.4094
  H  H96  1  0.298000  0.058000  0.346000  1.0  0.293
  H  H97  1  0.358800  0.649800  0.487400  1.0  0.1235
  H  H98  1  0.615300  0.556500  0.323300  1.0  0.1248
  H  H99  1  0.678800  0.652800  0.363500  1.0  0.1233
  H  H100  1  0.152800  0.572300  0.436300  1.0  0.1281
  H  H101  1  0.362500  0.623400  0.285900  1.0  0.1145
  H  H102  1  0.019500  0.664400  0.432000  1.0  0.1284
  H  H103  1  0.502000  0.584100  0.524000  1.0  0.4094
  H  H104  1  0.798000  0.558000  0.346000  1.0  0.293
  H  H105  1  0.358800  0.149800  0.987400  1.0  0.1235
  H  H106  1  0.615300  0.056500  0.823300  1.0  0.1248
  H  H107  1  0.678800  0.152800  0.863500  1.0  0.1233
  H  H108  1  0.152800  0.072300  0.936300  1.0  0.1281
  H  H109  1  0.362500  0.123400  0.785900  1.0  0.1145
  H  H110  1  0.019500  0.164400  0.932000  1.0  0.1284
  H  H111  1  0.502000  0.084100  0.024000  1.0  0.4094
  H  H112  1  0.798000  0.058000  0.846000  1.0  0.293
  H  H113  1  0.641200  0.850200  0.987400  1.0  0.1234
  H  H114  1  0.384700  0.943500  0.823300  1.0  0.1236
  H  H115  1  0.321200  0.847200  0.863500  1.0  0.1234
  H  H116  1  0.847200  0.927700  0.936300  1.0  0.1265
  H  H117  1  0.637500  0.876600  0.785900  1.0  0.1143
  H  H118  1  0.980500  0.835600  0.932000  1.0  0.1273
  H  H119  1  0.498000  0.915900  0.024000  1.0  0.4078
  H  H120  1  0.202000  0.942000  0.846000  1.0  0.2944
  H  H121  1  0.641200  0.350200  0.487400  1.0  0.1234
  H  H122  1  0.384700  0.443500  0.323300  1.0  0.1236
  H  H123  1  0.321200  0.347200  0.363500  1.0  0.1234
  H  H124  1  0.847200  0.427700  0.436300  1.0  0.1265
  H  H125  1  0.637500  0.376600  0.285900  1.0  0.1143
  H  H126  1  0.980500  0.335600  0.432000  1.0  0.1273
  H  H127  1  0.498000  0.415900  0.524000  1.0  0.4078
  H  H128  1  0.202000  0.442000  0.346000  1.0  0.2944
  H  H129  1  0.141200  0.850200  0.487400  1.0  0.1234
  H  H130  1  0.884700  0.943500  0.323300  1.0  0.1236
  H  H131  1  0.821200  0.847200  0.363500  1.0  0.1234
  H  H132  1  0.347200  0.927700  0.436300  1.0  0.1265
  H  H133  1  0.137500  0.876600  0.285900  1.0  0.1143
  H  H134  1  0.480500  0.835600  0.432000  1.0  0.1273
  H  H135  1  0.998000  0.915900  0.524000  1.0  0.4078
  H  H136  1  0.702000  0.942000  0.346000  1.0  0.2944
  H  H137  1  0.141200  0.350200  0.987400  1.0  0.1234
  H  H138  1  0.884700  0.443500  0.823300  1.0  0.1236
  H  H139  1  0.821200  0.347200  0.863500  1.0  0.1234
  H  H140  1  0.347200  0.427700  0.936300  1.0  0.1265
  H  H141  1  0.137500  0.376600  0.785900  1.0  0.1143
  H  H142  1  0.480500  0.335600  0.932000  1.0  0.1273
  H  H143  1  0.998000  0.415900  0.024000  1.0  0.4078
  H  H144  1  0.702000  0.442000  0.846000  1.0  0.2944
  C  C145  1  0.442800  0.587700  0.710200  1.0  -0.1553
  C  C146  1  0.207200  0.648900  0.660500  1.0  0.2862
  C  C147  1  0.535100  0.608700  0.723100  1.0  -0.0308
  C  C148  1  0.727100  0.571510  0.574700  1.0  0.7086
  C  C149  1  0.518800  0.642400  0.715000  1.0  -0.1605
  C  C150  1  0.839300  0.671420  0.574800  1.0  -0.1203
  C  C151  1  0.877200  0.614220  0.598400  1.0  -0.0578
  C  C152  1  0.031800  0.654680  0.625600  1.0  0.4281
  C  C153  1  0.412300  0.654730  0.692800  1.0  -0.0095
  C  C154  1  0.643700  0.690430  0.527300  1.0  0.7003
  C  C155  1  0.727200  0.663990  0.551900  1.0  -0.1259
  C  C156  1  0.318800  0.633920  0.679900  1.0  -0.0584
  C  C157  1  0.689400  0.631740  0.551700  1.0  -0.0898
  C  C158  1  0.613700  0.666350  0.731000  1.0  0.6639
  C  C159  1  0.333100  0.600030  0.689500  1.0  -0.0066
  C  C160  1  0.765100  0.606920  0.574800  1.0  -0.1177
  C  C161  1  0.456300  0.551340  0.723400  1.0  0.7243
  C  C162  1  0.913800  0.646940  0.599700  1.0  -0.1203
  C  C163  1  0.442800  0.087700  0.210200  1.0  -0.1553
  C  C164  1  0.207200  0.148900  0.160500  1.0  0.2862
  C  C165  1  0.535100  0.108700  0.223100  1.0  -0.0308
  C  C166  1  0.727100  0.071510  0.074700  1.0  0.7086
  C  C167  1  0.518800  0.142400  0.215000  1.0  -0.1605
  C  C168  1  0.839300  0.171420  0.074800  1.0  -0.1203
  C  C169  1  0.877200  0.114220  0.098400  1.0  -0.0578
  C  C170  1  0.031800  0.154680  0.125600  1.0  0.4281
  C  C171  1  0.412300  0.154730  0.192800  1.0  -0.0095
  C  C172  1  0.643700  0.190430  0.027300  1.0  0.7003
  C  C173  1  0.727200  0.163990  0.051900  1.0  -0.1259
  C  C174  1  0.318800  0.133920  0.179900  1.0  -0.0584
  C  C175  1  0.689400  0.131740  0.051700  1.0  -0.0898
  C  C176  1  0.613700  0.166350  0.231000  1.0  0.6639
  C  C177  1  0.333100  0.100030  0.189500  1.0  -0.0066
  C  C178  1  0.765100  0.106920  0.074800  1.0  -0.1177
  C  C179  1  0.456300  0.051340  0.223400  1.0  0.7243
  C  C180  1  0.913800  0.146940  0.099700  1.0  -0.1203
  C  C181  1  0.942800  0.587700  0.210200  1.0  -0.1553
  C  C182  1  0.707200  0.648900  0.160500  1.0  0.2862
  C  C183  1  0.035100  0.608700  0.223100  1.0  -0.0308
  C  C184  1  0.227100  0.571510  0.074700  1.0  0.7086
  C  C185  1  0.018800  0.642400  0.215000  1.0  -0.1605
  C  C186  1  0.339300  0.671420  0.074800  1.0  -0.1203
  C  C187  1  0.377200  0.614220  0.098400  1.0  -0.0578
  C  C188  1  0.531800  0.654680  0.125600  1.0  0.4281
  C  C189  1  0.912300  0.654730  0.192800  1.0  -0.0095
  C  C190  1  0.143700  0.690430  0.027300  1.0  0.7003
  C  C191  1  0.227200  0.663990  0.051900  1.0  -0.1259
  C  C192  1  0.818800  0.633920  0.179900  1.0  -0.0584
  C  C193  1  0.189400  0.631740  0.051700  1.0  -0.0898
  C  C194  1  0.113700  0.666350  0.231000  1.0  0.6639
  C  C195  1  0.833100  0.600030  0.189500  1.0  -0.0066
  C  C196  1  0.265100  0.606920  0.074800  1.0  -0.1177
  C  C197  1  0.956300  0.551340  0.223400  1.0  0.7243
  C  C198  1  0.413800  0.646940  0.099700  1.0  -0.1203
  C  C199  1  0.942800  0.087700  0.710200  1.0  -0.1553
  C  C200  1  0.707200  0.148900  0.660500  1.0  0.2862
  C  C201  1  0.035100  0.108700  0.723100  1.0  -0.0308
  C  C202  1  0.227100  0.071510  0.574700  1.0  0.7086
  C  C203  1  0.018800  0.142400  0.715000  1.0  -0.1605
  C  C204  1  0.339300  0.171420  0.574800  1.0  -0.1203
  C  C205  1  0.377200  0.114220  0.598400  1.0  -0.0578
  C  C206  1  0.531800  0.154680  0.625600  1.0  0.4281
  C  C207  1  0.912300  0.154730  0.692800  1.0  -0.0095
  C  C208  1  0.143700  0.190430  0.527300  1.0  0.7003
  C  C209  1  0.227200  0.163990  0.551900  1.0  -0.1259
  C  C210  1  0.818800  0.133920  0.679900  1.0  -0.0584
  C  C211  1  0.189400  0.131740  0.551700  1.0  -0.0898
  C  C212  1  0.113700  0.166350  0.731000  1.0  0.6639
  C  C213  1  0.833100  0.100030  0.689500  1.0  -0.0066
  C  C214  1  0.265100  0.106920  0.574800  1.0  -0.1177
  C  C215  1  0.956300  0.051340  0.723400  1.0  0.7243
  C  C216  1  0.413800  0.146940  0.599700  1.0  -0.1203
  C  C217  1  0.557200  0.412300  0.710200  1.0  -0.1561
  C  C218  1  0.792800  0.351100  0.660500  1.0  0.2853
  C  C219  1  0.464900  0.391300  0.723100  1.0  -0.0312
  C  C220  1  0.272900  0.428490  0.574700  1.0  0.7084
  C  C221  1  0.481200  0.357600  0.715000  1.0  -0.1616
  C  C222  1  0.160700  0.328580  0.574800  1.0  -0.119
  C  C223  1  0.122800  0.385780  0.598400  1.0  -0.0575
  C  C224  1  0.968200  0.345320  0.625600  1.0  0.4314
  C  C225  1  0.587700  0.345270  0.692800  1.0  -0.0105
  C  C226  1  0.356300  0.309570  0.527300  1.0  0.7014
  C  C227  1  0.272800  0.336010  0.551900  1.0  -0.1247
  C  C228  1  0.681200  0.366080  0.679900  1.0  -0.0587
  C  C229  1  0.310600  0.368260  0.551700  1.0  -0.0893
  C  C230  1  0.386300  0.333650  0.731000  1.0  0.6663
  C  C231  1  0.666900  0.399970  0.689500  1.0  -0.0064
  C  C232  1  0.234900  0.393080  0.574800  1.0  -0.1172
  C  C233  1  0.543700  0.448660  0.723400  1.0  0.7248
  C  C234  1  0.086200  0.353060  0.599700  1.0  -0.12
  C  C235  1  0.557200  0.912300  0.210200  1.0  -0.1561
  C  C236  1  0.792800  0.851100  0.160500  1.0  0.2853
  C  C237  1  0.464900  0.891300  0.223100  1.0  -0.0312
  C  C238  1  0.272900  0.928490  0.074700  1.0  0.7084
  C  C239  1  0.481200  0.857600  0.215000  1.0  -0.1616
  C  C240  1  0.160700  0.828580  0.074800  1.0  -0.119
  C  C241  1  0.122800  0.885780  0.098400  1.0  -0.0575
  C  C242  1  0.968200  0.845320  0.125600  1.0  0.4314
  C  C243  1  0.587700  0.845270  0.192800  1.0  -0.0105
  C  C244  1  0.356300  0.809570  0.027300  1.0  0.7014
  C  C245  1  0.272800  0.836010  0.051900  1.0  -0.1247
  C  C246  1  0.681200  0.866080  0.179900  1.0  -0.0587
  C  C247  1  0.310600  0.868260  0.051700  1.0  -0.0893
  C  C248  1  0.386300  0.833650  0.231000  1.0  0.6663
  C  C249  1  0.666900  0.899970  0.189500  1.0  -0.0064
  C  C250  1  0.234900  0.893080  0.074800  1.0  -0.1172
  C  C251  1  0.543700  0.948660  0.223400  1.0  0.7248
  C  C252  1  0.086200  0.853060  0.099700  1.0  -0.12
  C  C253  1  0.057200  0.412300  0.210200  1.0  -0.1561
  C  C254  1  0.292800  0.351100  0.160500  1.0  0.2853
  C  C255  1  0.964900  0.391300  0.223100  1.0  -0.0312
  C  C256  1  0.772900  0.428490  0.074700  1.0  0.7084
  C  C257  1  0.981200  0.357600  0.215000  1.0  -0.1616
  C  C258  1  0.660700  0.328580  0.074800  1.0  -0.119
  C  C259  1  0.622800  0.385780  0.098400  1.0  -0.0575
  C  C260  1  0.468200  0.345320  0.125600  1.0  0.4314
  C  C261  1  0.087700  0.345270  0.192800  1.0  -0.0105
  C  C262  1  0.856300  0.309570  0.027300  1.0  0.7014
  C  C263  1  0.772800  0.336010  0.051900  1.0  -0.1247
  C  C264  1  0.181200  0.366080  0.179900  1.0  -0.0587
  C  C265  1  0.810600  0.368260  0.051700  1.0  -0.0893
  C  C266  1  0.886300  0.333650  0.231000  1.0  0.6663
  C  C267  1  0.166900  0.399970  0.189500  1.0  -0.0064
  C  C268  1  0.734900  0.393080  0.074800  1.0  -0.1172
  C  C269  1  0.043700  0.448660  0.223400  1.0  0.7248
  C  C270  1  0.586200  0.353060  0.099700  1.0  -0.12
  C  C271  1  0.057200  0.912300  0.710200  1.0  -0.1561
  C  C272  1  0.292800  0.851100  0.660500  1.0  0.2853
  C  C273  1  0.964900  0.891300  0.723100  1.0  -0.0312
  C  C274  1  0.772900  0.928490  0.574700  1.0  0.7084
  C  C275  1  0.981200  0.857600  0.715000  1.0  -0.1616
  C  C276  1  0.660700  0.828580  0.574800  1.0  -0.119
  C  C277  1  0.622800  0.885780  0.598400  1.0  -0.0575
  C  C278  1  0.468200  0.845320  0.625600  1.0  0.4314
  C  C279  1  0.087700  0.845270  0.692800  1.0  -0.0105
  C  C280  1  0.856300  0.809570  0.527300  1.0  0.7014
  C  C281  1  0.772800  0.836010  0.551900  1.0  -0.1247
  C  C282  1  0.181200  0.866080  0.679900  1.0  -0.0587
  C  C283  1  0.810600  0.868260  0.551700  1.0  -0.0893
  C  C284  1  0.886300  0.833650  0.731000  1.0  0.6663
  C  C285  1  0.166900  0.899970  0.689500  1.0  -0.0064
  C  C286  1  0.734900  0.893080  0.574800  1.0  -0.1172
  C  C287  1  0.043700  0.948660  0.723400  1.0  0.7248
  C  C288  1  0.586200  0.853060  0.599700  1.0  -0.12
  C  C289  1  0.692800  0.662300  0.960200  1.0  -0.1562
  C  C290  1  0.457200  0.601100  0.910500  1.0  0.2864
  C  C291  1  0.785100  0.641300  0.973100  1.0  -0.0306
  C  C292  1  0.977100  0.678490  0.824700  1.0  0.7088
  C  C293  1  0.768800  0.607600  0.965000  1.0  -0.1611
  C  C294  1  0.089300  0.578580  0.824800  1.0  -0.1186
  C  C295  1  0.127200  0.635780  0.848400  1.0  -0.0574
  C  C296  1  0.281800  0.595320  0.875600  1.0  0.4283
  C  C297  1  0.662300  0.595270  0.942800  1.0  -0.011
  C  C298  1  0.893700  0.559570  0.777300  1.0  0.7009
  C  C299  1  0.977200  0.586010  0.801900  1.0  -0.1248
  C  C300  1  0.568800  0.616080  0.929900  1.0  -0.0589
  C  C301  1  0.939400  0.618260  0.801700  1.0  -0.0897
  C  C302  1  0.863700  0.583650  0.981000  1.0  0.6634
  C  C303  1  0.583100  0.649970  0.939500  1.0  -0.007
  C  C304  1  0.015100  0.643080  0.824800  1.0  -0.117
  C  C305  1  0.706300  0.698660  0.973400  1.0  0.7107
  C  C306  1  0.163800  0.603060  0.849700  1.0  -0.1203
  C  C307  1  0.692800  0.162300  0.460200  1.0  -0.1562
  C  C308  1  0.457200  0.101100  0.410500  1.0  0.2864
  C  C309  1  0.785100  0.141300  0.473100  1.0  -0.0306
  C  C310  1  0.977100  0.178490  0.324700  1.0  0.7088
  C  C311  1  0.768800  0.107600  0.465000  1.0  -0.1611
  C  C312  1  0.089300  0.078580  0.324800  1.0  -0.1186
  C  C313  1  0.127200  0.135780  0.348400  1.0  -0.0574
  C  C314  1  0.281800  0.095320  0.375600  1.0  0.4283
  C  C315  1  0.662300  0.095270  0.442800  1.0  -0.011
  C  C316  1  0.893700  0.059570  0.277300  1.0  0.7009
  C  C317  1  0.977200  0.086010  0.301900  1.0  -0.1248
  C  C318  1  0.568800  0.116080  0.429900  1.0  -0.0589
  C  C319  1  0.939400  0.118260  0.301700  1.0  -0.0897
  C  C320  1  0.863700  0.083650  0.481000  1.0  0.6634
  C  C321  1  0.583100  0.149970  0.439500  1.0  -0.007
  C  C322  1  0.015100  0.143080  0.324800  1.0  -0.117
  C  C323  1  0.706300  0.198660  0.473400  1.0  0.7107
  C  C324  1  0.163800  0.103060  0.349700  1.0  -0.1203
  C  C325  1  0.192800  0.662300  0.460200  1.0  -0.1562
  C  C326  1  0.957200  0.601100  0.410500  1.0  0.2864
  C  C327  1  0.285100  0.641300  0.473100  1.0  -0.0306
  C  C328  1  0.477100  0.678490  0.324700  1.0  0.7088
  C  C329  1  0.268800  0.607600  0.465000  1.0  -0.1611
  C  C330  1  0.589300  0.578580  0.324800  1.0  -0.1186
  C  C331  1  0.627200  0.635780  0.348400  1.0  -0.0574
  C  C332  1  0.781800  0.595320  0.375600  1.0  0.4283
  C  C333  1  0.162300  0.595270  0.442800  1.0  -0.011
  C  C334  1  0.393700  0.559570  0.277300  1.0  0.7009
  C  C335  1  0.477200  0.586010  0.301900  1.0  -0.1248
  C  C336  1  0.068800  0.616080  0.429900  1.0  -0.0589
  C  C337  1  0.439400  0.618260  0.301700  1.0  -0.0897
  C  C338  1  0.363700  0.583650  0.481000  1.0  0.6634
  C  C339  1  0.083100  0.649970  0.439500  1.0  -0.007
  C  C340  1  0.515100  0.643080  0.324800  1.0  -0.117
  C  C341  1  0.206300  0.698660  0.473400  1.0  0.7107
  C  C342  1  0.663800  0.603060  0.349700  1.0  -0.1203
  C  C343  1  0.192800  0.162300  0.960200  1.0  -0.1562
  C  C344  1  0.957200  0.101100  0.910500  1.0  0.2864
  C  C345  1  0.285100  0.141300  0.973100  1.0  -0.0306
  C  C346  1  0.477100  0.178490  0.824700  1.0  0.7088
  C  C347  1  0.268800  0.107600  0.965000  1.0  -0.1611
  C  C348  1  0.589300  0.078580  0.824800  1.0  -0.1186
  C  C349  1  0.627200  0.135780  0.848400  1.0  -0.0574
  C  C350  1  0.781800  0.095320  0.875600  1.0  0.4283
  C  C351  1  0.162300  0.095270  0.942800  1.0  -0.011
  C  C352  1  0.393700  0.059570  0.777300  1.0  0.7009
  C  C353  1  0.477200  0.086010  0.801900  1.0  -0.1248
  C  C354  1  0.068800  0.116080  0.929900  1.0  -0.0589
  C  C355  1  0.439400  0.118260  0.801700  1.0  -0.0897
  C  C356  1  0.363700  0.083650  0.981000  1.0  0.6634
  C  C357  1  0.083100  0.149970  0.939500  1.0  -0.007
  C  C358  1  0.515100  0.143080  0.824800  1.0  -0.117
  C  C359  1  0.206300  0.198660  0.973400  1.0  0.7107
  C  C360  1  0.663800  0.103060  0.849700  1.0  -0.1203
  C  C361  1  0.807200  0.837700  0.960200  1.0  -0.1554
  C  C362  1  0.042800  0.898900  0.910500  1.0  0.2855
  C  C363  1  0.714900  0.858700  0.973100  1.0  -0.0309
  C  C364  1  0.522900  0.821510  0.824700  1.0  0.7079
  C  C365  1  0.731200  0.892400  0.965000  1.0  -0.1606
  C  C366  1  0.410700  0.921420  0.824800  1.0  -0.1221
  C  C367  1  0.372800  0.864220  0.848400  1.0  -0.0574
  C  C368  1  0.218200  0.904680  0.875600  1.0  0.4311
  C  C369  1  0.837700  0.904730  0.942800  1.0  -0.0083
  C  C370  1  0.606300  0.940430  0.777300  1.0  0.7021
  C  C371  1  0.522800  0.913990  0.801900  1.0  -0.1263
  C  C372  1  0.931200  0.883920  0.929900  1.0  -0.0584
  C  C373  1  0.560600  0.881740  0.801700  1.0  -0.0898
  C  C374  1  0.636300  0.916350  0.981000  1.0  0.6666
  C  C375  1  0.916900  0.850030  0.939500  1.0  -0.0061
  C  C376  1  0.484900  0.856920  0.824800  1.0  -0.118
  C  C377  1  0.793700  0.801340  0.973400  1.0  0.71
  C  C378  1  0.336200  0.896940  0.849700  1.0  -0.1201
  C  C379  1  0.807200  0.337700  0.460200  1.0  -0.1554
  C  C380  1  0.042800  0.398900  0.410500  1.0  0.2855
  C  C381  1  0.714900  0.358700  0.473100  1.0  -0.0309
  C  C382  1  0.522900  0.321510  0.324700  1.0  0.7079
  C  C383  1  0.731200  0.392400  0.465000  1.0  -0.1606
  C  C384  1  0.410700  0.421420  0.324800  1.0  -0.1221
  C  C385  1  0.372800  0.364220  0.348400  1.0  -0.0574
  C  C386  1  0.218200  0.404680  0.375600  1.0  0.4311
  C  C387  1  0.837700  0.404730  0.442800  1.0  -0.0083
  C  C388  1  0.606300  0.440430  0.277300  1.0  0.7021
  C  C389  1  0.522800  0.413990  0.301900  1.0  -0.1263
  C  C390  1  0.931200  0.383920  0.429900  1.0  -0.0584
  C  C391  1  0.560600  0.381740  0.301700  1.0  -0.0898
  C  C392  1  0.636300  0.416350  0.481000  1.0  0.6666
  C  C393  1  0.916900  0.350030  0.439500  1.0  -0.0061
  C  C394  1  0.484900  0.356920  0.324800  1.0  -0.118
  C  C395  1  0.793700  0.301340  0.473400  1.0  0.71
  C  C396  1  0.336200  0.396940  0.349700  1.0  -0.1201
  C  C397  1  0.307200  0.837700  0.460200  1.0  -0.1554
  C  C398  1  0.542800  0.898900  0.410500  1.0  0.2855
  C  C399  1  0.214900  0.858700  0.473100  1.0  -0.0309
  C  C400  1  0.022900  0.821510  0.324700  1.0  0.7079
  C  C401  1  0.231200  0.892400  0.465000  1.0  -0.1606
  C  C402  1  0.910700  0.921420  0.324800  1.0  -0.1221
  C  C403  1  0.872800  0.864220  0.348400  1.0  -0.0574
  C  C404  1  0.718200  0.904680  0.375600  1.0  0.4311
  C  C405  1  0.337700  0.904730  0.442800  1.0  -0.0083
  C  C406  1  0.106300  0.940430  0.277300  1.0  0.7021
  C  C407  1  0.022800  0.913990  0.301900  1.0  -0.1263
  C  C408  1  0.431200  0.883920  0.429900  1.0  -0.0584
  C  C409  1  0.060600  0.881740  0.301700  1.0  -0.0898
  C  C410  1  0.136300  0.916350  0.481000  1.0  0.6666
  C  C411  1  0.416900  0.850030  0.439500  1.0  -0.0061
  C  C412  1  0.984900  0.856920  0.324800  1.0  -0.118
  C  C413  1  0.293700  0.801340  0.473400  1.0  0.71
  C  C414  1  0.836200  0.896940  0.349700  1.0  -0.1201
  C  C415  1  0.307200  0.337700  0.960200  1.0  -0.1554
  C  C416  1  0.542800  0.398900  0.910500  1.0  0.2855
  C  C417  1  0.214900  0.358700  0.973100  1.0  -0.0309
  C  C418  1  0.022900  0.321510  0.824700  1.0  0.7079
  C  C419  1  0.231200  0.392400  0.965000  1.0  -0.1606
  C  C420  1  0.910700  0.421420  0.824800  1.0  -0.1221
  C  C421  1  0.872800  0.364220  0.848400  1.0  -0.0574
  C  C422  1  0.718200  0.404680  0.875600  1.0  0.4311
  C  C423  1  0.337700  0.404730  0.942800  1.0  -0.0083
  C  C424  1  0.106300  0.440430  0.777300  1.0  0.7021
  C  C425  1  0.022800  0.413990  0.801900  1.0  -0.1263
  C  C426  1  0.431200  0.383920  0.929900  1.0  -0.0584
  C  C427  1  0.060600  0.381740  0.801700  1.0  -0.0898
  C  C428  1  0.136300  0.416350  0.981000  1.0  0.6666
  C  C429  1  0.416900  0.350030  0.939500  1.0  -0.0061
  C  C430  1  0.984900  0.356920  0.824800  1.0  -0.118
  C  C431  1  0.293700  0.301340  0.973400  1.0  0.71
  C  C432  1  0.836200  0.396940  0.849700  1.0  -0.1201
  N  N433  1  0.113400  0.631390  0.637300  1.0  -0.4878
  N  N434  1  0.185900  0.680100  0.665300  1.0  -0.2807
  N  N435  1  0.069900  0.684390  0.643100  1.0  -0.3839
  N  N436  1  0.113400  0.131390  0.137300  1.0  -0.4878
  N  N437  1  0.185900  0.180100  0.165300  1.0  -0.2807
  N  N438  1  0.069900  0.184390  0.143100  1.0  -0.3839
  N  N439  1  0.613400  0.631390  0.137300  1.0  -0.4878
  N  N440  1  0.685900  0.680100  0.165300  1.0  -0.2807
  N  N441  1  0.569900  0.684390  0.143100  1.0  -0.3839
  N  N442  1  0.613400  0.131390  0.637300  1.0  -0.4878
  N  N443  1  0.685900  0.180100  0.665300  1.0  -0.2807
  N  N444  1  0.569900  0.184390  0.643100  1.0  -0.3839
  N  N445  1  0.886600  0.368610  0.637300  1.0  -0.4909
  N  N446  1  0.814100  0.319900  0.665300  1.0  -0.2818
  N  N447  1  0.930100  0.315610  0.643100  1.0  -0.3857
  N  N448  1  0.886600  0.868610  0.137300  1.0  -0.4909
  N  N449  1  0.814100  0.819900  0.165300  1.0  -0.2818
  N  N450  1  0.930100  0.815610  0.143100  1.0  -0.3857
  N  N451  1  0.386600  0.368610  0.137300  1.0  -0.4909
  N  N452  1  0.314100  0.319900  0.165300  1.0  -0.2818
  N  N453  1  0.430100  0.315610  0.143100  1.0  -0.3857
  N  N454  1  0.386600  0.868610  0.637300  1.0  -0.4909
  N  N455  1  0.314100  0.819900  0.665300  1.0  -0.2818
  N  N456  1  0.430100  0.815610  0.643100  1.0  -0.3857
  N  N457  1  0.363400  0.618610  0.887300  1.0  -0.4904
  N  N458  1  0.435900  0.569900  0.915300  1.0  -0.2816
  N  N459  1  0.319900  0.565610  0.893100  1.0  -0.3856
  N  N460  1  0.363400  0.118610  0.387300  1.0  -0.4904
  N  N461  1  0.435900  0.069900  0.415300  1.0  -0.2816
  N  N462  1  0.319900  0.065610  0.393100  1.0  -0.3856
  N  N463  1  0.863400  0.618610  0.387300  1.0  -0.4904
  N  N464  1  0.935900  0.569900  0.415300  1.0  -0.2816
  N  N465  1  0.819900  0.565610  0.393100  1.0  -0.3856
  N  N466  1  0.863400  0.118610  0.887300  1.0  -0.4904
  N  N467  1  0.935900  0.069900  0.915300  1.0  -0.2816
  N  N468  1  0.819900  0.065610  0.893100  1.0  -0.3856
  N  N469  1  0.136600  0.881390  0.887300  1.0  -0.4883
  N  N470  1  0.064100  0.930100  0.915300  1.0  -0.2801
  N  N471  1  0.180100  0.934390  0.893100  1.0  -0.3834
  N  N472  1  0.136600  0.381390  0.387300  1.0  -0.4883
  N  N473  1  0.064100  0.430100  0.415300  1.0  -0.2801
  N  N474  1  0.180100  0.434390  0.393100  1.0  -0.3834
  N  N475  1  0.636600  0.881390  0.387300  1.0  -0.4883
  N  N476  1  0.564100  0.930100  0.415300  1.0  -0.2801
  N  N477  1  0.680100  0.934390  0.393100  1.0  -0.3834
  N  N478  1  0.636600  0.381390  0.887300  1.0  -0.4883
  N  N479  1  0.564100  0.430100  0.915300  1.0  -0.2801
  N  N480  1  0.680100  0.434390  0.893100  1.0  -0.3834
  O  O481  1  0.710300  0.652200  0.750600  1.0  -0.5053
  O  O482  1  0.558100  0.540770  0.727100  1.0  -0.7338
  O  O483  1  0.537400  0.685160  0.531600  1.0  -0.5951
  O  O484  1  0.789300  0.551650  0.613500  1.0  -0.6798
  O  O485  1  0.682300  0.717710  0.502800  1.0  -0.6277
  O  O486  1  0.601900  0.695580  0.725000  1.0  -0.4872
  O  O487  1  0.635500  0.563280  0.539600  1.0  -0.5853
  O  O488  1  0.367100  0.534690  0.730900  1.0  -0.7063
  O  O489  1  0.710300  0.152200  0.250600  1.0  -0.5053
  O  O490  1  0.558100  0.040770  0.227100  1.0  -0.7338
  O  O491  1  0.537400  0.185160  0.031600  1.0  -0.5951
  O  O492  1  0.789300  0.051650  0.113500  1.0  -0.6798
  O  O493  1  0.682300  0.217710  0.002800  1.0  -0.6277
  O  O494  1  0.601900  0.195580  0.225000  1.0  -0.4872
  O  O495  1  0.635500  0.063280  0.039600  1.0  -0.5853
  O  O496  1  0.367100  0.034690  0.230900  1.0  -0.7063
  O  O497  1  0.210300  0.652200  0.250600  1.0  -0.5053
  O  O498  1  0.058100  0.540770  0.227100  1.0  -0.7338
  O  O499  1  0.037400  0.685160  0.031600  1.0  -0.5951
  O  O500  1  0.289300  0.551650  0.113500  1.0  -0.6798
  O  O501  1  0.182300  0.717710  0.002800  1.0  -0.6277
  O  O502  1  0.101900  0.695580  0.225000  1.0  -0.4872
  O  O503  1  0.135500  0.563280  0.039600  1.0  -0.5853
  O  O504  1  0.867100  0.534690  0.230900  1.0  -0.7063
  O  O505  1  0.210300  0.152200  0.750600  1.0  -0.5053
  O  O506  1  0.058100  0.040770  0.727100  1.0  -0.7338
  O  O507  1  0.037400  0.185160  0.531600  1.0  -0.5951
  O  O508  1  0.289300  0.051650  0.613500  1.0  -0.6798
  O  O509  1  0.182300  0.217710  0.502800  1.0  -0.6277
  O  O510  1  0.101900  0.195580  0.725000  1.0  -0.4872
  O  O511  1  0.135500  0.063280  0.539600  1.0  -0.5853
  O  O512  1  0.867100  0.034690  0.730900  1.0  -0.7063
  O  O513  1  0.289700  0.347800  0.750600  1.0  -0.5043
  O  O514  1  0.441900  0.459230  0.727100  1.0  -0.7328
  O  O515  1  0.462600  0.314840  0.531600  1.0  -0.595
  O  O516  1  0.210700  0.448350  0.613500  1.0  -0.6814
  O  O517  1  0.317700  0.282290  0.502800  1.0  -0.6284
  O  O518  1  0.398100  0.304420  0.725000  1.0  -0.4851
  O  O519  1  0.364500  0.436720  0.539600  1.0  -0.584
  O  O520  1  0.632900  0.465310  0.730900  1.0  -0.7056
  O  O521  1  0.289700  0.847800  0.250600  1.0  -0.5043
  O  O522  1  0.441900  0.959230  0.227100  1.0  -0.7328
  O  O523  1  0.462600  0.814840  0.031600  1.0  -0.595
  O  O524  1  0.210700  0.948350  0.113500  1.0  -0.6814
  O  O525  1  0.317700  0.782290  0.002800  1.0  -0.6284
  O  O526  1  0.398100  0.804420  0.225000  1.0  -0.4851
  O  O527  1  0.364500  0.936720  0.039600  1.0  -0.584
  O  O528  1  0.632900  0.965310  0.230900  1.0  -0.7056
  O  O529  1  0.789700  0.347800  0.250600  1.0  -0.5043
  O  O530  1  0.941900  0.459230  0.227100  1.0  -0.7328
  O  O531  1  0.962600  0.314840  0.031600  1.0  -0.595
  O  O532  1  0.710700  0.448350  0.113500  1.0  -0.6814
  O  O533  1  0.817700  0.282290  0.002800  1.0  -0.6284
  O  O534  1  0.898100  0.304420  0.225000  1.0  -0.4851
  O  O535  1  0.864500  0.436720  0.039600  1.0  -0.584
  O  O536  1  0.132900  0.465310  0.230900  1.0  -0.7056
  O  O537  1  0.789700  0.847800  0.750600  1.0  -0.5043
  O  O538  1  0.941900  0.959230  0.727100  1.0  -0.7328
  O  O539  1  0.962600  0.814840  0.531600  1.0  -0.595
  O  O540  1  0.710700  0.948350  0.613500  1.0  -0.6814
  O  O541  1  0.817700  0.782290  0.502800  1.0  -0.6284
  O  O542  1  0.898100  0.804420  0.725000  1.0  -0.4851
  O  O543  1  0.864500  0.936720  0.539600  1.0  -0.584
  O  O544  1  0.132900  0.965310  0.730900  1.0  -0.7056
  O  O545  1  0.960300  0.597800  0.000600  1.0  -0.5046
  O  O546  1  0.808100  0.709230  0.977100  1.0  -0.733
  O  O547  1  0.787400  0.564840  0.781600  1.0  -0.5943
  O  O548  1  0.039300  0.698350  0.863500  1.0  -0.6807
  O  O549  1  0.932300  0.532290  0.752800  1.0  -0.6271
  O  O550  1  0.851900  0.554420  0.975000  1.0  -0.4856
  O  O551  1  0.885500  0.686720  0.789600  1.0  -0.584
  O  O552  1  0.617100  0.715310  0.980900  1.0  -0.7052
  O  O553  1  0.960300  0.097800  0.500600  1.0  -0.5046
  O  O554  1  0.808100  0.209230  0.477100  1.0  -0.733
  O  O555  1  0.787400  0.064840  0.281600  1.0  -0.5943
  O  O556  1  0.039300  0.198350  0.363500  1.0  -0.6807
  O  O557  1  0.932300  0.032290  0.252800  1.0  -0.6271
  O  O558  1  0.851900  0.054420  0.475000  1.0  -0.4856
  O  O559  1  0.885500  0.186720  0.289600  1.0  -0.584
  O  O560  1  0.617100  0.215310  0.480900  1.0  -0.7052
  O  O561  1  0.460300  0.597800  0.500600  1.0  -0.5046
  O  O562  1  0.308100  0.709230  0.477100  1.0  -0.733
  O  O563  1  0.287400  0.564840  0.281600  1.0  -0.5943
  O  O564  1  0.539300  0.698350  0.363500  1.0  -0.6807
  O  O565  1  0.432300  0.532290  0.252800  1.0  -0.6271
  O  O566  1  0.351900  0.554420  0.475000  1.0  -0.4856
  O  O567  1  0.385500  0.686720  0.289600  1.0  -0.584
  O  O568  1  0.117100  0.715310  0.480900  1.0  -0.7052
  O  O569  1  0.460300  0.097800  0.000600  1.0  -0.5046
  O  O570  1  0.308100  0.209230  0.977100  1.0  -0.733
  O  O571  1  0.287400  0.064840  0.781600  1.0  -0.5943
  O  O572  1  0.539300  0.198350  0.863500  1.0  -0.6807
  O  O573  1  0.432300  0.032290  0.752800  1.0  -0.6271
  O  O574  1  0.351900  0.054420  0.975000  1.0  -0.4856
  O  O575  1  0.385500  0.186720  0.789600  1.0  -0.584
  O  O576  1  0.117100  0.215310  0.980900  1.0  -0.7052
  O  O577  1  0.539700  0.902200  0.000600  1.0  -0.5053
  O  O578  1  0.691900  0.790770  0.977100  1.0  -0.7335
  O  O579  1  0.712600  0.935160  0.781600  1.0  -0.5938
  O  O580  1  0.460700  0.801650  0.863500  1.0  -0.6807
  O  O581  1  0.567700  0.967710  0.752800  1.0  -0.6259
  O  O582  1  0.648100  0.945580  0.975000  1.0  -0.4861
  O  O583  1  0.614500  0.813280  0.789600  1.0  -0.5849
  O  O584  1  0.882900  0.784690  0.980900  1.0  -0.7058
  O  O585  1  0.539700  0.402200  0.500600  1.0  -0.5053
  O  O586  1  0.691900  0.290770  0.477100  1.0  -0.7335
  O  O587  1  0.712600  0.435160  0.281600  1.0  -0.5938
  O  O588  1  0.460700  0.301650  0.363500  1.0  -0.6807
  O  O589  1  0.567700  0.467710  0.252800  1.0  -0.6259
  O  O590  1  0.648100  0.445580  0.475000  1.0  -0.4861
  O  O591  1  0.614500  0.313280  0.289600  1.0  -0.5849
  O  O592  1  0.882900  0.284690  0.480900  1.0  -0.7058
  O  O593  1  0.039700  0.902200  0.500600  1.0  -0.5053
  O  O594  1  0.191900  0.790770  0.477100  1.0  -0.7335
  O  O595  1  0.212600  0.935160  0.281600  1.0  -0.5938
  O  O596  1  0.960700  0.801650  0.363500  1.0  -0.6807
  O  O597  1  0.067700  0.967710  0.252800  1.0  -0.6259
  O  O598  1  0.148100  0.945580  0.475000  1.0  -0.4861
  O  O599  1  0.114500  0.813280  0.289600  1.0  -0.5849
  O  O600  1  0.382900  0.784690  0.480900  1.0  -0.7058
  O  O601  1  0.039700  0.402200  0.000600  1.0  -0.5053
  O  O602  1  0.191900  0.290770  0.977100  1.0  -0.7335
  O  O603  1  0.212600  0.435160  0.781600  1.0  -0.5938
  O  O604  1  0.960700  0.301650  0.863500  1.0  -0.6807
  O  O605  1  0.067700  0.467710  0.752800  1.0  -0.6259
  O  O606  1  0.148100  0.445580  0.975000  1.0  -0.4861
  O  O607  1  0.114500  0.313280  0.789600  1.0  -0.5849
  O  O608  1  0.382900  0.284690  0.980900  1.0  -0.7058
