# generated using pymatgen
data_SmH8C18N3O8
_symmetry_space_group_name_H-M   'P 1'
_cell_length_a   11.53240000
_cell_length_b   40.86650000
_cell_length_c   17.04730000
_cell_angle_alpha   90.00000000
_cell_angle_beta   90.00000000
_cell_angle_gamma   90.00000000
_symmetry_Int_Tables_number   1
_chemical_formula_structural   SmH8C18N3O8
_chemical_formula_sum   'Sm16 H128 C288 N48 O128'
_cell_volume   8034.20197960
_cell_formula_units_Z   16
loop_
 _symmetry_equiv_pos_site_id
 _symmetry_equiv_pos_as_xyz
  1  'x, y, z'
loop_
 _atom_site_type_symbol
 _atom_site_label
 _atom_site_symmetry_multiplicity
 _atom_site_fract_x
 _atom_site_fract_y
 _atom_site_fract_z
 _atom_site_occupancy
 _atom_site_charge
  Sm  Sm1  1  0.269400  0.485430  0.442330  1.0  2.266
  Sm  Sm2  1  0.269400  0.985430  0.942330  1.0  2.266
  Sm  Sm3  1  0.769400  0.485430  0.942330  1.0  2.266
  Sm  Sm4  1  0.769400  0.985430  0.442330  1.0  2.266
  Sm  Sm5  1  0.730600  0.514570  0.442330  1.0  2.2679
  Sm  Sm6  1  0.730600  0.014570  0.942330  1.0  2.2679
  Sm  Sm7  1  0.230600  0.514570  0.942330  1.0  2.2679
  Sm  Sm8  1  0.230600  0.014570  0.442330  1.0  2.2679
  Sm  Sm9  1  0.519400  0.764570  0.692330  1.0  2.267
  Sm  Sm10  1  0.519400  0.264570  0.192330  1.0  2.267
  Sm  Sm11  1  0.019400  0.764570  0.192330  1.0  2.267
  Sm  Sm12  1  0.019400  0.264570  0.692330  1.0  2.267
  Sm  Sm13  1  0.980600  0.735430  0.692330  1.0  2.267
  Sm  Sm14  1  0.980600  0.235430  0.192330  1.0  2.267
  Sm  Sm15  1  0.480600  0.735430  0.192330  1.0  2.267
  Sm  Sm16  1  0.480600  0.235430  0.692330  1.0  2.267
  H  H17  1  0.609800  0.599900  0.461200  1.0  0.1174
  H  H18  1  0.400800  0.678500  0.426500  1.0  0.1139
  H  H19  1  0.928900  0.598100  0.347800  1.0  0.1121
  H  H20  1  0.267900  0.586400  0.420100  1.0  0.113
  H  H21  1  0.864500  0.693800  0.304700  1.0  0.1252
  H  H22  1  0.613900  0.625300  0.267800  1.0  0.1077
  H  H23  1  0.719000  0.662300  0.527600  1.0  0.4121
  H  H24  1  0.035400  0.701500  0.354000  1.0  0.2511
  H  H25  1  0.609800  0.099900  0.961200  1.0  0.1174
  H  H26  1  0.400800  0.178500  0.926500  1.0  0.1139
  H  H27  1  0.928900  0.098100  0.847800  1.0  0.1121
  H  H28  1  0.267900  0.086400  0.920100  1.0  0.113
  H  H29  1  0.864500  0.193800  0.804700  1.0  0.1252
  H  H30  1  0.613900  0.125300  0.767800  1.0  0.1077
  H  H31  1  0.719000  0.162300  0.027600  1.0  0.4121
  H  H32  1  0.035400  0.201500  0.854000  1.0  0.2511
  H  H33  1  0.109800  0.599900  0.961200  1.0  0.1174
  H  H34  1  0.900800  0.678500  0.926500  1.0  0.1139
  H  H35  1  0.428900  0.598100  0.847800  1.0  0.1121
  H  H36  1  0.767900  0.586400  0.920100  1.0  0.113
  H  H37  1  0.364500  0.693800  0.804700  1.0  0.1252
  H  H38  1  0.113900  0.625300  0.767800  1.0  0.1077
  H  H39  1  0.219000  0.662300  0.027600  1.0  0.4121
  H  H40  1  0.535400  0.701500  0.854000  1.0  0.2511
  H  H41  1  0.109800  0.099900  0.461200  1.0  0.1174
  H  H42  1  0.900800  0.178500  0.426500  1.0  0.1139
  H  H43  1  0.428900  0.098100  0.347800  1.0  0.1121
  H  H44  1  0.767900  0.086400  0.420100  1.0  0.113
  H  H45  1  0.364500  0.193800  0.304700  1.0  0.1252
  H  H46  1  0.113900  0.125300  0.267800  1.0  0.1077
  H  H47  1  0.219000  0.162300  0.527600  1.0  0.4121
  H  H48  1  0.535400  0.201500  0.354000  1.0  0.2511
  H  H49  1  0.390200  0.400100  0.461200  1.0  0.1168
  H  H50  1  0.599200  0.321500  0.426500  1.0  0.114
  H  H51  1  0.071100  0.401900  0.347800  1.0  0.1125
  H  H52  1  0.732100  0.413600  0.420100  1.0  0.1125
  H  H53  1  0.135500  0.306200  0.304700  1.0  0.1259
  H  H54  1  0.386100  0.374700  0.267800  1.0  0.1085
  H  H55  1  0.281000  0.337700  0.527600  1.0  0.4127
  H  H56  1  0.964600  0.298500  0.354000  1.0  0.2519
  H  H57  1  0.390200  0.900100  0.961200  1.0  0.1168
  H  H58  1  0.599200  0.821500  0.926500  1.0  0.114
  H  H59  1  0.071100  0.901900  0.847800  1.0  0.1125
  H  H60  1  0.732100  0.913600  0.920100  1.0  0.1125
  H  H61  1  0.135500  0.806200  0.804700  1.0  0.1259
  H  H62  1  0.386100  0.874700  0.767800  1.0  0.1085
  H  H63  1  0.281000  0.837700  0.027600  1.0  0.4127
  H  H64  1  0.964600  0.798500  0.854000  1.0  0.2519
  H  H65  1  0.890200  0.400100  0.961200  1.0  0.1168
  H  H66  1  0.099200  0.321500  0.926500  1.0  0.114
  H  H67  1  0.571100  0.401900  0.847800  1.0  0.1125
  H  H68  1  0.232100  0.413600  0.920100  1.0  0.1125
  H  H69  1  0.635500  0.306200  0.804700  1.0  0.1259
  H  H70  1  0.886100  0.374700  0.767800  1.0  0.1085
  H  H71  1  0.781000  0.337700  0.027600  1.0  0.4127
  H  H72  1  0.464600  0.298500  0.854000  1.0  0.2519
  H  H73  1  0.890200  0.900100  0.461200  1.0  0.1168
  H  H74  1  0.099200  0.821500  0.426500  1.0  0.114
  H  H75  1  0.571100  0.901900  0.347800  1.0  0.1125
  H  H76  1  0.232100  0.913600  0.420100  1.0  0.1125
  H  H77  1  0.635500  0.806200  0.304700  1.0  0.1259
  H  H78  1  0.886100  0.874700  0.267800  1.0  0.1085
  H  H79  1  0.781000  0.837700  0.527600  1.0  0.4127
  H  H80  1  0.464600  0.798500  0.354000  1.0  0.2519
  H  H81  1  0.859800  0.650100  0.711200  1.0  0.1167
  H  H82  1  0.650800  0.571500  0.676500  1.0  0.1144
  H  H83  1  0.178900  0.651900  0.597800  1.0  0.112
  H  H84  1  0.517900  0.663600  0.670100  1.0  0.1131
  H  H85  1  0.114500  0.556200  0.554700  1.0  0.1259
  H  H86  1  0.863900  0.624700  0.517800  1.0  0.1081
  H  H87  1  0.969000  0.587700  0.777600  1.0  0.4129
  H  H88  1  0.285400  0.548500  0.604000  1.0  0.2518
  H  H89  1  0.859800  0.150100  0.211200  1.0  0.1167
  H  H90  1  0.650800  0.071500  0.176500  1.0  0.1144
  H  H91  1  0.178900  0.151900  0.097800  1.0  0.112
  H  H92  1  0.517900  0.163600  0.170100  1.0  0.1131
  H  H93  1  0.114500  0.056200  0.054700  1.0  0.1259
  H  H94  1  0.863900  0.124700  0.017800  1.0  0.1081
  H  H95  1  0.969000  0.087700  0.277600  1.0  0.4129
  H  H96  1  0.285400  0.048500  0.104000  1.0  0.2518
  H  H97  1  0.359800  0.650100  0.211200  1.0  0.1167
  H  H98  1  0.150800  0.571500  0.176500  1.0  0.1144
  H  H99  1  0.678900  0.651900  0.097800  1.0  0.112
  H  H100  1  0.017900  0.663600  0.170100  1.0  0.1131
  H  H101  1  0.614500  0.556200  0.054700  1.0  0.1259
  H  H102  1  0.363900  0.624700  0.017800  1.0  0.1081
  H  H103  1  0.469000  0.587700  0.277600  1.0  0.4129
  H  H104  1  0.785400  0.548500  0.104000  1.0  0.2518
  H  H105  1  0.359800  0.150100  0.711200  1.0  0.1167
  H  H106  1  0.150800  0.071500  0.676500  1.0  0.1144
  H  H107  1  0.678900  0.151900  0.597800  1.0  0.112
  H  H108  1  0.017900  0.163600  0.670100  1.0  0.1131
  H  H109  1  0.614500  0.056200  0.554700  1.0  0.1259
  H  H110  1  0.363900  0.124700  0.517800  1.0  0.1081
  H  H111  1  0.469000  0.087700  0.777600  1.0  0.4129
  H  H112  1  0.785400  0.048500  0.604000  1.0  0.2518
  H  H113  1  0.640200  0.849900  0.711200  1.0  0.1167
  H  H114  1  0.849200  0.928500  0.676500  1.0  0.1136
  H  H115  1  0.321100  0.848100  0.597800  1.0  0.1118
  H  H116  1  0.982100  0.836400  0.670100  1.0  0.1128
  H  H117  1  0.385500  0.943800  0.554700  1.0  0.1256
  H  H118  1  0.636100  0.875300  0.517800  1.0  0.1085
  H  H119  1  0.531000  0.912300  0.777600  1.0  0.4122
  H  H120  1  0.214600  0.951500  0.604000  1.0  0.2508
  H  H121  1  0.640200  0.349900  0.211200  1.0  0.1167
  H  H122  1  0.849200  0.428500  0.176500  1.0  0.1136
  H  H123  1  0.321100  0.348100  0.097800  1.0  0.1118
  H  H124  1  0.982100  0.336400  0.170100  1.0  0.1128
  H  H125  1  0.385500  0.443800  0.054700  1.0  0.1256
  H  H126  1  0.636100  0.375300  0.017800  1.0  0.1085
  H  H127  1  0.531000  0.412300  0.277600  1.0  0.4122
  H  H128  1  0.214600  0.451500  0.104000  1.0  0.2508
  H  H129  1  0.140200  0.849900  0.211200  1.0  0.1167
  H  H130  1  0.349200  0.928500  0.176500  1.0  0.1136
  H  H131  1  0.821100  0.848100  0.097800  1.0  0.1118
  H  H132  1  0.482100  0.836400  0.170100  1.0  0.1128
  H  H133  1  0.885500  0.943800  0.054700  1.0  0.1256
  H  H134  1  0.136100  0.875300  0.017800  1.0  0.1085
  H  H135  1  0.031000  0.912300  0.277600  1.0  0.4122
  H  H136  1  0.714600  0.951500  0.104000  1.0  0.2508
  H  H137  1  0.140200  0.349900  0.711200  1.0  0.1167
  H  H138  1  0.349200  0.428500  0.676500  1.0  0.1136
  H  H139  1  0.821100  0.348100  0.597800  1.0  0.1118
  H  H140  1  0.482100  0.336400  0.670100  1.0  0.1128
  H  H141  1  0.885500  0.443800  0.554700  1.0  0.1256
  H  H142  1  0.136100  0.375300  0.517800  1.0  0.1085
  H  H143  1  0.031000  0.412300  0.777600  1.0  0.4122
  H  H144  1  0.714600  0.451500  0.604000  1.0  0.2508
  C  C145  1  0.439900  0.588700  0.444000  1.0  -0.1238
  C  C146  1  0.207300  0.649800  0.396100  1.0  0.2751
  C  C147  1  0.534700  0.608800  0.453200  1.0  -0.0711
  C  C148  1  0.517200  0.643200  0.450300  1.0  -0.0704
  C  C149  1  0.721700  0.571700  0.311000  1.0  0.6755
  C  C150  1  0.028900  0.655370  0.362600  1.0  0.3671
  C  C151  1  0.410900  0.655500  0.430600  1.0  -0.0657
  C  C152  1  0.876300  0.614900  0.332700  1.0  -0.0234
  C  C153  1  0.331500  0.601000  0.425800  1.0  -0.0385
  C  C154  1  0.457300  0.552500  0.454700  1.0  0.6906
  C  C155  1  0.838200  0.671800  0.307300  1.0  -0.0736
  C  C156  1  0.314600  0.634400  0.415900  1.0  -0.0647
  C  C157  1  0.611500  0.666800  0.464900  1.0  0.6572
  C  C158  1  0.642500  0.690300  0.258700  1.0  0.6836
  C  C159  1  0.727500  0.664000  0.285200  1.0  -0.1334
  C  C160  1  0.763000  0.606600  0.309800  1.0  -0.1477
  C  C161  1  0.689900  0.630700  0.285100  1.0  -0.0505
  C  C162  1  0.911900  0.647000  0.333600  1.0  -0.0561
  C  C163  1  0.439900  0.088700  0.944000  1.0  -0.1238
  C  C164  1  0.207300  0.149800  0.896100  1.0  0.2751
  C  C165  1  0.534700  0.108800  0.953200  1.0  -0.0711
  C  C166  1  0.517200  0.143200  0.950300  1.0  -0.0704
  C  C167  1  0.721700  0.071700  0.811000  1.0  0.6755
  C  C168  1  0.028900  0.155370  0.862600  1.0  0.3671
  C  C169  1  0.410900  0.155500  0.930600  1.0  -0.0657
  C  C170  1  0.876300  0.114900  0.832700  1.0  -0.0234
  C  C171  1  0.331500  0.101000  0.925800  1.0  -0.0385
  C  C172  1  0.457300  0.052500  0.954700  1.0  0.6906
  C  C173  1  0.838200  0.171800  0.807300  1.0  -0.0736
  C  C174  1  0.314600  0.134400  0.915900  1.0  -0.0647
  C  C175  1  0.611500  0.166800  0.964900  1.0  0.6572
  C  C176  1  0.642500  0.190300  0.758700  1.0  0.6836
  C  C177  1  0.727500  0.164000  0.785200  1.0  -0.1334
  C  C178  1  0.763000  0.106600  0.809800  1.0  -0.1477
  C  C179  1  0.689900  0.130700  0.785100  1.0  -0.0505
  C  C180  1  0.911900  0.147000  0.833600  1.0  -0.0561
  C  C181  1  0.939900  0.588700  0.944000  1.0  -0.1238
  C  C182  1  0.707300  0.649800  0.896100  1.0  0.2751
  C  C183  1  0.034700  0.608800  0.953200  1.0  -0.0711
  C  C184  1  0.017200  0.643200  0.950300  1.0  -0.0704
  C  C185  1  0.221700  0.571700  0.811000  1.0  0.6755
  C  C186  1  0.528900  0.655370  0.862600  1.0  0.3671
  C  C187  1  0.910900  0.655500  0.930600  1.0  -0.0657
  C  C188  1  0.376300  0.614900  0.832700  1.0  -0.0234
  C  C189  1  0.831500  0.601000  0.925800  1.0  -0.0385
  C  C190  1  0.957300  0.552500  0.954700  1.0  0.6906
  C  C191  1  0.338200  0.671800  0.807300  1.0  -0.0736
  C  C192  1  0.814600  0.634400  0.915900  1.0  -0.0647
  C  C193  1  0.111500  0.666800  0.964900  1.0  0.6572
  C  C194  1  0.142500  0.690300  0.758700  1.0  0.6836
  C  C195  1  0.227500  0.664000  0.785200  1.0  -0.1334
  C  C196  1  0.263000  0.606600  0.809800  1.0  -0.1477
  C  C197  1  0.189900  0.630700  0.785100  1.0  -0.0505
  C  C198  1  0.411900  0.647000  0.833600  1.0  -0.0561
  C  C199  1  0.939900  0.088700  0.444000  1.0  -0.1238
  C  C200  1  0.707300  0.149800  0.396100  1.0  0.2751
  C  C201  1  0.034700  0.108800  0.453200  1.0  -0.0711
  C  C202  1  0.017200  0.143200  0.450300  1.0  -0.0704
  C  C203  1  0.221700  0.071700  0.311000  1.0  0.6755
  C  C204  1  0.528900  0.155370  0.362600  1.0  0.3671
  C  C205  1  0.910900  0.155500  0.430600  1.0  -0.0657
  C  C206  1  0.376300  0.114900  0.332700  1.0  -0.0234
  C  C207  1  0.831500  0.101000  0.425800  1.0  -0.0385
  C  C208  1  0.957300  0.052500  0.454700  1.0  0.6906
  C  C209  1  0.338200  0.171800  0.307300  1.0  -0.0736
  C  C210  1  0.814600  0.134400  0.415900  1.0  -0.0647
  C  C211  1  0.111500  0.166800  0.464900  1.0  0.6572
  C  C212  1  0.142500  0.190300  0.258700  1.0  0.6836
  C  C213  1  0.227500  0.164000  0.285200  1.0  -0.1334
  C  C214  1  0.263000  0.106600  0.309800  1.0  -0.1477
  C  C215  1  0.189900  0.130700  0.285100  1.0  -0.0505
  C  C216  1  0.411900  0.147000  0.333600  1.0  -0.0561
  C  C217  1  0.560100  0.411300  0.444000  1.0  -0.1229
  C  C218  1  0.792700  0.350200  0.396100  1.0  0.2727
  C  C219  1  0.465300  0.391200  0.453200  1.0  -0.072
  C  C220  1  0.482800  0.356800  0.450300  1.0  -0.0701
  C  C221  1  0.278300  0.428300  0.311000  1.0  0.6753
  C  C222  1  0.971100  0.344630  0.362600  1.0  0.3676
  C  C223  1  0.589100  0.344500  0.430600  1.0  -0.0657
  C  C224  1  0.123700  0.385100  0.332700  1.0  -0.0251
  C  C225  1  0.668500  0.399000  0.425800  1.0  -0.0384
  C  C226  1  0.542700  0.447500  0.454700  1.0  0.6903
  C  C227  1  0.161800  0.328200  0.307300  1.0  -0.0738
  C  C228  1  0.685400  0.365600  0.415900  1.0  -0.0651
  C  C229  1  0.388500  0.333200  0.464900  1.0  0.6576
  C  C230  1  0.357500  0.309700  0.258700  1.0  0.6855
  C  C231  1  0.272500  0.336000  0.285200  1.0  -0.133
  C  C232  1  0.237000  0.393400  0.309800  1.0  -0.1469
  C  C233  1  0.310100  0.369300  0.285100  1.0  -0.0507
  C  C234  1  0.088100  0.353000  0.333600  1.0  -0.0561
  C  C235  1  0.560100  0.911300  0.944000  1.0  -0.1229
  C  C236  1  0.792700  0.850200  0.896100  1.0  0.2727
  C  C237  1  0.465300  0.891200  0.953200  1.0  -0.072
  C  C238  1  0.482800  0.856800  0.950300  1.0  -0.0701
  C  C239  1  0.278300  0.928300  0.811000  1.0  0.6753
  C  C240  1  0.971100  0.844630  0.862600  1.0  0.3676
  C  C241  1  0.589100  0.844500  0.930600  1.0  -0.0657
  C  C242  1  0.123700  0.885100  0.832700  1.0  -0.0251
  C  C243  1  0.668500  0.899000  0.925800  1.0  -0.0384
  C  C244  1  0.542700  0.947500  0.954700  1.0  0.6903
  C  C245  1  0.161800  0.828200  0.807300  1.0  -0.0738
  C  C246  1  0.685400  0.865600  0.915900  1.0  -0.0651
  C  C247  1  0.388500  0.833200  0.964900  1.0  0.6576
  C  C248  1  0.357500  0.809700  0.758700  1.0  0.6855
  C  C249  1  0.272500  0.836000  0.785200  1.0  -0.133
  C  C250  1  0.237000  0.893400  0.809800  1.0  -0.1469
  C  C251  1  0.310100  0.869300  0.785100  1.0  -0.0507
  C  C252  1  0.088100  0.853000  0.833600  1.0  -0.0561
  C  C253  1  0.060100  0.411300  0.944000  1.0  -0.1229
  C  C254  1  0.292700  0.350200  0.896100  1.0  0.2727
  C  C255  1  0.965300  0.391200  0.953200  1.0  -0.072
  C  C256  1  0.982800  0.356800  0.950300  1.0  -0.0701
  C  C257  1  0.778300  0.428300  0.811000  1.0  0.6753
  C  C258  1  0.471100  0.344630  0.862600  1.0  0.3676
  C  C259  1  0.089100  0.344500  0.930600  1.0  -0.0657
  C  C260  1  0.623700  0.385100  0.832700  1.0  -0.0251
  C  C261  1  0.168500  0.399000  0.925800  1.0  -0.0384
  C  C262  1  0.042700  0.447500  0.954700  1.0  0.6903
  C  C263  1  0.661800  0.328200  0.807300  1.0  -0.0738
  C  C264  1  0.185400  0.365600  0.915900  1.0  -0.0651
  C  C265  1  0.888500  0.333200  0.964900  1.0  0.6576
  C  C266  1  0.857500  0.309700  0.758700  1.0  0.6855
  C  C267  1  0.772500  0.336000  0.785200  1.0  -0.133
  C  C268  1  0.737000  0.393400  0.809800  1.0  -0.1469
  C  C269  1  0.810100  0.369300  0.785100  1.0  -0.0507
  C  C270  1  0.588100  0.353000  0.833600  1.0  -0.0561
  C  C271  1  0.060100  0.911300  0.444000  1.0  -0.1229
  C  C272  1  0.292700  0.850200  0.396100  1.0  0.2727
  C  C273  1  0.965300  0.891200  0.453200  1.0  -0.072
  C  C274  1  0.982800  0.856800  0.450300  1.0  -0.0701
  C  C275  1  0.778300  0.928300  0.311000  1.0  0.6753
  C  C276  1  0.471100  0.844630  0.362600  1.0  0.3676
  C  C277  1  0.089100  0.844500  0.430600  1.0  -0.0657
  C  C278  1  0.623700  0.885100  0.332700  1.0  -0.0251
  C  C279  1  0.168500  0.899000  0.425800  1.0  -0.0384
  C  C280  1  0.042700  0.947500  0.454700  1.0  0.6903
  C  C281  1  0.661800  0.828200  0.307300  1.0  -0.0738
  C  C282  1  0.185400  0.865600  0.415900  1.0  -0.0651
  C  C283  1  0.888500  0.833200  0.464900  1.0  0.6576
  C  C284  1  0.857500  0.809700  0.258700  1.0  0.6855
  C  C285  1  0.772500  0.836000  0.285200  1.0  -0.133
  C  C286  1  0.737000  0.893400  0.309800  1.0  -0.1469
  C  C287  1  0.810100  0.869300  0.285100  1.0  -0.0507
  C  C288  1  0.588100  0.853000  0.333600  1.0  -0.0561
  C  C289  1  0.689900  0.661300  0.694000  1.0  -0.1228
  C  C290  1  0.457300  0.600200  0.646100  1.0  0.2749
  C  C291  1  0.784700  0.641200  0.703200  1.0  -0.0713
  C  C292  1  0.767200  0.606800  0.700300  1.0  -0.0708
  C  C293  1  0.971700  0.678300  0.561000  1.0  0.6757
  C  C294  1  0.278900  0.594630  0.612600  1.0  0.3669
  C  C295  1  0.660900  0.594500  0.680600  1.0  -0.0659
  C  C296  1  0.126300  0.635100  0.582700  1.0  -0.024
  C  C297  1  0.581500  0.649000  0.675800  1.0  -0.0386
  C  C298  1  0.707300  0.697500  0.704700  1.0  0.6903
  C  C299  1  0.088200  0.578200  0.557300  1.0  -0.0743
  C  C300  1  0.564600  0.615600  0.665900  1.0  -0.0653
  C  C301  1  0.861500  0.583200  0.714900  1.0  0.6571
  C  C302  1  0.892500  0.559700  0.508700  1.0  0.6849
  C  C303  1  0.977500  0.586000  0.535200  1.0  -0.1332
  C  C304  1  0.013000  0.643400  0.559800  1.0  -0.1468
  C  C305  1  0.939900  0.619300  0.535100  1.0  -0.0509
  C  C306  1  0.161900  0.603000  0.583600  1.0  -0.0564
  C  C307  1  0.689900  0.161300  0.194000  1.0  -0.1228
  C  C308  1  0.457300  0.100200  0.146100  1.0  0.2749
  C  C309  1  0.784700  0.141200  0.203200  1.0  -0.0713
  C  C310  1  0.767200  0.106800  0.200300  1.0  -0.0708
  C  C311  1  0.971700  0.178300  0.061000  1.0  0.6757
  C  C312  1  0.278900  0.094630  0.112600  1.0  0.3669
  C  C313  1  0.660900  0.094500  0.180600  1.0  -0.0659
  C  C314  1  0.126300  0.135100  0.082700  1.0  -0.024
  C  C315  1  0.581500  0.149000  0.175800  1.0  -0.0386
  C  C316  1  0.707300  0.197500  0.204700  1.0  0.6903
  C  C317  1  0.088200  0.078200  0.057300  1.0  -0.0743
  C  C318  1  0.564600  0.115600  0.165900  1.0  -0.0653
  C  C319  1  0.861500  0.083200  0.214900  1.0  0.6571
  C  C320  1  0.892500  0.059700  0.008700  1.0  0.6849
  C  C321  1  0.977500  0.086000  0.035200  1.0  -0.1332
  C  C322  1  0.013000  0.143400  0.059800  1.0  -0.1468
  C  C323  1  0.939900  0.119300  0.035100  1.0  -0.0509
  C  C324  1  0.161900  0.103000  0.083600  1.0  -0.0564
  C  C325  1  0.189900  0.661300  0.194000  1.0  -0.1228
  C  C326  1  0.957300  0.600200  0.146100  1.0  0.2749
  C  C327  1  0.284700  0.641200  0.203200  1.0  -0.0713
  C  C328  1  0.267200  0.606800  0.200300  1.0  -0.0708
  C  C329  1  0.471700  0.678300  0.061000  1.0  0.6757
  C  C330  1  0.778900  0.594630  0.112600  1.0  0.3669
  C  C331  1  0.160900  0.594500  0.180600  1.0  -0.0659
  C  C332  1  0.626300  0.635100  0.082700  1.0  -0.024
  C  C333  1  0.081500  0.649000  0.175800  1.0  -0.0386
  C  C334  1  0.207300  0.697500  0.204700  1.0  0.6903
  C  C335  1  0.588200  0.578200  0.057300  1.0  -0.0743
  C  C336  1  0.064600  0.615600  0.165900  1.0  -0.0653
  C  C337  1  0.361500  0.583200  0.214900  1.0  0.6571
  C  C338  1  0.392500  0.559700  0.008700  1.0  0.6849
  C  C339  1  0.477500  0.586000  0.035200  1.0  -0.1332
  C  C340  1  0.513000  0.643400  0.059800  1.0  -0.1468
  C  C341  1  0.439900  0.619300  0.035100  1.0  -0.0509
  C  C342  1  0.661900  0.603000  0.083600  1.0  -0.0564
  C  C343  1  0.189900  0.161300  0.694000  1.0  -0.1228
  C  C344  1  0.957300  0.100200  0.646100  1.0  0.2749
  C  C345  1  0.284700  0.141200  0.703200  1.0  -0.0713
  C  C346  1  0.267200  0.106800  0.700300  1.0  -0.0708
  C  C347  1  0.471700  0.178300  0.561000  1.0  0.6757
  C  C348  1  0.778900  0.094630  0.612600  1.0  0.3669
  C  C349  1  0.160900  0.094500  0.680600  1.0  -0.0659
  C  C350  1  0.626300  0.135100  0.582700  1.0  -0.024
  C  C351  1  0.081500  0.149000  0.675800  1.0  -0.0386
  C  C352  1  0.207300  0.197500  0.704700  1.0  0.6903
  C  C353  1  0.588200  0.078200  0.557300  1.0  -0.0743
  C  C354  1  0.064600  0.115600  0.665900  1.0  -0.0653
  C  C355  1  0.361500  0.083200  0.714900  1.0  0.6571
  C  C356  1  0.392500  0.059700  0.508700  1.0  0.6849
  C  C357  1  0.477500  0.086000  0.535200  1.0  -0.1332
  C  C358  1  0.513000  0.143400  0.559800  1.0  -0.1468
  C  C359  1  0.439900  0.119300  0.535100  1.0  -0.0509
  C  C360  1  0.661900  0.103000  0.583600  1.0  -0.0564
  C  C361  1  0.810100  0.838700  0.694000  1.0  -0.1239
  C  C362  1  0.042700  0.899800  0.646100  1.0  0.2737
  C  C363  1  0.715300  0.858800  0.703200  1.0  -0.0714
  C  C364  1  0.732800  0.893200  0.700300  1.0  -0.07
  C  C365  1  0.528300  0.821700  0.561000  1.0  0.6753
  C  C366  1  0.221100  0.905370  0.612600  1.0  0.3677
  C  C367  1  0.839100  0.905500  0.680600  1.0  -0.0652
  C  C368  1  0.373700  0.864900  0.582700  1.0  -0.0234
  C  C369  1  0.918500  0.851000  0.675800  1.0  -0.0388
  C  C370  1  0.792700  0.802500  0.704700  1.0  0.6908
  C  C371  1  0.411800  0.921800  0.557300  1.0  -0.0736
  C  C372  1  0.935400  0.884400  0.665900  1.0  -0.0646
  C  C373  1  0.638500  0.916800  0.714900  1.0  0.6575
  C  C374  1  0.607500  0.940300  0.508700  1.0  0.685
  C  C375  1  0.522500  0.914000  0.535200  1.0  -0.1325
  C  C376  1  0.487000  0.856600  0.559800  1.0  -0.1478
  C  C377  1  0.560100  0.880700  0.535100  1.0  -0.0502
  C  C378  1  0.338100  0.897000  0.583600  1.0  -0.0558
  C  C379  1  0.810100  0.338700  0.194000  1.0  -0.1239
  C  C380  1  0.042700  0.399800  0.146100  1.0  0.2737
  C  C381  1  0.715300  0.358800  0.203200  1.0  -0.0714
  C  C382  1  0.732800  0.393200  0.200300  1.0  -0.07
  C  C383  1  0.528300  0.321700  0.061000  1.0  0.6753
  C  C384  1  0.221100  0.405370  0.112600  1.0  0.3677
  C  C385  1  0.839100  0.405500  0.180600  1.0  -0.0652
  C  C386  1  0.373700  0.364900  0.082700  1.0  -0.0234
  C  C387  1  0.918500  0.351000  0.175800  1.0  -0.0388
  C  C388  1  0.792700  0.302500  0.204700  1.0  0.6908
  C  C389  1  0.411800  0.421800  0.057300  1.0  -0.0736
  C  C390  1  0.935400  0.384400  0.165900  1.0  -0.0646
  C  C391  1  0.638500  0.416800  0.214900  1.0  0.6575
  C  C392  1  0.607500  0.440300  0.008700  1.0  0.685
  C  C393  1  0.522500  0.414000  0.035200  1.0  -0.1325
  C  C394  1  0.487000  0.356600  0.059800  1.0  -0.1478
  C  C395  1  0.560100  0.380700  0.035100  1.0  -0.0502
  C  C396  1  0.338100  0.397000  0.083600  1.0  -0.0558
  C  C397  1  0.310100  0.838700  0.194000  1.0  -0.1239
  C  C398  1  0.542700  0.899800  0.146100  1.0  0.2737
  C  C399  1  0.215300  0.858800  0.203200  1.0  -0.0714
  C  C400  1  0.232800  0.893200  0.200300  1.0  -0.07
  C  C401  1  0.028300  0.821700  0.061000  1.0  0.6753
  C  C402  1  0.721100  0.905370  0.112600  1.0  0.3677
  C  C403  1  0.339100  0.905500  0.180600  1.0  -0.0652
  C  C404  1  0.873700  0.864900  0.082700  1.0  -0.0234
  C  C405  1  0.418500  0.851000  0.175800  1.0  -0.0388
  C  C406  1  0.292700  0.802500  0.204700  1.0  0.6908
  C  C407  1  0.911800  0.921800  0.057300  1.0  -0.0736
  C  C408  1  0.435400  0.884400  0.165900  1.0  -0.0646
  C  C409  1  0.138500  0.916800  0.214900  1.0  0.6575
  C  C410  1  0.107500  0.940300  0.008700  1.0  0.685
  C  C411  1  0.022500  0.914000  0.035200  1.0  -0.1325
  C  C412  1  0.987000  0.856600  0.059800  1.0  -0.1478
  C  C413  1  0.060100  0.880700  0.035100  1.0  -0.0502
  C  C414  1  0.838100  0.897000  0.083600  1.0  -0.0558
  C  C415  1  0.310100  0.338700  0.694000  1.0  -0.1239
  C  C416  1  0.542700  0.399800  0.646100  1.0  0.2737
  C  C417  1  0.215300  0.358800  0.703200  1.0  -0.0714
  C  C418  1  0.232800  0.393200  0.700300  1.0  -0.07
  C  C419  1  0.028300  0.321700  0.561000  1.0  0.6753
  C  C420  1  0.721100  0.405370  0.612600  1.0  0.3677
  C  C421  1  0.339100  0.405500  0.680600  1.0  -0.0652
  C  C422  1  0.873700  0.364900  0.582700  1.0  -0.0234
  C  C423  1  0.418500  0.351000  0.675800  1.0  -0.0388
  C  C424  1  0.292700  0.302500  0.704700  1.0  0.6908
  C  C425  1  0.911800  0.421800  0.557300  1.0  -0.0736
  C  C426  1  0.435400  0.384400  0.665900  1.0  -0.0646
  C  C427  1  0.138500  0.416800  0.714900  1.0  0.6575
  C  C428  1  0.107500  0.440300  0.508700  1.0  0.685
  C  C429  1  0.022500  0.414000  0.535200  1.0  -0.1325
  C  C430  1  0.987000  0.356600  0.559800  1.0  -0.1478
  C  C431  1  0.060100  0.380700  0.535100  1.0  -0.0502
  C  C432  1  0.838100  0.397000  0.583600  1.0  -0.0558
  N  N433  1  0.112600  0.631500  0.372900  1.0  -0.4907
  N  N434  1  0.068100  0.684800  0.378500  1.0  -0.3587
  N  N435  1  0.180900  0.681300  0.400500  1.0  -0.2423
  N  N436  1  0.112600  0.131500  0.872900  1.0  -0.4907
  N  N437  1  0.068100  0.184800  0.878500  1.0  -0.3587
  N  N438  1  0.180900  0.181300  0.900500  1.0  -0.2423
  N  N439  1  0.612600  0.631500  0.872900  1.0  -0.4907
  N  N440  1  0.568100  0.684800  0.878500  1.0  -0.3587
  N  N441  1  0.680900  0.681300  0.900500  1.0  -0.2423
  N  N442  1  0.612600  0.131500  0.372900  1.0  -0.4907
  N  N443  1  0.568100  0.184800  0.378500  1.0  -0.3587
  N  N444  1  0.680900  0.181300  0.400500  1.0  -0.2423
  N  N445  1  0.887400  0.368500  0.372900  1.0  -0.4901
  N  N446  1  0.931900  0.315200  0.378500  1.0  -0.3567
  N  N447  1  0.819100  0.318700  0.400500  1.0  -0.2408
  N  N448  1  0.887400  0.868500  0.872900  1.0  -0.4901
  N  N449  1  0.931900  0.815200  0.878500  1.0  -0.3567
  N  N450  1  0.819100  0.818700  0.900500  1.0  -0.2408
  N  N451  1  0.387400  0.368500  0.872900  1.0  -0.4901
  N  N452  1  0.431900  0.315200  0.878500  1.0  -0.3567
  N  N453  1  0.319100  0.318700  0.900500  1.0  -0.2408
  N  N454  1  0.387400  0.868500  0.372900  1.0  -0.4901
  N  N455  1  0.431900  0.815200  0.378500  1.0  -0.3567
  N  N456  1  0.319100  0.818700  0.400500  1.0  -0.2408
  N  N457  1  0.362600  0.618500  0.622900  1.0  -0.4898
  N  N458  1  0.318100  0.565200  0.628500  1.0  -0.3577
  N  N459  1  0.430900  0.568700  0.650500  1.0  -0.2418
  N  N460  1  0.362600  0.118500  0.122900  1.0  -0.4898
  N  N461  1  0.318100  0.065200  0.128500  1.0  -0.3577
  N  N462  1  0.430900  0.068700  0.150500  1.0  -0.2418
  N  N463  1  0.862600  0.618500  0.122900  1.0  -0.4898
  N  N464  1  0.818100  0.565200  0.128500  1.0  -0.3577
  N  N465  1  0.930900  0.568700  0.150500  1.0  -0.2418
  N  N466  1  0.862600  0.118500  0.622900  1.0  -0.4898
  N  N467  1  0.818100  0.065200  0.628500  1.0  -0.3577
  N  N468  1  0.930900  0.068700  0.650500  1.0  -0.2418
  N  N469  1  0.137400  0.881500  0.622900  1.0  -0.4909
  N  N470  1  0.181900  0.934800  0.628500  1.0  -0.3576
  N  N471  1  0.069100  0.931300  0.650500  1.0  -0.2419
  N  N472  1  0.137400  0.381500  0.122900  1.0  -0.4909
  N  N473  1  0.181900  0.434800  0.128500  1.0  -0.3576
  N  N474  1  0.069100  0.431300  0.150500  1.0  -0.2419
  N  N475  1  0.637400  0.881500  0.122900  1.0  -0.4909
  N  N476  1  0.681900  0.934800  0.128500  1.0  -0.3576
  N  N477  1  0.569100  0.931300  0.150500  1.0  -0.2419
  N  N478  1  0.637400  0.381500  0.622900  1.0  -0.4909
  N  N479  1  0.681900  0.434800  0.628500  1.0  -0.3576
  N  N480  1  0.569100  0.431300  0.650500  1.0  -0.2419
  O  O481  1  0.705900  0.652600  0.485100  1.0  -0.5414
  O  O482  1  0.536200  0.685400  0.265300  1.0  -0.6231
  O  O483  1  0.787500  0.552200  0.347700  1.0  -0.6643
  O  O484  1  0.599000  0.696000  0.459500  1.0  -0.5307
  O  O485  1  0.679500  0.716900  0.235700  1.0  -0.6467
  O  O486  1  0.556300  0.541500  0.459000  1.0  -0.7111
  O  O487  1  0.365800  0.534600  0.464900  1.0  -0.7139
  O  O488  1  0.633900  0.562400  0.276500  1.0  -0.5235
  O  O489  1  0.705900  0.152600  0.985100  1.0  -0.5414
  O  O490  1  0.536200  0.185400  0.765300  1.0  -0.6231
  O  O491  1  0.787500  0.052200  0.847700  1.0  -0.6643
  O  O492  1  0.599000  0.196000  0.959500  1.0  -0.5307
  O  O493  1  0.679500  0.216900  0.735700  1.0  -0.6467
  O  O494  1  0.556300  0.041500  0.959000  1.0  -0.7111
  O  O495  1  0.365800  0.034600  0.964900  1.0  -0.7139
  O  O496  1  0.633900  0.062400  0.776500  1.0  -0.5235
  O  O497  1  0.205900  0.652600  0.985100  1.0  -0.5414
  O  O498  1  0.036200  0.685400  0.765300  1.0  -0.6231
  O  O499  1  0.287500  0.552200  0.847700  1.0  -0.6643
  O  O500  1  0.099000  0.696000  0.959500  1.0  -0.5307
  O  O501  1  0.179500  0.716900  0.735700  1.0  -0.6467
  O  O502  1  0.056300  0.541500  0.959000  1.0  -0.7111
  O  O503  1  0.865800  0.534600  0.964900  1.0  -0.7139
  O  O504  1  0.133900  0.562400  0.776500  1.0  -0.5235
  O  O505  1  0.205900  0.152600  0.485100  1.0  -0.5414
  O  O506  1  0.036200  0.185400  0.265300  1.0  -0.6231
  O  O507  1  0.287500  0.052200  0.347700  1.0  -0.6643
  O  O508  1  0.099000  0.196000  0.459500  1.0  -0.5307
  O  O509  1  0.179500  0.216900  0.235700  1.0  -0.6467
  O  O510  1  0.056300  0.041500  0.459000  1.0  -0.7111
  O  O511  1  0.865800  0.034600  0.464900  1.0  -0.7139
  O  O512  1  0.133900  0.062400  0.276500  1.0  -0.5235
  O  O513  1  0.294100  0.347400  0.485100  1.0  -0.5415
  O  O514  1  0.463800  0.314600  0.265300  1.0  -0.6237
  O  O515  1  0.212500  0.447800  0.347700  1.0  -0.6633
  O  O516  1  0.401000  0.304000  0.459500  1.0  -0.5328
  O  O517  1  0.320500  0.283100  0.235700  1.0  -0.6466
  O  O518  1  0.443700  0.458500  0.459000  1.0  -0.716
  O  O519  1  0.634200  0.465400  0.464900  1.0  -0.714
  O  O520  1  0.366100  0.437600  0.276500  1.0  -0.5242
  O  O521  1  0.294100  0.847400  0.985100  1.0  -0.5415
  O  O522  1  0.463800  0.814600  0.765300  1.0  -0.6237
  O  O523  1  0.212500  0.947800  0.847700  1.0  -0.6633
  O  O524  1  0.401000  0.804000  0.959500  1.0  -0.5328
  O  O525  1  0.320500  0.783100  0.735700  1.0  -0.6466
  O  O526  1  0.443700  0.958500  0.959000  1.0  -0.716
  O  O527  1  0.634200  0.965400  0.964900  1.0  -0.714
  O  O528  1  0.366100  0.937600  0.776500  1.0  -0.5242
  O  O529  1  0.794100  0.347400  0.985100  1.0  -0.5415
  O  O530  1  0.963800  0.314600  0.765300  1.0  -0.6237
  O  O531  1  0.712500  0.447800  0.847700  1.0  -0.6633
  O  O532  1  0.901000  0.304000  0.959500  1.0  -0.5328
  O  O533  1  0.820500  0.283100  0.735700  1.0  -0.6466
  O  O534  1  0.943700  0.458500  0.959000  1.0  -0.716
  O  O535  1  0.134200  0.465400  0.964900  1.0  -0.714
  O  O536  1  0.866100  0.437600  0.776500  1.0  -0.5242
  O  O537  1  0.794100  0.847400  0.485100  1.0  -0.5415
  O  O538  1  0.963800  0.814600  0.265300  1.0  -0.6237
  O  O539  1  0.712500  0.947800  0.347700  1.0  -0.6633
  O  O540  1  0.901000  0.804000  0.459500  1.0  -0.5328
  O  O541  1  0.820500  0.783100  0.235700  1.0  -0.6466
  O  O542  1  0.943700  0.958500  0.459000  1.0  -0.716
  O  O543  1  0.134200  0.965400  0.464900  1.0  -0.714
  O  O544  1  0.866100  0.937600  0.276500  1.0  -0.5242
  O  O545  1  0.955900  0.597400  0.735100  1.0  -0.5412
  O  O546  1  0.786200  0.564600  0.515300  1.0  -0.6238
  O  O547  1  0.037500  0.697800  0.597700  1.0  -0.6638
  O  O548  1  0.849000  0.554000  0.709500  1.0  -0.5331
  O  O549  1  0.929500  0.533100  0.485700  1.0  -0.6488
  O  O550  1  0.806300  0.708500  0.709000  1.0  -0.7162
  O  O551  1  0.615800  0.715400  0.714900  1.0  -0.7137
  O  O552  1  0.883900  0.687600  0.526500  1.0  -0.5247
  O  O553  1  0.955900  0.097400  0.235100  1.0  -0.5412
  O  O554  1  0.786200  0.064600  0.015300  1.0  -0.6238
  O  O555  1  0.037500  0.197800  0.097700  1.0  -0.6638
  O  O556  1  0.849000  0.054000  0.209500  1.0  -0.5331
  O  O557  1  0.929500  0.033100  0.985700  1.0  -0.6488
  O  O558  1  0.806300  0.208500  0.209000  1.0  -0.7162
  O  O559  1  0.615800  0.215400  0.214900  1.0  -0.7137
  O  O560  1  0.883900  0.187600  0.026500  1.0  -0.5247
  O  O561  1  0.455900  0.597400  0.235100  1.0  -0.5412
  O  O562  1  0.286200  0.564600  0.015300  1.0  -0.6238
  O  O563  1  0.537500  0.697800  0.097700  1.0  -0.6638
  O  O564  1  0.349000  0.554000  0.209500  1.0  -0.5331
  O  O565  1  0.429500  0.533100  0.985700  1.0  -0.6488
  O  O566  1  0.306300  0.708500  0.209000  1.0  -0.7162
  O  O567  1  0.115800  0.715400  0.214900  1.0  -0.7137
  O  O568  1  0.383900  0.687600  0.026500  1.0  -0.5247
  O  O569  1  0.455900  0.097400  0.735100  1.0  -0.5412
  O  O570  1  0.286200  0.064600  0.515300  1.0  -0.6238
  O  O571  1  0.537500  0.197800  0.597700  1.0  -0.6638
  O  O572  1  0.349000  0.054000  0.709500  1.0  -0.5331
  O  O573  1  0.429500  0.033100  0.485700  1.0  -0.6488
  O  O574  1  0.306300  0.208500  0.709000  1.0  -0.7162
  O  O575  1  0.115800  0.215400  0.714900  1.0  -0.7137
  O  O576  1  0.383900  0.187600  0.526500  1.0  -0.5247
  O  O577  1  0.544100  0.902600  0.735100  1.0  -0.5413
  O  O578  1  0.713800  0.935400  0.515300  1.0  -0.621
  O  O579  1  0.462500  0.802200  0.597700  1.0  -0.6644
  O  O580  1  0.651000  0.946000  0.709500  1.0  -0.5308
  O  O581  1  0.570500  0.966900  0.485700  1.0  -0.6514
  O  O582  1  0.693700  0.791500  0.709000  1.0  -0.7164
  O  O583  1  0.884200  0.784600  0.714900  1.0  -0.7142
  O  O584  1  0.616100  0.812400  0.526500  1.0  -0.5231
  O  O585  1  0.544100  0.402600  0.235100  1.0  -0.5413
  O  O586  1  0.713800  0.435400  0.015300  1.0  -0.621
  O  O587  1  0.462500  0.302200  0.097700  1.0  -0.6644
  O  O588  1  0.651000  0.446000  0.209500  1.0  -0.5308
  O  O589  1  0.570500  0.466900  0.985700  1.0  -0.6514
  O  O590  1  0.693700  0.291500  0.209000  1.0  -0.7164
  O  O591  1  0.884200  0.284600  0.214900  1.0  -0.7142
  O  O592  1  0.616100  0.312400  0.026500  1.0  -0.5231
  O  O593  1  0.044100  0.902600  0.235100  1.0  -0.5413
  O  O594  1  0.213800  0.935400  0.015300  1.0  -0.621
  O  O595  1  0.962500  0.802200  0.097700  1.0  -0.6644
  O  O596  1  0.151000  0.946000  0.209500  1.0  -0.5308
  O  O597  1  0.070500  0.966900  0.985700  1.0  -0.6514
  O  O598  1  0.193700  0.791500  0.209000  1.0  -0.7164
  O  O599  1  0.384200  0.784600  0.214900  1.0  -0.7142
  O  O600  1  0.116100  0.812400  0.026500  1.0  -0.5231
  O  O601  1  0.044100  0.402600  0.735100  1.0  -0.5413
  O  O602  1  0.213800  0.435400  0.515300  1.0  -0.621
  O  O603  1  0.962500  0.302200  0.597700  1.0  -0.6644
  O  O604  1  0.151000  0.446000  0.709500  1.0  -0.5308
  O  O605  1  0.070500  0.466900  0.485700  1.0  -0.6514
  O  O606  1  0.193700  0.291500  0.709000  1.0  -0.7164
  O  O607  1  0.384200  0.284600  0.714900  1.0  -0.7142
  O  O608  1  0.116100  0.312400  0.526500  1.0  -0.5231
