# generated using pymatgen
data_Zn3P4(HO3)4
_symmetry_space_group_name_H-M   'P 1'
_cell_length_a   9.67730000
_cell_length_b   13.86760000
_cell_length_c   15.44820000
_cell_angle_alpha   90.00000000
_cell_angle_beta   90.03900000
_cell_angle_gamma   90.00000000
_symmetry_Int_Tables_number   1
_chemical_formula_structural   Zn3P4(HO3)4
_chemical_formula_sum   'Zn12 P16 H16 O48'
_cell_volume   2073.16225673
_cell_formula_units_Z   4
loop_
 _symmetry_equiv_pos_site_id
 _symmetry_equiv_pos_as_xyz
  1  'x, y, z'
loop_
 _atom_site_type_symbol
 _atom_site_label
 _atom_site_symmetry_multiplicity
 _atom_site_fract_x
 _atom_site_fract_y
 _atom_site_fract_z
 _atom_site_occupancy
 _atom_site_charge
  Zn  Zn1  1  0.557460  0.397630  0.580030  1.0  1.1443
  Zn  Zn2  1  0.467360  0.107240  0.585940  1.0  1.151
  Zn  Zn3  1  0.495780  0.245860  0.225300  1.0  1.1316
  Zn  Zn4  1  0.942540  0.897630  0.919970  1.0  1.143
  Zn  Zn5  1  0.032640  0.607240  0.914060  1.0  1.1502
  Zn  Zn6  1  0.004220  0.745860  0.274700  1.0  1.1336
  Zn  Zn7  1  0.442540  0.602370  0.419970  1.0  1.1428
  Zn  Zn8  1  0.532640  0.892760  0.414060  1.0  1.15
  Zn  Zn9  1  0.504220  0.754140  0.774700  1.0  1.1335
  Zn  Zn10  1  0.057460  0.102370  0.080030  1.0  1.1442
  Zn  Zn11  1  0.967360  0.392760  0.085940  1.0  1.1507
  Zn  Zn12  1  0.995780  0.254140  0.725300  1.0  1.1317
  P  P13  1  0.751360  0.217720  0.596560  1.0  1.5168
  P  P14  1  0.274740  0.289100  0.622870  1.0  1.5436
  P  P15  1  0.513880  0.112810  0.380560  1.0  1.5449
  P  P16  1  0.466660  0.385850  0.383580  1.0  1.5377
  P  P17  1  0.748640  0.717720  0.903440  1.0  1.5168
  P  P18  1  0.225260  0.789100  0.877130  1.0  1.5418
  P  P19  1  0.986120  0.612810  0.119440  1.0  1.5448
  P  P20  1  0.033340  0.885850  0.116420  1.0  1.5353
  P  P21  1  0.248640  0.782280  0.403440  1.0  1.5135
  P  P22  1  0.725260  0.710900  0.377130  1.0  1.5407
  P  P23  1  0.486120  0.887190  0.619440  1.0  1.5436
  P  P24  1  0.533340  0.614150  0.616420  1.0  1.5345
  P  P25  1  0.251360  0.282280  0.096560  1.0  1.5157
  P  P26  1  0.774740  0.210900  0.122870  1.0  1.5428
  P  P27  1  0.013880  0.387190  0.880560  1.0  1.5444
  P  P28  1  0.966660  0.114150  0.883580  1.0  1.5416
  H  H29  1  0.763100  0.229300  0.512100  1.0  -0.0707
  H  H30  1  0.213600  0.274200  0.547600  1.0  -0.0864
  H  H31  1  0.613900  0.176500  0.391000  1.0  -0.0781
  H  H32  1  0.378900  0.316500  0.403700  1.0  -0.0755
  H  H33  1  0.736900  0.729300  0.987900  1.0  -0.0722
  H  H34  1  0.286400  0.774200  0.952400  1.0  -0.0856
  H  H35  1  0.886100  0.676500  0.109000  1.0  -0.0834
  H  H36  1  0.121100  0.816500  0.096300  1.0  -0.0737
  H  H37  1  0.236900  0.770700  0.487900  1.0  -0.0723
  H  H38  1  0.786400  0.725800  0.452400  1.0  -0.0852
  H  H39  1  0.386100  0.823500  0.609000  1.0  -0.0813
  H  H40  1  0.621100  0.683500  0.596300  1.0  -0.0731
  H  H41  1  0.263100  0.270700  0.012100  1.0  -0.0704
  H  H42  1  0.713600  0.225800  0.047600  1.0  -0.0861
  H  H43  1  0.113900  0.323500  0.891000  1.0  -0.0793
  H  H44  1  0.878900  0.183500  0.903700  1.0  -0.0776
  O  O45  1  0.662500  0.128420  0.610990  1.0  -0.7634
  O  O46  1  0.686800  0.309090  0.632070  1.0  -0.7824
  O  O47  1  0.895000  0.200280  0.631480  1.0  -0.7363
  O  O48  1  0.366400  0.377580  0.612710  1.0  -0.7937
  O  O49  1  0.349700  0.196890  0.646620  1.0  -0.7815
  O  O50  1  0.162400  0.315280  0.687550  1.0  -0.7823
  O  O51  1  0.430600  0.111820  0.463320  1.0  -0.8088
  O  O52  1  0.582200  0.015930  0.361110  1.0  -0.751
  O  O53  1  0.424200  0.148030  0.305290  1.0  -0.7529
  O  O54  1  0.571900  0.392280  0.455530  1.0  -0.8
  O  O55  1  0.383700  0.478920  0.372120  1.0  -0.7519
  O  O56  1  0.537200  0.357620  0.298950  1.0  -0.7529
  O  O57  1  0.837500  0.628420  0.889010  1.0  -0.7652
  O  O58  1  0.813200  0.809090  0.867930  1.0  -0.7829
  O  O59  1  0.605000  0.700280  0.868520  1.0  -0.736
  O  O60  1  0.133600  0.877580  0.887290  1.0  -0.7929
  O  O61  1  0.150300  0.696890  0.853380  1.0  -0.7805
  O  O62  1  0.337600  0.815280  0.812450  1.0  -0.7807
  O  O63  1  0.069400  0.611820  0.036680  1.0  -0.8068
  O  O64  1  0.917800  0.515930  0.138890  1.0  -0.7503
  O  O65  1  0.075800  0.648030  0.194710  1.0  -0.7533
  O  O66  1  0.928100  0.892280  0.044470  1.0  -0.7988
  O  O67  1  0.116300  0.978920  0.127880  1.0  -0.7509
  O  O68  1  0.962800  0.857620  0.201050  1.0  -0.752
  O  O69  1  0.337500  0.871580  0.389010  1.0  -0.7645
  O  O70  1  0.313200  0.690910  0.367930  1.0  -0.7824
  O  O71  1  0.105000  0.799720  0.368520  1.0  -0.7357
  O  O72  1  0.633600  0.622420  0.387290  1.0  -0.7938
  O  O73  1  0.650300  0.803110  0.353380  1.0  -0.7801
  O  O74  1  0.837600  0.684720  0.312450  1.0  -0.7807
  O  O75  1  0.569400  0.888180  0.536680  1.0  -0.8069
  O  O76  1  0.417800  0.984070  0.638890  1.0  -0.7503
  O  O77  1  0.575800  0.851970  0.694710  1.0  -0.7532
  O  O78  1  0.428100  0.607720  0.544470  1.0  -0.7987
  O  O79  1  0.616300  0.521080  0.627880  1.0  -0.7515
  O  O80  1  0.462800  0.642380  0.701050  1.0  -0.7517
  O  O81  1  0.162500  0.371580  0.110990  1.0  -0.7635
  O  O82  1  0.186800  0.190910  0.132070  1.0  -0.7833
  O  O83  1  0.395000  0.299720  0.131480  1.0  -0.7358
  O  O84  1  0.866400  0.122420  0.112710  1.0  -0.794
  O  O85  1  0.849700  0.303110  0.146620  1.0  -0.7807
  O  O86  1  0.662400  0.184720  0.187550  1.0  -0.782
  O  O87  1  0.930600  0.388180  0.963320  1.0  -0.8094
  O  O88  1  0.082200  0.484070  0.861110  1.0  -0.7512
  O  O89  1  0.924200  0.351970  0.805290  1.0  -0.7529
  O  O90  1  0.071900  0.107720  0.955530  1.0  -0.8
  O  O91  1  0.883700  0.021080  0.872120  1.0  -0.7523
  O  O92  1  0.037200  0.142380  0.798950  1.0  -0.7525
