# generated using pymatgen
data_DyH8C18N3O8
_symmetry_space_group_name_H-M   'P 1'
_cell_length_a   11.52930000
_cell_length_b   40.47100000
_cell_length_c   17.13040000
_cell_angle_alpha   90.00000000
_cell_angle_beta   90.00000000
_cell_angle_gamma   90.00000000
_symmetry_Int_Tables_number   1
_chemical_formula_structural   DyH8C18N3O8
_chemical_formula_sum   'Dy16 H128 C288 N48 O128'
_cell_volume   7993.08404506
_cell_formula_units_Z   16
loop_
 _symmetry_equiv_pos_site_id
 _symmetry_equiv_pos_as_xyz
  1  'x, y, z'
loop_
 _atom_site_type_symbol
 _atom_site_label
 _atom_site_symmetry_multiplicity
 _atom_site_fract_x
 _atom_site_fract_y
 _atom_site_fract_z
 _atom_site_occupancy
 _atom_site_charge
  Dy  Dy1  1  0.229660  0.514600  0.748920  1.0  2.2403
  Dy  Dy2  1  0.229660  0.014600  0.248920  1.0  2.2403
  Dy  Dy3  1  0.729660  0.514600  0.248920  1.0  2.2403
  Dy  Dy4  1  0.729660  0.014600  0.748920  1.0  2.2403
  Dy  Dy5  1  0.770340  0.485400  0.748920  1.0  2.2405
  Dy  Dy6  1  0.770340  0.985400  0.248920  1.0  2.2405
  Dy  Dy7  1  0.270340  0.485400  0.248920  1.0  2.2405
  Dy  Dy8  1  0.270340  0.985400  0.748920  1.0  2.2405
  Dy  Dy9  1  0.479660  0.735400  0.998920  1.0  2.2401
  Dy  Dy10  1  0.479660  0.235400  0.498920  1.0  2.2401
  Dy  Dy11  1  0.979660  0.735400  0.498920  1.0  2.2401
  Dy  Dy12  1  0.979660  0.235400  0.998920  1.0  2.2401
  Dy  Dy13  1  0.020340  0.764600  0.998920  1.0  2.2406
  Dy  Dy14  1  0.020340  0.264600  0.498920  1.0  2.2406
  Dy  Dy15  1  0.520340  0.764600  0.498920  1.0  2.2406
  Dy  Dy16  1  0.520340  0.264600  0.998920  1.0  2.2406
  H  H17  1  0.754300  0.333100  0.813600  1.0  0.3895
  H  H18  1  0.892500  0.398000  0.772500  1.0  0.1051
  H  H19  1  0.639000  0.306000  0.608700  1.0  0.1249
  H  H20  1  0.102500  0.321100  0.722500  1.0  0.1257
  H  H21  1  0.576900  0.402900  0.652400  1.0  0.1129
  H  H22  1  0.231100  0.413800  0.716600  1.0  0.1067
  H  H23  1  0.890400  0.374100  0.571300  1.0  0.1091
  H  H24  1  0.273400  0.303900  0.715300  1.0  0.2838
  H  H25  1  0.754300  0.833100  0.313600  1.0  0.3895
  H  H26  1  0.892500  0.898000  0.272500  1.0  0.1051
  H  H27  1  0.639000  0.806000  0.108700  1.0  0.1249
  H  H28  1  0.102500  0.821100  0.222500  1.0  0.1257
  H  H29  1  0.576900  0.902900  0.152400  1.0  0.1129
  H  H30  1  0.231100  0.913800  0.216600  1.0  0.1067
  H  H31  1  0.890400  0.874100  0.071300  1.0  0.1091
  H  H32  1  0.273400  0.803900  0.215300  1.0  0.2838
  H  H33  1  0.254300  0.333100  0.313600  1.0  0.3895
  H  H34  1  0.392500  0.398000  0.272500  1.0  0.1051
  H  H35  1  0.139000  0.306000  0.108700  1.0  0.1249
  H  H36  1  0.602500  0.321100  0.222500  1.0  0.1257
  H  H37  1  0.076900  0.402900  0.152400  1.0  0.1129
  H  H38  1  0.731100  0.413800  0.216600  1.0  0.1067
  H  H39  1  0.390400  0.374100  0.071300  1.0  0.1091
  H  H40  1  0.773400  0.303900  0.215300  1.0  0.2838
  H  H41  1  0.254300  0.833100  0.813600  1.0  0.3895
  H  H42  1  0.392500  0.898000  0.772500  1.0  0.1051
  H  H43  1  0.139000  0.806000  0.608700  1.0  0.1249
  H  H44  1  0.602500  0.821100  0.722500  1.0  0.1257
  H  H45  1  0.076900  0.902900  0.652400  1.0  0.1129
  H  H46  1  0.731100  0.913800  0.716600  1.0  0.1067
  H  H47  1  0.390400  0.874100  0.571300  1.0  0.1091
  H  H48  1  0.773400  0.803900  0.715300  1.0  0.2838
  H  H49  1  0.245700  0.666900  0.813600  1.0  0.3899
  H  H50  1  0.107500  0.602000  0.772500  1.0  0.1054
  H  H51  1  0.361000  0.694000  0.608700  1.0  0.1249
  H  H52  1  0.897500  0.678900  0.722500  1.0  0.1239
  H  H53  1  0.423100  0.597100  0.652400  1.0  0.1123
  H  H54  1  0.768900  0.586200  0.716600  1.0  0.1067
  H  H55  1  0.109600  0.625900  0.571300  1.0  0.1082
  H  H56  1  0.726600  0.696100  0.715300  1.0  0.2834
  H  H57  1  0.245700  0.166900  0.313600  1.0  0.3899
  H  H58  1  0.107500  0.102000  0.272500  1.0  0.1054
  H  H59  1  0.361000  0.194000  0.108700  1.0  0.1249
  H  H60  1  0.897500  0.178900  0.222500  1.0  0.1239
  H  H61  1  0.423100  0.097100  0.152400  1.0  0.1123
  H  H62  1  0.768900  0.086200  0.216600  1.0  0.1067
  H  H63  1  0.109600  0.125900  0.071300  1.0  0.1082
  H  H64  1  0.726600  0.196100  0.215300  1.0  0.2834
  H  H65  1  0.745700  0.666900  0.313600  1.0  0.3899
  H  H66  1  0.607500  0.602000  0.272500  1.0  0.1054
  H  H67  1  0.861000  0.694000  0.108700  1.0  0.1249
  H  H68  1  0.397500  0.678900  0.222500  1.0  0.1239
  H  H69  1  0.923100  0.597100  0.152400  1.0  0.1123
  H  H70  1  0.268900  0.586200  0.216600  1.0  0.1067
  H  H71  1  0.609600  0.625900  0.071300  1.0  0.1082
  H  H72  1  0.226600  0.696100  0.215300  1.0  0.2834
  H  H73  1  0.745700  0.166900  0.813600  1.0  0.3899
  H  H74  1  0.607500  0.102000  0.772500  1.0  0.1054
  H  H75  1  0.861000  0.194000  0.608700  1.0  0.1249
  H  H76  1  0.397500  0.178900  0.722500  1.0  0.1239
  H  H77  1  0.923100  0.097100  0.652400  1.0  0.1123
  H  H78  1  0.268900  0.086200  0.716600  1.0  0.1067
  H  H79  1  0.609600  0.125900  0.571300  1.0  0.1082
  H  H80  1  0.226600  0.196100  0.715300  1.0  0.2834
  H  H81  1  0.004300  0.916900  0.063600  1.0  0.3898
  H  H82  1  0.142500  0.852000  0.022500  1.0  0.1048
  H  H83  1  0.889000  0.944000  0.858700  1.0  0.1251
  H  H84  1  0.352500  0.928900  0.972500  1.0  0.1239
  H  H85  1  0.826900  0.847100  0.902400  1.0  0.1122
  H  H86  1  0.481100  0.836200  0.966600  1.0  0.1068
  H  H87  1  0.140400  0.875900  0.821300  1.0  0.1091
  H  H88  1  0.523400  0.946100  0.965300  1.0  0.2836
  H  H89  1  0.004300  0.416900  0.563600  1.0  0.3898
  H  H90  1  0.142500  0.352000  0.522500  1.0  0.1048
  H  H91  1  0.889000  0.444000  0.358700  1.0  0.1251
  H  H92  1  0.352500  0.428900  0.472500  1.0  0.1239
  H  H93  1  0.826900  0.347100  0.402400  1.0  0.1122
  H  H94  1  0.481100  0.336200  0.466600  1.0  0.1068
  H  H95  1  0.140400  0.375900  0.321300  1.0  0.1091
  H  H96  1  0.523400  0.446100  0.465300  1.0  0.2836
  H  H97  1  0.504300  0.916900  0.563600  1.0  0.3898
  H  H98  1  0.642500  0.852000  0.522500  1.0  0.1048
  H  H99  1  0.389000  0.944000  0.358700  1.0  0.1251
  H  H100  1  0.852500  0.928900  0.472500  1.0  0.1239
  H  H101  1  0.326900  0.847100  0.402400  1.0  0.1122
  H  H102  1  0.981100  0.836200  0.466600  1.0  0.1068
  H  H103  1  0.640400  0.875900  0.321300  1.0  0.1091
  H  H104  1  0.023400  0.946100  0.465300  1.0  0.2836
  H  H105  1  0.504300  0.416900  0.063600  1.0  0.3898
  H  H106  1  0.642500  0.352000  0.022500  1.0  0.1048
  H  H107  1  0.389000  0.444000  0.858700  1.0  0.1251
  H  H108  1  0.852500  0.428900  0.972500  1.0  0.1239
  H  H109  1  0.326900  0.347100  0.902400  1.0  0.1122
  H  H110  1  0.981100  0.336200  0.966600  1.0  0.1068
  H  H111  1  0.640400  0.375900  0.821300  1.0  0.1091
  H  H112  1  0.023400  0.446100  0.965300  1.0  0.2836
  H  H113  1  0.495700  0.583100  0.063600  1.0  0.3905
  H  H114  1  0.357500  0.648000  0.022500  1.0  0.1051
  H  H115  1  0.611000  0.556000  0.858700  1.0  0.1248
  H  H116  1  0.147500  0.571100  0.972500  1.0  0.1255
  H  H117  1  0.673100  0.652900  0.902400  1.0  0.1122
  H  H118  1  0.018900  0.663800  0.966600  1.0  0.1072
  H  H119  1  0.359600  0.624100  0.821300  1.0  0.1083
  H  H120  1  0.976600  0.553900  0.965300  1.0  0.2838
  H  H121  1  0.495700  0.083100  0.563600  1.0  0.3905
  H  H122  1  0.357500  0.148000  0.522500  1.0  0.1051
  H  H123  1  0.611000  0.056000  0.358700  1.0  0.1248
  H  H124  1  0.147500  0.071100  0.472500  1.0  0.1255
  H  H125  1  0.673100  0.152900  0.402400  1.0  0.1122
  H  H126  1  0.018900  0.163800  0.466600  1.0  0.1072
  H  H127  1  0.359600  0.124100  0.321300  1.0  0.1083
  H  H128  1  0.976600  0.053900  0.465300  1.0  0.2838
  H  H129  1  0.995700  0.583100  0.563600  1.0  0.3905
  H  H130  1  0.857500  0.648000  0.522500  1.0  0.1051
  H  H131  1  0.111000  0.556000  0.358700  1.0  0.1248
  H  H132  1  0.647500  0.571100  0.472500  1.0  0.1255
  H  H133  1  0.173100  0.652900  0.402400  1.0  0.1122
  H  H134  1  0.518900  0.663800  0.466600  1.0  0.1072
  H  H135  1  0.859600  0.624100  0.321300  1.0  0.1083
  H  H136  1  0.476600  0.553900  0.465300  1.0  0.2838
  H  H137  1  0.995700  0.083100  0.063600  1.0  0.3905
  H  H138  1  0.857500  0.148000  0.022500  1.0  0.1051
  H  H139  1  0.111000  0.056000  0.858700  1.0  0.1248
  H  H140  1  0.647500  0.071100  0.972500  1.0  0.1255
  H  H141  1  0.173100  0.152900  0.902400  1.0  0.1122
  H  H142  1  0.518900  0.163800  0.966600  1.0  0.1072
  H  H143  1  0.859600  0.124100  0.821300  1.0  0.1083
  H  H144  1  0.476600  0.053900  0.965300  1.0  0.2838
  C  C145  1  0.059500  0.412000  0.747700  1.0  -0.1491
  C  C146  1  0.298600  0.351200  0.697500  1.0  0.3666
  C  C147  1  0.967200  0.389700  0.759500  1.0  -0.0348
  C  C148  1  0.984000  0.356400  0.752300  1.0  -0.1596
  C  C149  1  0.665300  0.328200  0.610100  1.0  -0.0499
  C  C150  1  0.859500  0.309700  0.561100  1.0  0.6871
  C  C151  1  0.472500  0.345600  0.662300  1.0  0.3232
  C  C152  1  0.092100  0.344200  0.729800  1.0  -0.1038
  C  C153  1  0.776400  0.429300  0.612000  1.0  0.704
  C  C154  1  0.627700  0.385900  0.635500  1.0  -0.063
  C  C155  1  0.184900  0.365700  0.717800  1.0  -0.0733
  C  C156  1  0.168300  0.399100  0.725900  1.0  -0.0462
  C  C157  1  0.738700  0.393800  0.610600  1.0  -0.1256
  C  C158  1  0.890200  0.332300  0.767200  1.0  0.659
  C  C159  1  0.813700  0.368900  0.587300  1.0  -0.0994
  C  C160  1  0.776500  0.336000  0.587200  1.0  -0.1349
  C  C161  1  0.042900  0.448500  0.759600  1.0  0.7517
  C  C162  1  0.590800  0.353800  0.635800  1.0  -0.1335
  C  C163  1  0.059500  0.912000  0.247700  1.0  -0.1491
  C  C164  1  0.298600  0.851200  0.197500  1.0  0.3666
  C  C165  1  0.967200  0.889700  0.259500  1.0  -0.0348
  C  C166  1  0.984000  0.856400  0.252300  1.0  -0.1596
  C  C167  1  0.665300  0.828200  0.110100  1.0  -0.0499
  C  C168  1  0.859500  0.809700  0.061100  1.0  0.6871
  C  C169  1  0.472500  0.845600  0.162300  1.0  0.3232
  C  C170  1  0.092100  0.844200  0.229800  1.0  -0.1038
  C  C171  1  0.776400  0.929300  0.112000  1.0  0.704
  C  C172  1  0.627700  0.885900  0.135500  1.0  -0.063
  C  C173  1  0.184900  0.865700  0.217800  1.0  -0.0733
  C  C174  1  0.168300  0.899100  0.225900  1.0  -0.0462
  C  C175  1  0.738700  0.893800  0.110600  1.0  -0.1256
  C  C176  1  0.890200  0.832300  0.267200  1.0  0.659
  C  C177  1  0.813700  0.868900  0.087300  1.0  -0.0994
  C  C178  1  0.776500  0.836000  0.087200  1.0  -0.1349
  C  C179  1  0.042900  0.948500  0.259600  1.0  0.7517
  C  C180  1  0.590800  0.853800  0.135800  1.0  -0.1335
  C  C181  1  0.559500  0.412000  0.247700  1.0  -0.1491
  C  C182  1  0.798600  0.351200  0.197500  1.0  0.3666
  C  C183  1  0.467200  0.389700  0.259500  1.0  -0.0348
  C  C184  1  0.484000  0.356400  0.252300  1.0  -0.1596
  C  C185  1  0.165300  0.328200  0.110100  1.0  -0.0499
  C  C186  1  0.359500  0.309700  0.061100  1.0  0.6871
  C  C187  1  0.972500  0.345600  0.162300  1.0  0.3232
  C  C188  1  0.592100  0.344200  0.229800  1.0  -0.1038
  C  C189  1  0.276400  0.429300  0.112000  1.0  0.704
  C  C190  1  0.127700  0.385900  0.135500  1.0  -0.063
  C  C191  1  0.684900  0.365700  0.217800  1.0  -0.0733
  C  C192  1  0.668300  0.399100  0.225900  1.0  -0.0462
  C  C193  1  0.238700  0.393800  0.110600  1.0  -0.1256
  C  C194  1  0.390200  0.332300  0.267200  1.0  0.659
  C  C195  1  0.313700  0.368900  0.087300  1.0  -0.0994
  C  C196  1  0.276500  0.336000  0.087200  1.0  -0.1349
  C  C197  1  0.542900  0.448500  0.259600  1.0  0.7517
  C  C198  1  0.090800  0.353800  0.135800  1.0  -0.1335
  C  C199  1  0.559500  0.912000  0.747700  1.0  -0.1491
  C  C200  1  0.798600  0.851200  0.697500  1.0  0.3666
  C  C201  1  0.467200  0.889700  0.759500  1.0  -0.0348
  C  C202  1  0.484000  0.856400  0.752300  1.0  -0.1596
  C  C203  1  0.165300  0.828200  0.610100  1.0  -0.0499
  C  C204  1  0.359500  0.809700  0.561100  1.0  0.6871
  C  C205  1  0.972500  0.845600  0.662300  1.0  0.3232
  C  C206  1  0.592100  0.844200  0.729800  1.0  -0.1038
  C  C207  1  0.276400  0.929300  0.612000  1.0  0.704
  C  C208  1  0.127700  0.885900  0.635500  1.0  -0.063
  C  C209  1  0.684900  0.865700  0.717800  1.0  -0.0733
  C  C210  1  0.668300  0.899100  0.725900  1.0  -0.0462
  C  C211  1  0.238700  0.893800  0.610600  1.0  -0.1256
  C  C212  1  0.390200  0.832300  0.767200  1.0  0.659
  C  C213  1  0.313700  0.868900  0.587300  1.0  -0.0994
  C  C214  1  0.276500  0.836000  0.587200  1.0  -0.1349
  C  C215  1  0.542900  0.948500  0.759600  1.0  0.7517
  C  C216  1  0.090800  0.853800  0.635800  1.0  -0.1335
  C  C217  1  0.940500  0.588000  0.747700  1.0  -0.1495
  C  C218  1  0.701400  0.648800  0.697500  1.0  0.3697
  C  C219  1  0.032800  0.610300  0.759500  1.0  -0.0345
  C  C220  1  0.016000  0.643600  0.752300  1.0  -0.1593
  C  C221  1  0.334700  0.671800  0.610100  1.0  -0.0474
  C  C222  1  0.140500  0.690300  0.561100  1.0  0.6871
  C  C223  1  0.527500  0.654400  0.662300  1.0  0.3196
  C  C224  1  0.907900  0.655800  0.729800  1.0  -0.1052
  C  C225  1  0.223600  0.570700  0.612000  1.0  0.7032
  C  C226  1  0.372300  0.614100  0.635500  1.0  -0.063
  C  C227  1  0.815100  0.634300  0.717800  1.0  -0.0731
  C  C228  1  0.831700  0.600900  0.725900  1.0  -0.0457
  C  C229  1  0.261300  0.606200  0.610600  1.0  -0.1263
  C  C230  1  0.109800  0.667700  0.767200  1.0  0.6603
  C  C231  1  0.186300  0.631100  0.587300  1.0  -0.0989
  C  C232  1  0.223500  0.664000  0.587200  1.0  -0.1348
  C  C233  1  0.957100  0.551500  0.759600  1.0  0.7493
  C  C234  1  0.409200  0.646200  0.635800  1.0  -0.1337
  C  C235  1  0.940500  0.088000  0.247700  1.0  -0.1495
  C  C236  1  0.701400  0.148800  0.197500  1.0  0.3697
  C  C237  1  0.032800  0.110300  0.259500  1.0  -0.0345
  C  C238  1  0.016000  0.143600  0.252300  1.0  -0.1593
  C  C239  1  0.334700  0.171800  0.110100  1.0  -0.0474
  C  C240  1  0.140500  0.190300  0.061100  1.0  0.6871
  C  C241  1  0.527500  0.154400  0.162300  1.0  0.3196
  C  C242  1  0.907900  0.155800  0.229800  1.0  -0.1052
  C  C243  1  0.223600  0.070700  0.112000  1.0  0.7032
  C  C244  1  0.372300  0.114100  0.135500  1.0  -0.063
  C  C245  1  0.815100  0.134300  0.217800  1.0  -0.0731
  C  C246  1  0.831700  0.100900  0.225900  1.0  -0.0457
  C  C247  1  0.261300  0.106200  0.110600  1.0  -0.1263
  C  C248  1  0.109800  0.167700  0.267200  1.0  0.6603
  C  C249  1  0.186300  0.131100  0.087300  1.0  -0.0989
  C  C250  1  0.223500  0.164000  0.087200  1.0  -0.1348
  C  C251  1  0.957100  0.051500  0.259600  1.0  0.7493
  C  C252  1  0.409200  0.146200  0.135800  1.0  -0.1337
  C  C253  1  0.440500  0.588000  0.247700  1.0  -0.1495
  C  C254  1  0.201400  0.648800  0.197500  1.0  0.3697
  C  C255  1  0.532800  0.610300  0.259500  1.0  -0.0345
  C  C256  1  0.516000  0.643600  0.252300  1.0  -0.1593
  C  C257  1  0.834700  0.671800  0.110100  1.0  -0.0474
  C  C258  1  0.640500  0.690300  0.061100  1.0  0.6871
  C  C259  1  0.027500  0.654400  0.162300  1.0  0.3196
  C  C260  1  0.407900  0.655800  0.229800  1.0  -0.1052
  C  C261  1  0.723600  0.570700  0.112000  1.0  0.7032
  C  C262  1  0.872300  0.614100  0.135500  1.0  -0.063
  C  C263  1  0.315100  0.634300  0.217800  1.0  -0.0731
  C  C264  1  0.331700  0.600900  0.225900  1.0  -0.0457
  C  C265  1  0.761300  0.606200  0.110600  1.0  -0.1263
  C  C266  1  0.609800  0.667700  0.267200  1.0  0.6603
  C  C267  1  0.686300  0.631100  0.087300  1.0  -0.0989
  C  C268  1  0.723500  0.664000  0.087200  1.0  -0.1348
  C  C269  1  0.457100  0.551500  0.259600  1.0  0.7493
  C  C270  1  0.909200  0.646200  0.135800  1.0  -0.1337
  C  C271  1  0.440500  0.088000  0.747700  1.0  -0.1495
  C  C272  1  0.201400  0.148800  0.697500  1.0  0.3697
  C  C273  1  0.532800  0.110300  0.759500  1.0  -0.0345
  C  C274  1  0.516000  0.143600  0.752300  1.0  -0.1593
  C  C275  1  0.834700  0.171800  0.610100  1.0  -0.0474
  C  C276  1  0.640500  0.190300  0.561100  1.0  0.6871
  C  C277  1  0.027500  0.154400  0.662300  1.0  0.3196
  C  C278  1  0.407900  0.155800  0.729800  1.0  -0.1052
  C  C279  1  0.723600  0.070700  0.612000  1.0  0.7032
  C  C280  1  0.872300  0.114100  0.635500  1.0  -0.063
  C  C281  1  0.315100  0.134300  0.717800  1.0  -0.0731
  C  C282  1  0.331700  0.100900  0.725900  1.0  -0.0457
  C  C283  1  0.761300  0.106200  0.610600  1.0  -0.1263
  C  C284  1  0.609800  0.167700  0.767200  1.0  0.6603
  C  C285  1  0.686300  0.131100  0.587300  1.0  -0.0989
  C  C286  1  0.723500  0.164000  0.587200  1.0  -0.1348
  C  C287  1  0.457100  0.051500  0.759600  1.0  0.7493
  C  C288  1  0.909200  0.146200  0.635800  1.0  -0.1337
  C  C289  1  0.309500  0.838000  0.997700  1.0  -0.15
  C  C290  1  0.548600  0.898800  0.947500  1.0  0.3654
  C  C291  1  0.217200  0.860300  0.009500  1.0  -0.0343
  C  C292  1  0.234000  0.893600  0.002300  1.0  -0.1592
  C  C293  1  0.915300  0.921800  0.860100  1.0  -0.0495
  C  C294  1  0.109500  0.940300  0.811100  1.0  0.6869
  C  C295  1  0.722500  0.904400  0.912300  1.0  0.3239
  C  C296  1  0.342100  0.905800  0.979800  1.0  -0.1045
  C  C297  1  0.026400  0.820700  0.862000  1.0  0.7021
  C  C298  1  0.877700  0.864100  0.885500  1.0  -0.0622
  C  C299  1  0.434900  0.884300  0.967800  1.0  -0.073
  C  C300  1  0.418300  0.850900  0.975900  1.0  -0.0457
  C  C301  1  0.988700  0.856200  0.860600  1.0  -0.1259
  C  C302  1  0.140200  0.917700  0.017200  1.0  0.6603
  C  C303  1  0.063700  0.881100  0.837300  1.0  -0.1
  C  C304  1  0.026500  0.914000  0.837200  1.0  -0.135
  C  C305  1  0.292900  0.801500  0.009600  1.0  0.7495
  C  C306  1  0.840800  0.896200  0.885800  1.0  -0.1334
  C  C307  1  0.309500  0.338000  0.497700  1.0  -0.15
  C  C308  1  0.548600  0.398800  0.447500  1.0  0.3654
  C  C309  1  0.217200  0.360300  0.509500  1.0  -0.0343
  C  C310  1  0.234000  0.393600  0.502300  1.0  -0.1592
  C  C311  1  0.915300  0.421800  0.360100  1.0  -0.0495
  C  C312  1  0.109500  0.440300  0.311100  1.0  0.6869
  C  C313  1  0.722500  0.404400  0.412300  1.0  0.3239
  C  C314  1  0.342100  0.405800  0.479800  1.0  -0.1045
  C  C315  1  0.026400  0.320700  0.362000  1.0  0.7021
  C  C316  1  0.877700  0.364100  0.385500  1.0  -0.0622
  C  C317  1  0.434900  0.384300  0.467800  1.0  -0.073
  C  C318  1  0.418300  0.350900  0.475900  1.0  -0.0457
  C  C319  1  0.988700  0.356200  0.360600  1.0  -0.1259
  C  C320  1  0.140200  0.417700  0.517200  1.0  0.6603
  C  C321  1  0.063700  0.381100  0.337300  1.0  -0.1
  C  C322  1  0.026500  0.414000  0.337200  1.0  -0.135
  C  C323  1  0.292900  0.301500  0.509600  1.0  0.7495
  C  C324  1  0.840800  0.396200  0.385800  1.0  -0.1334
  C  C325  1  0.809500  0.838000  0.497700  1.0  -0.15
  C  C326  1  0.048600  0.898800  0.447500  1.0  0.3654
  C  C327  1  0.717200  0.860300  0.509500  1.0  -0.0343
  C  C328  1  0.734000  0.893600  0.502300  1.0  -0.1592
  C  C329  1  0.415300  0.921800  0.360100  1.0  -0.0495
  C  C330  1  0.609500  0.940300  0.311100  1.0  0.6869
  C  C331  1  0.222500  0.904400  0.412300  1.0  0.3239
  C  C332  1  0.842100  0.905800  0.479800  1.0  -0.1045
  C  C333  1  0.526400  0.820700  0.362000  1.0  0.7021
  C  C334  1  0.377700  0.864100  0.385500  1.0  -0.0622
  C  C335  1  0.934900  0.884300  0.467800  1.0  -0.073
  C  C336  1  0.918300  0.850900  0.475900  1.0  -0.0457
  C  C337  1  0.488700  0.856200  0.360600  1.0  -0.1259
  C  C338  1  0.640200  0.917700  0.517200  1.0  0.6603
  C  C339  1  0.563700  0.881100  0.337300  1.0  -0.1
  C  C340  1  0.526500  0.914000  0.337200  1.0  -0.135
  C  C341  1  0.792900  0.801500  0.509600  1.0  0.7495
  C  C342  1  0.340800  0.896200  0.385800  1.0  -0.1334
  C  C343  1  0.809500  0.338000  0.997700  1.0  -0.15
  C  C344  1  0.048600  0.398800  0.947500  1.0  0.3654
  C  C345  1  0.717200  0.360300  0.009500  1.0  -0.0343
  C  C346  1  0.734000  0.393600  0.002300  1.0  -0.1592
  C  C347  1  0.415300  0.421800  0.860100  1.0  -0.0495
  C  C348  1  0.609500  0.440300  0.811100  1.0  0.6869
  C  C349  1  0.222500  0.404400  0.912300  1.0  0.3239
  C  C350  1  0.842100  0.405800  0.979800  1.0  -0.1045
  C  C351  1  0.526400  0.320700  0.862000  1.0  0.7021
  C  C352  1  0.377700  0.364100  0.885500  1.0  -0.0622
  C  C353  1  0.934900  0.384300  0.967800  1.0  -0.073
  C  C354  1  0.918300  0.350900  0.975900  1.0  -0.0457
  C  C355  1  0.488700  0.356200  0.860600  1.0  -0.1259
  C  C356  1  0.640200  0.417700  0.017200  1.0  0.6603
  C  C357  1  0.563700  0.381100  0.837300  1.0  -0.1
  C  C358  1  0.526500  0.414000  0.837200  1.0  -0.135
  C  C359  1  0.792900  0.301500  0.009600  1.0  0.7495
  C  C360  1  0.340800  0.396200  0.885800  1.0  -0.1334
  C  C361  1  0.190500  0.662000  0.997700  1.0  -0.1484
  C  C362  1  0.951400  0.601200  0.947500  1.0  0.3714
  C  C363  1  0.282800  0.639700  0.009500  1.0  -0.0348
  C  C364  1  0.266000  0.606400  0.002300  1.0  -0.1596
  C  C365  1  0.584700  0.578200  0.860100  1.0  -0.0491
  C  C366  1  0.390500  0.559700  0.811100  1.0  0.6869
  C  C367  1  0.777500  0.595600  0.912300  1.0  0.3187
  C  C368  1  0.157900  0.594200  0.979800  1.0  -0.1042
  C  C369  1  0.473600  0.679300  0.862000  1.0  0.7047
  C  C370  1  0.622300  0.635900  0.885500  1.0  -0.0632
  C  C371  1  0.065100  0.615700  0.967800  1.0  -0.0737
  C  C372  1  0.081700  0.649100  0.975900  1.0  -0.0468
  C  C373  1  0.511300  0.643800  0.860600  1.0  -0.126
  C  C374  1  0.359800  0.582300  0.017200  1.0  0.6575
  C  C375  1  0.436300  0.618900  0.837300  1.0  -0.0987
  C  C376  1  0.473500  0.586000  0.837200  1.0  -0.1348
  C  C377  1  0.207100  0.698500  0.009600  1.0  0.7515
  C  C378  1  0.659200  0.603800  0.885800  1.0  -0.1332
  C  C379  1  0.190500  0.162000  0.497700  1.0  -0.1484
  C  C380  1  0.951400  0.101200  0.447500  1.0  0.3714
  C  C381  1  0.282800  0.139700  0.509500  1.0  -0.0348
  C  C382  1  0.266000  0.106400  0.502300  1.0  -0.1596
  C  C383  1  0.584700  0.078200  0.360100  1.0  -0.0491
  C  C384  1  0.390500  0.059700  0.311100  1.0  0.6869
  C  C385  1  0.777500  0.095600  0.412300  1.0  0.3187
  C  C386  1  0.157900  0.094200  0.479800  1.0  -0.1042
  C  C387  1  0.473600  0.179300  0.362000  1.0  0.7047
  C  C388  1  0.622300  0.135900  0.385500  1.0  -0.0632
  C  C389  1  0.065100  0.115700  0.467800  1.0  -0.0737
  C  C390  1  0.081700  0.149100  0.475900  1.0  -0.0468
  C  C391  1  0.511300  0.143800  0.360600  1.0  -0.126
  C  C392  1  0.359800  0.082300  0.517200  1.0  0.6575
  C  C393  1  0.436300  0.118900  0.337300  1.0  -0.0987
  C  C394  1  0.473500  0.086000  0.337200  1.0  -0.1348
  C  C395  1  0.207100  0.198500  0.509600  1.0  0.7515
  C  C396  1  0.659200  0.103800  0.385800  1.0  -0.1332
  C  C397  1  0.690500  0.662000  0.497700  1.0  -0.1484
  C  C398  1  0.451400  0.601200  0.447500  1.0  0.3714
  C  C399  1  0.782800  0.639700  0.509500  1.0  -0.0348
  C  C400  1  0.766000  0.606400  0.502300  1.0  -0.1596
  C  C401  1  0.084700  0.578200  0.360100  1.0  -0.0491
  C  C402  1  0.890500  0.559700  0.311100  1.0  0.6869
  C  C403  1  0.277500  0.595600  0.412300  1.0  0.3187
  C  C404  1  0.657900  0.594200  0.479800  1.0  -0.1042
  C  C405  1  0.973600  0.679300  0.362000  1.0  0.7047
  C  C406  1  0.122300  0.635900  0.385500  1.0  -0.0632
  C  C407  1  0.565100  0.615700  0.467800  1.0  -0.0737
  C  C408  1  0.581700  0.649100  0.475900  1.0  -0.0468
  C  C409  1  0.011300  0.643800  0.360600  1.0  -0.126
  C  C410  1  0.859800  0.582300  0.517200  1.0  0.6575
  C  C411  1  0.936300  0.618900  0.337300  1.0  -0.0987
  C  C412  1  0.973500  0.586000  0.337200  1.0  -0.1348
  C  C413  1  0.707100  0.698500  0.509600  1.0  0.7515
  C  C414  1  0.159200  0.603800  0.385800  1.0  -0.1332
  C  C415  1  0.690500  0.162000  0.997700  1.0  -0.1484
  C  C416  1  0.451400  0.101200  0.947500  1.0  0.3714
  C  C417  1  0.782800  0.139700  0.009500  1.0  -0.0348
  C  C418  1  0.766000  0.106400  0.002300  1.0  -0.1596
  C  C419  1  0.084700  0.078200  0.860100  1.0  -0.0491
  C  C420  1  0.890500  0.059700  0.811100  1.0  0.6869
  C  C421  1  0.277500  0.095600  0.912300  1.0  0.3187
  C  C422  1  0.657900  0.094200  0.979800  1.0  -0.1042
  C  C423  1  0.973600  0.179300  0.862000  1.0  0.7047
  C  C424  1  0.122300  0.135900  0.885500  1.0  -0.0632
  C  C425  1  0.565100  0.115700  0.967800  1.0  -0.0737
  C  C426  1  0.581700  0.149100  0.975900  1.0  -0.0468
  C  C427  1  0.011300  0.143800  0.860600  1.0  -0.126
  C  C428  1  0.859800  0.082300  0.017200  1.0  0.6575
  C  C429  1  0.936300  0.118900  0.837300  1.0  -0.0987
  C  C430  1  0.973500  0.086000  0.837200  1.0  -0.1348
  C  C431  1  0.707100  0.198500  0.009600  1.0  0.7515
  C  C432  1  0.159200  0.103800  0.885800  1.0  -0.1332
  N  N433  1  0.389900  0.368900  0.673800  1.0  -0.4962
  N  N434  1  0.435400  0.315800  0.677900  1.0  -0.3071
  N  N435  1  0.321400  0.319600  0.701000  1.0  -0.1574
  N  N436  1  0.389900  0.868900  0.173800  1.0  -0.4962
  N  N437  1  0.435400  0.815800  0.177900  1.0  -0.3071
  N  N438  1  0.321400  0.819600  0.201000  1.0  -0.1574
  N  N439  1  0.889900  0.368900  0.173800  1.0  -0.4962
  N  N440  1  0.935400  0.315800  0.177900  1.0  -0.3071
  N  N441  1  0.821400  0.319600  0.201000  1.0  -0.1574
  N  N442  1  0.889900  0.868900  0.673800  1.0  -0.4962
  N  N443  1  0.935400  0.815800  0.677900  1.0  -0.3071
  N  N444  1  0.821400  0.819600  0.701000  1.0  -0.1574
  N  N445  1  0.610100  0.631100  0.673800  1.0  -0.496
  N  N446  1  0.564600  0.684200  0.677900  1.0  -0.3081
  N  N447  1  0.678600  0.680400  0.701000  1.0  -0.1568
  N  N448  1  0.610100  0.131100  0.173800  1.0  -0.496
  N  N449  1  0.564600  0.184200  0.177900  1.0  -0.3081
  N  N450  1  0.678600  0.180400  0.201000  1.0  -0.1568
  N  N451  1  0.110100  0.631100  0.173800  1.0  -0.496
  N  N452  1  0.064600  0.684200  0.177900  1.0  -0.3081
  N  N453  1  0.178600  0.680400  0.201000  1.0  -0.1568
  N  N454  1  0.110100  0.131100  0.673800  1.0  -0.496
  N  N455  1  0.064600  0.184200  0.677900  1.0  -0.3081
  N  N456  1  0.178600  0.180400  0.701000  1.0  -0.1568
  N  N457  1  0.639900  0.881100  0.923800  1.0  -0.4957
  N  N458  1  0.685400  0.934200  0.927900  1.0  -0.3078
  N  N459  1  0.571400  0.930400  0.951000  1.0  -0.157
  N  N460  1  0.639900  0.381100  0.423800  1.0  -0.4957
  N  N461  1  0.685400  0.434200  0.427900  1.0  -0.3078
  N  N462  1  0.571400  0.430400  0.451000  1.0  -0.157
  N  N463  1  0.139900  0.881100  0.423800  1.0  -0.4957
  N  N464  1  0.185400  0.934200  0.427900  1.0  -0.3078
  N  N465  1  0.071400  0.930400  0.451000  1.0  -0.157
  N  N466  1  0.139900  0.381100  0.923800  1.0  -0.4957
  N  N467  1  0.185400  0.434200  0.927900  1.0  -0.3078
  N  N468  1  0.071400  0.430400  0.951000  1.0  -0.157
  N  N469  1  0.860100  0.618900  0.923800  1.0  -0.4961
  N  N470  1  0.814600  0.565800  0.927900  1.0  -0.309
  N  N471  1  0.928600  0.569600  0.951000  1.0  -0.1584
  N  N472  1  0.860100  0.118900  0.423800  1.0  -0.4961
  N  N473  1  0.814600  0.065800  0.427900  1.0  -0.309
  N  N474  1  0.928600  0.069600  0.451000  1.0  -0.1584
  N  N475  1  0.360100  0.618900  0.423800  1.0  -0.4961
  N  N476  1  0.314600  0.565800  0.427900  1.0  -0.309
  N  N477  1  0.428600  0.569600  0.451000  1.0  -0.1584
  N  N478  1  0.360100  0.118900  0.923800  1.0  -0.4961
  N  N479  1  0.314600  0.065800  0.927900  1.0  -0.309
  N  N480  1  0.428600  0.069600  0.951000  1.0  -0.1584
  O  O481  1  0.793600  0.346130  0.786100  1.0  -0.5032
  O  O482  1  0.713700  0.449060  0.650700  1.0  -0.6506
  O  O483  1  0.966000  0.315290  0.565900  1.0  -0.6024
  O  O484  1  0.902200  0.302600  0.759600  1.0  -0.5163
  O  O485  1  0.132900  0.465990  0.767900  1.0  -0.7402
  O  O486  1  0.868100  0.438230  0.578800  1.0  -0.6009
  O  O487  1  0.941400  0.459160  0.761600  1.0  -0.7254
  O  O488  1  0.820700  0.282790  0.536800  1.0  -0.6116
  O  O489  1  0.793600  0.846130  0.286100  1.0  -0.5032
  O  O490  1  0.713700  0.949060  0.150700  1.0  -0.6506
  O  O491  1  0.966000  0.815290  0.065900  1.0  -0.6024
  O  O492  1  0.902200  0.802600  0.259600  1.0  -0.5163
  O  O493  1  0.132900  0.965990  0.267900  1.0  -0.7402
  O  O494  1  0.868100  0.938230  0.078800  1.0  -0.6009
  O  O495  1  0.941400  0.959160  0.261600  1.0  -0.7254
  O  O496  1  0.820700  0.782790  0.036800  1.0  -0.6116
  O  O497  1  0.293600  0.346130  0.286100  1.0  -0.5032
  O  O498  1  0.213700  0.449060  0.150700  1.0  -0.6506
  O  O499  1  0.466000  0.315290  0.065900  1.0  -0.6024
  O  O500  1  0.402200  0.302600  0.259600  1.0  -0.5163
  O  O501  1  0.632900  0.465990  0.267900  1.0  -0.7402
  O  O502  1  0.368100  0.438230  0.078800  1.0  -0.6009
  O  O503  1  0.441400  0.459160  0.261600  1.0  -0.7254
  O  O504  1  0.320700  0.282790  0.036800  1.0  -0.6116
  O  O505  1  0.293600  0.846130  0.786100  1.0  -0.5032
  O  O506  1  0.213700  0.949060  0.650700  1.0  -0.6506
  O  O507  1  0.466000  0.815290  0.565900  1.0  -0.6024
  O  O508  1  0.402200  0.802600  0.759600  1.0  -0.5163
  O  O509  1  0.632900  0.965990  0.767900  1.0  -0.7402
  O  O510  1  0.368100  0.938230  0.578800  1.0  -0.6009
  O  O511  1  0.441400  0.959160  0.761600  1.0  -0.7254
  O  O512  1  0.320700  0.782790  0.536800  1.0  -0.6116
  O  O513  1  0.206400  0.653870  0.786100  1.0  -0.5021
  O  O514  1  0.286300  0.550940  0.650700  1.0  -0.6517
  O  O515  1  0.034000  0.684710  0.565900  1.0  -0.6022
  O  O516  1  0.097800  0.697400  0.759600  1.0  -0.5183
  O  O517  1  0.867100  0.534010  0.767900  1.0  -0.7404
  O  O518  1  0.131900  0.561770  0.578800  1.0  -0.6011
  O  O519  1  0.058600  0.540840  0.761600  1.0  -0.7266
  O  O520  1  0.179300  0.717210  0.536800  1.0  -0.6131
  O  O521  1  0.206400  0.153870  0.286100  1.0  -0.5021
  O  O522  1  0.286300  0.050940  0.150700  1.0  -0.6517
  O  O523  1  0.034000  0.184710  0.065900  1.0  -0.6022
  O  O524  1  0.097800  0.197400  0.259600  1.0  -0.5183
  O  O525  1  0.867100  0.034010  0.267900  1.0  -0.7404
  O  O526  1  0.131900  0.061770  0.078800  1.0  -0.6011
  O  O527  1  0.058600  0.040840  0.261600  1.0  -0.7266
  O  O528  1  0.179300  0.217210  0.036800  1.0  -0.6131
  O  O529  1  0.706400  0.653870  0.286100  1.0  -0.5021
  O  O530  1  0.786300  0.550940  0.150700  1.0  -0.6517
  O  O531  1  0.534000  0.684710  0.065900  1.0  -0.6022
  O  O532  1  0.597800  0.697400  0.259600  1.0  -0.5183
  O  O533  1  0.367100  0.534010  0.267900  1.0  -0.7404
  O  O534  1  0.631900  0.561770  0.078800  1.0  -0.6011
  O  O535  1  0.558600  0.540840  0.261600  1.0  -0.7266
  O  O536  1  0.679300  0.717210  0.036800  1.0  -0.6131
  O  O537  1  0.706400  0.153870  0.786100  1.0  -0.5021
  O  O538  1  0.786300  0.050940  0.650700  1.0  -0.6517
  O  O539  1  0.534000  0.184710  0.565900  1.0  -0.6022
  O  O540  1  0.597800  0.197400  0.759600  1.0  -0.5183
  O  O541  1  0.367100  0.034010  0.767900  1.0  -0.7404
  O  O542  1  0.631900  0.061770  0.578800  1.0  -0.6011
  O  O543  1  0.558600  0.040840  0.761600  1.0  -0.7266
  O  O544  1  0.679300  0.217210  0.536800  1.0  -0.6131
  O  O545  1  0.043600  0.903870  0.036100  1.0  -0.5021
  O  O546  1  0.963700  0.800940  0.900700  1.0  -0.6518
  O  O547  1  0.216000  0.934710  0.815900  1.0  -0.6009
  O  O548  1  0.152200  0.947400  0.009600  1.0  -0.5179
  O  O549  1  0.382900  0.784010  0.017900  1.0  -0.7406
  O  O550  1  0.118100  0.811770  0.828800  1.0  -0.6016
  O  O551  1  0.191400  0.790840  0.011600  1.0  -0.7268
  O  O552  1  0.070700  0.967210  0.786800  1.0  -0.613
  O  O553  1  0.043600  0.403870  0.536100  1.0  -0.5021
  O  O554  1  0.963700  0.300940  0.400700  1.0  -0.6518
  O  O555  1  0.216000  0.434710  0.315900  1.0  -0.6009
  O  O556  1  0.152200  0.447400  0.509600  1.0  -0.5179
  O  O557  1  0.382900  0.284010  0.517900  1.0  -0.7406
  O  O558  1  0.118100  0.311770  0.328800  1.0  -0.6016
  O  O559  1  0.191400  0.290840  0.511600  1.0  -0.7268
  O  O560  1  0.070700  0.467210  0.286800  1.0  -0.613
  O  O561  1  0.543600  0.903870  0.536100  1.0  -0.5021
  O  O562  1  0.463700  0.800940  0.400700  1.0  -0.6518
  O  O563  1  0.716000  0.934710  0.315900  1.0  -0.6009
  O  O564  1  0.652200  0.947400  0.509600  1.0  -0.5179
  O  O565  1  0.882900  0.784010  0.517900  1.0  -0.7406
  O  O566  1  0.618100  0.811770  0.328800  1.0  -0.6016
  O  O567  1  0.691400  0.790840  0.511600  1.0  -0.7268
  O  O568  1  0.570700  0.967210  0.286800  1.0  -0.613
  O  O569  1  0.543600  0.403870  0.036100  1.0  -0.5021
  O  O570  1  0.463700  0.300940  0.900700  1.0  -0.6518
  O  O571  1  0.716000  0.434710  0.815900  1.0  -0.6009
  O  O572  1  0.652200  0.447400  0.009600  1.0  -0.5179
  O  O573  1  0.882900  0.284010  0.017900  1.0  -0.7406
  O  O574  1  0.618100  0.311770  0.828800  1.0  -0.6016
  O  O575  1  0.691400  0.290840  0.011600  1.0  -0.7268
  O  O576  1  0.570700  0.467210  0.786800  1.0  -0.613
  O  O577  1  0.456400  0.596130  0.036100  1.0  -0.5034
  O  O578  1  0.536300  0.699060  0.900700  1.0  -0.651
  O  O579  1  0.284000  0.565290  0.815900  1.0  -0.6027
  O  O580  1  0.347800  0.552600  0.009600  1.0  -0.5165
  O  O581  1  0.117100  0.715990  0.017900  1.0  -0.7405
  O  O582  1  0.381900  0.688230  0.828800  1.0  -0.6006
  O  O583  1  0.308600  0.709160  0.011600  1.0  -0.7259
  O  O584  1  0.429300  0.532790  0.786800  1.0  -0.6094
  O  O585  1  0.456400  0.096130  0.536100  1.0  -0.5034
  O  O586  1  0.536300  0.199060  0.400700  1.0  -0.651
  O  O587  1  0.284000  0.065290  0.315900  1.0  -0.6027
  O  O588  1  0.347800  0.052600  0.509600  1.0  -0.5165
  O  O589  1  0.117100  0.215990  0.517900  1.0  -0.7405
  O  O590  1  0.381900  0.188230  0.328800  1.0  -0.6006
  O  O591  1  0.308600  0.209160  0.511600  1.0  -0.7259
  O  O592  1  0.429300  0.032790  0.286800  1.0  -0.6094
  O  O593  1  0.956400  0.596130  0.536100  1.0  -0.5034
  O  O594  1  0.036300  0.699060  0.400700  1.0  -0.651
  O  O595  1  0.784000  0.565290  0.315900  1.0  -0.6027
  O  O596  1  0.847800  0.552600  0.509600  1.0  -0.5165
  O  O597  1  0.617100  0.715990  0.517900  1.0  -0.7405
  O  O598  1  0.881900  0.688230  0.328800  1.0  -0.6006
  O  O599  1  0.808600  0.709160  0.511600  1.0  -0.7259
  O  O600  1  0.929300  0.532790  0.286800  1.0  -0.6094
  O  O601  1  0.956400  0.096130  0.036100  1.0  -0.5034
  O  O602  1  0.036300  0.199060  0.900700  1.0  -0.651
  O  O603  1  0.784000  0.065290  0.815900  1.0  -0.6027
  O  O604  1  0.847800  0.052600  0.009600  1.0  -0.5165
  O  O605  1  0.617100  0.215990  0.017900  1.0  -0.7405
  O  O606  1  0.881900  0.188230  0.828800  1.0  -0.6006
  O  O607  1  0.808600  0.209160  0.011600  1.0  -0.7259
  O  O608  1  0.929300  0.032790  0.786800  1.0  -0.6094
