# generated using pymatgen
data_K2NiH34C52(NO3)4
_symmetry_space_group_name_H-M   'P 1'
_cell_length_a   8.44700000
_cell_length_b   11.12510000
_cell_length_c   17.58100000
_cell_angle_alpha   77.88200000
_cell_angle_beta   88.74100000
_cell_angle_gamma   79.06000000
_symmetry_Int_Tables_number   1
_chemical_formula_structural   K2NiH34C52(NO3)4
_chemical_formula_sum   'K2 Ni1 H34 C52 N4 O12'
_cell_volume   1585.70644986
_cell_formula_units_Z   1
loop_
 _symmetry_equiv_pos_site_id
 _symmetry_equiv_pos_as_xyz
  1  'x, y, z'
loop_
 _atom_site_type_symbol
 _atom_site_label
 _atom_site_symmetry_multiplicity
 _atom_site_fract_x
 _atom_site_fract_y
 _atom_site_fract_z
 _atom_site_occupancy
 _atom_site_charge
  K  K1  1  0.843680  0.007720  0.908290  1.0  0.9437
  K  K2  1  0.156320  0.992280  0.091710  1.0  0.9455
  Ni  Ni3  1  0.000000  0.500000  0.500000  1.0  0.4741
  H  H4  1  0.711800  0.437400  0.266000  1.0  0.1194
  H  H5  1  0.981100  0.305900  0.264900  1.0  0.1192
  H  H6  1  0.493900  0.196700  0.445200  1.0  0.1093
  H  H7  1  0.561000  0.243300  0.565000  1.0  0.1058
  H  H8  1  0.368100  0.361300  0.261400  1.0  0.1095
  H  H9  1  0.485100  0.238000  0.173200  1.0  0.0962
  H  H10  1  0.317800  0.946100  0.293100  1.0  0.1244
  H  H11  1  0.205300  0.064400  0.382600  1.0  0.1152
  H  H12  1  0.648200  0.963700  0.106800  1.0  0.1185
  H  H13  1  0.653000  0.083700  0.139200  1.0  0.1149
  H  H14  1  0.352400  0.306900  0.763900  1.0  0.1043
  H  H15  1  0.560500  0.246400  0.854500  1.0  0.091
  H  H16  1  0.857200  0.391300  0.695300  1.0  0.1103
  H  H17  1  0.647400  0.452700  0.604600  1.0  0.0969
  H  H18  1  0.993800  0.387500  0.826200  1.0  0.0968
  H  H19  1  0.047400  0.270800  0.787700  1.0  0.081
  H  H20  1  0.255500  0.252700  0.958000  1.0  0.3693
  H  H21  1  0.288200  0.562600  0.734000  1.0  0.1174
  H  H22  1  0.018900  0.694100  0.735100  1.0  0.119
  H  H23  1  0.506100  0.803300  0.554800  1.0  0.1092
  H  H24  1  0.439000  0.756700  0.435000  1.0  0.1053
  H  H25  1  0.631900  0.638700  0.738600  1.0  0.1096
  H  H26  1  0.514900  0.762000  0.826800  1.0  0.0962
  H  H27  1  0.682200  0.053900  0.706900  1.0  0.1244
  H  H28  1  0.794700  0.935600  0.617400  1.0  0.1154
  H  H29  1  0.351800  0.036300  0.893200  1.0  0.119
  H  H30  1  0.347000  0.916300  0.860800  1.0  0.115
  H  H31  1  0.647600  0.693100  0.236100  1.0  0.1046
  H  H32  1  0.439500  0.753600  0.145500  1.0  0.0914
  H  H33  1  0.142800  0.608700  0.304700  1.0  0.1101
  H  H34  1  0.352600  0.547300  0.395400  1.0  0.097
  H  H35  1  0.006200  0.612500  0.173800  1.0  0.0947
  H  H36  1  0.952600  0.729200  0.212300  1.0  0.0827
  H  H37  1  0.744500  0.747300  0.042000  1.0  0.3703
  C  C38  1  0.793500  0.486300  0.365200  1.0  0.1625
  C  C39  1  0.796000  0.427900  0.301200  1.0  -0.1772
  C  C40  1  0.944200  0.355300  0.300600  1.0  -0.1632
  C  C41  1  0.034300  0.369700  0.366700  1.0  0.1884
  C  C42  1  0.188500  0.307500  0.384800  1.0  -0.0499
  C  C43  1  0.268600  0.317100  0.448000  1.0  0.1845
  C  C44  1  0.428400  0.250800  0.471700  1.0  -0.1405
  C  C45  1  0.466700  0.278200  0.535800  1.0  -0.1489
  C  C46  1  0.336800  0.373200  0.554700  1.0  0.1954
  C  C47  1  0.339500  0.423700  0.617800  1.0  0.0576
  C  C48  1  0.270700  0.225500  0.331200  1.0  0.0012
  C  C49  1  0.356900  0.278100  0.268500  1.0  -0.1178
  C  C50  1  0.428100  0.202800  0.215200  1.0  -0.1817
  C  C51  1  0.414100  0.084300  0.224700  1.0  0.2254
  C  C52  1  0.328800  0.029200  0.286900  1.0  -0.1665
  C  C53  1  0.259700  0.101400  0.340200  1.0  -0.1092
  C  C54  1  0.582200  0.039200  0.117900  1.0  -0.0968
  C  C55  1  0.508200  0.121200  0.041600  1.0  0.7421
  C  C56  1  0.478700  0.386800  0.674100  1.0  0.0362
  C  C57  1  0.453900  0.324200  0.750000  1.0  -0.1134
  C  C58  1  0.578300  0.288000  0.804300  1.0  -0.2173
  C  C59  1  0.730200  0.313700  0.784200  1.0  0.2598
  C  C60  1  0.755600  0.374600  0.709400  1.0  -0.218
  C  C61  1  0.629300  0.411200  0.654800  1.0  -0.0931
  C  C62  1  0.998600  0.298000  0.833200  1.0  0.0525
  C  C63  1  0.095000  0.230500  0.904300  1.0  0.5836
  C  C64  1  0.206500  0.513700  0.634800  1.0  0.1609
  C  C65  1  0.204000  0.572100  0.698800  1.0  -0.1763
  C  C66  1  0.055800  0.644700  0.699400  1.0  -0.1645
  C  C67  1  0.965700  0.630300  0.633300  1.0  0.1879
  C  C68  1  0.811500  0.692500  0.615200  1.0  -0.0477
  C  C69  1  0.731400  0.682900  0.552000  1.0  0.187
  C  C70  1  0.571600  0.749200  0.528300  1.0  -0.1377
  C  C71  1  0.533300  0.721800  0.464200  1.0  -0.1481
  C  C72  1  0.663200  0.626800  0.445300  1.0  0.1943
  C  C73  1  0.660500  0.576300  0.382200  1.0  0.0577
  C  C74  1  0.729300  0.774500  0.668800  1.0  0.0026
  C  C75  1  0.643100  0.721900  0.731500  1.0  -0.1182
  C  C76  1  0.571900  0.797200  0.784800  1.0  -0.1795
  C  C77  1  0.585900  0.915700  0.775300  1.0  0.2257
  C  C78  1  0.671200  0.970800  0.713100  1.0  -0.1679
  C  C79  1  0.740300  0.898600  0.659800  1.0  -0.1102
  C  C80  1  0.417800  0.960800  0.882100  1.0  -0.0966
  C  C81  1  0.491800  0.878800  0.958400  1.0  0.7411
  C  C82  1  0.521300  0.613200  0.325900  1.0  0.0363
  C  C83  1  0.546100  0.675800  0.250000  1.0  -0.1147
  C  C84  1  0.421700  0.712000  0.195700  1.0  -0.2178
  C  C85  1  0.269800  0.686300  0.215800  1.0  0.2606
  C  C86  1  0.244400  0.625400  0.290600  1.0  -0.2171
  C  C87  1  0.370700  0.588800  0.345200  1.0  -0.0924
  C  C88  1  0.001400  0.702000  0.166800  1.0  0.0512
  C  C89  1  0.905000  0.769500  0.095700  1.0  0.5831
  N  N90  1  0.939700  0.449400  0.406800  1.0  -0.4514
  N  N91  1  0.212300  0.392900  0.500600  1.0  -0.4215
  N  N92  1  0.060300  0.550600  0.593200  1.0  -0.4535
  N  N93  1  0.787700  0.607100  0.499400  1.0  -0.4211
  O  O94  1  0.469600  0.004200  0.175600  1.0  -0.3405
  O  O95  1  0.356600  0.165300  0.039700  1.0  -0.6694
  O  O96  1  0.600800  0.137000  0.986700  1.0  -0.6384
  O  O97  1  0.843300  0.270500  0.843100  1.0  -0.3084
  O  O98  1  0.225400  0.273000  0.912300  1.0  -0.5017
  O  O99  1  0.058300  0.144400  0.948400  1.0  -0.6262
  O  O100  1  0.530400  0.995800  0.824400  1.0  -0.3406
  O  O101  1  0.643400  0.834700  0.960300  1.0  -0.6671
  O  O102  1  0.399200  0.863000  0.013300  1.0  -0.641
  O  O103  1  0.156700  0.729500  0.156900  1.0  -0.3113
  O  O104  1  0.774600  0.727000  0.087700  1.0  -0.5036
  O  O105  1  0.941700  0.855600  0.051600  1.0  -0.626
