# generated using pymatgen
data_KNiH35C52(NO3)4
_symmetry_space_group_name_H-M   'P 1'
_cell_length_a   12.63680000
_cell_length_b   14.48270000
_cell_length_c   18.08200000
_cell_angle_alpha   83.37300000
_cell_angle_beta   69.73200000
_cell_angle_gamma   85.88800000
_symmetry_Int_Tables_number   1
_chemical_formula_structural   KNiH35C52(NO3)4
_chemical_formula_sum   'K2 Ni2 H70 C104 N8 O24'
_cell_volume   3081.84490819
_cell_formula_units_Z   2
loop_
 _symmetry_equiv_pos_site_id
 _symmetry_equiv_pos_as_xyz
  1  'x, y, z'
loop_
 _atom_site_type_symbol
 _atom_site_label
 _atom_site_symmetry_multiplicity
 _atom_site_fract_x
 _atom_site_fract_y
 _atom_site_fract_z
 _atom_site_occupancy
 _atom_site_charge
  K  K1  1  0.428600  0.502260  0.917740  1.0  0.9298
  K  K2  1  0.571400  0.497740  0.082260  1.0  0.9304
  Ni  Ni3  1  0.207340  0.023310  0.484000  1.0  0.5349
  Ni  Ni4  1  0.792660  0.976690  0.516000  1.0  0.5349
  H  H5  1  0.240700  0.371600  0.440300  1.0  0.127
  H  H6  1  0.152200  0.336000  0.346300  1.0  0.1176
  H  H7  1  0.956100  0.038700  0.320200  1.0  0.1257
  H  H8  1  0.978300  0.872600  0.355700  1.0  0.1353
  H  H9  1  0.271400  0.677700  0.468600  1.0  0.1294
  H  H10  1  0.362200  0.711200  0.561700  1.0  0.1177
  H  H11  1  0.364100  0.006100  0.705200  1.0  0.1273
  H  H12  1  0.325700  0.172600  0.679500  1.0  0.1405
  H  H13  1  0.931600  0.286400  0.379300  1.0  0.0983
  H  H14  1  0.864700  0.372000  0.288500  1.0  0.1192
  H  H15  1  0.081000  0.235800  0.115600  1.0  0.1358
  H  H16  1  0.145600  0.147600  0.207400  1.0  0.1228
  H  H17  1  0.969800  0.291300  0.055300  1.0  0.0814
  H  H18  1  0.024000  0.389500  0.039700  1.0  0.1027
  H  H19  1  0.846600  0.438300  0.944600  1.0  0.4043
  H  H20  1  0.176000  0.799100  0.278800  1.0  0.1167
  H  H21  1  0.171300  0.668900  0.218100  1.0  0.1354
  H  H22  1  0.062800  0.524300  0.431400  1.0  0.1152
  H  H23  1  0.065300  0.654600  0.490100  1.0  0.1111
  H  H24  1  0.091300  0.552300  0.193400  1.0  0.1008
  H  H25  1  0.114800  0.444600  0.197000  1.0  0.1262
  H  H26  1  0.249900  0.767100  0.717700  1.0  0.0959
  H  H27  1  0.321300  0.688600  0.809300  1.0  0.1239
  H  H28  1  0.616600  0.808600  0.698400  1.0  0.1195
  H  H29  1  0.543200  0.887800  0.607300  1.0  0.1134
  H  H30  1  0.604200  0.791700  0.829800  1.0  0.0892
  H  H31  1  0.671700  0.702900  0.793000  1.0  0.0853
  H  H32  1  0.692300  0.690600  0.970700  1.0  0.3485
  H  H33  1  0.152000  0.379700  0.587700  1.0  0.1069
  H  H34  1  0.206400  0.512600  0.620300  1.0  0.1179
  H  H35  1  0.513700  0.397100  0.591900  1.0  0.1283
  H  H36  1  0.458600  0.265400  0.556700  1.0  0.0952
  H  H37  1  0.514800  0.630400  0.620200  1.0  0.1068
  H  H38  1  0.555200  0.538400  0.579100  1.0  0.0852
  H  H39  1  0.645000  0.503200  0.728000  1.0  0.4202
  H  H40  1  0.759300  0.628400  0.559700  1.0  0.1268
  H  H41  1  0.847800  0.664000  0.653700  1.0  0.1174
  H  H42  1  0.043900  0.961300  0.679800  1.0  0.126
  H  H43  1  0.021700  0.127400  0.644300  1.0  0.1347
  H  H44  1  0.728600  0.322300  0.531400  1.0  0.13
  H  H45  1  0.637800  0.288800  0.438300  1.0  0.1168
  H  H46  1  0.635900  0.993900  0.294800  1.0  0.1274
  H  H47  1  0.674300  0.827400  0.320500  1.0  0.1418
  H  H48  1  0.068400  0.713600  0.620700  1.0  0.0986
  H  H49  1  0.135300  0.628000  0.711500  1.0  0.1196
  H  H50  1  0.919000  0.764200  0.884400  1.0  0.136
  H  H51  1  0.854400  0.852400  0.792600  1.0  0.1236
  H  H52  1  0.030200  0.708700  0.944700  1.0  0.0835
  H  H53  1  0.976000  0.610500  0.960300  1.0  0.1043
  H  H54  1  0.153400  0.561700  0.055400  1.0  0.4054
  H  H55  1  0.824000  0.200900  0.721200  1.0  0.1168
  H  H56  1  0.828700  0.331100  0.781900  1.0  0.1361
  H  H57  1  0.937200  0.475700  0.568600  1.0  0.1152
  H  H58  1  0.934700  0.345400  0.509900  1.0  0.1116
  H  H59  1  0.908700  0.447700  0.806600  1.0  0.1009
  H  H60  1  0.885200  0.555400  0.803000  1.0  0.1247
  H  H61  1  0.750100  0.232900  0.282300  1.0  0.0954
  H  H62  1  0.678700  0.311400  0.190700  1.0  0.1239
  H  H63  1  0.383400  0.191400  0.301600  1.0  0.1192
  H  H64  1  0.456800  0.112200  0.392700  1.0  0.1135
  H  H65  1  0.395800  0.208300  0.170200  1.0  0.0891
  H  H66  1  0.328300  0.297100  0.207000  1.0  0.0848
  H  H67  1  0.307700  0.309400  0.029300  1.0  0.348
  H  H68  1  0.848000  0.620300  0.412300  1.0  0.1057
  H  H69  1  0.793600  0.487400  0.379700  1.0  0.1185
  H  H70  1  0.486300  0.602900  0.408100  1.0  0.1275
  H  H71  1  0.541400  0.734600  0.443300  1.0  0.0957
  H  H72  1  0.485200  0.369600  0.379800  1.0  0.1087
  H  H73  1  0.444800  0.461600  0.420900  1.0  0.0853
  H  H74  1  0.355000  0.496800  0.272000  1.0  0.4182
  C  C75  1  0.227510  0.228280  0.481680  1.0  0.2316
  C  C76  1  0.217770  0.313630  0.435530  1.0  -0.1692
  C  C77  1  0.169140  0.294140  0.383980  1.0  -0.1761
  C  C78  1  0.148300  0.196640  0.398100  1.0  0.2179
  C  C79  1  0.089940  0.152060  0.361680  1.0  -0.0974
  C  C80  1  0.072120  0.058120  0.376700  1.0  0.2242
  C  C81  1  0.002250  0.011170  0.347560  1.0  -0.1653
  C  C82  1  0.014730  0.920170  0.366570  1.0  -0.1791
  C  C83  1  0.095330  0.910010  0.407130  1.0  0.2181
  C  C84  1  0.143410  0.825280  0.425290  1.0  -0.0845
  C  C85  1  0.214980  0.819150  0.469240  1.0  0.212
  C  C86  1  0.270540  0.734690  0.487830  1.0  -0.152
  C  C87  1  0.321140  0.753290  0.538320  1.0  -0.1818
  C  C88  1  0.300190  0.849870  0.549520  1.0  0.2144
  C  C89  1  0.334590  0.893910  0.600720  1.0  -0.0946
  C  C90  1  0.317680  0.987950  0.606620  1.0  0.1929
  C  C91  1  0.339830  0.034130  0.664720  1.0  -0.1562
  C  C92  1  0.319300  0.125520  0.650530  1.0  -0.1892
  C  C93  1  0.285300  0.136170  0.581370  1.0  0.2148
  C  C94  1  0.267340  0.221790  0.544020  1.0  -0.1032
  C  C95  1  0.045340  0.207860  0.303270  1.0  0.0326
  C  C96  1  0.961640  0.275210  0.326270  1.0  -0.1154
  C  C97  1  0.921380  0.326540  0.271930  1.0  -0.1852
  C  C98  1  0.964360  0.310890  0.194210  1.0  0.3049
  C  C99  1  0.049840  0.245160  0.169000  1.0  -0.255
  C  C100  1  0.089020  0.193130  0.224040  1.0  -0.1037
  C  C101  1  0.954800  0.356200  0.065290  1.0  0.0236
  C  C102  1  0.862800  0.397900  0.033830  1.0  0.5528
  C  C103  1  0.126580  0.741040  0.390580  1.0  0.0606
  C  C104  1  0.154630  0.743130  0.309800  1.0  -0.1094
  C  C105  1  0.152250  0.665050  0.272820  1.0  -0.2666
  C  C106  1  0.121420  0.581850  0.318030  1.0  0.2777
  C  C107  1  0.087270  0.579520  0.400150  1.0  -0.1606
  C  C108  1  0.089340  0.657450  0.435160  1.0  -0.1248
  C  C109  1  0.139170  0.502590  0.206840  1.0  -0.0894
  C  C110  1  0.259510  0.517330  0.151700  1.0  0.7236
  C  C111  1  0.386990  0.837960  0.654640  1.0  0.0494
  C  C112  1  0.323460  0.777050  0.714170  1.0  -0.122
  C  C113  1  0.365960  0.729890  0.769290  1.0  -0.1367
  C  C114  1  0.473900  0.744020  0.764880  1.0  0.2977
  C  C115  1  0.541820  0.801440  0.703300  1.0  -0.2683
  C  C116  1  0.497640  0.848520  0.648660  1.0  -0.0942
  C  C117  1  0.604670  0.724360  0.833750  1.0  -0.0025
  C  C118  1  0.605230  0.684500  0.914280  1.0  0.4652
  C  C119  1  0.299270  0.308410  0.568330  1.0  0.0352
  C  C120  1  0.225140  0.383050  0.587850  1.0  -0.112
  C  C121  1  0.257540  0.462510  0.607510  1.0  -0.1908
  C  C122  1  0.367190  0.468730  0.608370  1.0  0.2695
  C  C123  1  0.441130  0.394490  0.590380  1.0  -0.2215
  C  C124  1  0.407390  0.315360  0.569870  1.0  -0.1229
  C  C125  1  0.502200  0.564360  0.625490  1.0  -0.0133
  C  C126  1  0.524950  0.519210  0.698330  1.0  0.5912
  C  C127  1  0.772490  0.771720  0.518320  1.0  0.2325
  C  C128  1  0.782230  0.686370  0.564470  1.0  -0.171
  C  C129  1  0.830860  0.705860  0.616020  1.0  -0.1768
  C  C130  1  0.851700  0.803360  0.601900  1.0  0.2169
  C  C131  1  0.910060  0.847940  0.638320  1.0  -0.0963
  C  C132  1  0.927880  0.941880  0.623300  1.0  0.224
  C  C133  1  0.997750  0.988830  0.652440  1.0  -0.1648
  C  C134  1  0.985270  0.079830  0.633430  1.0  -0.1769
  C  C135  1  0.904670  0.089990  0.592870  1.0  0.2182
  C  C136  1  0.856590  0.174720  0.574710  1.0  -0.0848
  C  C137  1  0.785020  0.180850  0.530760  1.0  0.212
  C  C138  1  0.729460  0.265310  0.512170  1.0  -0.1512
  C  C139  1  0.678860  0.246710  0.461680  1.0  -0.1806
  C  C140  1  0.699810  0.150130  0.450480  1.0  0.2127
  C  C141  1  0.665410  0.106090  0.399280  1.0  -0.0961
  C  C142  1  0.682320  0.012050  0.393380  1.0  0.1943
  C  C143  1  0.660170  0.965870  0.335280  1.0  -0.1569
  C  C144  1  0.680700  0.874480  0.349470  1.0  -0.188
  C  C145  1  0.714700  0.863830  0.418630  1.0  0.2154
  C  C146  1  0.732660  0.778210  0.455980  1.0  -0.0987
  C  C147  1  0.954660  0.792140  0.696730  1.0  0.031
  C  C148  1  0.038360  0.724790  0.673730  1.0  -0.1143
  C  C149  1  0.078620  0.673460  0.728070  1.0  -0.1844
  C  C150  1  0.035640  0.689110  0.805790  1.0  0.3038
  C  C151  1  0.950160  0.754840  0.831000  1.0  -0.2559
  C  C152  1  0.910980  0.806870  0.775960  1.0  -0.0988
  C  C153  1  0.045200  0.643800  0.934710  1.0  0.0202
  C  C154  1  0.137200  0.602100  0.966170  1.0  0.5547
  C  C155  1  0.873420  0.258960  0.609420  1.0  0.0584
  C  C156  1  0.845370  0.256870  0.690200  1.0  -0.1085
  C  C157  1  0.847750  0.334950  0.727180  1.0  -0.2666
  C  C158  1  0.878580  0.418150  0.681970  1.0  0.278
  C  C159  1  0.912730  0.420480  0.599850  1.0  -0.1595
  C  C160  1  0.910660  0.342550  0.564840  1.0  -0.1251
  C  C161  1  0.860830  0.497410  0.793160  1.0  -0.0897
  C  C162  1  0.740490  0.482670  0.848300  1.0  0.723
  C  C163  1  0.613010  0.162040  0.345360  1.0  0.0482
  C  C164  1  0.676540  0.222950  0.285830  1.0  -0.1215
  C  C165  1  0.634040  0.270110  0.230710  1.0  -0.1363
  C  C166  1  0.526100  0.255980  0.235120  1.0  0.297
  C  C167  1  0.458180  0.198560  0.296700  1.0  -0.2668
  C  C168  1  0.502360  0.151480  0.351340  1.0  -0.0918
  C  C169  1  0.395330  0.275640  0.166250  1.0  0.0015
  C  C170  1  0.394770  0.315500  0.085720  1.0  0.4675
  C  C171  1  0.700730  0.691590  0.431670  1.0  0.0367
  C  C172  1  0.774860  0.616950  0.412150  1.0  -0.1122
  C  C173  1  0.742460  0.537490  0.392490  1.0  -0.1901
  C  C174  1  0.632810  0.531270  0.391630  1.0  0.2694
  C  C175  1  0.558870  0.605510  0.409620  1.0  -0.2184
  C  C176  1  0.592610  0.684640  0.430130  1.0  -0.1205
  C  C177  1  0.497800  0.435640  0.374510  1.0  -0.0149
  C  C178  1  0.475050  0.480790  0.301670  1.0  0.5874
  N  N179  1  0.188410  0.155730  0.456650  1.0  -0.3616
  N  N180  1  0.125770  0.995650  0.417070  1.0  -0.4414
  N  N181  1  0.237490  0.890910  0.504220  1.0  -0.4036
  N  N182  1  0.278650  0.051430  0.557490  1.0  -0.4032
  N  N183  1  0.811590  0.844270  0.543350  1.0  -0.3637
  N  N184  1  0.874230  0.004350  0.582930  1.0  -0.4428
  N  N185  1  0.762510  0.109090  0.495780  1.0  -0.4047
  N  N186  1  0.721350  0.948570  0.442510  1.0  -0.4026
  O  O187  1  0.914870  0.364510  0.146750  1.0  -0.2489
  O  O188  1  0.769490  0.409240  0.075630  1.0  -0.6368
  O  O189  1  0.898850  0.417010  0.959120  1.0  -0.4677
  O  O190  1  0.121460  0.499690  0.288420  1.0  -0.2574
  O  O191  1  0.338590  0.510240  0.177520  1.0  -0.6345
  O  O192  1  0.270410  0.534150  0.080020  1.0  -0.6606
  O  O193  1  0.507770  0.695110  0.823460  1.0  -0.308
  O  O194  1  0.692970  0.711790  0.926460  1.0  -0.5048
  O  O195  1  0.538310  0.633610  0.960140  1.0  -0.6243
  O  O196  1  0.390450  0.551530  0.628220  1.0  -0.2424
  O  O197  1  0.632760  0.525300  0.687730  1.0  -0.5051
  O  O198  1  0.456270  0.486770  0.756710  1.0  -0.5712
  O  O199  1  0.085130  0.635490  0.853250  1.0  -0.2487
  O  O200  1  0.230510  0.590760  0.924370  1.0  -0.6352
  O  O201  1  0.101150  0.582990  0.040880  1.0  -0.4699
  O  O202  1  0.878540  0.500310  0.711580  1.0  -0.2564
  O  O203  1  0.661410  0.489760  0.822480  1.0  -0.6364
  O  O204  1  0.729590  0.465850  0.919980  1.0  -0.6582
  O  O205  1  0.492230  0.304890  0.176540  1.0  -0.3112
  O  O206  1  0.307030  0.288210  0.073540  1.0  -0.5024
  O  O207  1  0.461690  0.366390  0.039860  1.0  -0.6207
  O  O208  1  0.609550  0.448470  0.371780  1.0  -0.2406
  O  O209  1  0.367240  0.474700  0.312270  1.0  -0.5056
  O  O210  1  0.543730  0.513230  0.243290  1.0  -0.5689
