# generated using pymatgen
data_CdH9C14NO5
_symmetry_space_group_name_H-M   'P 1'
_cell_length_a   10.05800000
_cell_length_b   16.67900000
_cell_length_c   18.52710000
_cell_angle_alpha   106.22700000
_cell_angle_beta   105.75000000
_cell_angle_gamma   90.00000000
_symmetry_Int_Tables_number   1
_chemical_formula_structural   CdH9C14NO5
_chemical_formula_sum   'Cd8 H72 C112 N8 O40'
_cell_volume   2862.50495223
_cell_formula_units_Z   8
loop_
 _symmetry_equiv_pos_site_id
 _symmetry_equiv_pos_as_xyz
  1  'x, y, z'
loop_
 _atom_site_type_symbol
 _atom_site_label
 _atom_site_symmetry_multiplicity
 _atom_site_fract_x
 _atom_site_fract_y
 _atom_site_fract_z
 _atom_site_occupancy
 _atom_site_charge
  Cd  Cd1  1  0.410940  0.877570  0.418380  1.0  1.1601
  Cd  Cd2  1  0.812340  0.782060  0.693760  1.0  1.0462
  Cd  Cd3  1  0.992560  0.622430  0.581620  1.0  1.1624
  Cd  Cd4  1  0.118580  0.717940  0.306240  1.0  1.0476
  Cd  Cd5  1  0.589060  0.122430  0.581620  1.0  1.1592
  Cd  Cd6  1  0.187660  0.217940  0.306240  1.0  1.0458
  Cd  Cd7  1  0.007440  0.377570  0.418380  1.0  1.1633
  Cd  Cd8  1  0.881420  0.282060  0.693760  1.0  1.0485
  H  H9  1  0.516500  0.854100  0.225800  1.0  0.1192
  H  H10  1  0.197500  0.862400  0.993000  1.0  0.1352
  H  H11  1  0.126500  0.820700  0.086800  1.0  0.0964
  H  H12  1  0.787200  0.830000  0.171400  1.0  0.0942
  H  H13  1  0.716600  0.882700  0.233600  1.0  0.0919
  H  H14  1  0.021500  0.892400  0.197200  1.0  0.1111
  H  H15  1  0.175500  0.006300  0.234600  1.0  0.0804
  H  H16  1  0.882600  0.155600  0.259200  1.0  0.0804
  H  H17  1  0.724400  0.045100  0.225600  1.0  0.1078
  H  H18  1  0.326600  0.914900  0.908600  1.0  0.0852
  H  H19  1  0.328200  0.820200  0.907000  1.0  0.0632
  H  H20  1  0.341200  0.801800  0.768600  1.0  0.1241
  H  H21  1  0.488800  0.780200  0.689600  1.0  0.0982
  H  H22  1  0.803600  0.873600  0.873800  1.0  0.0905
  H  H23  1  0.661500  0.907000  0.952000  1.0  0.1267
  H  H24  1  0.834300  0.906500  0.393000  1.0  0.0992
  H  H25  1  0.132500  0.079900  0.415600  1.0  0.1051
  H  H26  1  0.761900  0.148500  0.441600  1.0  0.1006
  H  H27  1  0.290700  0.645900  0.774200  1.0  0.1196
  H  H28  1  0.204500  0.637600  0.007000  1.0  0.1373
  H  H29  1  0.039700  0.679300  0.913200  1.0  0.0957
  H  H30  1  0.615800  0.670000  0.828600  1.0  0.0917
  H  H31  1  0.483000  0.617300  0.766400  1.0  0.0902
  H  H32  1  0.824300  0.607600  0.802800  1.0  0.1125
  H  H33  1  0.940900  0.493700  0.765400  1.0  0.0799
  H  H34  1  0.623400  0.344400  0.740800  1.0  0.0805
  H  H35  1  0.498800  0.454900  0.774400  1.0  0.1099
  H  H36  1  0.418000  0.585100  0.091400  1.0  0.0844
  H  H37  1  0.421200  0.679800  0.093000  1.0  0.0633
  H  H38  1  0.572600  0.698200  0.231400  1.0  0.1228
  H  H39  1  0.799200  0.719800  0.310400  1.0  0.0982
  H  H40  1  0.929800  0.626400  0.126200  1.0  0.0919
  H  H41  1  0.709500  0.593000  0.048000  1.0  0.126
  H  H42  1  0.441300  0.593500  0.607000  1.0  0.0999
  H  H43  1  0.716900  0.420100  0.584400  1.0  0.1049
  H  H44  1  0.320300  0.351500  0.558400  1.0  0.1006
  H  H45  1  0.483500  0.145900  0.774200  1.0  0.1193
  H  H46  1  0.802500  0.137600  0.007000  1.0  0.1363
  H  H47  1  0.873500  0.179300  0.913200  1.0  0.0956
  H  H48  1  0.212800  0.170000  0.828600  1.0  0.0915
  H  H49  1  0.283400  0.117300  0.766400  1.0  0.0921
  H  H50  1  0.978500  0.107600  0.802800  1.0  0.1116
  H  H51  1  0.824500  0.993700  0.765400  1.0  0.0799
  H  H52  1  0.117400  0.844400  0.740800  1.0  0.0804
  H  H53  1  0.275600  0.954900  0.774400  1.0  0.1098
  H  H54  1  0.673400  0.085100  0.091400  1.0  0.0848
  H  H55  1  0.671800  0.179800  0.093000  1.0  0.0628
  H  H56  1  0.658800  0.198200  0.231400  1.0  0.1258
  H  H57  1  0.511200  0.219800  0.310400  1.0  0.0977
  H  H58  1  0.196400  0.126400  0.126200  1.0  0.0906
  H  H59  1  0.338500  0.093000  0.048000  1.0  0.1266
  H  H60  1  0.165700  0.093500  0.607000  1.0  0.0998
  H  H61  1  0.867500  0.920100  0.584400  1.0  0.1049
  H  H62  1  0.238100  0.851500  0.558400  1.0  0.1003
  H  H63  1  0.709300  0.354100  0.225800  1.0  0.1193
  H  H64  1  0.795500  0.362400  0.993000  1.0  0.1372
  H  H65  1  0.960300  0.320700  0.086800  1.0  0.0958
  H  H66  1  0.384200  0.330000  0.171400  1.0  0.0936
  H  H67  1  0.517000  0.382700  0.233600  1.0  0.09
  H  H68  1  0.175700  0.392400  0.197200  1.0  0.112
  H  H69  1  0.059100  0.506300  0.234600  1.0  0.0801
  H  H70  1  0.376600  0.655600  0.259200  1.0  0.0803
  H  H71  1  0.501200  0.545100  0.225600  1.0  0.1103
  H  H72  1  0.582000  0.414900  0.908600  1.0  0.0851
  H  H73  1  0.578800  0.320200  0.907000  1.0  0.0639
  H  H74  1  0.427400  0.301800  0.768600  1.0  0.1247
  H  H75  1  0.200800  0.280200  0.689600  1.0  0.0989
  H  H76  1  0.070200  0.373600  0.873800  1.0  0.0926
  H  H77  1  0.290500  0.407000  0.952000  1.0  0.1258
  H  H78  1  0.558700  0.406500  0.393000  1.0  0.0991
  H  H79  1  0.283100  0.579900  0.415600  1.0  0.1038
  H  H80  1  0.679700  0.648500  0.441600  1.0  0.1005
  C  C81  1  0.263200  0.797800  0.222200  1.0  0.6858
  C  C82  1  0.310400  0.831500  0.165400  1.0  -0.1365
  C  C83  1  0.452900  0.853500  0.178600  1.0  -0.1604
  C  C84  1  0.497000  0.874100  0.121200  1.0  0.1696
  C  C85  1  0.403900  0.875600  0.052000  1.0  0.1821
  C  C86  1  0.261500  0.858400  0.038400  1.0  -0.2471
  C  C87  1  0.220200  0.834900  0.095800  1.0  -0.0429
  C  C88  1  0.747600  0.882600  0.188400  1.0  0.0762
  C  C89  1  0.852000  0.954700  0.208200  1.0  0.1145
  C  C90  1  0.991000  0.945700  0.210200  1.0  -0.1979
  C  C91  1  0.082700  0.014200  0.231200  1.0  0.1844
  C  C92  1  0.910700  0.101600  0.246000  1.0  0.1687
  C  C93  1  0.815700  0.035300  0.226400  1.0  -0.1948
  C  C94  1  0.386200  0.871300  0.919200  1.0  0.0723
  C  C95  1  0.485100  0.857600  0.868600  1.0  0.1155
  C  C96  1  0.435100  0.818800  0.790600  1.0  -0.2132
  C  C97  1  0.525000  0.804600  0.743400  1.0  0.1829
  C  C98  1  0.708700  0.861000  0.851600  1.0  0.1737
  C  C99  1  0.624600  0.879500  0.898800  1.0  -0.2027
  C  C100  1  0.635200  0.001100  0.422600  1.0  0.6925
  C  C101  1  0.776100  0.024700  0.419600  1.0  -0.1741
  C  C102  1  0.864300  0.962300  0.402800  1.0  0.0103
  C  C103  1  0.999700  0.982900  0.400800  1.0  -0.1878
  C  C104  1  0.042800  0.065800  0.415200  1.0  0.0227
  C  C105  1  0.955000  0.128200  0.428600  1.0  -0.1796
  C  C106  1  0.821000  0.106500  0.431600  1.0  0.0195
  C  C107  1  0.093500  0.913800  0.384000  1.0  0.6982
  C  C108  1  0.991300  0.216500  0.432400  1.0  0.6743
  C  C109  1  0.041000  0.702200  0.777800  1.0  0.6827
  C  C110  1  0.145000  0.668500  0.834600  1.0  -0.1399
  C  C111  1  0.274300  0.646500  0.821400  1.0  -0.1602
  C  C112  1  0.375800  0.625900  0.878800  1.0  0.1698
  C  C113  1  0.351900  0.624400  0.948000  1.0  0.1819
  C  C114  1  0.223100  0.641600  0.961600  1.0  -0.2474
  C  C115  1  0.124400  0.665100  0.904200  1.0  -0.0417
  C  C116  1  0.559200  0.617400  0.811600  1.0  0.0735
  C  C117  1  0.643800  0.545300  0.791800  1.0  0.1143
  C  C118  1  0.780800  0.554300  0.789800  1.0  -0.1982
  C  C119  1  0.851500  0.485800  0.768800  1.0  0.1859
  C  C120  1  0.664700  0.398400  0.754000  1.0  0.1675
  C  C121  1  0.589300  0.464700  0.773600  1.0  -0.1932
  C  C122  1  0.467000  0.628700  0.080800  1.0  0.0729
  C  C123  1  0.616500  0.642400  0.131400  1.0  0.1161
  C  C124  1  0.644500  0.681200  0.209400  1.0  -0.2138
  C  C125  1  0.781600  0.695400  0.256600  1.0  0.1816
  C  C126  1  0.857100  0.639000  0.148400  1.0  0.1735
  C  C127  1  0.725800  0.620500  0.101200  1.0  -0.2001
  C  C128  1  0.212600  0.498900  0.577400  1.0  0.6928
  C  C129  1  0.356500  0.475300  0.580400  1.0  -0.1754
  C  C130  1  0.461500  0.537700  0.597200  1.0  0.0065
  C  C131  1  0.598900  0.517100  0.599200  1.0  -0.1872
  C  C132  1  0.627600  0.434200  0.584800  1.0  0.0229
  C  C133  1  0.526400  0.371800  0.571400  1.0  -0.1794
  C  C134  1  0.389400  0.393500  0.568400  1.0  0.0205
  C  C135  1  0.709500  0.586200  0.616000  1.0  0.6979
  C  C136  1  0.558900  0.283500  0.567600  1.0  0.6751
  C  C137  1  0.736800  0.202200  0.777800  1.0  0.6844
  C  C138  1  0.689600  0.168500  0.834600  1.0  -0.1338
  C  C139  1  0.547100  0.146500  0.821400  1.0  -0.1609
  C  C140  1  0.503000  0.125900  0.878800  1.0  0.1704
  C  C141  1  0.596100  0.124400  0.948000  1.0  0.1822
  C  C142  1  0.738500  0.141600  0.961600  1.0  -0.246
  C  C143  1  0.779800  0.165100  0.904200  1.0  -0.0434
  C  C144  1  0.252400  0.117400  0.811600  1.0  0.076
  C  C145  1  0.148000  0.045300  0.791800  1.0  0.1143
  C  C146  1  0.009000  0.054300  0.789800  1.0  -0.1977
  C  C147  1  0.917300  0.985800  0.768800  1.0  0.1846
  C  C148  1  0.089300  0.898400  0.754000  1.0  0.1681
  C  C149  1  0.184300  0.964700  0.773600  1.0  -0.1951
  C  C150  1  0.613800  0.128700  0.080800  1.0  0.0704
  C  C151  1  0.514900  0.142400  0.131400  1.0  0.1153
  C  C152  1  0.564900  0.181200  0.209400  1.0  -0.2135
  C  C153  1  0.475000  0.195400  0.256600  1.0  0.1829
  C  C154  1  0.291300  0.139000  0.148400  1.0  0.1742
  C  C155  1  0.375400  0.120500  0.101200  1.0  -0.2041
  C  C156  1  0.364800  0.998900  0.577400  1.0  0.6912
  C  C157  1  0.223900  0.975300  0.580400  1.0  -0.1732
  C  C158  1  0.135700  0.037700  0.597200  1.0  0.0058
  C  C159  1  0.000300  0.017100  0.599200  1.0  -0.1882
  C  C160  1  0.957200  0.934200  0.584800  1.0  0.0236
  C  C161  1  0.045000  0.871800  0.571400  1.0  -0.18
  C  C162  1  0.179000  0.893500  0.568400  1.0  0.0195
  C  C163  1  0.906500  0.086200  0.616000  1.0  0.6988
  C  C164  1  0.008700  0.783500  0.567600  1.0  0.6742
  C  C165  1  0.959000  0.297800  0.222200  1.0  0.6826
  C  C166  1  0.855000  0.331500  0.165400  1.0  -0.1379
  C  C167  1  0.725700  0.353500  0.178600  1.0  -0.1634
  C  C168  1  0.624200  0.374100  0.121200  1.0  0.1692
  C  C169  1  0.648100  0.375600  0.052000  1.0  0.1823
  C  C170  1  0.776900  0.358400  0.038400  1.0  -0.2474
  C  C171  1  0.875600  0.334900  0.095800  1.0  -0.0434
  C  C172  1  0.440800  0.382600  0.188400  1.0  0.074
  C  C173  1  0.356200  0.454700  0.208200  1.0  0.1134
  C  C174  1  0.219200  0.445700  0.210200  1.0  -0.198
  C  C175  1  0.148500  0.514200  0.231200  1.0  0.1854
  C  C176  1  0.335300  0.601600  0.246000  1.0  0.1705
  C  C177  1  0.410700  0.535300  0.226400  1.0  -0.1939
  C  C178  1  0.533000  0.371300  0.919200  1.0  0.0707
  C  C179  1  0.383500  0.357600  0.868600  1.0  0.1151
  C  C180  1  0.355500  0.318800  0.790600  1.0  -0.2141
  C  C181  1  0.218400  0.304600  0.743400  1.0  0.1818
  C  C182  1  0.142900  0.361000  0.851600  1.0  0.1733
  C  C183  1  0.274200  0.379500  0.898800  1.0  -0.1994
  C  C184  1  0.787400  0.501100  0.422600  1.0  0.6927
  C  C185  1  0.643500  0.524700  0.419600  1.0  -0.1731
  C  C186  1  0.538500  0.462300  0.402800  1.0  0.0096
  C  C187  1  0.401100  0.482900  0.400800  1.0  -0.1868
  C  C188  1  0.372400  0.565800  0.415200  1.0  0.0213
  C  C189  1  0.473600  0.628200  0.428600  1.0  -0.1788
  C  C190  1  0.610600  0.606500  0.431600  1.0  0.0204
  C  C191  1  0.290500  0.413800  0.384000  1.0  0.6976
  C  C192  1  0.441100  0.716500  0.432400  1.0  0.6759
  N  N193  1  0.660800  0.824900  0.773000  1.0  -0.3761
  N  N194  1  0.043300  0.091700  0.246800  1.0  -0.3891
  N  N195  1  0.887800  0.675100  0.227000  1.0  -0.3778
  N  N196  1  0.796500  0.408300  0.753200  1.0  -0.3894
  N  N197  1  0.339200  0.175100  0.227000  1.0  -0.3758
  N  N198  1  0.956700  0.908300  0.753200  1.0  -0.3893
  N  N199  1  0.112200  0.324900  0.773000  1.0  -0.3768
  N  N200  1  0.203500  0.591700  0.246800  1.0  -0.3901
  O  O201  1  0.353000  0.797600  0.285200  1.0  -0.65
  O  O202  1  0.139700  0.768000  0.202800  1.0  -0.6272
  O  O203  1  0.634400  0.893300  0.126400  1.0  -0.2764
  O  O204  1  0.462700  0.894900  0.998400  1.0  -0.2499
  O  O205  1  0.593300  0.924900  0.395000  1.0  -0.593
  O  O206  1  0.561800  0.057000  0.449600  1.0  -0.67
  O  O207  1  0.047200  0.840100  0.364200  1.0  -0.603
  O  O208  1  0.218200  0.938500  0.392400  1.0  -0.6361
  O  O209  1  0.101600  0.236000  0.418200  1.0  -0.68
  O  O210  1  0.911100  0.271800  0.449400  1.0  -0.5667
  O  O211  1  0.067800  0.702400  0.714800  1.0  -0.6506
  O  O212  1  0.936900  0.732000  0.797200  1.0  -0.6275
  O  O213  1  0.508000  0.606700  0.873600  1.0  -0.2763
  O  O214  1  0.464300  0.605100  0.001600  1.0  -0.251
  O  O215  1  0.198300  0.575100  0.605000  1.0  -0.5941
  O  O216  1  0.112200  0.443000  0.550400  1.0  -0.6691
  O  O217  1  0.683000  0.659900  0.635800  1.0  -0.6
  O  O218  1  0.825800  0.561500  0.607600  1.0  -0.6362
  O  O219  1  0.683400  0.264000  0.581800  1.0  -0.6801
  O  O220  1  0.461700  0.228200  0.550600  1.0  -0.5669
  O  O221  1  0.647000  0.202400  0.714800  1.0  -0.6498
  O  O222  1  0.860300  0.232000  0.797200  1.0  -0.6276
  O  O223  1  0.365600  0.106700  0.873600  1.0  -0.2768
  O  O224  1  0.537300  0.105100  0.001600  1.0  -0.2518
  O  O225  1  0.406700  0.075100  0.605000  1.0  -0.5937
  O  O226  1  0.438200  0.943000  0.550400  1.0  -0.6689
  O  O227  1  0.952800  0.159900  0.635800  1.0  -0.6037
  O  O228  1  0.781800  0.061500  0.607600  1.0  -0.6369
  O  O229  1  0.898400  0.764000  0.581800  1.0  -0.679
  O  O230  1  0.088900  0.728200  0.550600  1.0  -0.5677
  O  O231  1  0.932200  0.297600  0.285200  1.0  -0.6498
  O  O232  1  0.063100  0.268000  0.202800  1.0  -0.6276
  O  O233  1  0.492000  0.393300  0.126400  1.0  -0.2777
  O  O234  1  0.535700  0.394900  0.998400  1.0  -0.2519
  O  O235  1  0.801700  0.424900  0.395000  1.0  -0.5937
  O  O236  1  0.887800  0.557000  0.449600  1.0  -0.6693
  O  O237  1  0.317000  0.340100  0.364200  1.0  -0.6001
  O  O238  1  0.174200  0.438500  0.392400  1.0  -0.6361
  O  O239  1  0.316600  0.736000  0.418200  1.0  -0.6813
  O  O240  1  0.538300  0.771800  0.449400  1.0  -0.5678
