# generated using pymatgen
data_ZnH14C20NO4
_symmetry_space_group_name_H-M   'P 1'
_cell_length_a   6.64000000
_cell_length_b   13.62610000
_cell_length_c   24.46750000
_cell_angle_alpha   75.88410000
_cell_angle_beta   82.20150000
_cell_angle_gamma   75.89800000
_symmetry_Int_Tables_number   1
_chemical_formula_structural   ZnH14C20NO4
_chemical_formula_sum   'Zn4 H56 C80 N4 O16'
_cell_volume   2075.35104604
_cell_formula_units_Z   4
loop_
 _symmetry_equiv_pos_site_id
 _symmetry_equiv_pos_as_xyz
  1  'x, y, z'
loop_
 _atom_site_type_symbol
 _atom_site_label
 _atom_site_symmetry_multiplicity
 _atom_site_fract_x
 _atom_site_fract_y
 _atom_site_fract_z
 _atom_site_occupancy
 _atom_site_charge
  Zn  Zn1  1  0.938470  0.902480  0.969120  1.0  0.9407
  Zn  Zn2  1  0.810070  0.597520  0.530880  1.0  0.9408
  Zn  Zn3  1  0.061530  0.097520  0.030880  1.0  0.9404
  Zn  Zn4  1  0.189930  0.402480  0.469120  1.0  0.9405
  H  H5  1  0.440100  0.946200  0.831000  1.0  0.1015
  H  H6  1  0.619600  0.031700  0.753300  1.0  0.1068
  H  H7  1  0.072600  0.194300  0.690700  1.0  0.1038
  H  H8  1  0.893400  0.104600  0.767200  1.0  0.0976
  H  H9  1  0.748600  0.075300  0.663500  1.0  0.1127
  H  H10  1  0.934800  0.179000  0.596200  1.0  0.095
  H  H11  1  0.433700  0.418900  0.586500  1.0  0.1044
  H  H12  1  0.247500  0.315600  0.654000  1.0  0.1002
  H  H13  1  0.544000  0.864100  0.924300  1.0  0.1021
  H  H14  1  0.427300  0.715500  0.923900  1.0  0.131
  H  H15  1  0.869600  0.540800  0.027800  1.0  0.1151
  H  H16  1  0.986400  0.689200  0.028200  1.0  0.0917
  H  H17  1  0.683100  0.463200  0.968200  1.0  0.0993
  H  H18  1  0.475500  0.535700  0.941900  1.0  0.0951
  H  H19  1  0.217300  0.553800  0.669000  1.0  0.1027
  H  H20  1  0.404600  0.468300  0.746700  1.0  0.1073
  H  H21  1  0.957600  0.305700  0.809300  1.0  0.1039
  H  H22  1  0.765200  0.395400  0.732800  1.0  0.0972
  H  H23  1  0.487400  0.424700  0.836500  1.0  0.112
  H  H24  1  0.710000  0.321000  0.903800  1.0  0.0949
  H  H25  1  0.439100  0.081100  0.913500  1.0  0.1043
  H  H26  1  0.217100  0.184400  0.846000  1.0  0.1
  H  H27  1  0.332400  0.635900  0.575700  1.0  0.1025
  H  H28  1  0.066700  0.784500  0.576100  1.0  0.1316
  H  H29  1  0.438200  0.959200  0.472200  1.0  0.1148
  H  H30  1  0.703800  0.810800  0.471800  1.0  0.0919
  H  H31  1  0.114500  0.036800  0.531800  1.0  0.0984
  H  H32  1  0.953100  0.964300  0.558100  1.0  0.0941
  H  H33  1  0.559900  0.053800  0.169000  1.0  0.1023
  H  H34  1  0.380400  0.968300  0.246700  1.0  0.1071
  H  H35  1  0.927400  0.805700  0.309300  1.0  0.1039
  H  H36  1  0.106600  0.895400  0.232800  1.0  0.0971
  H  H37  1  0.251400  0.924700  0.336500  1.0  0.1125
  H  H38  1  0.065200  0.821000  0.403800  1.0  0.0949
  H  H39  1  0.566300  0.581100  0.413500  1.0  0.1047
  H  H40  1  0.752500  0.684400  0.346000  1.0  0.1004
  H  H41  1  0.456000  0.135900  0.075700  1.0  0.1016
  H  H42  1  0.572700  0.284500  0.076100  1.0  0.1315
  H  H43  1  0.130400  0.459200  0.972200  1.0  0.1146
  H  H44  1  0.013600  0.310800  0.971800  1.0  0.0914
  H  H45  1  0.316900  0.536800  0.031800  1.0  0.0993
  H  H46  1  0.524500  0.464300  0.058100  1.0  0.0941
  H  H47  1  0.782700  0.446200  0.331000  1.0  0.1016
  H  H48  1  0.595400  0.531700  0.253300  1.0  0.1065
  H  H49  1  0.042400  0.694300  0.190700  1.0  0.1039
  H  H50  1  0.234800  0.604600  0.267200  1.0  0.0977
  H  H51  1  0.512600  0.575300  0.163500  1.0  0.112
  H  H52  1  0.290000  0.679000  0.096200  1.0  0.0943
  H  H53  1  0.560900  0.918900  0.086500  1.0  0.1044
  H  H54  1  0.782900  0.815600  0.154000  1.0  0.0998
  H  H55  1  0.667600  0.364100  0.424300  1.0  0.1027
  H  H56  1  0.933300  0.215500  0.423900  1.0  0.1307
  H  H57  1  0.561800  0.040800  0.527800  1.0  0.1149
  H  H58  1  0.296200  0.189200  0.528200  1.0  0.0918
  H  H59  1  0.885500  0.963200  0.468200  1.0  0.0993
  H  H60  1  0.046900  0.035700  0.441900  1.0  0.0944
  C  C61  1  0.029000  0.967480  0.858920  1.0  0.6477
  C  C62  1  0.147950  0.017000  0.807300  1.0  -0.1243
  C  C63  1  0.364840  0.996350  0.802370  1.0  -0.0393
  C  C64  1  0.471630  0.047960  0.756380  1.0  -0.1291
  C  C65  1  0.365260  0.124170  0.714110  1.0  0.0333
  C  C66  1  0.148300  0.143700  0.719100  1.0  -0.1346
  C  C67  1  0.041290  0.090580  0.764840  1.0  -0.0532
  C  C68  1  0.480050  0.185920  0.667380  1.0  0.0517
  C  C69  1  0.684790  0.145590  0.648630  1.0  -0.1517
  C  C70  1  0.795390  0.207340  0.608480  1.0  -0.0304
  C  C71  1  0.705250  0.310590  0.585710  1.0  -0.1702
  C  C72  1  0.499230  0.349520  0.602620  1.0  -0.0119
  C  C73  1  0.388530  0.287840  0.642900  1.0  -0.1246
  C  C74  1  0.828860  0.377980  0.545100  1.0  0.6848
  C  C75  1  0.610100  0.798500  0.945300  1.0  0.1878
  C  C76  1  0.540700  0.710300  0.945100  1.0  -0.2173
  C  C77  1  0.637400  0.614200  0.975800  1.0  0.1592
  C  C78  1  0.803500  0.606400  0.006800  1.0  -0.2069
  C  C79  1  0.872900  0.694600  0.007000  1.0  0.1686
  C  C80  1  0.561100  0.519200  0.974400  1.0  -0.1697
  C  C81  1  0.855400  0.532520  0.641080  1.0  0.649
  C  C82  1  0.972250  0.483000  0.692700  1.0  -0.1222
  C  C83  1  0.163560  0.503650  0.697630  1.0  -0.0366
  C  C84  1  0.275970  0.452040  0.743620  1.0  -0.1278
  C  C85  1  0.203540  0.375830  0.785890  1.0  0.034
  C  C86  1  0.011100  0.356300  0.780900  1.0  -0.137
  C  C87  1  0.896710  0.409420  0.735160  1.0  -0.0534
  C  C88  1  0.333333  0.314080  0.832620  1.0  0.0514
  C  C89  1  0.479010  0.354410  0.851370  1.0  -0.1519
  C  C90  1  0.611210  0.292660  0.891520  1.0  -0.0305
  C  C91  1  0.601550  0.189410  0.914290  1.0  -0.171
  C  C92  1  0.451370  0.150480  0.897380  1.0  -0.0154
  C  C93  1  0.319270  0.212160  0.857100  1.0  -0.1239
  C  C94  1  0.751940  0.122020  0.954900  1.0  0.6849
  C  C95  1  0.353900  0.701500  0.554700  1.0  0.1918
  C  C96  1  0.196100  0.789700  0.554900  1.0  -0.2172
  C  C97  1  0.227400  0.885800  0.524200  1.0  0.16
  C  C98  1  0.416700  0.893600  0.493200  1.0  -0.2053
  C  C99  1  0.574500  0.805400  0.493000  1.0  0.1687
  C  C100  1  0.054700  0.980800  0.525600  1.0  -0.1697
  C  C101  1  0.971000  0.032520  0.141080  1.0  0.6487
  C  C102  1  0.852050  0.983000  0.192700  1.0  -0.1205
  C  C103  1  0.635160  0.003650  0.197630  1.0  -0.0379
  C  C104  1  0.528370  0.952040  0.243620  1.0  -0.1285
  C  C105  1  0.634740  0.875830  0.285890  1.0  0.0344
  C  C106  1  0.851700  0.856300  0.280900  1.0  -0.1353
  C  C107  1  0.958710  0.909420  0.235160  1.0  -0.0538
  C  C108  1  0.519950  0.814080  0.332620  1.0  0.0512
  C  C109  1  0.315210  0.854410  0.351370  1.0  -0.1531
  C  C110  1  0.204610  0.792660  0.391520  1.0  -0.03
  C  C111  1  0.294750  0.689410  0.414290  1.0  -0.1708
  C  C112  1  0.500770  0.650480  0.397380  1.0  -0.0155
  C  C113  1  0.611470  0.712160  0.357100  1.0  -0.1256
  C  C114  1  0.171140  0.622020  0.454900  1.0  0.6844
  C  C115  1  0.389900  0.201500  0.054700  1.0  0.1892
  C  C116  1  0.459300  0.289700  0.054900  1.0  -0.2165
  C  C117  1  0.362600  0.385800  0.024200  1.0  0.1589
  C  C118  1  0.196500  0.393600  0.993200  1.0  -0.2
  C  C119  1  0.127100  0.305400  0.993000  1.0  0.1681
  C  C120  1  0.438900  0.480800  0.025600  1.0  -0.1672
  C  C121  1  0.144600  0.467480  0.358920  1.0  0.6477
  C  C122  1  0.027750  0.517000  0.307300  1.0  -0.1274
  C  C123  1  0.836440  0.496350  0.302370  1.0  -0.0372
  C  C124  1  0.724030  0.547960  0.256380  1.0  -0.1279
  C  C125  1  0.796460  0.624170  0.214110  1.0  0.0334
  C  C126  1  0.988900  0.643700  0.219100  1.0  -0.1381
  C  C127  1  0.103290  0.590580  0.264840  1.0  -0.0542
  C  C128  1  0.666667  0.685920  0.167380  1.0  0.0512
  C  C129  1  0.520990  0.645590  0.148630  1.0  -0.1521
  C  C130  1  0.388790  0.707340  0.108480  1.0  -0.0289
  C  C131  1  0.398450  0.810590  0.085710  1.0  -0.1705
  C  C132  1  0.548630  0.849520  0.102620  1.0  -0.0129
  C  C133  1  0.680730  0.787840  0.142900  1.0  -0.1253
  C  C134  1  0.248060  0.877980  0.045100  1.0  0.6847
  C  C135  1  0.646100  0.298500  0.445300  1.0  0.1908
  C  C136  1  0.803900  0.210300  0.445100  1.0  -0.219
  C  C137  1  0.772600  0.114200  0.475800  1.0  0.1579
  C  C138  1  0.583300  0.106400  0.506800  1.0  -0.2003
  C  C139  1  0.425500  0.194600  0.507000  1.0  0.1687
  C  C140  1  0.945300  0.019200  0.474400  1.0  -0.1703
  N  N141  1  0.776200  0.790700  0.976300  1.0  -0.3709
  N  N142  1  0.543200  0.709300  0.523700  1.0  -0.3711
  N  N143  1  0.223800  0.209300  0.023700  1.0  -0.3728
  N  N144  1  0.456800  0.290700  0.476300  1.0  -0.3704
  O  O145  1  0.132260  0.929390  0.903290  1.0  -0.6228
  O  O146  1  0.845570  0.965530  0.857530  1.0  -0.5716
  O  O147  1  0.740270  0.470220  0.524040  1.0  -0.6034
  O  O148  1  0.018780  0.338480  0.533760  1.0  -0.602
  O  O149  1  0.964940  0.570610  0.596710  1.0  -0.6217
  O  O150  1  0.668630  0.534470  0.642470  1.0  -0.5733
  O  O151  1  0.734530  0.029780  0.975960  1.0  -0.6031
  O  O152  1  0.891020  0.161520  0.966240  1.0  -0.6015
  O  O153  1  0.867740  0.070610  0.096710  1.0  -0.623
  O  O154  1  0.154430  0.034470  0.142470  1.0  -0.5718
  O  O155  1  0.259730  0.529780  0.475960  1.0  -0.6033
  O  O156  1  0.981220  0.661520  0.466240  1.0  -0.602
  O  O157  1  0.035060  0.429390  0.403290  1.0  -0.6226
  O  O158  1  0.331370  0.465530  0.357530  1.0  -0.5702
  O  O159  1  0.265470  0.970220  0.024040  1.0  -0.6034
  O  O160  1  0.108980  0.838480  0.033760  1.0  -0.601
