# generated using pymatgen
data_Cu4H40C44N12O11
_symmetry_space_group_name_H-M   'P 1'
_cell_length_a   17.25440000
_cell_length_b   17.25440000
_cell_length_c   15.35170000
_cell_angle_alpha   90.00000000
_cell_angle_beta   90.00000000
_cell_angle_gamma   90.00000000
_symmetry_Int_Tables_number   1
_chemical_formula_structural   Cu4H40C44N12O11
_chemical_formula_sum   'Cu8 H80 C88 N24 O22'
_cell_volume   4570.42091652
_cell_formula_units_Z   2
loop_
 _symmetry_equiv_pos_site_id
 _symmetry_equiv_pos_as_xyz
  1  'x, y, z'
loop_
 _atom_site_type_symbol
 _atom_site_label
 _atom_site_symmetry_multiplicity
 _atom_site_fract_x
 _atom_site_fract_y
 _atom_site_fract_z
 _atom_site_occupancy
 _atom_site_charge
  Cu  Cu1  1  0.432180  0.549970  0.416920  1.0  0.9758
  Cu  Cu2  1  0.567820  0.450030  0.416920  1.0  0.9769
  Cu  Cu3  1  0.549970  0.567820  0.583080  1.0  0.975
  Cu  Cu4  1  0.450030  0.432180  0.583080  1.0  0.9738
  Cu  Cu5  1  0.067820  0.049970  0.083080  1.0  0.977
  Cu  Cu6  1  0.932180  0.950030  0.083080  1.0  0.976
  Cu  Cu7  1  0.950030  0.067820  0.916920  1.0  0.9744
  Cu  Cu8  1  0.049970  0.932180  0.916920  1.0  0.975
  H  H9  1  0.183900  0.537700  0.200100  1.0  0.0957
  H  H10  1  0.109200  0.616700  0.112000  1.0  0.1271
  H  H11  1  0.227600  0.800900  0.195900  1.0  0.1041
  H  H12  1  0.308400  0.720700  0.278100  1.0  0.0907
  H  H13  1  0.025600  0.741000  0.242500  1.0  0.1224
  H  H14  1  0.966500  0.704100  0.175400  1.0  0.1237
  H  H15  1  0.951500  0.788300  0.212900  1.0  0.113
  H  H16  1  0.208800  0.857500  0.949600  1.0  0.1204
  H  H17  1  0.217200  0.766800  0.962900  1.0  0.1254
  H  H18  1  0.247000  0.824600  0.035900  1.0  0.1099
  H  H19  1  0.816100  0.462300  0.200100  1.0  0.0958
  H  H20  1  0.890800  0.383300  0.112000  1.0  0.1274
  H  H21  1  0.772400  0.199100  0.195900  1.0  0.1044
  H  H22  1  0.691600  0.279300  0.278100  1.0  0.0908
  H  H23  1  0.974400  0.259000  0.242500  1.0  0.122
  H  H24  1  0.033500  0.295900  0.175400  1.0  0.1229
  H  H25  1  0.048500  0.211700  0.212900  1.0  0.114
  H  H26  1  0.791200  0.142500  0.949600  1.0  0.1203
  H  H27  1  0.782800  0.233200  0.962900  1.0  0.1256
  H  H28  1  0.753000  0.175400  0.035900  1.0  0.1098
  H  H29  1  0.537700  0.816100  0.799900  1.0  0.0961
  H  H30  1  0.616700  0.890800  0.888000  1.0  0.1269
  H  H31  1  0.800900  0.772400  0.804100  1.0  0.105
  H  H32  1  0.720700  0.691600  0.721900  1.0  0.0904
  H  H33  1  0.741000  0.974400  0.757500  1.0  0.1206
  H  H34  1  0.704100  0.033500  0.824600  1.0  0.1202
  H  H35  1  0.788300  0.048500  0.787100  1.0  0.1127
  H  H36  1  0.857500  0.791200  0.050400  1.0  0.1198
  H  H37  1  0.766800  0.782800  0.037100  1.0  0.1255
  H  H38  1  0.824600  0.753000  0.964100  1.0  0.1084
  H  H39  1  0.462300  0.183900  0.799900  1.0  0.0956
  H  H40  1  0.383300  0.109200  0.888000  1.0  0.1268
  H  H41  1  0.199100  0.227600  0.804100  1.0  0.1068
  H  H42  1  0.279300  0.308400  0.721900  1.0  0.0906
  H  H43  1  0.259000  0.025600  0.757500  1.0  0.1218
  H  H44  1  0.295900  0.966500  0.824600  1.0  0.122
  H  H45  1  0.211700  0.951500  0.787100  1.0  0.1127
  H  H46  1  0.142500  0.208800  0.050400  1.0  0.1194
  H  H47  1  0.233200  0.217200  0.037100  1.0  0.1235
  H  H48  1  0.175400  0.247000  0.964100  1.0  0.1096
  H  H49  1  0.316100  0.037700  0.299900  1.0  0.0964
  H  H50  1  0.390800  0.116700  0.388000  1.0  0.1276
  H  H51  1  0.272400  0.300900  0.304100  1.0  0.1045
  H  H52  1  0.191600  0.220700  0.221900  1.0  0.0904
  H  H53  1  0.474400  0.241000  0.257500  1.0  0.1209
  H  H54  1  0.533500  0.204100  0.324600  1.0  0.1229
  H  H55  1  0.548500  0.288300  0.287100  1.0  0.1129
  H  H56  1  0.291200  0.357500  0.550400  1.0  0.1208
  H  H57  1  0.282800  0.266800  0.537100  1.0  0.1239
  H  H58  1  0.253000  0.324600  0.464100  1.0  0.1092
  H  H59  1  0.683900  0.962300  0.299900  1.0  0.0959
  H  H60  1  0.609200  0.883300  0.388000  1.0  0.1278
  H  H61  1  0.727600  0.699100  0.304100  1.0  0.1043
  H  H62  1  0.808400  0.779300  0.221900  1.0  0.0911
  H  H63  1  0.525600  0.759000  0.257500  1.0  0.1208
  H  H64  1  0.466500  0.795900  0.324600  1.0  0.1222
  H  H65  1  0.451500  0.711700  0.287100  1.0  0.1129
  H  H66  1  0.708800  0.642500  0.550400  1.0  0.1214
  H  H67  1  0.717200  0.733200  0.537100  1.0  0.1242
  H  H68  1  0.747000  0.675400  0.464100  1.0  0.1099
  H  H69  1  0.962300  0.316100  0.700100  1.0  0.0954
  H  H70  1  0.883300  0.390800  0.612000  1.0  0.1269
  H  H71  1  0.699100  0.272400  0.695900  1.0  0.1065
  H  H72  1  0.779300  0.191600  0.778100  1.0  0.0906
  H  H73  1  0.759000  0.474400  0.742500  1.0  0.123
  H  H74  1  0.795900  0.533500  0.675400  1.0  0.123
  H  H75  1  0.711700  0.548500  0.712900  1.0  0.113
  H  H76  1  0.642500  0.291200  0.449600  1.0  0.1196
  H  H77  1  0.733200  0.282800  0.462900  1.0  0.1241
  H  H78  1  0.675400  0.253000  0.535900  1.0  0.1098
  H  H79  1  0.037700  0.683900  0.700100  1.0  0.0963
  H  H80  1  0.116700  0.609200  0.612000  1.0  0.1266
  H  H81  1  0.300900  0.727600  0.695900  1.0  0.1044
  H  H82  1  0.220700  0.808400  0.778100  1.0  0.09
  H  H83  1  0.241000  0.525600  0.742500  1.0  0.1223
  H  H84  1  0.204100  0.466500  0.675400  1.0  0.1217
  H  H85  1  0.288300  0.451500  0.712900  1.0  0.114
  H  H86  1  0.357500  0.708800  0.449600  1.0  0.1178
  H  H87  1  0.266800  0.717200  0.462900  1.0  0.1249
  H  H88  1  0.324600  0.747000  0.535900  1.0  0.1093
  C  C89  1  0.305200  0.568700  0.301300  1.0  0.7235
  C  C90  1  0.255600  0.619400  0.246600  1.0  -0.1761
  C  C91  1  0.194500  0.591100  0.198300  1.0  -0.0447
  C  C92  1  0.148300  0.637900  0.147300  1.0  -0.2512
  C  C93  1  0.161300  0.716800  0.149800  1.0  0.2205
  C  C94  1  0.219300  0.747000  0.196300  1.0  -0.2222
  C  C95  1  0.267700  0.699100  0.245600  1.0  -0.0693
  C  C96  1  0.990900  0.751800  0.194300  1.0  -0.4168
  C  C97  1  0.036100  0.786000  0.120300  1.0  0.4157
  C  C98  1  0.130900  0.813500  0.033600  1.0  0.3557
  C  C99  1  0.207500  0.815800  0.992000  1.0  -0.4216
  C  C100  1  0.694800  0.431300  0.301300  1.0  0.7239
  C  C101  1  0.744400  0.380600  0.246600  1.0  -0.1759
  C  C102  1  0.805500  0.408900  0.198300  1.0  -0.0408
  C  C103  1  0.851700  0.362100  0.147300  1.0  -0.2513
  C  C104  1  0.838700  0.283200  0.149800  1.0  0.2202
  C  C105  1  0.780700  0.253000  0.196300  1.0  -0.2224
  C  C106  1  0.732300  0.300900  0.245600  1.0  -0.0685
  C  C107  1  0.009100  0.248200  0.194300  1.0  -0.4172
  C  C108  1  0.963900  0.214000  0.120300  1.0  0.4165
  C  C109  1  0.869100  0.186500  0.033600  1.0  0.3554
  C  C110  1  0.792500  0.184200  0.992000  1.0  -0.4207
  C  C111  1  0.568700  0.694800  0.698700  1.0  0.725
  C  C112  1  0.619400  0.744400  0.753400  1.0  -0.1783
  C  C113  1  0.591100  0.805500  0.801700  1.0  -0.0364
  C  C114  1  0.637900  0.851700  0.852700  1.0  -0.2537
  C  C115  1  0.716800  0.838700  0.850200  1.0  0.2194
  C  C116  1  0.747000  0.780700  0.803700  1.0  -0.2217
  C  C117  1  0.699100  0.732300  0.754400  1.0  -0.0695
  C  C118  1  0.751800  0.009100  0.805700  1.0  -0.4162
  C  C119  1  0.786000  0.963900  0.879700  1.0  0.4163
  C  C120  1  0.813500  0.869100  0.966400  1.0  0.3575
  C  C121  1  0.815800  0.792500  0.008000  1.0  -0.4196
  C  C122  1  0.431300  0.305200  0.698700  1.0  0.7249
  C  C123  1  0.380600  0.255600  0.753400  1.0  -0.1774
  C  C124  1  0.408900  0.194500  0.801700  1.0  -0.0356
  C  C125  1  0.362100  0.148300  0.852700  1.0  -0.2511
  C  C126  1  0.283200  0.161300  0.850200  1.0  0.2194
  C  C127  1  0.253000  0.219300  0.803700  1.0  -0.2233
  C  C128  1  0.300900  0.267700  0.754400  1.0  -0.0696
  C  C129  1  0.248200  0.990900  0.805700  1.0  -0.4181
  C  C130  1  0.214000  0.036100  0.879700  1.0  0.4174
  C  C131  1  0.186500  0.130900  0.966400  1.0  0.3578
  C  C132  1  0.184200  0.207500  0.008000  1.0  -0.4202
  C  C133  1  0.194800  0.068700  0.198700  1.0  0.7235
  C  C134  1  0.244400  0.119400  0.253400  1.0  -0.1762
  C  C135  1  0.305500  0.091100  0.301700  1.0  -0.044
  C  C136  1  0.351700  0.137900  0.352700  1.0  -0.2529
  C  C137  1  0.338700  0.216800  0.350200  1.0  0.2202
  C  C138  1  0.280700  0.247000  0.303700  1.0  -0.2224
  C  C139  1  0.232300  0.199100  0.254400  1.0  -0.0683
  C  C140  1  0.509100  0.251800  0.305700  1.0  -0.4181
  C  C141  1  0.463900  0.286000  0.379700  1.0  0.4171
  C  C142  1  0.369100  0.313500  0.466400  1.0  0.3551
  C  C143  1  0.292500  0.315800  0.508000  1.0  -0.4206
  C  C144  1  0.805200  0.931300  0.198700  1.0  0.7237
  C  C145  1  0.755600  0.880600  0.253400  1.0  -0.1755
  C  C146  1  0.694500  0.908900  0.301700  1.0  -0.0407
  C  C147  1  0.648300  0.862100  0.352700  1.0  -0.2528
  C  C148  1  0.661300  0.783200  0.350200  1.0  0.2206
  C  C149  1  0.719300  0.753000  0.303700  1.0  -0.223
  C  C150  1  0.767700  0.800900  0.254400  1.0  -0.0696
  C  C151  1  0.490900  0.748200  0.305700  1.0  -0.4158
  C  C152  1  0.536100  0.714000  0.379700  1.0  0.4161
  C  C153  1  0.630900  0.686500  0.466400  1.0  0.3559
  C  C154  1  0.707500  0.684200  0.508000  1.0  -0.4217
  C  C155  1  0.931300  0.194800  0.801300  1.0  0.7252
  C  C156  1  0.880600  0.244400  0.746600  1.0  -0.1772
  C  C157  1  0.908900  0.305500  0.698300  1.0  -0.0352
  C  C158  1  0.862100  0.351700  0.647300  1.0  -0.2501
  C  C159  1  0.783200  0.338700  0.649800  1.0  0.2195
  C  C160  1  0.753000  0.280700  0.696300  1.0  -0.2226
  C  C161  1  0.800900  0.232300  0.745600  1.0  -0.0692
  C  C162  1  0.748200  0.509100  0.694300  1.0  -0.4171
  C  C163  1  0.714000  0.463900  0.620300  1.0  0.4168
  C  C164  1  0.686500  0.369100  0.533600  1.0  0.358
  C  C165  1  0.684200  0.292500  0.492000  1.0  -0.4208
  C  C166  1  0.068700  0.805200  0.801300  1.0  0.7256
  C  C167  1  0.119400  0.755600  0.746600  1.0  -0.1784
  C  C168  1  0.091100  0.694500  0.698300  1.0  -0.0366
  C  C169  1  0.137900  0.648300  0.647300  1.0  -0.2528
  C  C170  1  0.216800  0.661300  0.649800  1.0  0.2192
  C  C171  1  0.247000  0.719300  0.696300  1.0  -0.2212
  C  C172  1  0.199100  0.767700  0.745600  1.0  -0.0702
  C  C173  1  0.251800  0.490900  0.694300  1.0  -0.4163
  C  C174  1  0.286000  0.536100  0.620300  1.0  0.4158
  C  C175  1  0.313500  0.630900  0.533600  1.0  0.3574
  C  C176  1  0.315800  0.707500  0.492000  1.0  -0.4195
  N  N177  1  0.010800  0.838200  0.067900  1.0  -0.2858
  N  N178  1  0.071300  0.854600  0.011300  1.0  -0.213
  N  N179  1  0.110800  0.767900  0.102900  1.0  -0.0433
  N  N180  1  0.989200  0.161800  0.067900  1.0  -0.2859
  N  N181  1  0.928700  0.145400  0.011300  1.0  -0.2132
  N  N182  1  0.889200  0.232100  0.102900  1.0  -0.043
  N  N183  1  0.838200  0.989200  0.932100  1.0  -0.2863
  N  N184  1  0.854600  0.928700  0.988700  1.0  -0.2148
  N  N185  1  0.767900  0.889200  0.897100  1.0  -0.0424
  N  N186  1  0.161800  0.010800  0.932100  1.0  -0.2846
  N  N187  1  0.145400  0.071300  0.988700  1.0  -0.2159
  N  N188  1  0.232100  0.110800  0.897100  1.0  -0.0434
  N  N189  1  0.489200  0.338200  0.432100  1.0  -0.2853
  N  N190  1  0.428700  0.354600  0.488700  1.0  -0.2123
  N  N191  1  0.389200  0.267900  0.397100  1.0  -0.0429
  N  N192  1  0.510800  0.661800  0.432100  1.0  -0.2874
  N  N193  1  0.571300  0.645400  0.488700  1.0  -0.2138
  N  N194  1  0.610800  0.732100  0.397100  1.0  -0.044
  N  N195  1  0.661800  0.489200  0.567900  1.0  -0.2855
  N  N196  1  0.645400  0.428700  0.511300  1.0  -0.2162
  N  N197  1  0.732100  0.389200  0.602900  1.0  -0.0428
  N  N198  1  0.338200  0.510800  0.567900  1.0  -0.2839
  N  N199  1  0.354600  0.571300  0.511300  1.0  -0.2144
  N  N200  1  0.267900  0.610800  0.602900  1.0  -0.0426
  O  O201  1  0.366100  0.598600  0.328400  1.0  -0.6082
  O  O202  1  0.283900  0.501400  0.317800  1.0  -0.5472
  O  O203  1  0.633900  0.401400  0.328400  1.0  -0.6077
  O  O204  1  0.716100  0.498600  0.317800  1.0  -0.547
  O  O205  1  0.598600  0.633900  0.671600  1.0  -0.61
  O  O206  1  0.501400  0.716100  0.682200  1.0  -0.5518
  O  O207  1  0.401400  0.366100  0.671600  1.0  -0.6085
  O  O208  1  0.498600  0.283900  0.682200  1.0  -0.5527
  O  O209  1  0.133900  0.098600  0.171600  1.0  -0.6084
  O  O210  1  0.216100  0.001400  0.182200  1.0  -0.5466
  O  O211  1  0.866100  0.901400  0.171600  1.0  -0.6083
  O  O212  1  0.783900  0.998600  0.182200  1.0  -0.5463
  O  O213  1  0.901400  0.133900  0.828400  1.0  -0.6103
  O  O214  1  0.998600  0.216100  0.817800  1.0  -0.553
  O  O215  1  0.098600  0.866100  0.828400  1.0  -0.6084
  O  O216  1  0.001400  0.783900  0.817800  1.0  -0.552
  O  O217  1  0.500000  0.500000  0.500000  1.0  -0.9699
  O  O218  1  0.000000  0.000000  0.000000  1.0  -0.9699
  O  O219  1  0.500000  0.500000  0.330700  1.0  -0.5653
  O  O220  1  0.500000  0.500000  0.669300  1.0  -0.562
  O  O221  1  0.000000  0.000000  0.169300  1.0  -0.562
  O  O222  1  0.000000  0.000000  0.830700  1.0  -0.5653
