# generated using pymatgen
data_CoH3C7O3
_symmetry_space_group_name_H-M   'P 1'
_cell_length_a   21.70360000
_cell_length_b   21.70360000
_cell_length_c   6.84400000
_cell_angle_alpha   90.00000000
_cell_angle_beta   90.00000000
_cell_angle_gamma   120.00000000
_symmetry_Int_Tables_number   1
_chemical_formula_structural   CoH3C7O3
_chemical_formula_sum   'Co6 H18 C42 O18'
_cell_volume   2791.92781860
_cell_formula_units_Z   6
loop_
 _symmetry_equiv_pos_site_id
 _symmetry_equiv_pos_as_xyz
  1  'x, y, z'
loop_
 _atom_site_type_symbol
 _atom_site_label
 _atom_site_symmetry_multiplicity
 _atom_site_fract_x
 _atom_site_fract_y
 _atom_site_fract_z
 _atom_site_occupancy
 _atom_site_charge
  Co  Co1  1  0.281760  0.608290  0.339080  1.0  1.0075
  Co  Co2  1  0.391710  0.673470  0.005750  1.0  1.0059
  Co  Co3  1  0.326530  0.718240  0.672410  1.0  1.0096
  Co  Co4  1  0.608290  0.281760  0.660920  1.0  1.0099
  Co  Co5  1  0.673470  0.391710  0.994250  1.0  1.0108
  Co  Co6  1  0.718240  0.326530  0.327590  1.0  1.0053
  H  H7  1  0.395100  0.512300  0.038700  1.0  0.1012
  H  H8  1  0.448000  0.453400  0.176100  1.0  0.1096
  H  H9  1  0.454100  0.545300  0.695300  1.0  0.1017
  H  H10  1  0.487700  0.882800  0.705370  1.0  0.1011
  H  H11  1  0.546600  0.994600  0.842770  1.0  0.1098
  H  H12  1  0.454700  0.908800  0.361970  1.0  0.1016
  H  H13  1  0.117200  0.604900  0.372030  1.0  0.1012
  H  H14  1  0.005400  0.552000  0.509430  1.0  0.1096
  H  H15  1  0.091200  0.545900  0.028630  1.0  0.1019
  H  H16  1  0.512300  0.395100  0.961300  1.0  0.1011
  H  H17  1  0.453400  0.448000  0.823900  1.0  0.1102
  H  H18  1  0.545300  0.454100  0.304700  1.0  0.1025
  H  H19  1  0.882800  0.487700  0.294630  1.0  0.1008
  H  H20  1  0.994600  0.546600  0.157230  1.0  0.1105
  H  H21  1  0.908800  0.454700  0.638030  1.0  0.1024
  H  H22  1  0.604900  0.117200  0.627970  1.0  0.1012
  H  H23  1  0.552000  0.005400  0.490570  1.0  0.1093
  H  H24  1  0.545900  0.091200  0.971370  1.0  0.1031
  C  C25  1  0.395500  0.619700  0.615400  1.0  0.7501
  C  C26  1  0.405700  0.518100  0.174400  1.0  -0.1972
  C  C27  1  0.438100  0.483400  0.255200  1.0  -0.1937
  C  C28  1  0.408000  0.572300  0.482900  1.0  -0.1815
  C  C29  1  0.387800  0.561200  0.281500  1.0  0.381
  C  C30  1  0.441200  0.537600  0.561200  1.0  -0.0694
  C  C31  1  0.456800  0.492200  0.455700  1.0  0.082
  C  C32  1  0.380300  0.775800  0.282070  1.0  0.7499
  C  C33  1  0.481900  0.887600  0.841070  1.0  -0.1992
  C  C34  1  0.516600  0.954700  0.921870  1.0  -0.1939
  C  C35  1  0.427700  0.835700  0.149570  1.0  -0.1818
  C  C36  1  0.438800  0.826600  0.948170  1.0  0.3778
  C  C37  1  0.462400  0.903600  0.227870  1.0  -0.0708
  C  C38  1  0.507800  0.964600  0.122370  1.0  0.0826
  C  C39  1  0.224200  0.604500  0.948730  1.0  0.7501
  C  C40  1  0.112400  0.594300  0.507730  1.0  -0.1965
  C  C41  1  0.045300  0.561900  0.588530  1.0  -0.1935
  C  C42  1  0.164300  0.592000  0.816230  1.0  -0.1822
  C  C43  1  0.173400  0.612200  0.614830  1.0  0.38
  C  C44  1  0.096400  0.558800  0.894530  1.0  -0.0688
  C  C45  1  0.035400  0.543200  0.789030  1.0  0.0823
  C  C46  1  0.619700  0.395500  0.384600  1.0  0.7497
  C  C47  1  0.518100  0.405700  0.825600  1.0  -0.1956
  C  C48  1  0.483400  0.438100  0.744800  1.0  -0.1934
  C  C49  1  0.572300  0.408000  0.517100  1.0  -0.182
  C  C50  1  0.561200  0.387800  0.718500  1.0  0.3791
  C  C51  1  0.537600  0.441200  0.438800  1.0  -0.0691
  C  C52  1  0.492200  0.456800  0.544300  1.0  0.0822
  C  C53  1  0.775800  0.380300  0.717930  1.0  0.7499
  C  C54  1  0.887600  0.481900  0.158930  1.0  -0.1956
  C  C55  1  0.954700  0.516600  0.078130  1.0  -0.1929
  C  C56  1  0.835700  0.427700  0.850430  1.0  -0.1818
  C  C57  1  0.826600  0.438800  0.051830  1.0  0.3808
  C  C58  1  0.903600  0.462400  0.772130  1.0  -0.0691
  C  C59  1  0.964600  0.507800  0.877630  1.0  0.0819
  C  C60  1  0.604500  0.224200  0.051270  1.0  0.7504
  C  C61  1  0.594300  0.112400  0.492270  1.0  -0.1963
  C  C62  1  0.561900  0.045300  0.411470  1.0  -0.1937
  C  C63  1  0.592000  0.164300  0.183770  1.0  -0.1815
  C  C64  1  0.612200  0.173400  0.385170  1.0  0.3773
  C  C65  1  0.558800  0.096400  0.105470  1.0  -0.0705
  C  C66  1  0.543200  0.035400  0.210970  1.0  0.0825
  O  O67  1  0.419900  0.628800  0.786500  1.0  -0.6158
  O  O68  1  0.362400  0.650100  0.549500  1.0  -0.6276
  O  O69  1  0.352500  0.589100  0.193200  1.0  -0.6473
  O  O70  1  0.371200  0.791100  0.453170  1.0  -0.6152
  O  O71  1  0.349900  0.712300  0.216170  1.0  -0.6284
  O  O72  1  0.410900  0.763400  0.859870  1.0  -0.6484
  O  O73  1  0.208900  0.580100  0.119830  1.0  -0.6154
  O  O74  1  0.287700  0.637600  0.882830  1.0  -0.6264
  O  O75  1  0.236600  0.647500  0.526530  1.0  -0.6487
  O  O76  1  0.628800  0.419900  0.213500  1.0  -0.6165
  O  O77  1  0.650100  0.362400  0.450500  1.0  -0.6278
  O  O78  1  0.589100  0.352500  0.806800  1.0  -0.6482
  O  O79  1  0.791100  0.371200  0.546830  1.0  -0.6156
  O  O80  1  0.712300  0.349900  0.783830  1.0  -0.6282
  O  O81  1  0.763400  0.410900  0.140130  1.0  -0.6483
  O  O82  1  0.580100  0.208900  0.880170  1.0  -0.6144
  O  O83  1  0.637600  0.287700  0.117170  1.0  -0.6273
  O  O84  1  0.647500  0.236600  0.473470  1.0  -0.6482
