# generated using pymatgen
data_Li2H24C12ClO6
_symmetry_space_group_name_H-M   'P 1'
_cell_length_a   15.94530000
_cell_length_b   17.42020000
_cell_length_c   11.07920000
_cell_angle_alpha   90.00000000
_cell_angle_beta   123.92600000
_cell_angle_gamma   90.00000000
_symmetry_Int_Tables_number   1
_chemical_formula_structural   Li2H24C12ClO6
_chemical_formula_sum   'Li8 H96 C48 Cl4 O24'
_cell_volume   2553.56113177
_cell_formula_units_Z   4
loop_
 _symmetry_equiv_pos_site_id
 _symmetry_equiv_pos_as_xyz
  1  'x, y, z'
loop_
 _atom_site_type_symbol
 _atom_site_label
 _atom_site_symmetry_multiplicity
 _atom_site_fract_x
 _atom_site_fract_y
 _atom_site_fract_z
 _atom_site_occupancy
 _atom_site_charge
  Li  Li1  1  0.328900  0.079900  0.099500  1.0  0.8003
  Li  Li2  1  0.828900  0.579900  0.099500  1.0  0.8003
  Li  Li3  1  0.671100  0.079900  0.400500  1.0  0.801
  Li  Li4  1  0.171100  0.579900  0.400500  1.0  0.801
  Li  Li5  1  0.671100  0.920100  0.900500  1.0  0.8008
  Li  Li6  1  0.171100  0.420100  0.900500  1.0  0.8008
  Li  Li7  1  0.328900  0.920100  0.599500  1.0  0.8002
  Li  Li8  1  0.828900  0.420100  0.599500  1.0  0.8002
  H  H9  1  0.159100  0.079000  0.146400  1.0  0.0567
  H  H10  1  0.133300  0.989800  0.143600  1.0  0.0562
  H  H11  1  0.249900  0.894500  0.163000  1.0  0.0393
  H  H12  1  0.351700  0.921700  0.178900  1.0  0.0556
  H  H13  1  0.194600  0.958900  0.874900  1.0  0.0592
  H  H14  1  0.296300  0.931700  0.890400  1.0  0.0444
  H  H15  1  0.412600  0.026900  0.909700  1.0  0.0396
  H  H16  1  0.386800  0.116100  0.907000  1.0  0.0583
  H  H17  1  0.388400  0.233300  0.236000  1.0  0.0584
  H  H18  1  0.284100  0.274500  0.187400  1.0  0.0435
  H  H19  1  0.128100  0.225100  0.978500  1.0  0.0513
  H  H20  1  0.132400  0.152200  0.893700  1.0  0.0535
  H  H21  1  0.659100  0.579000  0.146400  1.0  0.0567
  H  H22  1  0.633300  0.489800  0.143600  1.0  0.0562
  H  H23  1  0.749900  0.394500  0.163000  1.0  0.0393
  H  H24  1  0.851700  0.421700  0.178900  1.0  0.0556
  H  H25  1  0.694600  0.458900  0.874900  1.0  0.0592
  H  H26  1  0.796300  0.431700  0.890400  1.0  0.0444
  H  H27  1  0.912600  0.526900  0.909700  1.0  0.0396
  H  H28  1  0.886800  0.616100  0.907000  1.0  0.0583
  H  H29  1  0.888400  0.733300  0.236000  1.0  0.0584
  H  H30  1  0.784100  0.774500  0.187400  1.0  0.0435
  H  H31  1  0.628100  0.725100  0.978500  1.0  0.0513
  H  H32  1  0.632400  0.652200  0.893700  1.0  0.0535
  H  H33  1  0.840900  0.079000  0.353600  1.0  0.057
  H  H34  1  0.866700  0.989800  0.356400  1.0  0.0561
  H  H35  1  0.750100  0.894500  0.337000  1.0  0.0399
  H  H36  1  0.648300  0.921700  0.321100  1.0  0.0564
  H  H37  1  0.805400  0.958900  0.625100  1.0  0.0584
  H  H38  1  0.703700  0.931700  0.609600  1.0  0.0452
  H  H39  1  0.587400  0.026900  0.590300  1.0  0.0371
  H  H40  1  0.613200  0.116100  0.593000  1.0  0.059
  H  H41  1  0.611600  0.233300  0.264000  1.0  0.0583
  H  H42  1  0.715900  0.274500  0.312600  1.0  0.0436
  H  H43  1  0.871900  0.225100  0.521500  1.0  0.0516
  H  H44  1  0.867600  0.152200  0.606300  1.0  0.0526
  H  H45  1  0.340900  0.579000  0.353600  1.0  0.057
  H  H46  1  0.366700  0.489800  0.356400  1.0  0.0561
  H  H47  1  0.250100  0.394500  0.337000  1.0  0.0399
  H  H48  1  0.148300  0.421700  0.321100  1.0  0.0564
  H  H49  1  0.305400  0.458900  0.625100  1.0  0.0584
  H  H50  1  0.203700  0.431700  0.609600  1.0  0.0452
  H  H51  1  0.087400  0.526900  0.590300  1.0  0.0371
  H  H52  1  0.113200  0.616100  0.593000  1.0  0.059
  H  H53  1  0.111600  0.733300  0.264000  1.0  0.0583
  H  H54  1  0.215900  0.774500  0.312600  1.0  0.0436
  H  H55  1  0.371900  0.725100  0.521500  1.0  0.0516
  H  H56  1  0.367600  0.652200  0.606300  1.0  0.0526
  H  H57  1  0.840900  0.921000  0.853600  1.0  0.0569
  H  H58  1  0.866700  0.010200  0.856400  1.0  0.0556
  H  H59  1  0.750100  0.105500  0.837000  1.0  0.0398
  H  H60  1  0.648300  0.078300  0.821100  1.0  0.0558
  H  H61  1  0.805400  0.041100  0.125100  1.0  0.0585
  H  H62  1  0.703700  0.068300  0.109600  1.0  0.0448
  H  H63  1  0.587400  0.973100  0.090300  1.0  0.0368
  H  H64  1  0.613200  0.883900  0.093000  1.0  0.0583
  H  H65  1  0.611600  0.766700  0.764000  1.0  0.0582
  H  H66  1  0.715900  0.725500  0.812600  1.0  0.044
  H  H67  1  0.871900  0.774900  0.021500  1.0  0.0517
  H  H68  1  0.867600  0.847800  0.106300  1.0  0.0527
  H  H69  1  0.340900  0.421000  0.853600  1.0  0.0569
  H  H70  1  0.366700  0.510200  0.856400  1.0  0.0556
  H  H71  1  0.250100  0.605500  0.837000  1.0  0.0398
  H  H72  1  0.148300  0.578300  0.821100  1.0  0.0558
  H  H73  1  0.305400  0.541100  0.125100  1.0  0.0585
  H  H74  1  0.203700  0.568300  0.109600  1.0  0.0448
  H  H75  1  0.087400  0.473100  0.090300  1.0  0.0368
  H  H76  1  0.113200  0.383900  0.093000  1.0  0.0583
  H  H77  1  0.111600  0.266700  0.764000  1.0  0.0582
  H  H78  1  0.215900  0.225500  0.812600  1.0  0.044
  H  H79  1  0.371900  0.274900  0.021500  1.0  0.0517
  H  H80  1  0.367600  0.347800  0.106300  1.0  0.0527
  H  H81  1  0.159100  0.921000  0.646400  1.0  0.0574
  H  H82  1  0.133300  0.010200  0.643600  1.0  0.0556
  H  H83  1  0.249900  0.105500  0.663000  1.0  0.0406
  H  H84  1  0.351700  0.078300  0.678900  1.0  0.0549
  H  H85  1  0.194600  0.041100  0.374900  1.0  0.0578
  H  H86  1  0.296300  0.068300  0.390400  1.0  0.0437
  H  H87  1  0.412600  0.973100  0.409700  1.0  0.0388
  H  H88  1  0.386800  0.883900  0.407000  1.0  0.0589
  H  H89  1  0.388400  0.766700  0.736000  1.0  0.058
  H  H90  1  0.284100  0.725500  0.687400  1.0  0.0434
  H  H91  1  0.128100  0.774900  0.478500  1.0  0.0515
  H  H92  1  0.132400  0.847800  0.393700  1.0  0.0541
  H  H93  1  0.659100  0.421000  0.646400  1.0  0.0574
  H  H94  1  0.633300  0.510200  0.643600  1.0  0.0556
  H  H95  1  0.749900  0.605500  0.663000  1.0  0.0406
  H  H96  1  0.851700  0.578300  0.678900  1.0  0.0549
  H  H97  1  0.694600  0.541100  0.374900  1.0  0.0578
  H  H98  1  0.796300  0.568300  0.390400  1.0  0.0437
  H  H99  1  0.912600  0.473100  0.409700  1.0  0.0388
  H  H100  1  0.886800  0.383900  0.407000  1.0  0.0589
  H  H101  1  0.888400  0.266700  0.736000  1.0  0.058
  H  H102  1  0.784100  0.225500  0.687400  1.0  0.0434
  H  H103  1  0.628100  0.274900  0.478500  1.0  0.0515
  H  H104  1  0.632400  0.347800  0.393700  1.0  0.0541
  C  C105  1  0.188900  0.027900  0.185900  1.0  0.0321
  C  C106  1  0.303300  0.934300  0.205200  1.0  0.0216
  C  C107  1  0.242900  0.971500  0.848400  1.0  0.0209
  C  C108  1  0.357000  0.064900  0.867400  1.0  0.0355
  C  C109  1  0.320700  0.247700  0.151100  1.0  0.0263
  C  C110  1  0.168500  0.199500  0.947300  1.0  0.0129
  C  C111  1  0.688900  0.527900  0.185900  1.0  0.0321
  C  C112  1  0.803300  0.434300  0.205200  1.0  0.0216
  C  C113  1  0.742900  0.471500  0.848400  1.0  0.0209
  C  C114  1  0.857000  0.564900  0.867400  1.0  0.0355
  C  C115  1  0.820700  0.747700  0.151100  1.0  0.0263
  C  C116  1  0.668500  0.699500  0.947300  1.0  0.0129
  C  C117  1  0.811100  0.027900  0.314100  1.0  0.032
  C  C118  1  0.696700  0.934300  0.294800  1.0  0.0225
  C  C119  1  0.757100  0.971500  0.651600  1.0  0.0204
  C  C120  1  0.643000  0.064900  0.632600  1.0  0.0331
  C  C121  1  0.679300  0.247700  0.348900  1.0  0.0265
  C  C122  1  0.831500  0.199500  0.552700  1.0  0.0115
  C  C123  1  0.311100  0.527900  0.314100  1.0  0.032
  C  C124  1  0.196700  0.434300  0.294800  1.0  0.0225
  C  C125  1  0.257100  0.471500  0.651600  1.0  0.0204
  C  C126  1  0.143000  0.564900  0.632600  1.0  0.0331
  C  C127  1  0.179300  0.747700  0.348900  1.0  0.0265
  C  C128  1  0.331500  0.699500  0.552700  1.0  0.0115
  C  C129  1  0.811100  0.972100  0.814100  1.0  0.0301
  C  C130  1  0.696700  0.065700  0.794800  1.0  0.0218
  C  C131  1  0.757100  0.028500  0.151600  1.0  0.02
  C  C132  1  0.643000  0.935100  0.132600  1.0  0.0317
  C  C133  1  0.679300  0.752300  0.848900  1.0  0.0266
  C  C134  1  0.831500  0.800500  0.052700  1.0  0.0119
  C  C135  1  0.311100  0.472100  0.814100  1.0  0.0301
  C  C136  1  0.196700  0.565700  0.794800  1.0  0.0218
  C  C137  1  0.257100  0.528500  0.151600  1.0  0.02
  C  C138  1  0.143000  0.435100  0.132600  1.0  0.0317
  C  C139  1  0.179300  0.252300  0.848900  1.0  0.0266
  C  C140  1  0.331500  0.300500  0.052700  1.0  0.0119
  C  C141  1  0.188900  0.972100  0.685900  1.0  0.0308
  C  C142  1  0.303300  0.065700  0.705200  1.0  0.0212
  C  C143  1  0.242900  0.028500  0.348400  1.0  0.0209
  C  C144  1  0.357000  0.935100  0.367400  1.0  0.0331
  C  C145  1  0.320700  0.752300  0.651100  1.0  0.0256
  C  C146  1  0.168500  0.800500  0.447300  1.0  0.0113
  C  C147  1  0.688900  0.472100  0.685900  1.0  0.0308
  C  C148  1  0.803300  0.565700  0.705200  1.0  0.0212
  C  C149  1  0.742900  0.528500  0.348400  1.0  0.0209
  C  C150  1  0.857000  0.435100  0.367400  1.0  0.0331
  C  C151  1  0.820700  0.252300  0.651100  1.0  0.0256
  C  C152  1  0.668500  0.300500  0.447300  1.0  0.0113
  Cl  Cl153  1  0.500000  0.088670  0.250000  1.0  -0.418
  Cl  Cl154  1  0.000000  0.588670  0.250000  1.0  -0.418
  Cl  Cl155  1  0.500000  0.911330  0.750000  1.0  -0.4185
  Cl  Cl156  1  0.000000  0.411330  0.750000  1.0  -0.4185
  O  O157  1  0.258600  0.008500  0.146500  1.0  -0.4618
  O  O158  1  0.287600  0.045610  0.907000  1.0  -0.4441
  O  O159  1  0.266100  0.179900  0.072500  1.0  -0.4457
  O  O160  1  0.758600  0.508500  0.146500  1.0  -0.4618
  O  O161  1  0.787600  0.545610  0.907000  1.0  -0.4441
  O  O162  1  0.766100  0.679900  0.072500  1.0  -0.4457
  O  O163  1  0.741400  0.008500  0.353500  1.0  -0.4618
  O  O164  1  0.712400  0.045610  0.593000  1.0  -0.443
  O  O165  1  0.733900  0.179900  0.427500  1.0  -0.4467
  O  O166  1  0.241400  0.508500  0.353500  1.0  -0.4618
  O  O167  1  0.212400  0.545610  0.593000  1.0  -0.443
  O  O168  1  0.233900  0.679900  0.427500  1.0  -0.4467
  O  O169  1  0.741400  0.991500  0.853500  1.0  -0.4618
  O  O170  1  0.712400  0.954390  0.093000  1.0  -0.4435
  O  O171  1  0.733900  0.820100  0.927500  1.0  -0.4454
  O  O172  1  0.241400  0.491500  0.853500  1.0  -0.4618
  O  O173  1  0.212400  0.454390  0.093000  1.0  -0.4435
  O  O174  1  0.233900  0.320100  0.927500  1.0  -0.4454
  O  O175  1  0.258600  0.991500  0.646500  1.0  -0.4614
  O  O176  1  0.287600  0.954390  0.407000  1.0  -0.4443
  O  O177  1  0.266100  0.820100  0.572500  1.0  -0.4453
  O  O178  1  0.758600  0.491500  0.646500  1.0  -0.4614
  O  O179  1  0.787600  0.454390  0.407000  1.0  -0.4443
  O  O180  1  0.766100  0.320100  0.572500  1.0  -0.4453
