# generated using pymatgen
data_FeH3C7O3
_symmetry_space_group_name_H-M   'P 1'
_cell_length_a   21.84800000
_cell_length_b   21.84800000
_cell_length_c   6.81360000
_cell_angle_alpha   90.00000000
_cell_angle_beta   90.00000000
_cell_angle_gamma   120.00000000
_symmetry_Int_Tables_number   1
_chemical_formula_structural   FeH3C7O3
_chemical_formula_sum   'Fe6 H18 C42 O18'
_cell_volume   2816.63544487
_cell_formula_units_Z   6
loop_
 _symmetry_equiv_pos_site_id
 _symmetry_equiv_pos_as_xyz
  1  'x, y, z'
loop_
 _atom_site_type_symbol
 _atom_site_label
 _atom_site_symmetry_multiplicity
 _atom_site_fract_x
 _atom_site_fract_y
 _atom_site_fract_z
 _atom_site_occupancy
 _atom_site_charge
  Fe  Fe1  1  0.617600  0.278400  0.138000  1.0  1.0192
  Fe  Fe2  1  0.721600  0.339200  0.804670  1.0  1.0176
  Fe  Fe3  1  0.660800  0.382400  0.471330  1.0  1.0198
  Fe  Fe4  1  0.278400  0.617600  0.862000  1.0  1.0196
  Fe  Fe5  1  0.339200  0.721600  0.195330  1.0  1.019
  Fe  Fe6  1  0.382400  0.660800  0.528670  1.0  1.0169
  H  H7  1  0.547000  0.089800  0.469400  1.0  0.1183
  H  H8  1  0.553800  0.006700  0.988100  1.0  0.1223
  H  H9  1  0.607000  0.118200  0.126200  1.0  0.1193
  H  H10  1  0.910200  0.457200  0.136070  1.0  0.1185
  H  H11  1  0.993300  0.547100  0.654770  1.0  0.1228
  H  H12  1  0.881800  0.488800  0.792870  1.0  0.1198
  H  H13  1  0.542800  0.453000  0.802730  1.0  0.1191
  H  H14  1  0.452900  0.446200  0.321430  1.0  0.1225
  H  H15  1  0.511200  0.393000  0.459530  1.0  0.1197
  H  H16  1  0.089800  0.547000  0.530600  1.0  0.1179
  H  H17  1  0.006700  0.553800  0.011900  1.0  0.122
  H  H18  1  0.118200  0.607000  0.873800  1.0  0.1198
  H  H19  1  0.457200  0.910200  0.863930  1.0  0.1177
  H  H20  1  0.547100  0.993300  0.345230  1.0  0.1211
  H  H21  1  0.488800  0.881800  0.207130  1.0  0.1198
  H  H22  1  0.453000  0.542800  0.197270  1.0  0.1181
  H  H23  1  0.446200  0.452900  0.678570  1.0  0.1221
  H  H24  1  0.393000  0.511200  0.540470  1.0  0.1196
  C  C25  1  0.613800  0.174400  0.878700  1.0  0.292
  C  C26  1  0.594000  0.164900  0.681000  1.0  -0.1501
  C  C27  1  0.560200  0.095800  0.602900  1.0  -0.0539
  C  C28  1  0.544900  0.035500  0.710500  1.0  0.0791
  C  C29  1  0.563800  0.046500  0.908900  1.0  -0.1757
  C  C30  1  0.596200  0.113200  0.991100  1.0  -0.0803
  C  C31  1  0.605000  0.222900  0.548100  1.0  0.5731
  C  C32  1  0.825600  0.439400  0.545370  1.0  0.2926
  C  C33  1  0.835100  0.429100  0.347670  1.0  -0.1503
  C  C34  1  0.904200  0.464400  0.269570  1.0  -0.052
  C  C35  1  0.964500  0.509400  0.377170  1.0  0.0784
  C  C36  1  0.953500  0.517300  0.575570  1.0  -0.175
  C  C37  1  0.886800  0.483000  0.657770  1.0  -0.0806
  C  C38  1  0.777100  0.382100  0.214770  1.0  0.5716
  C  C39  1  0.560600  0.386200  0.212030  1.0  0.2951
  C  C40  1  0.570900  0.406000  0.014330  1.0  -0.1501
  C  C41  1  0.535600  0.439800  0.936230  1.0  -0.0528
  C  C42  1  0.490600  0.455100  0.043830  1.0  0.0786
  C  C43  1  0.482700  0.436200  0.242230  1.0  -0.1743
  C  C44  1  0.517000  0.403800  0.324430  1.0  -0.0804
  C  C45  1  0.617900  0.395000  0.881430  1.0  0.5718
  C  C46  1  0.174400  0.613800  0.121300  1.0  0.2952
  C  C47  1  0.164900  0.594000  0.319000  1.0  -0.1502
  C  C48  1  0.095800  0.560200  0.397100  1.0  -0.0527
  C  C49  1  0.035500  0.544900  0.289500  1.0  0.0791
  C  C50  1  0.046500  0.563800  0.091100  1.0  -0.1745
  C  C51  1  0.113200  0.596200  0.008900  1.0  -0.0797
  C  C52  1  0.222900  0.605000  0.451900  1.0  0.5716
  C  C53  1  0.439400  0.825600  0.454630  1.0  0.292
  C  C54  1  0.429100  0.835100  0.652330  1.0  -0.1506
  C  C55  1  0.464400  0.904200  0.730430  1.0  -0.0553
  C  C56  1  0.509400  0.964500  0.622830  1.0  0.0791
  C  C57  1  0.517300  0.953500  0.424430  1.0  -0.1754
  C  C58  1  0.483000  0.886800  0.342230  1.0  -0.0796
  C  C59  1  0.382100  0.777100  0.785230  1.0  0.5732
  C  C60  1  0.386200  0.560600  0.787970  1.0  0.2934
  C  C61  1  0.406000  0.570900  0.985670  1.0  -0.1505
  C  C62  1  0.439800  0.535600  0.063770  1.0  -0.0531
  C  C63  1  0.455100  0.490600  0.956170  1.0  0.0788
  C  C64  1  0.436200  0.482700  0.757770  1.0  -0.1742
  C  C65  1  0.403800  0.517000  0.675570  1.0  -0.0798
  C  C66  1  0.395000  0.617900  0.118570  1.0  0.5723
  O  O67  1  0.669400  0.238700  0.935000  1.0  -0.6831
  O  O68  1  0.644700  0.282700  0.574000  1.0  -0.5811
  O  O69  1  0.582000  0.205100  0.362000  1.0  -0.5995
  O  O70  1  0.761300  0.430700  0.601670  1.0  -0.6806
  O  O71  1  0.717300  0.362000  0.240670  1.0  -0.5841
  O  O72  1  0.794900  0.376900  0.028670  1.0  -0.599
  O  O73  1  0.569300  0.330600  0.268330  1.0  -0.6827
  O  O74  1  0.638000  0.355300  0.907330  1.0  -0.5846
  O  O75  1  0.623100  0.418000  0.695330  1.0  -0.5986
  O  O76  1  0.238700  0.669400  0.065000  1.0  -0.6833
  O  O77  1  0.282700  0.644700  0.426000  1.0  -0.5844
  O  O78  1  0.205100  0.582000  0.638000  1.0  -0.5989
  O  O79  1  0.430700  0.761300  0.398330  1.0  -0.6834
  O  O80  1  0.362000  0.717300  0.759330  1.0  -0.5823
  O  O81  1  0.376900  0.794900  0.971330  1.0  -0.5989
  O  O82  1  0.330600  0.569300  0.731670  1.0  -0.6823
  O  O83  1  0.355300  0.638000  0.092670  1.0  -0.5836
  O  O84  1  0.418000  0.623100  0.304670  1.0  -0.5978
