# generated using pymatgen
data_FeH3C7O3
_symmetry_space_group_name_H-M   'P 1'
_cell_length_a   21.82300000
_cell_length_b   21.82300000
_cell_length_c   6.86950000
_cell_angle_alpha   90.00000000
_cell_angle_beta   90.00000000
_cell_angle_gamma   120.00000000
_symmetry_Int_Tables_number   1
_chemical_formula_structural   FeH3C7O3
_chemical_formula_sum   'Fe6 H18 C42 O18'
_cell_volume   2833.24848290
_cell_formula_units_Z   6
loop_
 _symmetry_equiv_pos_site_id
 _symmetry_equiv_pos_as_xyz
  1  'x, y, z'
loop_
 _atom_site_type_symbol
 _atom_site_label
 _atom_site_symmetry_multiplicity
 _atom_site_fract_x
 _atom_site_fract_y
 _atom_site_fract_z
 _atom_site_occupancy
 _atom_site_charge
  Fe  Fe1  1  0.613800  0.281700  0.142900  1.0  1.0084
  Fe  Fe2  1  0.718300  0.332100  0.809570  1.0  1.008
  Fe  Fe3  1  0.667900  0.386200  0.476230  1.0  1.0085
  Fe  Fe4  1  0.281700  0.613800  0.857100  1.0  1.0088
  Fe  Fe5  1  0.332100  0.718300  0.190430  1.0  1.008
  Fe  Fe6  1  0.386200  0.667900  0.523770  1.0  1.0083
  H  H7  1  0.547000  0.089800  0.469400  1.0  0.122
  H  H8  1  0.553800  0.006700  0.988100  1.0  0.1191
  H  H9  1  0.607000  0.118200  0.126200  1.0  0.1239
  H  H10  1  0.910200  0.457200  0.136070  1.0  0.1225
  H  H11  1  0.993300  0.547100  0.654770  1.0  0.1197
  H  H12  1  0.881800  0.488800  0.792870  1.0  0.1239
  H  H13  1  0.542800  0.453000  0.802730  1.0  0.1198
  H  H14  1  0.452900  0.446200  0.321430  1.0  0.1189
  H  H15  1  0.511200  0.393000  0.459530  1.0  0.1239
  H  H16  1  0.089800  0.547000  0.530600  1.0  0.1217
  H  H17  1  0.006700  0.553800  0.011900  1.0  0.1189
  H  H18  1  0.118200  0.607000  0.873800  1.0  0.1243
  H  H19  1  0.457200  0.910200  0.863930  1.0  0.1216
  H  H20  1  0.547100  0.993300  0.345230  1.0  0.1176
  H  H21  1  0.488800  0.881800  0.207130  1.0  0.1241
  H  H22  1  0.453000  0.542800  0.197270  1.0  0.1193
  H  H23  1  0.446200  0.452900  0.678570  1.0  0.1187
  H  H24  1  0.393000  0.511200  0.540470  1.0  0.1246
  C  C25  1  0.613800  0.174400  0.878700  1.0  0.3695
  C  C26  1  0.594000  0.164900  0.681000  1.0  -0.211
  C  C27  1  0.560200  0.095800  0.602900  1.0  -0.0597
  C  C28  1  0.544900  0.035500  0.710500  1.0  0.0977
  C  C29  1  0.563800  0.046500  0.908900  1.0  -0.1726
  C  C30  1  0.596200  0.113200  0.991100  1.0  -0.1069
  C  C31  1  0.605000  0.222900  0.548100  1.0  0.5919
  C  C32  1  0.825600  0.439400  0.545370  1.0  0.37
  C  C33  1  0.835100  0.429100  0.347670  1.0  -0.2121
  C  C34  1  0.904200  0.464400  0.269570  1.0  -0.0582
  C  C35  1  0.964500  0.509400  0.377170  1.0  0.0973
  C  C36  1  0.953500  0.517300  0.575570  1.0  -0.1721
  C  C37  1  0.886800  0.483000  0.657770  1.0  -0.1065
  C  C38  1  0.777100  0.382100  0.214770  1.0  0.5902
  C  C39  1  0.560600  0.386200  0.212030  1.0  0.3709
  C  C40  1  0.570900  0.406000  0.014330  1.0  -0.2113
  C  C41  1  0.535600  0.439800  0.936230  1.0  -0.0585
  C  C42  1  0.490600  0.455100  0.043830  1.0  0.0974
  C  C43  1  0.482700  0.436200  0.242230  1.0  -0.1737
  C  C44  1  0.517000  0.403800  0.324430  1.0  -0.1081
  C  C45  1  0.617900  0.395000  0.881430  1.0  0.5911
  C  C46  1  0.174400  0.613800  0.121300  1.0  0.3714
  C  C47  1  0.164900  0.594000  0.319000  1.0  -0.2116
  C  C48  1  0.095800  0.560200  0.397100  1.0  -0.0583
  C  C49  1  0.035500  0.544900  0.289500  1.0  0.0973
  C  C50  1  0.046500  0.563800  0.091100  1.0  -0.1717
  C  C51  1  0.113200  0.596200  0.008900  1.0  -0.1071
  C  C52  1  0.222900  0.605000  0.451900  1.0  0.592
  C  C53  1  0.439400  0.825600  0.454630  1.0  0.3698
  C  C54  1  0.429100  0.835100  0.652330  1.0  -0.2112
  C  C55  1  0.464400  0.904200  0.730430  1.0  -0.0605
  C  C56  1  0.509400  0.964500  0.622830  1.0  0.0978
  C  C57  1  0.517300  0.953500  0.424430  1.0  -0.1715
  C  C58  1  0.483000  0.886800  0.342230  1.0  -0.1074
  C  C59  1  0.382100  0.777100  0.785230  1.0  0.5922
  C  C60  1  0.386200  0.560600  0.787970  1.0  0.3712
  C  C61  1  0.406000  0.570900  0.985670  1.0  -0.2118
  C  C62  1  0.439800  0.535600  0.063770  1.0  -0.0586
  C  C63  1  0.455100  0.490600  0.956170  1.0  0.0975
  C  C64  1  0.436200  0.482700  0.757770  1.0  -0.1732
  C  C65  1  0.403800  0.517000  0.675570  1.0  -0.1063
  C  C66  1  0.395000  0.617900  0.118570  1.0  0.5908
  O  O67  1  0.652600  0.238000  0.947000  1.0  -0.642
  O  O68  1  0.635300  0.281900  0.592000  1.0  -0.6035
  O  O69  1  0.581200  0.206900  0.373000  1.0  -0.6341
  O  O70  1  0.762000  0.414600  0.613670  1.0  -0.6411
  O  O71  1  0.718100  0.353400  0.258670  1.0  -0.6048
  O  O72  1  0.793100  0.374300  0.039670  1.0  -0.6361
  O  O73  1  0.585400  0.347400  0.280330  1.0  -0.6447
  O  O74  1  0.646600  0.364700  0.925330  1.0  -0.6028
  O  O75  1  0.625700  0.418800  0.706330  1.0  -0.6357
  O  O76  1  0.238000  0.652600  0.053000  1.0  -0.6443
  O  O77  1  0.281900  0.635300  0.408000  1.0  -0.6021
  O  O78  1  0.206900  0.581200  0.627000  1.0  -0.6351
  O  O79  1  0.414600  0.762000  0.386330  1.0  -0.6426
  O  O80  1  0.353400  0.718100  0.741330  1.0  -0.6051
  O  O81  1  0.374300  0.793100  0.960330  1.0  -0.6346
  O  O82  1  0.347400  0.585400  0.719670  1.0  -0.6413
  O  O83  1  0.364700  0.646600  0.074670  1.0  -0.6052
  O  O84  1  0.418800  0.625700  0.293670  1.0  -0.6355
