# generated using pymatgen
data_FeH3C7O3
_symmetry_space_group_name_H-M   'P 1'
_cell_length_a   21.83100000
_cell_length_b   21.83100000
_cell_length_c   6.85430000
_cell_angle_alpha   90.00000000
_cell_angle_beta   90.00000000
_cell_angle_gamma   120.00000000
_symmetry_Int_Tables_number   1
_chemical_formula_structural   FeH3C7O3
_chemical_formula_sum   'Fe6 H18 C42 O18'
_cell_volume   2829.05245324
_cell_formula_units_Z   6
loop_
 _symmetry_equiv_pos_site_id
 _symmetry_equiv_pos_as_xyz
  1  'x, y, z'
loop_
 _atom_site_type_symbol
 _atom_site_label
 _atom_site_symmetry_multiplicity
 _atom_site_fract_x
 _atom_site_fract_y
 _atom_site_fract_z
 _atom_site_occupancy
 _atom_site_charge
  Fe  Fe1  1  0.615200  0.279800  0.138000  1.0  1.0297
  Fe  Fe2  1  0.720200  0.335400  0.804670  1.0  1.0299
  Fe  Fe3  1  0.664600  0.384800  0.471330  1.0  1.0313
  Fe  Fe4  1  0.279800  0.615200  0.862000  1.0  1.0294
  Fe  Fe5  1  0.335400  0.720200  0.195330  1.0  1.0317
  Fe  Fe6  1  0.384800  0.664600  0.528670  1.0  1.0299
  H  H7  1  0.547000  0.089800  0.469400  1.0  0.1161
  H  H8  1  0.553800  0.006700  0.988100  1.0  0.1151
  H  H9  1  0.607000  0.118200  0.126200  1.0  0.1144
  H  H10  1  0.910200  0.457200  0.136070  1.0  0.1158
  H  H11  1  0.993300  0.547100  0.654770  1.0  0.1148
  H  H12  1  0.881800  0.488800  0.792870  1.0  0.1141
  H  H13  1  0.542800  0.453000  0.802730  1.0  0.1159
  H  H14  1  0.452900  0.446200  0.321430  1.0  0.1151
  H  H15  1  0.511200  0.393000  0.459530  1.0  0.1134
  H  H16  1  0.089800  0.547000  0.530600  1.0  0.1153
  H  H17  1  0.006700  0.553800  0.011900  1.0  0.1128
  H  H18  1  0.118200  0.607000  0.873800  1.0  0.1135
  H  H19  1  0.457200  0.910200  0.863930  1.0  0.1154
  H  H20  1  0.547100  0.993300  0.345230  1.0  0.114
  H  H21  1  0.488800  0.881800  0.207130  1.0  0.1142
  H  H22  1  0.453000  0.542800  0.197270  1.0  0.1153
  H  H23  1  0.446200  0.452900  0.678570  1.0  0.1148
  H  H24  1  0.393000  0.511200  0.540470  1.0  0.113
  C  C25  1  0.613800  0.174400  0.878700  1.0  0.3317
  C  C26  1  0.594000  0.164900  0.681000  1.0  -0.1684
  C  C27  1  0.560200  0.095800  0.602900  1.0  -0.0613
  C  C28  1  0.544900  0.035500  0.710500  1.0  0.0882
  C  C29  1  0.563800  0.046500  0.908900  1.0  -0.1785
  C  C30  1  0.596200  0.113200  0.991100  1.0  -0.1333
  C  C31  1  0.605000  0.222900  0.548100  1.0  0.641
  C  C32  1  0.825600  0.439400  0.545370  1.0  0.3316
  C  C33  1  0.835100  0.429100  0.347670  1.0  -0.17
  C  C34  1  0.904200  0.464400  0.269570  1.0  -0.0594
  C  C35  1  0.964500  0.509400  0.377170  1.0  0.0878
  C  C36  1  0.953500  0.517300  0.575570  1.0  -0.1781
  C  C37  1  0.886800  0.483000  0.657770  1.0  -0.1342
  C  C38  1  0.777100  0.382100  0.214770  1.0  0.6421
  C  C39  1  0.560600  0.386200  0.212030  1.0  0.3335
  C  C40  1  0.570900  0.406000  0.014330  1.0  -0.1724
  C  C41  1  0.535600  0.439800  0.936230  1.0  -0.0602
  C  C42  1  0.490600  0.455100  0.043830  1.0  0.0879
  C  C43  1  0.482700  0.436200  0.242230  1.0  -0.1805
  C  C44  1  0.517000  0.403800  0.324430  1.0  -0.1348
  C  C45  1  0.617900  0.395000  0.881430  1.0  0.6407
  C  C46  1  0.174400  0.613800  0.121300  1.0  0.3337
  C  C47  1  0.164900  0.594000  0.319000  1.0  -0.169
  C  C48  1  0.095800  0.560200  0.397100  1.0  -0.0605
  C  C49  1  0.035500  0.544900  0.289500  1.0  0.088
  C  C50  1  0.046500  0.563800  0.091100  1.0  -0.1783
  C  C51  1  0.113200  0.596200  0.008900  1.0  -0.1342
  C  C52  1  0.222900  0.605000  0.451900  1.0  0.6408
  C  C53  1  0.439400  0.825600  0.454630  1.0  0.3314
  C  C54  1  0.429100  0.835100  0.652330  1.0  -0.1688
  C  C55  1  0.464400  0.904200  0.730430  1.0  -0.0629
  C  C56  1  0.509400  0.964500  0.622830  1.0  0.0884
  C  C57  1  0.517300  0.953500  0.424430  1.0  -0.1778
  C  C58  1  0.483000  0.886800  0.342230  1.0  -0.1344
  C  C59  1  0.382100  0.777100  0.785230  1.0  0.6412
  C  C60  1  0.386200  0.560600  0.787970  1.0  0.3326
  C  C61  1  0.406000  0.570900  0.985670  1.0  -0.1701
  C  C62  1  0.439800  0.535600  0.063770  1.0  -0.0603
  C  C63  1  0.455100  0.490600  0.956170  1.0  0.088
  C  C64  1  0.436200  0.482700  0.757770  1.0  -0.182
  C  C65  1  0.403800  0.517000  0.675570  1.0  -0.1341
  C  C66  1  0.395000  0.617900  0.118570  1.0  0.6425
  O  O67  1  0.656400  0.237200  0.935000  1.0  -0.6862
  O  O68  1  0.640400  0.287400  0.595000  1.0  -0.6329
  O  O69  1  0.577700  0.204700  0.367000  1.0  -0.5745
  O  O70  1  0.762800  0.419200  0.601670  1.0  -0.6861
  O  O71  1  0.712600  0.353000  0.261670  1.0  -0.6332
  O  O72  1  0.795300  0.373000  0.033670  1.0  -0.573
  O  O73  1  0.580800  0.343600  0.268330  1.0  -0.6841
  O  O74  1  0.647000  0.359600  0.928330  1.0  -0.6333
  O  O75  1  0.627000  0.422300  0.700330  1.0  -0.5731
  O  O76  1  0.237200  0.656400  0.065000  1.0  -0.6862
  O  O77  1  0.287400  0.640400  0.405000  1.0  -0.6325
  O  O78  1  0.204700  0.577700  0.633000  1.0  -0.5732
  O  O79  1  0.419200  0.762800  0.398330  1.0  -0.6865
  O  O80  1  0.353000  0.712600  0.738330  1.0  -0.6335
  O  O81  1  0.373000  0.795300  0.966330  1.0  -0.5723
  O  O82  1  0.343600  0.580800  0.731670  1.0  -0.6865
  O  O83  1  0.359600  0.647000  0.071670  1.0  -0.6334
  O  O84  1  0.422300  0.627000  0.299670  1.0  -0.5721
