# generated using pymatgen
data_FeH3C7O3
_symmetry_space_group_name_H-M   'P 1'
_cell_length_a   21.84700000
_cell_length_b   21.84700000
_cell_length_c   6.87290000
_cell_angle_alpha   90.00000000
_cell_angle_beta   90.00000000
_cell_angle_gamma   120.00000000
_symmetry_Int_Tables_number   1
_chemical_formula_structural   FeH3C7O3
_chemical_formula_sum   'Fe6 H18 C42 O18'
_cell_volume   2840.88905815
_cell_formula_units_Z   6
loop_
 _symmetry_equiv_pos_site_id
 _symmetry_equiv_pos_as_xyz
  1  'x, y, z'
loop_
 _atom_site_type_symbol
 _atom_site_label
 _atom_site_symmetry_multiplicity
 _atom_site_fract_x
 _atom_site_fract_y
 _atom_site_fract_z
 _atom_site_occupancy
 _atom_site_charge
  Fe  Fe1  1  0.612900  0.285400  0.156000  1.0  1.0123
  Fe  Fe2  1  0.714600  0.327500  0.822670  1.0  1.0099
  Fe  Fe3  1  0.672500  0.387100  0.489330  1.0  1.0101
  Fe  Fe4  1  0.285400  0.612900  0.844000  1.0  1.0095
  Fe  Fe5  1  0.327500  0.714600  0.177330  1.0  1.0127
  Fe  Fe6  1  0.387100  0.672500  0.510670  1.0  1.0103
  H  H7  1  0.547000  0.089800  0.469400  1.0  0.1362
  H  H8  1  0.553800  0.006700  0.988100  1.0  0.1348
  H  H9  1  0.607000  0.118200  0.126200  1.0  0.1353
  H  H10  1  0.910200  0.457200  0.136070  1.0  0.1367
  H  H11  1  0.993300  0.547100  0.654770  1.0  0.1354
  H  H12  1  0.881800  0.488800  0.792870  1.0  0.1384
  H  H13  1  0.542800  0.453000  0.802730  1.0  0.1331
  H  H14  1  0.452900  0.446200  0.321430  1.0  0.1336
  H  H15  1  0.511200  0.393000  0.459530  1.0  0.1354
  H  H16  1  0.089800  0.547000  0.530600  1.0  0.1379
  H  H17  1  0.006700  0.553800  0.011900  1.0  0.1345
  H  H18  1  0.118200  0.607000  0.873800  1.0  0.1356
  H  H19  1  0.457200  0.910200  0.863930  1.0  0.1371
  H  H20  1  0.547100  0.993300  0.345230  1.0  0.1332
  H  H21  1  0.488800  0.881800  0.207130  1.0  0.1387
  H  H22  1  0.453000  0.542800  0.197270  1.0  0.1349
  H  H23  1  0.446200  0.452900  0.678570  1.0  0.1332
  H  H24  1  0.393000  0.511200  0.540470  1.0  0.1355
  C  C25  1  0.613800  0.174400  0.878700  1.0  0.3178
  C  C26  1  0.594000  0.164900  0.681000  1.0  -0.1703
  C  C27  1  0.560200  0.095800  0.602900  1.0  -0.0367
  C  C28  1  0.544900  0.035500  0.710500  1.0  0.1108
  C  C29  1  0.563800  0.046500  0.908900  1.0  -0.1455
  C  C30  1  0.596200  0.113200  0.991100  1.0  -0.0987
  C  C31  1  0.605000  0.222900  0.548100  1.0  0.4515
  C  C32  1  0.825600  0.439400  0.545370  1.0  0.3199
  C  C33  1  0.835100  0.429100  0.347670  1.0  -0.172
  C  C34  1  0.904200  0.464400  0.269570  1.0  -0.0354
  C  C35  1  0.964500  0.509400  0.377170  1.0  0.1106
  C  C36  1  0.953500  0.517300  0.575570  1.0  -0.1455
  C  C37  1  0.886800  0.483000  0.657770  1.0  -0.0989
  C  C38  1  0.777100  0.382100  0.214770  1.0  0.4483
  C  C39  1  0.560600  0.386200  0.212030  1.0  0.3187
  C  C40  1  0.570900  0.406000  0.014330  1.0  -0.1716
  C  C41  1  0.535600  0.439800  0.936230  1.0  -0.0359
  C  C42  1  0.490600  0.455100  0.043830  1.0  0.1105
  C  C43  1  0.482700  0.436200  0.242230  1.0  -0.1461
  C  C44  1  0.517000  0.403800  0.324430  1.0  -0.0993
  C  C45  1  0.617900  0.395000  0.881430  1.0  0.4479
  C  C46  1  0.174400  0.613800  0.121300  1.0  0.3193
  C  C47  1  0.164900  0.594000  0.319000  1.0  -0.1717
  C  C48  1  0.095800  0.560200  0.397100  1.0  -0.0359
  C  C49  1  0.035500  0.544900  0.289500  1.0  0.1105
  C  C50  1  0.046500  0.563800  0.091100  1.0  -0.1456
  C  C51  1  0.113200  0.596200  0.008900  1.0  -0.0992
  C  C52  1  0.222900  0.605000  0.451900  1.0  0.4483
  C  C53  1  0.439400  0.825600  0.454630  1.0  0.3176
  C  C54  1  0.429100  0.835100  0.652330  1.0  -0.1701
  C  C55  1  0.464400  0.904200  0.730430  1.0  -0.0377
  C  C56  1  0.509400  0.964500  0.622830  1.0  0.1108
  C  C57  1  0.517300  0.953500  0.424430  1.0  -0.145
  C  C58  1  0.483000  0.886800  0.342230  1.0  -0.0995
  C  C59  1  0.382100  0.777100  0.785230  1.0  0.4501
  C  C60  1  0.386200  0.560600  0.787970  1.0  0.3201
  C  C61  1  0.406000  0.570900  0.985670  1.0  -0.1722
  C  C62  1  0.439800  0.535600  0.063770  1.0  -0.0362
  C  C63  1  0.455100  0.490600  0.956170  1.0  0.1107
  C  C64  1  0.436200  0.482700  0.757770  1.0  -0.1456
  C  C65  1  0.403800  0.517000  0.675570  1.0  -0.0987
  C  C66  1  0.395000  0.617900  0.118570  1.0  0.4486
  O  O67  1  0.646000  0.241600  0.966000  1.0  -0.6679
  O  O68  1  0.637100  0.279900  0.583000  1.0  -0.5692
  O  O69  1  0.586400  0.205200  0.359000  1.0  -0.606
  O  O70  1  0.758400  0.404400  0.632670  1.0  -0.6684
  O  O71  1  0.720100  0.357200  0.249670  1.0  -0.5721
  O  O72  1  0.794800  0.381200  0.025670  1.0  -0.605
  O  O73  1  0.595600  0.354000  0.299330  1.0  -0.6706
  O  O74  1  0.642800  0.362900  0.916330  1.0  -0.5673
  O  O75  1  0.618800  0.413600  0.692330  1.0  -0.6065
  O  O76  1  0.241600  0.646000  0.034000  1.0  -0.6701
  O  O77  1  0.279900  0.637100  0.417000  1.0  -0.5675
  O  O78  1  0.205200  0.586400  0.641000  1.0  -0.6049
  O  O79  1  0.404400  0.758400  0.367330  1.0  -0.6684
  O  O80  1  0.357200  0.720100  0.750330  1.0  -0.5703
  O  O81  1  0.381200  0.794800  0.974330  1.0  -0.6052
  O  O82  1  0.354000  0.595600  0.700670  1.0  -0.6682
  O  O83  1  0.362900  0.642800  0.083670  1.0  -0.5718
  O  O84  1  0.413600  0.618800  0.307670  1.0  -0.6036
