# generated using pymatgen
data_FeH3C7O3
_symmetry_space_group_name_H-M   'P 1'
_cell_length_a   21.81300000
_cell_length_b   21.81300000
_cell_length_c   6.86880000
_cell_angle_alpha   90.00000000
_cell_angle_beta   90.00000000
_cell_angle_gamma   120.00000000
_symmetry_Int_Tables_number   1
_chemical_formula_structural   FeH3C7O3
_chemical_formula_sum   'Fe6 H18 C42 O18'
_cell_volume   2830.36406414
_cell_formula_units_Z   6
loop_
 _symmetry_equiv_pos_site_id
 _symmetry_equiv_pos_as_xyz
  1  'x, y, z'
loop_
 _atom_site_type_symbol
 _atom_site_label
 _atom_site_symmetry_multiplicity
 _atom_site_fract_x
 _atom_site_fract_y
 _atom_site_fract_z
 _atom_site_occupancy
 _atom_site_charge
  Fe  Fe1  1  0.612100  0.281300  0.145000  1.0  0.9971
  Fe  Fe2  1  0.718700  0.330800  0.811670  1.0  0.9951
  Fe  Fe3  1  0.669200  0.387900  0.478330  1.0  0.9962
  Fe  Fe4  1  0.281300  0.612100  0.855000  1.0  0.9947
  Fe  Fe5  1  0.330800  0.718700  0.188330  1.0  0.9977
  Fe  Fe6  1  0.387900  0.669200  0.521670  1.0  0.9955
  H  H7  1  0.547000  0.089800  0.469400  1.0  0.1229
  H  H8  1  0.553800  0.006700  0.988100  1.0  0.1216
  H  H9  1  0.607000  0.118200  0.126200  1.0  0.1233
  H  H10  1  0.910200  0.457200  0.136070  1.0  0.1235
  H  H11  1  0.993300  0.547100  0.654770  1.0  0.1224
  H  H12  1  0.881800  0.488800  0.792870  1.0  0.1247
  H  H13  1  0.542800  0.453000  0.802730  1.0  0.1208
  H  H14  1  0.452900  0.446200  0.321430  1.0  0.1207
  H  H15  1  0.511200  0.393000  0.459530  1.0  0.1232
  H  H16  1  0.089800  0.547000  0.530600  1.0  0.1242
  H  H17  1  0.006700  0.553800  0.011900  1.0  0.1214
  H  H18  1  0.118200  0.607000  0.873800  1.0  0.1235
  H  H19  1  0.457200  0.910200  0.863930  1.0  0.1239
  H  H20  1  0.547100  0.993300  0.345230  1.0  0.1201
  H  H21  1  0.488800  0.881800  0.207130  1.0  0.1253
  H  H22  1  0.453000  0.542800  0.197270  1.0  0.1225
  H  H23  1  0.446200  0.452900  0.678570  1.0  0.1204
  H  H24  1  0.393000  0.511200  0.540470  1.0  0.1235
  C  C25  1  0.613800  0.174400  0.878700  1.0  0.2869
  C  C26  1  0.594000  0.164900  0.681000  1.0  -0.1952
  C  C27  1  0.560200  0.095800  0.602900  1.0  -0.0564
  C  C28  1  0.544900  0.035500  0.710500  1.0  0.1018
  C  C29  1  0.563800  0.046500  0.908900  1.0  -0.1697
  C  C30  1  0.596200  0.113200  0.991100  1.0  -0.0953
  C  C31  1  0.605000  0.222900  0.548100  1.0  0.6574
  C  C32  1  0.825600  0.439400  0.545370  1.0  0.289
  C  C33  1  0.835100  0.429100  0.347670  1.0  -0.1967
  C  C34  1  0.904200  0.464400  0.269570  1.0  -0.0547
  C  C35  1  0.964500  0.509400  0.377170  1.0  0.1016
  C  C36  1  0.953500  0.517300  0.575570  1.0  -0.1688
  C  C37  1  0.886800  0.483000  0.657770  1.0  -0.096
  C  C38  1  0.777100  0.382100  0.214770  1.0  0.657
  C  C39  1  0.560600  0.386200  0.212030  1.0  0.2871
  C  C40  1  0.570900  0.406000  0.014330  1.0  -0.1962
  C  C41  1  0.535600  0.439800  0.936230  1.0  -0.0552
  C  C42  1  0.490600  0.455100  0.043830  1.0  0.1005
  C  C43  1  0.482700  0.436200  0.242230  1.0  -0.1707
  C  C44  1  0.517000  0.403800  0.324430  1.0  -0.0973
  C  C45  1  0.617900  0.395000  0.881430  1.0  0.6565
  C  C46  1  0.174400  0.613800  0.121300  1.0  0.2869
  C  C47  1  0.164900  0.594000  0.319000  1.0  -0.1963
  C  C48  1  0.095800  0.560200  0.397100  1.0  -0.0554
  C  C49  1  0.035500  0.544900  0.289500  1.0  0.1015
  C  C50  1  0.046500  0.563800  0.091100  1.0  -0.1685
  C  C51  1  0.113200  0.596200  0.008900  1.0  -0.0969
  C  C52  1  0.222900  0.605000  0.451900  1.0  0.6572
  C  C53  1  0.439400  0.825600  0.454630  1.0  0.2859
  C  C54  1  0.429100  0.835100  0.652330  1.0  -0.1957
  C  C55  1  0.464400  0.904200  0.730430  1.0  -0.0576
  C  C56  1  0.509400  0.964500  0.622830  1.0  0.1019
  C  C57  1  0.517300  0.953500  0.424430  1.0  -0.1684
  C  C58  1  0.483000  0.886800  0.342230  1.0  -0.0966
  C  C59  1  0.382100  0.777100  0.785230  1.0  0.6576
  C  C60  1  0.386200  0.560600  0.787970  1.0  0.2885
  C  C61  1  0.406000  0.570900  0.985670  1.0  -0.1965
  C  C62  1  0.439800  0.535600  0.063770  1.0  -0.0556
  C  C63  1  0.455100  0.490600  0.956170  1.0  0.1009
  C  C64  1  0.436200  0.482700  0.757770  1.0  -0.17
  C  C65  1  0.403800  0.517000  0.675570  1.0  -0.0964
  C  C66  1  0.395000  0.617900  0.118570  1.0  0.6581
  O  O67  1  0.652100  0.243200  0.958000  1.0  -0.6615
  O  O68  1  0.642000  0.283500  0.589000  1.0  -0.6016
  O  O69  1  0.582000  0.205000  0.370000  1.0  -0.6262
  O  O70  1  0.756800  0.408900  0.624670  1.0  -0.663
  O  O71  1  0.716500  0.358500  0.255670  1.0  -0.6038
  O  O72  1  0.795000  0.377000  0.036670  1.0  -0.6268
  O  O73  1  0.591100  0.347900  0.291330  1.0  -0.6645
  O  O74  1  0.641500  0.358000  0.922330  1.0  -0.6024
  O  O75  1  0.623000  0.418000  0.703330  1.0  -0.6267
  O  O76  1  0.243200  0.652100  0.042000  1.0  -0.6651
  O  O77  1  0.283500  0.642000  0.411000  1.0  -0.6018
  O  O78  1  0.205000  0.582000  0.630000  1.0  -0.627
  O  O79  1  0.408900  0.756800  0.375330  1.0  -0.6628
  O  O80  1  0.358500  0.716500  0.744330  1.0  -0.6029
  O  O81  1  0.377000  0.795000  0.963330  1.0  -0.6251
  O  O82  1  0.347900  0.591100  0.708670  1.0  -0.6639
  O  O83  1  0.358000  0.641500  0.077670  1.0  -0.6038
  O  O84  1  0.418000  0.623000  0.296670  1.0  -0.6256
