# generated using pymatgen
data_Cd3H4(C5O4)4
_symmetry_space_group_name_H-M   'P 1'
_cell_length_a   20.78030000
_cell_length_b   7.91540000
_cell_length_c   17.29900000
_cell_angle_alpha   90.00000000
_cell_angle_beta   90.00000000
_cell_angle_gamma   90.00000000
_symmetry_Int_Tables_number   1
_chemical_formula_structural   Cd3H4(C5O4)4
_chemical_formula_sum   'Cd12 H16 C80 O64'
_cell_volume   2845.41540414
_cell_formula_units_Z   4
loop_
 _symmetry_equiv_pos_site_id
 _symmetry_equiv_pos_as_xyz
  1  'x, y, z'
loop_
 _atom_site_type_symbol
 _atom_site_label
 _atom_site_symmetry_multiplicity
 _atom_site_fract_x
 _atom_site_fract_y
 _atom_site_fract_z
 _atom_site_occupancy
 _atom_site_charge
  Cd  Cd1  1  0.500000  0.000000  0.250000  1.0  1.029
  Cd  Cd2  1  0.000000  0.500000  0.750000  1.0  1.029
  Cd  Cd3  1  0.500000  0.000000  0.750000  1.0  1.029
  Cd  Cd4  1  0.000000  0.500000  0.250000  1.0  1.029
  Cd  Cd5  1  0.301820  0.000000  0.250000  1.0  1.01
  Cd  Cd6  1  0.698180  0.000000  0.250000  1.0  1.0096
  Cd  Cd7  1  0.198180  0.500000  0.750000  1.0  1.0096
  Cd  Cd8  1  0.801820  0.500000  0.750000  1.0  1.01
  Cd  Cd9  1  0.698180  0.000000  0.750000  1.0  1.0096
  Cd  Cd10  1  0.198180  0.500000  0.250000  1.0  1.0096
  Cd  Cd11  1  0.301820  0.000000  0.750000  1.0  1.01
  Cd  Cd12  1  0.801820  0.500000  0.250000  1.0  1.01
  H  H13  1  0.262300  0.402600  0.500000  1.0  0.143
  H  H14  1  0.442900  0.067200  0.500000  1.0  0.1543
  H  H15  1  0.762300  0.902600  0.000000  1.0  0.143
  H  H16  1  0.942900  0.567200  0.000000  1.0  0.1543
  H  H17  1  0.737700  0.597400  0.500000  1.0  0.1434
  H  H18  1  0.557100  0.932800  0.500000  1.0  0.1536
  H  H19  1  0.237700  0.097400  0.000000  1.0  0.1434
  H  H20  1  0.057100  0.432800  0.000000  1.0  0.1536
  H  H21  1  0.237700  0.902600  0.500000  1.0  0.1432
  H  H22  1  0.057100  0.567200  0.500000  1.0  0.1543
  H  H23  1  0.737700  0.402600  0.000000  1.0  0.1432
  H  H24  1  0.557100  0.067200  0.000000  1.0  0.1543
  H  H25  1  0.762300  0.097400  0.500000  1.0  0.1431
  H  H26  1  0.942900  0.432800  0.500000  1.0  0.1538
  H  H27  1  0.262300  0.597400  0.000000  1.0  0.1431
  H  H28  1  0.442900  0.932800  0.000000  1.0  0.1538
  C  C29  1  0.323300  0.275700  0.429900  1.0  -0.0648
  C  C30  1  0.378400  0.174200  0.430100  1.0  -0.023
  C  C31  1  0.293500  0.333000  0.355400  1.0  0.7409
  C  C32  1  0.412500  0.109500  0.359700  1.0  0.7354
  C  C33  1  0.823300  0.775700  0.929900  1.0  -0.0648
  C  C34  1  0.878400  0.674200  0.930100  1.0  -0.023
  C  C35  1  0.793500  0.833000  0.855400  1.0  0.7409
  C  C36  1  0.912500  0.609500  0.859700  1.0  0.7354
  C  C37  1  0.676700  0.724300  0.429900  1.0  -0.0655
  C  C38  1  0.621600  0.825800  0.430100  1.0  -0.0236
  C  C39  1  0.706500  0.667000  0.355400  1.0  0.7408
  C  C40  1  0.587500  0.890500  0.359700  1.0  0.7367
  C  C41  1  0.176700  0.224300  0.929900  1.0  -0.0655
  C  C42  1  0.121600  0.325800  0.930100  1.0  -0.0236
  C  C43  1  0.206500  0.167000  0.855400  1.0  0.7408
  C  C44  1  0.087500  0.390500  0.859700  1.0  0.7367
  C  C45  1  0.176700  0.775700  0.570100  1.0  -0.0638
  C  C46  1  0.121600  0.674200  0.569900  1.0  -0.0211
  C  C47  1  0.206500  0.833000  0.644600  1.0  0.7413
  C  C48  1  0.087500  0.609500  0.640300  1.0  0.7375
  C  C49  1  0.676700  0.275700  0.070100  1.0  -0.0638
  C  C50  1  0.621600  0.174200  0.069900  1.0  -0.0211
  C  C51  1  0.706500  0.333000  0.144600  1.0  0.7413
  C  C52  1  0.587500  0.109500  0.140300  1.0  0.7375
  C  C53  1  0.823300  0.224300  0.570100  1.0  -0.0657
  C  C54  1  0.878400  0.325800  0.569900  1.0  -0.0207
  C  C55  1  0.793500  0.167000  0.644600  1.0  0.7418
  C  C56  1  0.912500  0.390500  0.640300  1.0  0.7375
  C  C57  1  0.323300  0.724300  0.070100  1.0  -0.0657
  C  C58  1  0.378400  0.825800  0.069900  1.0  -0.0207
  C  C59  1  0.293500  0.667000  0.144600  1.0  0.7418
  C  C60  1  0.412500  0.890500  0.140300  1.0  0.7375
  C  C61  1  0.676700  0.724300  0.570100  1.0  -0.0652
  C  C62  1  0.621600  0.825800  0.569900  1.0  -0.0206
  C  C63  1  0.706500  0.667000  0.644600  1.0  0.7419
  C  C64  1  0.587500  0.890500  0.640300  1.0  0.7378
  C  C65  1  0.176700  0.224300  0.070100  1.0  -0.0652
  C  C66  1  0.121600  0.325800  0.069900  1.0  -0.0206
  C  C67  1  0.206500  0.167000  0.144600  1.0  0.7419
  C  C68  1  0.087500  0.390500  0.140300  1.0  0.7378
  C  C69  1  0.323300  0.275700  0.570100  1.0  -0.065
  C  C70  1  0.378400  0.174200  0.569900  1.0  -0.0208
  C  C71  1  0.293500  0.333000  0.644600  1.0  0.7411
  C  C72  1  0.412500  0.109500  0.640300  1.0  0.7369
  C  C73  1  0.823300  0.775700  0.070100  1.0  -0.065
  C  C74  1  0.878400  0.674200  0.069900  1.0  -0.0208
  C  C75  1  0.793500  0.833000  0.144600  1.0  0.7411
  C  C76  1  0.912500  0.609500  0.140300  1.0  0.7369
  C  C77  1  0.823300  0.224300  0.429900  1.0  -0.0664
  C  C78  1  0.878400  0.325800  0.430100  1.0  -0.023
  C  C79  1  0.793500  0.167000  0.355400  1.0  0.7407
  C  C80  1  0.912500  0.390500  0.359700  1.0  0.7359
  C  C81  1  0.323300  0.724300  0.929900  1.0  -0.0664
  C  C82  1  0.378400  0.825800  0.930100  1.0  -0.023
  C  C83  1  0.293500  0.667000  0.855400  1.0  0.7407
  C  C84  1  0.412500  0.890500  0.859700  1.0  0.7359
  C  C85  1  0.176700  0.775700  0.429900  1.0  -0.0645
  C  C86  1  0.121600  0.674200  0.430100  1.0  -0.024
  C  C87  1  0.206500  0.833000  0.355400  1.0  0.7413
  C  C88  1  0.087500  0.609500  0.359700  1.0  0.7365
  C  C89  1  0.676700  0.275700  0.929900  1.0  -0.0645
  C  C90  1  0.621600  0.174200  0.930100  1.0  -0.024
  C  C91  1  0.706500  0.333000  0.855400  1.0  0.7413
  C  C92  1  0.587500  0.109500  0.859700  1.0  0.7365
  C  C93  1  0.297400  0.329600  0.500000  1.0  0.0588
  C  C94  1  0.405100  0.129900  0.500000  1.0  -0.0519
  C  C95  1  0.797400  0.829600  0.000000  1.0  0.0588
  C  C96  1  0.905100  0.629900  0.000000  1.0  -0.0519
  C  C97  1  0.702600  0.670400  0.500000  1.0  0.0576
  C  C98  1  0.594900  0.870100  0.500000  1.0  -0.0526
  C  C99  1  0.202600  0.170400  0.000000  1.0  0.0576
  C  C100  1  0.094900  0.370100  0.000000  1.0  -0.0526
  C  C101  1  0.202600  0.829600  0.500000  1.0  0.0583
  C  C102  1  0.094900  0.629900  0.500000  1.0  -0.0524
  C  C103  1  0.702600  0.329600  0.000000  1.0  0.0583
  C  C104  1  0.594900  0.129900  0.000000  1.0  -0.0524
  C  C105  1  0.797400  0.170400  0.500000  1.0  0.0588
  C  C106  1  0.905100  0.370100  0.500000  1.0  -0.0522
  C  C107  1  0.297400  0.670400  0.000000  1.0  0.0588
  C  C108  1  0.405100  0.870100  0.000000  1.0  -0.0522
  O  O109  1  0.245400  0.431000  0.360000  1.0  -0.5564
  O  O110  1  0.315200  0.279700  0.292400  1.0  -0.6322
  O  O111  1  0.393100  0.975600  0.330400  1.0  -0.5988
  O  O112  1  0.462400  0.186100  0.338900  1.0  -0.518
  O  O113  1  0.745400  0.931000  0.860000  1.0  -0.5564
  O  O114  1  0.815200  0.779700  0.792400  1.0  -0.6322
  O  O115  1  0.893100  0.475600  0.830400  1.0  -0.5988
  O  O116  1  0.962400  0.686100  0.838900  1.0  -0.518
  O  O117  1  0.754600  0.569000  0.360000  1.0  -0.5572
  O  O118  1  0.684800  0.720300  0.292400  1.0  -0.632
  O  O119  1  0.606900  0.024400  0.330400  1.0  -0.5976
  O  O120  1  0.537600  0.813900  0.338900  1.0  -0.5175
  O  O121  1  0.254600  0.069000  0.860000  1.0  -0.5572
  O  O122  1  0.184800  0.220300  0.792400  1.0  -0.632
  O  O123  1  0.106900  0.524400  0.830400  1.0  -0.5976
  O  O124  1  0.037600  0.313900  0.838900  1.0  -0.5175
  O  O125  1  0.254600  0.931000  0.640000  1.0  -0.5574
  O  O126  1  0.184800  0.779700  0.707600  1.0  -0.6344
  O  O127  1  0.106900  0.475600  0.669600  1.0  -0.598
  O  O128  1  0.037600  0.686100  0.661100  1.0  -0.5166
  O  O129  1  0.754600  0.431000  0.140000  1.0  -0.5574
  O  O130  1  0.684800  0.279700  0.207600  1.0  -0.6344
  O  O131  1  0.606900  0.975600  0.169600  1.0  -0.598
  O  O132  1  0.537600  0.186100  0.161100  1.0  -0.5166
  O  O133  1  0.745400  0.069000  0.640000  1.0  -0.557
  O  O134  1  0.815200  0.220300  0.707600  1.0  -0.6322
  O  O135  1  0.893100  0.524400  0.669600  1.0  -0.5975
  O  O136  1  0.962400  0.313900  0.661100  1.0  -0.517
  O  O137  1  0.245400  0.569000  0.140000  1.0  -0.557
  O  O138  1  0.315200  0.720300  0.207600  1.0  -0.6322
  O  O139  1  0.393100  0.024400  0.169600  1.0  -0.5975
  O  O140  1  0.462400  0.813900  0.161100  1.0  -0.517
  O  O141  1  0.754600  0.569000  0.640000  1.0  -0.5575
  O  O142  1  0.684800  0.720300  0.707600  1.0  -0.6323
  O  O143  1  0.606900  0.024400  0.669600  1.0  -0.5976
  O  O144  1  0.537600  0.813900  0.661100  1.0  -0.5168
  O  O145  1  0.254600  0.069000  0.140000  1.0  -0.5575
  O  O146  1  0.184800  0.220300  0.207600  1.0  -0.6323
  O  O147  1  0.106900  0.524400  0.169600  1.0  -0.5976
  O  O148  1  0.037600  0.313900  0.161100  1.0  -0.5168
  O  O149  1  0.245400  0.431000  0.640000  1.0  -0.5567
  O  O150  1  0.315200  0.279700  0.707600  1.0  -0.6324
  O  O151  1  0.393100  0.975600  0.669600  1.0  -0.5987
  O  O152  1  0.462400  0.186100  0.661100  1.0  -0.5176
  O  O153  1  0.745400  0.931000  0.140000  1.0  -0.5567
  O  O154  1  0.815200  0.779700  0.207600  1.0  -0.6324
  O  O155  1  0.893100  0.475600  0.169600  1.0  -0.5987
  O  O156  1  0.962400  0.686100  0.161100  1.0  -0.5176
  O  O157  1  0.745400  0.069000  0.360000  1.0  -0.5567
  O  O158  1  0.815200  0.220300  0.292400  1.0  -0.6309
  O  O159  1  0.893100  0.524400  0.330400  1.0  -0.5977
  O  O160  1  0.962400  0.313900  0.338900  1.0  -0.5174
  O  O161  1  0.245400  0.569000  0.860000  1.0  -0.5567
  O  O162  1  0.315200  0.720300  0.792400  1.0  -0.6309
  O  O163  1  0.393100  0.024400  0.830400  1.0  -0.5977
  O  O164  1  0.462400  0.813900  0.838900  1.0  -0.5174
  O  O165  1  0.254600  0.931000  0.360000  1.0  -0.5571
  O  O166  1  0.184800  0.779700  0.292400  1.0  -0.6319
  O  O167  1  0.106900  0.475600  0.330400  1.0  -0.5982
  O  O168  1  0.037600  0.686100  0.338900  1.0  -0.5173
  O  O169  1  0.754600  0.431000  0.860000  1.0  -0.5571
  O  O170  1  0.684800  0.279700  0.792400  1.0  -0.6319
  O  O171  1  0.606900  0.975600  0.830400  1.0  -0.5982
  O  O172  1  0.537600  0.186100  0.838900  1.0  -0.5173
