# generated using pymatgen
data_Zn2P3(HO4)3
_symmetry_space_group_name_H-M   'P 1'
_cell_length_a   10.05170000
_cell_length_b   10.42930000
_cell_length_c   14.90500000
_cell_angle_alpha   90.00000000
_cell_angle_beta   90.00000000
_cell_angle_gamma   90.00000000
_symmetry_Int_Tables_number   1
_chemical_formula_structural   Zn2P3(HO4)3
_chemical_formula_sum   'Zn8 P12 H12 O48'
_cell_volume   1562.52386364
_cell_formula_units_Z   4
loop_
 _symmetry_equiv_pos_site_id
 _symmetry_equiv_pos_as_xyz
  1  'x, y, z'
loop_
 _atom_site_type_symbol
 _atom_site_label
 _atom_site_symmetry_multiplicity
 _atom_site_fract_x
 _atom_site_fract_y
 _atom_site_fract_z
 _atom_site_occupancy
 _atom_site_charge
  Zn  Zn1  1  0.866510  0.805720  0.676590  1.0  1.1429
  Zn  Zn2  1  0.629390  0.142760  0.763250  1.0  1.1165
  Zn  Zn3  1  0.633490  0.194280  0.176590  1.0  1.1432
  Zn  Zn4  1  0.870610  0.857240  0.263250  1.0  1.1162
  Zn  Zn5  1  0.133490  0.305720  0.823410  1.0  1.1431
  Zn  Zn6  1  0.370610  0.642760  0.736750  1.0  1.1164
  Zn  Zn7  1  0.366510  0.694280  0.323410  1.0  1.1436
  Zn  Zn8  1  0.129390  0.357240  0.236750  1.0  1.1161
  P  P9  1  0.598500  0.840800  0.778180  1.0  1.7421
  P  P10  1  0.936640  0.109430  0.704090  1.0  1.9295
  P  P11  1  0.925280  0.851430  0.468990  1.0  1.7396
  P  P12  1  0.901500  0.159200  0.278180  1.0  1.7422
  P  P13  1  0.563360  0.890570  0.204090  1.0  1.929
  P  P14  1  0.574720  0.148570  0.968990  1.0  1.7396
  P  P15  1  0.401500  0.340800  0.721820  1.0  1.7422
  P  P16  1  0.063360  0.609430  0.795910  1.0  1.9303
  P  P17  1  0.074720  0.351430  0.031010  1.0  1.7401
  P  P18  1  0.098500  0.659200  0.221820  1.0  1.7418
  P  P19  1  0.436640  0.390570  0.295910  1.0  1.9308
  P  P20  1  0.425280  0.648570  0.531010  1.0  1.7398
  H  H21  1  0.658000  0.908000  0.908000  1.0  0.3271
  H  H22  1  0.943000  0.083000  0.561000  1.0  0.4749
  H  H23  1  0.106000  0.787000  0.401000  1.0  0.286
  H  H24  1  0.842000  0.092000  0.408000  1.0  0.3327
  H  H25  1  0.557000  0.917000  0.061000  1.0  0.4768
  H  H26  1  0.394000  0.213000  0.901000  1.0  0.2859
  H  H27  1  0.342000  0.408000  0.592000  1.0  0.3288
  H  H28  1  0.057000  0.583000  0.939000  1.0  0.4756
  H  H29  1  0.894000  0.287000  0.099000  1.0  0.2855
  H  H30  1  0.158000  0.592000  0.092000  1.0  0.3283
  H  H31  1  0.443000  0.417000  0.439000  1.0  0.4744
  H  H32  1  0.606000  0.713000  0.599000  1.0  0.2861
  O  O33  1  0.884400  0.770900  0.549620  1.0  -0.8048
  O  O34  1  0.678600  0.779600  0.702450  1.0  -0.8217
  O  O35  1  0.941100  0.964700  0.720070  1.0  -0.839
  O  O36  1  0.034100  0.171400  0.765720  1.0  -0.8997
  O  O37  1  0.553500  0.974400  0.754950  1.0  -0.8148
  O  O38  1  0.800100  0.163300  0.708400  1.0  -0.8322
  O  O39  1  0.859300  0.798500  0.386400  1.0  -0.766
  O  O40  1  0.482500  0.757600  0.804790  1.0  -0.7711
  O  O41  1  0.696300  0.849000  0.861620  1.0  -0.538
  O  O42  1  0.988500  0.138800  0.605990  1.0  -0.5166
  O  O43  1  0.901000  0.993100  0.484040  1.0  -0.6123
  O  O44  1  0.081400  0.833000  0.456900  1.0  -0.5448
  O  O45  1  0.615600  0.229100  0.049620  1.0  -0.8027
  O  O46  1  0.821400  0.220400  0.202450  1.0  -0.823
  O  O47  1  0.558900  0.035300  0.220070  1.0  -0.8402
  O  O48  1  0.465900  0.828600  0.265720  1.0  -0.8977
  O  O49  1  0.946500  0.025600  0.254950  1.0  -0.8136
  O  O50  1  0.699900  0.836700  0.208400  1.0  -0.83
  O  O51  1  0.640700  0.201500  0.886400  1.0  -0.7649
  O  O52  1  0.017500  0.242400  0.304790  1.0  -0.7711
  O  O53  1  0.803700  0.151000  0.361620  1.0  -0.5403
  O  O54  1  0.511500  0.861200  0.105990  1.0  -0.5179
  O  O55  1  0.599000  0.006900  0.984040  1.0  -0.612
  O  O56  1  0.418600  0.167000  0.956900  1.0  -0.5434
  O  O57  1  0.115600  0.270900  0.950380  1.0  -0.8022
  O  O58  1  0.321400  0.279600  0.797550  1.0  -0.824
  O  O59  1  0.058900  0.464700  0.779930  1.0  -0.8413
  O  O60  1  0.965900  0.671400  0.734280  1.0  -0.8978
  O  O61  1  0.446500  0.474400  0.745050  1.0  -0.8145
  O  O62  1  0.199900  0.663300  0.791600  1.0  -0.8337
  O  O63  1  0.140700  0.298500  0.113600  1.0  -0.7663
  O  O64  1  0.517500  0.257600  0.695210  1.0  -0.7729
  O  O65  1  0.303700  0.349000  0.638380  1.0  -0.539
  O  O66  1  0.011500  0.638800  0.894010  1.0  -0.5174
  O  O67  1  0.099000  0.493100  0.015960  1.0  -0.6118
  O  O68  1  0.918600  0.333000  0.043100  1.0  -0.5428
  O  O69  1  0.384400  0.729100  0.450380  1.0  -0.8024
  O  O70  1  0.178600  0.720400  0.297550  1.0  -0.824
  O  O71  1  0.441100  0.535300  0.279930  1.0  -0.841
  O  O72  1  0.534100  0.328600  0.234280  1.0  -0.8995
  O  O73  1  0.053500  0.525600  0.245050  1.0  -0.8161
  O  O74  1  0.300100  0.336700  0.291600  1.0  -0.832
  O  O75  1  0.359300  0.701500  0.613600  1.0  -0.7674
  O  O76  1  0.982500  0.742400  0.195210  1.0  -0.7719
  O  O77  1  0.196300  0.651000  0.138380  1.0  -0.5385
  O  O78  1  0.488500  0.361200  0.394010  1.0  -0.5181
  O  O79  1  0.401000  0.506900  0.515960  1.0  -0.6116
  O  O80  1  0.581400  0.667000  0.543100  1.0  -0.5431
