# generated using pymatgen
data_CeH70C58(NO2)5
_symmetry_space_group_name_H-M   'P 1'
_cell_length_a   14.86800000
_cell_length_b   22.52300000
_cell_length_c   25.17400000
_cell_angle_alpha   90.00000000
_cell_angle_beta   90.00000000
_cell_angle_gamma   98.45800000
_symmetry_Int_Tables_number   1
_chemical_formula_structural   CeH70C58(NO2)5
_chemical_formula_sum   'Ce4 H280 C232 N20 O40'
_cell_volume   8338.38097315
_cell_formula_units_Z   4
loop_
 _symmetry_equiv_pos_site_id
 _symmetry_equiv_pos_as_xyz
  1  'x, y, z'
loop_
 _atom_site_type_symbol
 _atom_site_label
 _atom_site_symmetry_multiplicity
 _atom_site_fract_x
 _atom_site_fract_y
 _atom_site_fract_z
 _atom_site_occupancy
 _atom_site_charge
  Ce  Ce1  1  0.372100  0.458960  0.521510  1.0  2.2645
  Ce  Ce2  1  0.627900  0.041040  0.021510  1.0  2.2519
  Ce  Ce3  1  0.627900  0.541040  0.478490  1.0  2.2518
  Ce  Ce4  1  0.372100  0.958960  0.978490  1.0  2.2645
  H  H5  1  0.535900  0.676500  0.462100  1.0  0.1112
  H  H6  1  0.263400  0.639600  0.447600  1.0  0.1067
  H  H7  1  0.365300  0.872800  0.438200  1.0  0.1203
  H  H8  1  0.373300  0.946400  0.365600  1.0  0.1315
  H  H9  1  0.422700  0.791300  0.306700  1.0  0.1255
  H  H10  1  0.570100  0.971300  0.189100  1.0  0.1033
  H  H11  1  0.309600  0.913900  0.155000  1.0  0.1043
  H  H12  1  0.554400  0.823900  0.405800  1.0  0.0822
  H  H13  1  0.636000  0.757600  0.482400  1.0  0.114
  H  H14  1  0.592400  0.815600  0.493800  1.0  0.1093
  H  H15  1  0.682200  0.819800  0.460500  1.0  0.1149
  H  H16  1  0.656300  0.730800  0.387600  1.0  0.1141
  H  H17  1  0.669800  0.794600  0.361200  1.0  0.1077
  H  H18  1  0.586800  0.746800  0.345000  1.0  0.1161
  H  H19  1  0.237800  0.777400  0.382800  1.0  0.0703
  H  H20  1  0.247800  0.689400  0.325700  1.0  0.1253
  H  H21  1  0.156600  0.716500  0.323300  1.0  0.1114
  H  H22  1  0.162100  0.658400  0.356700  1.0  0.1126
  H  H23  1  0.126700  0.692600  0.441700  1.0  0.1162
  H  H24  1  0.108800  0.756900  0.425100  1.0  0.1105
  H  H25  1  0.181100  0.749400  0.469000  1.0  0.1204
  H  H26  1  0.560500  0.920100  0.323300  1.0  0.0763
  H  H27  1  0.672400  0.908200  0.236200  1.0  0.1073
  H  H28  1  0.632300  0.857600  0.276000  1.0  0.104
  H  H29  1  0.708400  0.909000  0.294700  1.0  0.1131
  H  H30  1  0.661400  0.004800  0.329400  1.0  0.1076
  H  H31  1  0.572400  0.024000  0.305800  1.0  0.1197
  H  H32  1  0.655100  0.018200  0.268500  1.0  0.1062
  H  H33  1  0.249700  0.852700  0.283200  1.0  0.0659
  H  H34  1  0.161700  0.789200  0.226600  1.0  0.1133
  H  H35  1  0.264100  0.782900  0.217300  1.0  0.1106
  H  H36  1  0.213500  0.819800  0.177200  1.0  0.0997
  H  H37  1  0.183100  0.934400  0.268200  1.0  0.1336
  H  H38  1  0.116400  0.881300  0.243300  1.0  0.1193
  H  H39  1  0.181300  0.924400  0.206500  1.0  0.1139
  H  H40  1  0.918900  0.123800  0.935000  1.0  0.0976
  H  H41  1  0.757500  0.249100  0.948300  1.0  0.1031
  H  H42  1  0.095000  0.351500  0.942600  1.0  0.1355
  H  H43  1  0.017900  0.294600  0.797900  1.0  0.1288
  H  H44  1  0.190000  0.411100  0.877500  1.0  0.1173
  H  H45  1  0.149100  0.469400  0.673300  1.0  0.1138
  H  H46  1  0.316800  0.347200  0.693000  1.0  0.1044
  H  H47  1  0.919700  0.370300  0.896900  1.0  0.0758
  H  H48  1  0.803400  0.408900  0.945700  1.0  0.1113
  H  H49  1  0.867500  0.376500  0.981600  1.0  0.1163
  H  H50  1  0.770600  0.343600  0.966400  1.0  0.1063
  H  H51  1  0.814900  0.317800  0.831300  1.0  0.1135
  H  H52  1  0.810700  0.386100  0.841400  1.0  0.1141
  H  H53  1  0.738400  0.337100  0.867600  1.0  0.1159
  H  H54  1  0.111300  0.219200  0.880100  1.0  0.0712
  H  H55  1  0.060100  0.119300  0.947100  1.0  0.1067
  H  H56  1  0.134700  0.174500  0.958900  1.0  0.1125
  H  H57  1  0.153100  0.126500  0.916700  1.0  0.1083
  H  H58  1  0.018200  0.107500  0.849200  1.0  0.1089
  H  H59  1  0.111400  0.138600  0.826300  1.0  0.1163
  H  H60  1  0.021800  0.165100  0.813900  1.0  0.1153
  H  H61  1  0.236200  0.299900  0.822600  1.0  0.0746
  H  H62  1  0.395500  0.339000  0.765400  1.0  0.1148
  H  H63  1  0.394800  0.282100  0.801400  1.0  0.1127
  H  H64  1  0.380200  0.343600  0.826800  1.0  0.1277
  H  H65  1  0.182000  0.230500  0.753300  1.0  0.1069
  H  H66  1  0.265200  0.209700  0.782400  1.0  0.1173
  H  H67  1  0.278500  0.241200  0.726900  1.0  0.1198
  H  H68  1  0.033500  0.440100  0.797900  1.0  0.0662
  H  H69  1  0.033500  0.537000  0.791100  1.0  0.1083
  H  H70  1  0.070300  0.539800  0.732600  1.0  0.1189
  H  H71  1  0.135400  0.530600  0.780000  1.0  0.1214
  H  H72  1  0.915500  0.453200  0.745600  1.0  0.1181
  H  H73  1  0.954100  0.396300  0.724800  1.0  0.1215
  H  H74  1  0.976200  0.457500  0.694500  1.0  0.1236
  H  H75  1  0.464100  0.823500  0.962100  1.0  0.1117
  H  H76  1  0.736600  0.860400  0.947600  1.0  0.1069
  H  H77  1  0.634700  0.627200  0.938200  1.0  0.1166
  H  H78  1  0.626700  0.553600  0.865600  1.0  0.1324
  H  H79  1  0.577300  0.708700  0.806700  1.0  0.1265
  H  H80  1  0.429900  0.528700  0.689100  1.0  0.1032
  H  H81  1  0.690400  0.586100  0.655000  1.0  0.1047
  H  H82  1  0.445600  0.676100  0.905800  1.0  0.0816
  H  H83  1  0.364000  0.742400  0.982400  1.0  0.1131
  H  H84  1  0.407600  0.684400  0.993800  1.0  0.1103
  H  H85  1  0.317800  0.680200  0.960500  1.0  0.1152
  H  H86  1  0.343700  0.769200  0.887600  1.0  0.115
  H  H87  1  0.330200  0.705400  0.861200  1.0  0.1065
  H  H88  1  0.413200  0.753200  0.845000  1.0  0.1158
  H  H89  1  0.762200  0.722600  0.882800  1.0  0.0662
  H  H90  1  0.752200  0.810600  0.825700  1.0  0.1248
  H  H91  1  0.843400  0.783500  0.823300  1.0  0.1116
  H  H92  1  0.837900  0.841600  0.856700  1.0  0.1149
  H  H93  1  0.873300  0.807400  0.941700  1.0  0.1175
  H  H94  1  0.891200  0.743100  0.925100  1.0  0.1075
  H  H95  1  0.818900  0.750600  0.969000  1.0  0.1198
  H  H96  1  0.439500  0.579900  0.823300  1.0  0.0772
  H  H97  1  0.327600  0.591800  0.736200  1.0  0.1079
  H  H98  1  0.367700  0.642400  0.776000  1.0  0.1046
  H  H99  1  0.291600  0.591000  0.794700  1.0  0.1129
  H  H100  1  0.338600  0.495200  0.829400  1.0  0.1081
  H  H101  1  0.427600  0.476000  0.805800  1.0  0.1189
  H  H102  1  0.344900  0.481800  0.768500  1.0  0.1072
  H  H103  1  0.750300  0.647300  0.783200  1.0  0.0659
  H  H104  1  0.838300  0.710800  0.726600  1.0  0.1127
  H  H105  1  0.735900  0.717100  0.717300  1.0  0.1115
  H  H106  1  0.786500  0.680200  0.677200  1.0  0.1005
  H  H107  1  0.816900  0.565600  0.768200  1.0  0.1337
  H  H108  1  0.883600  0.618700  0.743300  1.0  0.12
  H  H109  1  0.818700  0.575600  0.706500  1.0  0.1138
  H  H110  1  0.081100  0.376200  0.435000  1.0  0.0984
  H  H111  1  0.242500  0.250900  0.448300  1.0  0.1026
  H  H112  1  0.905000  0.148500  0.442600  1.0  0.1336
  H  H113  1  0.982100  0.205400  0.297900  1.0  0.1288
  H  H114  1  0.810000  0.088900  0.377500  1.0  0.1189
  H  H115  1  0.850900  0.030600  0.173300  1.0  0.1133
  H  H116  1  0.683200  0.152800  0.193000  1.0  0.1049
  H  H117  1  0.080300  0.129700  0.396900  1.0  0.0763
  H  H118  1  0.196600  0.091100  0.445700  1.0  0.1106
  H  H119  1  0.132500  0.123500  0.481600  1.0  0.1178
  H  H120  1  0.229400  0.156400  0.466400  1.0  0.1072
  H  H121  1  0.185100  0.182200  0.331300  1.0  0.1144
  H  H122  1  0.189300  0.113900  0.341400  1.0  0.112
  H  H123  1  0.261600  0.162900  0.367600  1.0  0.1161
  H  H124  1  0.888700  0.280800  0.380100  1.0  0.0722
  H  H125  1  0.939900  0.380700  0.447100  1.0  0.1059
  H  H126  1  0.865300  0.325500  0.458900  1.0  0.113
  H  H127  1  0.846900  0.373500  0.416700  1.0  0.1086
  H  H128  1  0.981800  0.392500  0.349200  1.0  0.1088
  H  H129  1  0.888600  0.361400  0.326300  1.0  0.1181
  H  H130  1  0.978200  0.334900  0.313900  1.0  0.1142
  H  H131  1  0.763800  0.200100  0.322600  1.0  0.0745
  H  H132  1  0.604500  0.161000  0.265400  1.0  0.1136
  H  H133  1  0.605200  0.217900  0.301400  1.0  0.1147
  H  H134  1  0.619800  0.156400  0.326800  1.0  0.1292
  H  H135  1  0.818000  0.269500  0.253300  1.0  0.1078
  H  H136  1  0.734800  0.290300  0.282400  1.0  0.1195
  H  H137  1  0.721500  0.258800  0.226900  1.0  0.12
  H  H138  1  0.966500  0.059900  0.297900  1.0  0.0672
  H  H139  1  0.966500  0.963000  0.291100  1.0  0.1073
  H  H140  1  0.929700  0.960200  0.232600  1.0  0.1182
  H  H141  1  0.864600  0.969400  0.280000  1.0  0.1225
  H  H142  1  0.084500  0.046800  0.245600  1.0  0.1198
  H  H143  1  0.045900  0.103700  0.224800  1.0  0.124
  H  H144  1  0.023800  0.042500  0.194500  1.0  0.1241
  H  H145  1  0.464100  0.323500  0.537900  1.0  0.112
  H  H146  1  0.736600  0.360400  0.552400  1.0  0.1071
  H  H147  1  0.634700  0.127200  0.561800  1.0  0.1167
  H  H148  1  0.626700  0.053600  0.634400  1.0  0.1291
  H  H149  1  0.577300  0.208700  0.693300  1.0  0.1243
  H  H150  1  0.429900  0.028700  0.810900  1.0  0.1034
  H  H151  1  0.690400  0.086100  0.845000  1.0  0.1051
  H  H152  1  0.445600  0.176100  0.594200  1.0  0.081
  H  H153  1  0.364000  0.242400  0.517600  1.0  0.1143
  H  H154  1  0.407600  0.184400  0.506200  1.0  0.1087
  H  H155  1  0.317800  0.180200  0.539500  1.0  0.115
  H  H156  1  0.343700  0.269200  0.612400  1.0  0.1149
  H  H157  1  0.330200  0.205400  0.638800  1.0  0.1071
  H  H158  1  0.413200  0.253200  0.655000  1.0  0.1152
  H  H159  1  0.762200  0.222600  0.617200  1.0  0.0674
  H  H160  1  0.752200  0.310600  0.674300  1.0  0.125
  H  H161  1  0.843400  0.283500  0.676700  1.0  0.1105
  H  H162  1  0.837900  0.341600  0.643300  1.0  0.1148
  H  H163  1  0.873300  0.307400  0.558300  1.0  0.1176
  H  H164  1  0.891200  0.243100  0.574900  1.0  0.108
  H  H165  1  0.818900  0.250600  0.531000  1.0  0.1201
  H  H166  1  0.439500  0.079900  0.676700  1.0  0.0768
  H  H167  1  0.327600  0.091800  0.763800  1.0  0.1061
  H  H168  1  0.367700  0.142400  0.724000  1.0  0.1043
  H  H169  1  0.291600  0.091000  0.705300  1.0  0.1133
  H  H170  1  0.338600  0.995200  0.670600  1.0  0.1075
  H  H171  1  0.427600  0.976000  0.694200  1.0  0.1195
  H  H172  1  0.344900  0.981800  0.731500  1.0  0.1072
  H  H173  1  0.750300  0.147300  0.716800  1.0  0.0671
  H  H174  1  0.838300  0.210800  0.773400  1.0  0.1123
  H  H175  1  0.735900  0.217100  0.782700  1.0  0.1113
  H  H176  1  0.786500  0.180200  0.822800  1.0  0.1002
  H  H177  1  0.816900  0.065600  0.731800  1.0  0.1309
  H  H178  1  0.883600  0.118700  0.756700  1.0  0.1212
  H  H179  1  0.818700  0.075600  0.793500  1.0  0.1127
  H  H180  1  0.081100  0.876200  0.065000  1.0  0.0978
  H  H181  1  0.242500  0.750900  0.051700  1.0  0.1022
  H  H182  1  0.905000  0.648500  0.057400  1.0  0.1338
  H  H183  1  0.982100  0.705400  0.202100  1.0  0.1292
  H  H184  1  0.810000  0.588900  0.122500  1.0  0.1172
  H  H185  1  0.850900  0.530600  0.326700  1.0  0.1134
  H  H186  1  0.683200  0.652800  0.307000  1.0  0.1044
  H  H187  1  0.080300  0.629700  0.103100  1.0  0.0762
  H  H188  1  0.196600  0.591100  0.054300  1.0  0.1109
  H  H189  1  0.132500  0.623500  0.018400  1.0  0.1167
  H  H190  1  0.229400  0.656400  0.033600  1.0  0.1063
  H  H191  1  0.185100  0.682200  0.168700  1.0  0.1152
  H  H192  1  0.189300  0.613900  0.158600  1.0  0.1122
  H  H193  1  0.261600  0.662900  0.132400  1.0  0.1149
  H  H194  1  0.888700  0.780800  0.119900  1.0  0.0715
  H  H195  1  0.939900  0.880700  0.052900  1.0  0.1061
  H  H196  1  0.865300  0.825500  0.041100  1.0  0.1142
  H  H197  1  0.846900  0.873500  0.083300  1.0  0.1086
  H  H198  1  0.981800  0.892500  0.150800  1.0  0.1086
  H  H199  1  0.888600  0.861400  0.173700  1.0  0.1153
  H  H200  1  0.978200  0.834900  0.186100  1.0  0.1152
  H  H201  1  0.763800  0.700100  0.177400  1.0  0.0753
  H  H202  1  0.604500  0.661000  0.234600  1.0  0.1136
  H  H203  1  0.605200  0.717900  0.198600  1.0  0.114
  H  H204  1  0.619800  0.656400  0.173200  1.0  0.1275
  H  H205  1  0.818000  0.769500  0.246700  1.0  0.1063
  H  H206  1  0.734800  0.790300  0.217600  1.0  0.1201
  H  H207  1  0.721500  0.758800  0.273100  1.0  0.1194
  H  H208  1  0.966500  0.559900  0.202100  1.0  0.0674
  H  H209  1  0.966500  0.463000  0.208900  1.0  0.1068
  H  H210  1  0.929700  0.460200  0.267400  1.0  0.1174
  H  H211  1  0.864600  0.469400  0.220000  1.0  0.1218
  H  H212  1  0.084500  0.546800  0.254400  1.0  0.1197
  H  H213  1  0.045900  0.603700  0.275200  1.0  0.1235
  H  H214  1  0.023800  0.542500  0.305500  1.0  0.1226
  H  H215  1  0.535900  0.176500  0.037900  1.0  0.1106
  H  H216  1  0.263400  0.139600  0.052400  1.0  0.1066
  H  H217  1  0.365300  0.372800  0.061800  1.0  0.1209
  H  H218  1  0.373300  0.446400  0.134400  1.0  0.1292
  H  H219  1  0.422700  0.291300  0.193300  1.0  0.1244
  H  H220  1  0.570100  0.471300  0.310900  1.0  0.1034
  H  H221  1  0.309600  0.413900  0.345000  1.0  0.1044
  H  H222  1  0.554400  0.323900  0.094200  1.0  0.0803
  H  H223  1  0.636000  0.257600  0.017600  1.0  0.1143
  H  H224  1  0.592400  0.315600  0.006200  1.0  0.1094
  H  H225  1  0.682200  0.319800  0.039500  1.0  0.1148
  H  H226  1  0.656300  0.230800  0.112400  1.0  0.1138
  H  H227  1  0.669800  0.294600  0.138800  1.0  0.1078
  H  H228  1  0.586800  0.246800  0.155000  1.0  0.1159
  H  H229  1  0.237800  0.277400  0.117200  1.0  0.0702
  H  H230  1  0.247800  0.189400  0.174300  1.0  0.1248
  H  H231  1  0.156600  0.216500  0.176700  1.0  0.1106
  H  H232  1  0.162100  0.158400  0.143300  1.0  0.1129
  H  H233  1  0.126700  0.192600  0.058300  1.0  0.1154
  H  H234  1  0.108800  0.256900  0.074900  1.0  0.1111
  H  H235  1  0.181100  0.249400  0.031000  1.0  0.1198
  H  H236  1  0.560500  0.420100  0.176700  1.0  0.0776
  H  H237  1  0.672400  0.408200  0.263800  1.0  0.1067
  H  H238  1  0.632300  0.357600  0.224000  1.0  0.1042
  H  H239  1  0.708400  0.409000  0.205300  1.0  0.1156
  H  H240  1  0.661400  0.504800  0.170600  1.0  0.1068
  H  H241  1  0.572400  0.524000  0.194200  1.0  0.1181
  H  H242  1  0.655100  0.518200  0.231500  1.0  0.1062
  H  H243  1  0.249700  0.352700  0.216800  1.0  0.0674
  H  H244  1  0.161700  0.289200  0.273400  1.0  0.1129
  H  H245  1  0.264100  0.282900  0.282700  1.0  0.1104
  H  H246  1  0.213500  0.319800  0.322800  1.0  0.0999
  H  H247  1  0.183100  0.434400  0.231800  1.0  0.1316
  H  H248  1  0.116400  0.381300  0.256700  1.0  0.1178
  H  H249  1  0.181300  0.424400  0.293500  1.0  0.1118
  H  H250  1  0.918900  0.623800  0.565000  1.0  0.0969
  H  H251  1  0.757500  0.749100  0.551700  1.0  0.1027
  H  H252  1  0.095000  0.851500  0.557400  1.0  0.1365
  H  H253  1  0.017900  0.794600  0.702100  1.0  0.1294
  H  H254  1  0.190000  0.911100  0.622500  1.0  0.1173
  H  H255  1  0.149100  0.969400  0.826700  1.0  0.1135
  H  H256  1  0.316800  0.847200  0.807000  1.0  0.1047
  H  H257  1  0.919700  0.870300  0.603100  1.0  0.0759
  H  H258  1  0.803400  0.908900  0.554300  1.0  0.1116
  H  H259  1  0.867500  0.876500  0.518400  1.0  0.1165
  H  H260  1  0.770600  0.843600  0.533600  1.0  0.1059
  H  H261  1  0.814900  0.817800  0.668700  1.0  0.1147
  H  H262  1  0.810700  0.886100  0.658600  1.0  0.1138
  H  H263  1  0.738400  0.837100  0.632400  1.0  0.1149
  H  H264  1  0.111300  0.719200  0.619900  1.0  0.0707
  H  H265  1  0.060100  0.619300  0.552900  1.0  0.1059
  H  H266  1  0.134700  0.674500  0.541100  1.0  0.1125
  H  H267  1  0.153100  0.626500  0.583300  1.0  0.1081
  H  H268  1  0.018200  0.607500  0.650800  1.0  0.109
  H  H269  1  0.111400  0.638600  0.673700  1.0  0.1145
  H  H270  1  0.021800  0.665100  0.686100  1.0  0.1149
  H  H271  1  0.236200  0.799900  0.677400  1.0  0.0754
  H  H272  1  0.395500  0.839000  0.734600  1.0  0.1145
  H  H273  1  0.394800  0.782100  0.698600  1.0  0.1134
  H  H274  1  0.380200  0.843600  0.673200  1.0  0.1281
  H  H275  1  0.182000  0.730500  0.746700  1.0  0.1073
  H  H276  1  0.265200  0.709700  0.717600  1.0  0.1167
  H  H277  1  0.278500  0.741200  0.773100  1.0  0.1199
  H  H278  1  0.033500  0.940100  0.702100  1.0  0.0682
  H  H279  1  0.033500  0.037000  0.708900  1.0  0.1075
  H  H280  1  0.070300  0.039800  0.767400  1.0  0.1178
  H  H281  1  0.135400  0.030600  0.720000  1.0  0.1218
  H  H282  1  0.915500  0.953200  0.754400  1.0  0.1183
  H  H283  1  0.954100  0.896300  0.775200  1.0  0.1219
  H  H284  1  0.976200  0.957500  0.805500  1.0  0.1235
  C  C285  1  0.401000  0.587100  0.483200  1.0  0.6947
  C  C286  1  0.399300  0.648500  0.458400  1.0  -0.1416
  C  C287  1  0.481100  0.687600  0.451000  1.0  -0.1038
  C  C288  1  0.479600  0.743700  0.426400  1.0  0.0143
  C  C289  1  0.394800  0.756900  0.409900  1.0  0.1406
  C  C290  1  0.314100  0.719300  0.415800  1.0  0.0055
  C  C291  1  0.317300  0.665300  0.441500  1.0  -0.0841
  C  C292  1  0.377600  0.865800  0.402800  1.0  -0.125
  C  C293  1  0.382100  0.906500  0.362800  1.0  -0.1443
  C  C294  1  0.409300  0.820500  0.330400  1.0  0.1188
  C  C295  1  0.416200  0.901800  0.264200  1.0  0.0551
  C  C296  1  0.503400  0.930500  0.251500  1.0  0.0084
  C  C297  1  0.513500  0.951600  0.199800  1.0  -0.1147
  C  C298  1  0.443000  0.944700  0.163300  1.0  -0.1274
  C  C299  1  0.357400  0.917200  0.179100  1.0  -0.0995
  C  C300  1  0.341400  0.894700  0.229800  1.0  0.0107
  C  C301  1  0.459700  0.967500  0.106400  1.0  0.7336
  C  C302  1  0.569300  0.784900  0.417300  1.0  0.1109
  C  C303  1  0.625200  0.795400  0.468200  1.0  -0.352
  C  C304  1  0.625700  0.762200  0.373800  1.0  -0.3361
  C  C305  1  0.225200  0.735700  0.395100  1.0  0.1053
  C  C306  1  0.195000  0.696200  0.345400  1.0  -0.3409
  C  C307  1  0.154300  0.733500  0.436300  1.0  -0.3452
  C  C308  1  0.584100  0.936500  0.289100  1.0  0.1152
  C  C309  1  0.655800  0.899500  0.272500  1.0  -0.3459
  C  C310  1  0.621700  0.001900  0.299100  1.0  -0.3458
  C  C311  1  0.247300  0.864600  0.245800  1.0  0.1316
  C  C312  1  0.219100  0.809200  0.213900  1.0  -0.337
  C  C313  1  0.175600  0.904800  0.240500  1.0  -0.3544
  C  C314  1  0.758500  0.135400  0.973500  1.0  0.6976
  C  C315  1  0.828900  0.179300  0.946900  1.0  -0.1737
  C  C316  1  0.910100  0.163500  0.930300  1.0  -0.1157
  C  C317  1  0.980100  0.202500  0.906900  1.0  0.0029
  C  C318  1  0.959500  0.261500  0.899800  1.0  0.0518
  C  C319  1  0.880200  0.281400  0.914000  1.0  0.001
  C  C320  1  0.812900  0.238000  0.938200  1.0  -0.097
  C  C321  1  0.091600  0.347400  0.905900  1.0  -0.1571
  C  C322  1  0.048800  0.315700  0.825700  1.0  0.1039
  C  C323  1  0.143500  0.379900  0.869900  1.0  -0.0847
  C  C324  1  0.161000  0.379100  0.771900  1.0  0.0984
  C  C325  1  0.126600  0.424900  0.742900  1.0  0.0044
  C  C326  1  0.168700  0.439400  0.693800  1.0  -0.0991
  C  C327  1  0.239600  0.410200  0.674500  1.0  -0.1687
  C  C328  1  0.269800  0.366500  0.705500  1.0  -0.0891
  C  C329  1  0.231900  0.350700  0.754900  1.0  -0.0012
  C  C330  1  0.279800  0.425600  0.620100  1.0  0.7086
  C  C331  1  0.861600  0.345400  0.904800  1.0  0.0961
  C  C332  1  0.822100  0.371000  0.954200  1.0  -0.3371
  C  C333  1  0.800900  0.346700  0.856900  1.0  -0.326
  C  C334  1  0.067800  0.183300  0.888300  1.0  0.1048
  C  C335  1  0.107600  0.147600  0.931800  1.0  -0.3494
  C  C336  1  0.053500  0.145300  0.840200  1.0  -0.3441
  C  C337  1  0.266400  0.302300  0.787900  1.0  0.0178
  C  C338  1  0.368700  0.318200  0.796100  1.0  -0.3425
  C  C339  1  0.246100  0.239900  0.759900  1.0  -0.3252
  C  C340  1  0.048900  0.455400  0.762100  1.0  0.133
  C  C341  1  0.074300  0.521600  0.766900  1.0  -0.3541
  C  C342  1  0.966400  0.439200  0.728800  1.0  -0.3577
  C  C343  1  0.599000  0.912900  0.983200  1.0  0.6934
  C  C344  1  0.600700  0.851500  0.958400  1.0  -0.1411
  C  C345  1  0.518900  0.812400  0.951000  1.0  -0.1033
  C  C346  1  0.520400  0.756300  0.926400  1.0  0.0157
  C  C347  1  0.605200  0.743100  0.909900  1.0  0.1413
  C  C348  1  0.685900  0.780700  0.915800  1.0  0.0054
  C  C349  1  0.682700  0.834700  0.941500  1.0  -0.0837
  C  C350  1  0.622400  0.634200  0.902800  1.0  -0.1238
  C  C351  1  0.617900  0.593500  0.862800  1.0  -0.1449
  C  C352  1  0.590700  0.679500  0.830400  1.0  0.1182
  C  C353  1  0.583800  0.598200  0.764200  1.0  0.055
  C  C354  1  0.496600  0.569500  0.751500  1.0  0.0091
  C  C355  1  0.486500  0.548400  0.699800  1.0  -0.1128
  C  C356  1  0.557000  0.555300  0.663300  1.0  -0.1285
  C  C357  1  0.642600  0.582800  0.679100  1.0  -0.1005
  C  C358  1  0.658600  0.605300  0.729800  1.0  0.0113
  C  C359  1  0.540300  0.532500  0.606400  1.0  0.7336
  C  C360  1  0.430700  0.715100  0.917300  1.0  0.1106
  C  C361  1  0.374800  0.704600  0.968200  1.0  -0.3532
  C  C362  1  0.374300  0.737800  0.873800  1.0  -0.3361
  C  C363  1  0.774800  0.764300  0.895100  1.0  0.104
  C  C364  1  0.805000  0.803800  0.845400  1.0  -0.3445
  C  C365  1  0.845700  0.766500  0.936300  1.0  -0.3474
  C  C366  1  0.415900  0.563500  0.789100  1.0  0.1162
  C  C367  1  0.344200  0.600500  0.772500  1.0  -0.3433
  C  C368  1  0.378300  0.498100  0.799100  1.0  -0.3458
  C  C369  1  0.752700  0.635400  0.745800  1.0  0.1315
  C  C370  1  0.780900  0.690800  0.713900  1.0  -0.3367
  C  C371  1  0.824400  0.595200  0.740500  1.0  -0.3547
  C  C372  1  0.241500  0.364600  0.473500  1.0  0.6952
  C  C373  1  0.171100  0.320700  0.446900  1.0  -0.1758
  C  C374  1  0.089900  0.336500  0.430300  1.0  -0.1165
  C  C375  1  0.019900  0.297500  0.406900  1.0  0.0044
  C  C376  1  0.040500  0.238500  0.399800  1.0  0.0513
  C  C377  1  0.119800  0.218600  0.414000  1.0  0.0023
  C  C378  1  0.187100  0.262000  0.438200  1.0  -0.0982
  C  C379  1  0.908400  0.152600  0.405900  1.0  -0.1524
  C  C380  1  0.951200  0.184300  0.325700  1.0  0.1033
  C  C381  1  0.856500  0.120100  0.369900  1.0  -0.0831
  C  C382  1  0.839000  0.120900  0.271900  1.0  0.099
  C  C383  1  0.873400  0.075100  0.242900  1.0  0.0048
  C  C384  1  0.831300  0.060600  0.193800  1.0  -0.0987
  C  C385  1  0.760400  0.089800  0.174500  1.0  -0.1702
  C  C386  1  0.730200  0.133500  0.205500  1.0  -0.0835
  C  C387  1  0.768100  0.149300  0.254900  1.0  -0.0012
  C  C388  1  0.720200  0.074400  0.120100  1.0  0.7084
  C  C389  1  0.138400  0.154600  0.404800  1.0  0.0954
  C  C390  1  0.177900  0.129000  0.454200  1.0  -0.3347
  C  C391  1  0.199100  0.153300  0.356900  1.0  -0.3264
  C  C392  1  0.932200  0.316700  0.388300  1.0  0.1047
  C  C393  1  0.892400  0.352400  0.431800  1.0  -0.3476
  C  C394  1  0.946500  0.354700  0.340200  1.0  -0.3444
  C  C395  1  0.733600  0.197700  0.287900  1.0  0.0161
  C  C396  1  0.631300  0.181800  0.296100  1.0  -0.3412
  C  C397  1  0.753900  0.260100  0.259900  1.0  -0.324
  C  C398  1  0.951100  0.044600  0.262100  1.0  0.1341
  C  C399  1  0.925700  0.978400  0.266900  1.0  -0.3535
  C  C400  1  0.033600  0.060800  0.228800  1.0  -0.3592
  C  C401  1  0.599000  0.412900  0.516800  1.0  0.6936
  C  C402  1  0.600700  0.351500  0.541600  1.0  -0.1406
  C  C403  1  0.518900  0.312400  0.549000  1.0  -0.1035
  C  C404  1  0.520400  0.256300  0.573600  1.0  0.0155
  C  C405  1  0.605200  0.243100  0.590100  1.0  0.1421
  C  C406  1  0.685900  0.280700  0.584200  1.0  0.0052
  C  C407  1  0.682700  0.334700  0.558500  1.0  -0.0834
  C  C408  1  0.622400  0.134200  0.597200  1.0  -0.1253
  C  C409  1  0.617900  0.093500  0.637200  1.0  -0.1467
  C  C410  1  0.590700  0.179500  0.669600  1.0  0.1187
  C  C411  1  0.583800  0.098200  0.735800  1.0  0.055
  C  C412  1  0.496600  0.069500  0.748500  1.0  0.0097
  C  C413  1  0.486500  0.048400  0.800200  1.0  -0.1137
  C  C414  1  0.557000  0.055300  0.836700  1.0  -0.1291
  C  C415  1  0.642600  0.082800  0.820900  1.0  -0.0999
  C  C416  1  0.658600  0.105300  0.770200  1.0  0.0109
  C  C417  1  0.540300  0.032500  0.893600  1.0  0.7351
  C  C418  1  0.430700  0.215100  0.582700  1.0  0.11
  C  C419  1  0.374800  0.204600  0.531800  1.0  -0.3529
  C  C420  1  0.374300  0.237800  0.626200  1.0  -0.3354
  C  C421  1  0.774800  0.264300  0.604900  1.0  0.1039
  C  C422  1  0.805000  0.303800  0.654600  1.0  -0.3438
  C  C423  1  0.845700  0.266500  0.563700  1.0  -0.3483
  C  C424  1  0.415900  0.063500  0.710900  1.0  0.1158
  C  C425  1  0.344200  0.100500  0.727500  1.0  -0.3433
  C  C426  1  0.378300  0.998100  0.700900  1.0  -0.3454
  C  C427  1  0.752700  0.135400  0.754200  1.0  0.1305
  C  C428  1  0.780900  0.190800  0.786100  1.0  -0.3372
  C  C429  1  0.824400  0.095200  0.759500  1.0  -0.3548
  C  C430  1  0.241500  0.864600  0.026500  1.0  0.6964
  C  C431  1  0.171100  0.820700  0.053100  1.0  -0.1755
  C  C432  1  0.089900  0.836500  0.069700  1.0  -0.1178
  C  C433  1  0.019900  0.797500  0.093100  1.0  0.0023
  C  C434  1  0.040500  0.738500  0.100200  1.0  0.0501
  C  C435  1  0.119800  0.718600  0.086000  1.0  0.0021
  C  C436  1  0.187100  0.762000  0.061800  1.0  -0.0968
  C  C437  1  0.908400  0.652600  0.094100  1.0  -0.1518
  C  C438  1  0.951200  0.684300  0.174300  1.0  0.1035
  C  C439  1  0.856500  0.620100  0.130100  1.0  -0.0786
  C  C440  1  0.839000  0.620900  0.228100  1.0  0.0992
  C  C441  1  0.873400  0.575100  0.257100  1.0  0.0052
  C  C442  1  0.831300  0.560600  0.306200  1.0  -0.0997
  C  C443  1  0.760400  0.589800  0.325500  1.0  -0.1648
  C  C444  1  0.730200  0.633500  0.294500  1.0  -0.0841
  C  C445  1  0.768100  0.649300  0.245100  1.0  -0.0009
  C  C446  1  0.720200  0.574400  0.379900  1.0  0.7091
  C  C447  1  0.138400  0.654600  0.095200  1.0  0.094
  C  C448  1  0.177900  0.629000  0.045800  1.0  -0.3345
  C  C449  1  0.199100  0.653300  0.143100  1.0  -0.3259
  C  C450  1  0.932200  0.816700  0.111700  1.0  0.1043
  C  C451  1  0.892400  0.852400  0.068200  1.0  -0.3474
  C  C452  1  0.946500  0.854700  0.159800  1.0  -0.3443
  C  C453  1  0.733600  0.697700  0.212100  1.0  0.016
  C  C454  1  0.631300  0.681800  0.203900  1.0  -0.3409
  C  C455  1  0.753900  0.760100  0.240100  1.0  -0.3234
  C  C456  1  0.951100  0.544600  0.237900  1.0  0.1349
  C  C457  1  0.925700  0.478400  0.233100  1.0  -0.3525
  C  C458  1  0.033600  0.560800  0.271200  1.0  -0.3583
  C  C459  1  0.401000  0.087100  0.016800  1.0  0.6946
  C  C460  1  0.399300  0.148500  0.041600  1.0  -0.1416
  C  C461  1  0.481100  0.187600  0.049000  1.0  -0.1043
  C  C462  1  0.479600  0.243700  0.073600  1.0  0.014
  C  C463  1  0.394800  0.256900  0.090100  1.0  0.1411
  C  C464  1  0.314100  0.219300  0.084200  1.0  0.0047
  C  C465  1  0.317300  0.165300  0.058500  1.0  -0.0847
  C  C466  1  0.377600  0.365800  0.097200  1.0  -0.1241
  C  C467  1  0.382100  0.406500  0.137200  1.0  -0.146
  C  C468  1  0.409300  0.320500  0.169600  1.0  0.1194
  C  C469  1  0.416200  0.401800  0.235800  1.0  0.0548
  C  C470  1  0.503400  0.430500  0.248500  1.0  0.0085
  C  C471  1  0.513500  0.451600  0.300200  1.0  -0.116
  C  C472  1  0.443000  0.444700  0.336700  1.0  -0.1297
  C  C473  1  0.357400  0.417200  0.320900  1.0  -0.1006
  C  C474  1  0.341400  0.394700  0.270200  1.0  0.0101
  C  C475  1  0.459700  0.467500  0.393600  1.0  0.7336
  C  C476  1  0.569300  0.284900  0.082700  1.0  0.1102
  C  C477  1  0.625200  0.295400  0.031800  1.0  -0.3518
  C  C478  1  0.625700  0.262200  0.126200  1.0  -0.336
  C  C479  1  0.225200  0.235700  0.104900  1.0  0.1049
  C  C480  1  0.195000  0.196200  0.154600  1.0  -0.3404
  C  C481  1  0.154300  0.233500  0.063700  1.0  -0.3454
  C  C482  1  0.584100  0.436500  0.210900  1.0  0.1153
  C  C483  1  0.655800  0.399500  0.227500  1.0  -0.3451
  C  C484  1  0.621700  0.501900  0.200900  1.0  -0.346
  C  C485  1  0.247300  0.364600  0.254200  1.0  0.132
  C  C486  1  0.219100  0.309200  0.286100  1.0  -0.3366
  C  C487  1  0.175600  0.404800  0.259500  1.0  -0.354
  C  C488  1  0.758500  0.635400  0.526500  1.0  0.6967
  C  C489  1  0.828900  0.679300  0.553100  1.0  -0.1751
  C  C490  1  0.910100  0.663500  0.569700  1.0  -0.1166
  C  C491  1  0.980100  0.702500  0.593100  1.0  0.0017
  C  C492  1  0.959500  0.761500  0.600200  1.0  0.0512
  C  C493  1  0.880200  0.781400  0.586000  1.0  0.0013
  C  C494  1  0.812900  0.738000  0.561800  1.0  -0.0963
  C  C495  1  0.091600  0.847400  0.594100  1.0  -0.1567
  C  C496  1  0.048800  0.815700  0.674300  1.0  0.1038
  C  C497  1  0.143500  0.879900  0.630100  1.0  -0.0815
  C  C498  1  0.161000  0.879100  0.728100  1.0  0.0986
  C  C499  1  0.126600  0.924900  0.757100  1.0  0.0057
  C  C500  1  0.168700  0.939400  0.806200  1.0  -0.1002
  C  C501  1  0.239600  0.910200  0.825500  1.0  -0.1666
  C  C502  1  0.269800  0.866500  0.794500  1.0  -0.0835
  C  C503  1  0.231900  0.850700  0.745100  1.0  -0.0011
  C  C504  1  0.279800  0.925600  0.879900  1.0  0.7078
  C  C505  1  0.861600  0.845400  0.595200  1.0  0.0954
  C  C506  1  0.822100  0.871000  0.545800  1.0  -0.3343
  C  C507  1  0.800900  0.846700  0.643100  1.0  -0.3266
  C  C508  1  0.067800  0.683300  0.611700  1.0  0.1041
  C  C509  1  0.107600  0.647600  0.568200  1.0  -0.3493
  C  C510  1  0.053500  0.645300  0.659800  1.0  -0.3445
  C  C511  1  0.266400  0.802300  0.712100  1.0  0.0183
  C  C512  1  0.368700  0.818200  0.703900  1.0  -0.3431
  C  C513  1  0.246100  0.739900  0.740100  1.0  -0.3238
  C  C514  1  0.048900  0.955400  0.737900  1.0  0.1338
  C  C515  1  0.074300  0.021600  0.733100  1.0  -0.3528
  C  C516  1  0.966400  0.939200  0.771200  1.0  -0.3578
  N  N517  1  0.394500  0.812700  0.381600  1.0  0.0399
  N  N518  1  0.402100  0.877400  0.317800  1.0  0.0241
  N  N519  1  0.117800  0.360300  0.821000  1.0  0.058
  N  N520  1  0.031800  0.306500  0.877500  1.0  -0.035
  N  N521  1  0.605500  0.687300  0.881600  1.0  0.0393
  N  N522  1  0.597900  0.622600  0.817800  1.0  0.0246
  N  N523  1  0.882200  0.139700  0.321000  1.0  0.0582
  N  N524  1  0.968200  0.193500  0.377500  1.0  -0.036
  N  N525  1  0.605500  0.187300  0.618400  1.0  0.04
  N  N526  1  0.597900  0.122600  0.682200  1.0  0.0241
  N  N527  1  0.882200  0.639700  0.179000  1.0  0.0574
  N  N528  1  0.968200  0.693500  0.122500  1.0  -0.0355
  N  N529  1  0.394500  0.312700  0.118400  1.0  0.0403
  N  N530  1  0.402100  0.377400  0.182200  1.0  0.0238
  N  N531  1  0.117800  0.860300  0.679000  1.0  0.0573
  N  N532  1  0.031800  0.806500  0.622500  1.0  -0.035
  N  N533  1  0.442200  0.714900  0.595300  1.0  -0.3862
  N  N534  1  0.557800  0.785100  0.095300  1.0  -0.3898
  N  N535  1  0.557800  0.285100  0.404700  1.0  -0.3902
  N  N536  1  0.442200  0.214900  0.904700  1.0  -0.3887
  O  O537  1  0.325800  0.558200  0.497000  1.0  -0.6791
  O  O538  1  0.475200  0.568200  0.489130  1.0  -0.7358
  O  O539  1  0.391800  0.961300  0.075590  1.0  -0.7147
  O  O540  1  0.540600  0.989500  0.095250  1.0  -0.6926
  O  O541  1  0.682800  0.149500  0.985900  1.0  -0.6089
  O  O542  1  0.779900  0.084100  0.982800  1.0  -0.6029
  O  O543  1  0.335500  0.393500  0.602500  1.0  -0.6575
  O  O544  1  0.258500  0.470400  0.595400  1.0  -0.6674
  O  O545  1  0.674200  0.941800  0.997000  1.0  -0.6803
  O  O546  1  0.524800  0.931800  0.989130  1.0  -0.7349
  O  O547  1  0.608200  0.538700  0.575590  1.0  -0.7156
  O  O548  1  0.459400  0.510500  0.595250  1.0  -0.6932
  O  O549  1  0.317200  0.350500  0.485900  1.0  -0.6149
  O  O550  1  0.220100  0.415900  0.482800  1.0  -0.6061
  O  O551  1  0.664500  0.106500  0.102500  1.0  -0.6535
  O  O552  1  0.741500  0.029600  0.095400  1.0  -0.6656
  O  O553  1  0.674200  0.441800  0.503000  1.0  -0.6801
  O  O554  1  0.524800  0.431800  0.510870  1.0  -0.7339
  O  O555  1  0.608200  0.038700  0.924410  1.0  -0.7146
  O  O556  1  0.459400  0.010500  0.904750  1.0  -0.6937
  O  O557  1  0.317200  0.850500  0.014100  1.0  -0.6142
  O  O558  1  0.220100  0.915900  0.017200  1.0  -0.6061
  O  O559  1  0.664500  0.606500  0.397500  1.0  -0.6529
  O  O560  1  0.741500  0.529600  0.404600  1.0  -0.6641
  O  O561  1  0.325800  0.058200  0.003000  1.0  -0.68
  O  O562  1  0.475200  0.068200  0.010870  1.0  -0.7349
  O  O563  1  0.391800  0.461300  0.424410  1.0  -0.7144
  O  O564  1  0.540600  0.489500  0.404750  1.0  -0.6927
  O  O565  1  0.682800  0.649500  0.514100  1.0  -0.6086
  O  O566  1  0.779900  0.584100  0.517200  1.0  -0.6037
  O  O567  1  0.335500  0.893500  0.897500  1.0  -0.6574
  O  O568  1  0.258500  0.970400  0.904600  1.0  -0.6665
  O  O569  1  0.377700  0.657600  0.617400  1.0  -0.625
  O  O570  1  0.536900  0.724900  0.604300  1.0  -0.4837
  O  O571  1  0.622300  0.842400  0.117400  1.0  -0.6248
  O  O572  1  0.463100  0.775100  0.104300  1.0  -0.4848
  O  O573  1  0.622300  0.342400  0.382600  1.0  -0.6248
  O  O574  1  0.463100  0.275100  0.395700  1.0  -0.4847
  O  O575  1  0.377700  0.157600  0.882600  1.0  -0.6253
  O  O576  1  0.536900  0.224900  0.895700  1.0  -0.4826
