# generated using pymatgen
data_GdH12(C4O)6
_symmetry_space_group_name_H-M   'P 1'
_cell_length_a   35.06700000
_cell_length_b   24.03500000
_cell_length_c   26.08100000
_cell_angle_alpha   90.00000000
_cell_angle_beta   132.06800000
_cell_angle_gamma   90.00000000
_symmetry_Int_Tables_number   1
_chemical_formula_structural   GdH12(C4O)6
_chemical_formula_sum   'Gd16 H192 C384 O96'
_cell_volume   16318.33282484
_cell_formula_units_Z   16
loop_
 _symmetry_equiv_pos_site_id
 _symmetry_equiv_pos_as_xyz
  1  'x, y, z'
loop_
 _atom_site_type_symbol
 _atom_site_label
 _atom_site_symmetry_multiplicity
 _atom_site_fract_x
 _atom_site_fract_y
 _atom_site_fract_z
 _atom_site_occupancy
 _atom_site_charge
  Gd  Gd1  1  0.405470  0.234780  0.399780  1.0  2.1345
  Gd  Gd2  1  0.240230  0.265170  0.262380  1.0  2.1813
  Gd  Gd3  1  0.905470  0.734780  0.399780  1.0  2.1345
  Gd  Gd4  1  0.740230  0.765170  0.262380  1.0  2.1833
  Gd  Gd5  1  0.405470  0.765220  0.899780  1.0  2.134
  Gd  Gd6  1  0.240230  0.734830  0.762380  1.0  2.1831
  Gd  Gd7  1  0.905470  0.265220  0.899780  1.0  2.134
  Gd  Gd8  1  0.740230  0.234830  0.762380  1.0  2.1826
  Gd  Gd9  1  0.594530  0.234780  0.100220  1.0  2.1332
  Gd  Gd10  1  0.759770  0.265170  0.237620  1.0  2.184
  Gd  Gd11  1  0.094530  0.734780  0.100220  1.0  2.1332
  Gd  Gd12  1  0.259770  0.765170  0.237620  1.0  2.1864
  Gd  Gd13  1  0.594530  0.765220  0.600220  1.0  2.1326
  Gd  Gd14  1  0.759770  0.734830  0.737620  1.0  2.1862
  Gd  Gd15  1  0.094530  0.265220  0.600220  1.0  2.1326
  Gd  Gd16  1  0.259770  0.234830  0.737620  1.0  2.1857
  H  H17  1  0.238980  0.137090  0.381760  1.0  0.1069
  H  H18  1  0.379080  0.087440  0.472880  1.0  0.0844
  H  H19  1  0.237230  0.074690  0.446420  1.0  0.0681
  H  H20  1  0.373950  0.016280  0.521820  1.0  0.094
  H  H21  1  0.221990  0.922220  0.543960  1.0  0.1294
  H  H22  1  0.374810  0.911000  0.668690  1.0  0.1169
  H  H23  1  0.225500  0.863390  0.615050  1.0  0.1101
  H  H24  1  0.376590  0.856120  0.743520  1.0  0.0685
  H  H25  1  0.261010  0.382110  0.157610  1.0  0.1108
  H  H26  1  0.410680  0.373850  0.293310  1.0  0.0453
  H  H27  1  0.265510  0.450370  0.095470  1.0  0.0935
  H  H28  1  0.418040  0.435940  0.237070  1.0  0.1218
  H  H29  1  0.272510  0.548220  0.954000  1.0  0.0851
  H  H30  1  0.421100  0.573260  0.112200  1.0  0.1161
  H  H31  1  0.271630  0.619510  0.894840  1.0  0.0824
  H  H32  1  0.421640  0.644500  0.053730  1.0  0.1088
  H  H33  1  0.503090  0.175930  0.331430  1.0  0.1008
  H  H34  1  0.471640  0.054710  0.398630  1.0  0.0781
  H  H35  1  0.548890  0.118020  0.320430  1.0  0.1246
  H  H36  1  0.512120  0.988840  0.383380  1.0  0.1265
  H  H37  1  0.615340  0.877940  0.372000  1.0  0.1125
  H  H38  1  0.609530  0.995170  0.257320  1.0  0.1058
  H  H39  1  0.663540  0.821150  0.359400  1.0  0.1232
  H  H40  1  0.644390  0.932670  0.230510  1.0  0.1154
  H  H41  1  0.738980  0.637090  0.381760  1.0  0.1069
  H  H42  1  0.879080  0.587440  0.472880  1.0  0.0844
  H  H43  1  0.737230  0.574690  0.446420  1.0  0.0681
  H  H44  1  0.873950  0.516280  0.521820  1.0  0.094
  H  H45  1  0.721990  0.422220  0.543960  1.0  0.1294
  H  H46  1  0.874810  0.411000  0.668690  1.0  0.1169
  H  H47  1  0.725500  0.363390  0.615050  1.0  0.1101
  H  H48  1  0.876590  0.356120  0.743520  1.0  0.0685
  H  H49  1  0.761010  0.882110  0.157610  1.0  0.1108
  H  H50  1  0.910680  0.873850  0.293310  1.0  0.0453
  H  H51  1  0.765510  0.950370  0.095470  1.0  0.0935
  H  H52  1  0.918040  0.935940  0.237070  1.0  0.1218
  H  H53  1  0.772510  0.048220  0.954000  1.0  0.0851
  H  H54  1  0.921100  0.073260  0.112200  1.0  0.1161
  H  H55  1  0.771630  0.119510  0.894840  1.0  0.0824
  H  H56  1  0.921640  0.144500  0.053730  1.0  0.1088
  H  H57  1  0.003090  0.675930  0.331430  1.0  0.1008
  H  H58  1  0.971640  0.554710  0.398630  1.0  0.0781
  H  H59  1  0.048890  0.618020  0.320430  1.0  0.1246
  H  H60  1  0.012120  0.488840  0.383380  1.0  0.1265
  H  H61  1  0.115340  0.377940  0.372000  1.0  0.1125
  H  H62  1  0.109530  0.495170  0.257320  1.0  0.1058
  H  H63  1  0.163540  0.321150  0.359400  1.0  0.1232
  H  H64  1  0.144390  0.432670  0.230510  1.0  0.1154
  H  H65  1  0.238980  0.862910  0.881760  1.0  0.1065
  H  H66  1  0.379080  0.912560  0.972880  1.0  0.0845
  H  H67  1  0.237230  0.925310  0.946420  1.0  0.068
  H  H68  1  0.373950  0.983720  0.021820  1.0  0.0939
  H  H69  1  0.221990  0.077780  0.043960  1.0  0.1293
  H  H70  1  0.374810  0.089000  0.168690  1.0  0.1163
  H  H71  1  0.225500  0.136610  0.115050  1.0  0.1098
  H  H72  1  0.376590  0.143880  0.243520  1.0  0.0684
  H  H73  1  0.261010  0.617890  0.657610  1.0  0.1103
  H  H74  1  0.410680  0.626150  0.793310  1.0  0.045
  H  H75  1  0.265510  0.549630  0.595470  1.0  0.0932
  H  H76  1  0.418040  0.564060  0.737070  1.0  0.1214
  H  H77  1  0.272510  0.451780  0.454000  1.0  0.0848
  H  H78  1  0.421100  0.426740  0.612200  1.0  0.1159
  H  H79  1  0.271630  0.380490  0.394840  1.0  0.0823
  H  H80  1  0.421640  0.355500  0.553730  1.0  0.1087
  H  H81  1  0.503090  0.824070  0.831430  1.0  0.1013
  H  H82  1  0.471640  0.945290  0.898630  1.0  0.0782
  H  H83  1  0.548890  0.881980  0.820430  1.0  0.125
  H  H84  1  0.512120  0.011160  0.883380  1.0  0.1256
  H  H85  1  0.615340  0.122060  0.872000  1.0  0.1122
  H  H86  1  0.609530  0.004830  0.757320  1.0  0.1063
  H  H87  1  0.663540  0.178850  0.859400  1.0  0.1236
  H  H88  1  0.644390  0.067330  0.730510  1.0  0.1154
  H  H89  1  0.738980  0.362910  0.881760  1.0  0.1065
  H  H90  1  0.879080  0.412560  0.972880  1.0  0.0845
  H  H91  1  0.737230  0.425310  0.946420  1.0  0.068
  H  H92  1  0.873950  0.483720  0.021820  1.0  0.0939
  H  H93  1  0.721990  0.577780  0.043960  1.0  0.1293
  H  H94  1  0.874810  0.589000  0.168690  1.0  0.1163
  H  H95  1  0.725500  0.636610  0.115050  1.0  0.1098
  H  H96  1  0.876590  0.643880  0.243520  1.0  0.0684
  H  H97  1  0.761010  0.117890  0.657610  1.0  0.1103
  H  H98  1  0.910680  0.126150  0.793310  1.0  0.045
  H  H99  1  0.765510  0.049630  0.595470  1.0  0.0932
  H  H100  1  0.918040  0.064060  0.737070  1.0  0.1214
  H  H101  1  0.772510  0.951780  0.454000  1.0  0.0848
  H  H102  1  0.921100  0.926740  0.612200  1.0  0.1159
  H  H103  1  0.771630  0.880490  0.394840  1.0  0.0823
  H  H104  1  0.921640  0.855500  0.553730  1.0  0.1087
  H  H105  1  0.003090  0.324070  0.831430  1.0  0.1013
  H  H106  1  0.971640  0.445290  0.898630  1.0  0.0782
  H  H107  1  0.048890  0.381980  0.820430  1.0  0.125
  H  H108  1  0.012120  0.511160  0.883380  1.0  0.1256
  H  H109  1  0.115340  0.622060  0.872000  1.0  0.1122
  H  H110  1  0.109530  0.504830  0.757320  1.0  0.1063
  H  H111  1  0.163540  0.678850  0.859400  1.0  0.1236
  H  H112  1  0.144390  0.567330  0.730510  1.0  0.1154
  H  H113  1  0.761020  0.137090  0.118240  1.0  0.107
  H  H114  1  0.620920  0.087440  0.027120  1.0  0.0848
  H  H115  1  0.762770  0.074690  0.053580  1.0  0.0685
  H  H116  1  0.626050  0.016280  0.978180  1.0  0.0942
  H  H117  1  0.778010  0.922220  0.956040  1.0  0.1296
  H  H118  1  0.625190  0.911000  0.831310  1.0  0.117
  H  H119  1  0.774500  0.863390  0.884950  1.0  0.1087
  H  H120  1  0.623410  0.856120  0.756480  1.0  0.0688
  H  H121  1  0.738990  0.382110  0.342390  1.0  0.1108
  H  H122  1  0.589320  0.373850  0.206690  1.0  0.0459
  H  H123  1  0.734490  0.450370  0.404530  1.0  0.0929
  H  H124  1  0.581960  0.435940  0.262930  1.0  0.1213
  H  H125  1  0.727490  0.548220  0.546000  1.0  0.0885
  H  H126  1  0.578900  0.573260  0.387800  1.0  0.1163
  H  H127  1  0.728370  0.619510  0.605160  1.0  0.0823
  H  H128  1  0.578360  0.644500  0.446270  1.0  0.1086
  H  H129  1  0.496910  0.175930  0.168570  1.0  0.1003
  H  H130  1  0.528360  0.054710  0.101370  1.0  0.0788
  H  H131  1  0.451110  0.118020  0.179570  1.0  0.1246
  H  H132  1  0.487880  0.988840  0.116620  1.0  0.1285
  H  H133  1  0.384660  0.877940  0.128000  1.0  0.1122
  H  H134  1  0.390470  0.995170  0.242680  1.0  0.106
  H  H135  1  0.336460  0.821150  0.140600  1.0  0.1235
  H  H136  1  0.355610  0.932670  0.269490  1.0  0.1152
  H  H137  1  0.261020  0.637090  0.118240  1.0  0.107
  H  H138  1  0.120920  0.587440  0.027120  1.0  0.0848
  H  H139  1  0.262770  0.574690  0.053580  1.0  0.0685
  H  H140  1  0.126050  0.516280  0.978180  1.0  0.0942
  H  H141  1  0.278010  0.422220  0.956040  1.0  0.1296
  H  H142  1  0.125190  0.411000  0.831310  1.0  0.117
  H  H143  1  0.274500  0.363390  0.884950  1.0  0.1087
  H  H144  1  0.123410  0.356120  0.756480  1.0  0.0688
  H  H145  1  0.238990  0.882110  0.342390  1.0  0.1108
  H  H146  1  0.089320  0.873850  0.206690  1.0  0.0459
  H  H147  1  0.234490  0.950370  0.404530  1.0  0.0929
  H  H148  1  0.081960  0.935940  0.262930  1.0  0.1213
  H  H149  1  0.227490  0.048220  0.546000  1.0  0.0885
  H  H150  1  0.078900  0.073260  0.387800  1.0  0.1163
  H  H151  1  0.228370  0.119510  0.605160  1.0  0.0823
  H  H152  1  0.078360  0.144500  0.446270  1.0  0.1086
  H  H153  1  0.996910  0.675930  0.168570  1.0  0.1003
  H  H154  1  0.028360  0.554710  0.101370  1.0  0.0788
  H  H155  1  0.951110  0.618020  0.179570  1.0  0.1246
  H  H156  1  0.987880  0.488840  0.116620  1.0  0.1285
  H  H157  1  0.884660  0.377940  0.128000  1.0  0.1122
  H  H158  1  0.890470  0.495170  0.242680  1.0  0.106
  H  H159  1  0.836460  0.321150  0.140600  1.0  0.1235
  H  H160  1  0.855610  0.432670  0.269490  1.0  0.1152
  H  H161  1  0.761020  0.862910  0.618240  1.0  0.1069
  H  H162  1  0.620920  0.912560  0.527120  1.0  0.0849
  H  H163  1  0.762770  0.925310  0.553580  1.0  0.0685
  H  H164  1  0.626050  0.983720  0.478180  1.0  0.0945
  H  H165  1  0.778010  0.077780  0.456040  1.0  0.1293
  H  H166  1  0.625190  0.089000  0.331310  1.0  0.1164
  H  H167  1  0.774500  0.136610  0.384950  1.0  0.109
  H  H168  1  0.623410  0.143880  0.256480  1.0  0.0689
  H  H169  1  0.738990  0.617890  0.842390  1.0  0.1112
  H  H170  1  0.589320  0.626150  0.706690  1.0  0.0455
  H  H171  1  0.734490  0.549630  0.904530  1.0  0.0926
  H  H172  1  0.581960  0.564060  0.762930  1.0  0.1217
  H  H173  1  0.727490  0.451780  0.046000  1.0  0.0883
  H  H174  1  0.578900  0.426740  0.887800  1.0  0.1164
  H  H175  1  0.728370  0.380490  0.105160  1.0  0.0825
  H  H176  1  0.578360  0.355500  0.946270  1.0  0.1087
  H  H177  1  0.496910  0.824070  0.668570  1.0  0.1012
  H  H178  1  0.528360  0.945290  0.601370  1.0  0.0789
  H  H179  1  0.451110  0.881980  0.679570  1.0  0.1251
  H  H180  1  0.487880  0.011160  0.616620  1.0  0.1271
  H  H181  1  0.384660  0.122060  0.628000  1.0  0.1127
  H  H182  1  0.390470  0.004830  0.742680  1.0  0.1064
  H  H183  1  0.336460  0.178850  0.640600  1.0  0.1236
  H  H184  1  0.355610  0.067330  0.769490  1.0  0.1153
  H  H185  1  0.261020  0.362910  0.618240  1.0  0.1069
  H  H186  1  0.120920  0.412560  0.527120  1.0  0.0849
  H  H187  1  0.262770  0.425310  0.553580  1.0  0.0685
  H  H188  1  0.126050  0.483720  0.478180  1.0  0.0945
  H  H189  1  0.278010  0.577780  0.456040  1.0  0.1293
  H  H190  1  0.125190  0.589000  0.331310  1.0  0.1164
  H  H191  1  0.274500  0.636610  0.384950  1.0  0.109
  H  H192  1  0.123410  0.643880  0.256480  1.0  0.0689
  H  H193  1  0.238990  0.117890  0.842390  1.0  0.1112
  H  H194  1  0.089320  0.126150  0.706690  1.0  0.0455
  H  H195  1  0.234490  0.049630  0.904530  1.0  0.0926
  H  H196  1  0.081960  0.064060  0.762930  1.0  0.1217
  H  H197  1  0.227490  0.951780  0.046000  1.0  0.0883
  H  H198  1  0.078900  0.926740  0.887800  1.0  0.1164
  H  H199  1  0.228370  0.880490  0.105160  1.0  0.0825
  H  H200  1  0.078360  0.855500  0.946270  1.0  0.1087
  H  H201  1  0.996910  0.324070  0.668570  1.0  0.1012
  H  H202  1  0.028360  0.445290  0.601370  1.0  0.0789
  H  H203  1  0.951110  0.381980  0.679570  1.0  0.1251
  H  H204  1  0.987880  0.511160  0.616620  1.0  0.1271
  H  H205  1  0.884660  0.622060  0.628000  1.0  0.1127
  H  H206  1  0.890470  0.504830  0.742680  1.0  0.1064
  H  H207  1  0.836460  0.678850  0.640600  1.0  0.1236
  H  H208  1  0.855610  0.567330  0.769490  1.0  0.1153
  C  C209  1  0.312400  0.165600  0.384500  1.0  0.7472
  C  C210  1  0.310800  0.120800  0.423100  1.0  -0.1578
  C  C211  1  0.301900  0.850700  0.687900  1.0  -0.1809
  C  C212  1  0.267400  0.114500  0.413300  1.0  -0.0778
  C  C213  1  0.349300  0.083400  0.465500  1.0  -0.0504
  C  C214  1  0.265600  0.074700  0.450400  1.0  -0.1278
  C  C215  1  0.347400  0.042100  0.496500  1.0  -0.1566
  C  C216  1  0.302000  0.036400  0.491200  1.0  -0.0006
  C  C217  1  0.303000  0.995500  0.530200  1.0  0.0707
  C  C218  1  0.300200  0.961600  0.560700  1.0  0.1762
  C  C219  1  0.253500  0.908300  0.583300  1.0  -0.1816
  C  C220  1  0.344400  0.902200  0.658000  1.0  -0.1265
  C  C221  1  0.297900  0.922700  0.598400  1.0  0.0467
  C  C222  1  0.256100  0.873200  0.626700  1.0  -0.0464
  C  C223  1  0.345000  0.867700  0.702300  1.0  -0.0134
  C  C224  1  0.302200  0.812200  0.734400  1.0  0.6368
  C  C225  1  0.331000  0.331600  0.271300  1.0  0.7568
  C  C226  1  0.336800  0.370300  0.233800  1.0  -0.1475
  C  C227  1  0.292800  0.392500  0.173000  1.0  -0.0543
  C  C228  1  0.380600  0.388000  0.252000  1.0  -0.0388
  C  C229  1  0.294800  0.431700  0.132800  1.0  -0.1392
  C  C230  1  0.386100  0.422800  0.219000  1.0  -0.1471
  C  C231  1  0.337700  0.439500  0.150000  1.0  0.1111
  C  C232  1  0.348300  0.482500  0.117000  1.0  0.0527
  C  C233  1  0.347000  0.513800  0.080300  1.0  -0.0175
  C  C234  1  0.344900  0.555900  0.039700  1.0  0.1137
  C  C235  1  0.302500  0.568100  0.975000  1.0  -0.1517
  C  C236  1  0.390800  0.583200  0.068400  1.0  -0.124
  C  C237  1  0.302400  0.609400  0.938000  1.0  -0.0456
  C  C238  1  0.391600  0.624400  0.032400  1.0  -0.0664
  C  C239  1  0.347700  0.636200  0.964400  1.0  -0.0978
  C  C240  1  0.348000  0.680500  0.927900  1.0  0.6908
  C  C241  1  0.461300  0.165400  0.384800  1.0  0.4219
  C  C242  1  0.483100  0.120200  0.368700  1.0  0.0044
  C  C243  1  0.505800  0.138500  0.343000  1.0  -0.0439
  C  C244  1  0.486300  0.066900  0.381400  1.0  0.0065
  C  C245  1  0.531300  0.104000  0.333000  1.0  -0.1786
  C  C246  1  0.509900  0.026000  0.371600  1.0  -0.1491
  C  C247  1  0.530200  0.045900  0.342200  1.0  -0.0408
  C  C248  1  0.559900  0.011400  0.335300  1.0  0.0115
  C  C249  1  0.579500  0.978000  0.325500  1.0  -0.0264
  C  C250  1  0.603500  0.939600  0.311600  1.0  0.0002
  C  C251  1  0.621800  0.889600  0.344400  1.0  -0.0947
  C  C252  1  0.616900  0.958800  0.273700  1.0  -0.1023
  C  C253  1  0.650500  0.855200  0.336900  1.0  -0.057
  C  C254  1  0.640800  0.922900  0.261600  1.0  -0.0179
  C  C255  1  0.658600  0.874500  0.294400  1.0  -0.122
  C  C256  1  0.685400  0.831400  0.282100  1.0  0.5782
  C  C257  1  0.812400  0.665600  0.384500  1.0  0.7472
  C  C258  1  0.810800  0.620800  0.423100  1.0  -0.1578
  C  C259  1  0.801900  0.350700  0.687900  1.0  -0.1809
  C  C260  1  0.767400  0.614500  0.413300  1.0  -0.0778
  C  C261  1  0.849300  0.583400  0.465500  1.0  -0.0504
  C  C262  1  0.765600  0.574700  0.450400  1.0  -0.1278
  C  C263  1  0.847400  0.542100  0.496500  1.0  -0.1566
  C  C264  1  0.802000  0.536400  0.491200  1.0  -0.0006
  C  C265  1  0.803000  0.495500  0.530200  1.0  0.0707
  C  C266  1  0.800200  0.461600  0.560700  1.0  0.1762
  C  C267  1  0.753500  0.408300  0.583300  1.0  -0.1816
  C  C268  1  0.844400  0.402200  0.658000  1.0  -0.1265
  C  C269  1  0.797900  0.422700  0.598400  1.0  0.0467
  C  C270  1  0.756100  0.373200  0.626700  1.0  -0.0464
  C  C271  1  0.845000  0.367700  0.702300  1.0  -0.0134
  C  C272  1  0.802200  0.312200  0.734400  1.0  0.6368
  C  C273  1  0.831000  0.831600  0.271300  1.0  0.7568
  C  C274  1  0.836800  0.870300  0.233800  1.0  -0.1475
  C  C275  1  0.792800  0.892500  0.173000  1.0  -0.0543
  C  C276  1  0.880600  0.888000  0.252000  1.0  -0.0388
  C  C277  1  0.794800  0.931700  0.132800  1.0  -0.1392
  C  C278  1  0.886100  0.922800  0.219000  1.0  -0.1471
  C  C279  1  0.837700  0.939500  0.150000  1.0  0.1111
  C  C280  1  0.848300  0.982500  0.117000  1.0  0.0527
  C  C281  1  0.847000  0.013800  0.080300  1.0  -0.0175
  C  C282  1  0.844900  0.055900  0.039700  1.0  0.1137
  C  C283  1  0.802500  0.068100  0.975000  1.0  -0.1517
  C  C284  1  0.890800  0.083200  0.068400  1.0  -0.124
  C  C285  1  0.802400  0.109400  0.938000  1.0  -0.0456
  C  C286  1  0.891600  0.124400  0.032400  1.0  -0.0664
  C  C287  1  0.847700  0.136200  0.964400  1.0  -0.0978
  C  C288  1  0.848000  0.180500  0.927900  1.0  0.6908
  C  C289  1  0.961300  0.665400  0.384800  1.0  0.4219
  C  C290  1  0.983100  0.620200  0.368700  1.0  0.0044
  C  C291  1  0.005800  0.638500  0.343000  1.0  -0.0439
  C  C292  1  0.986300  0.566900  0.381400  1.0  0.0065
  C  C293  1  0.031300  0.604000  0.333000  1.0  -0.1786
  C  C294  1  0.009900  0.526000  0.371600  1.0  -0.1491
  C  C295  1  0.030200  0.545900  0.342200  1.0  -0.0408
  C  C296  1  0.059900  0.511400  0.335300  1.0  0.0115
  C  C297  1  0.079500  0.478000  0.325500  1.0  -0.0264
  C  C298  1  0.103500  0.439600  0.311600  1.0  0.0002
  C  C299  1  0.121800  0.389600  0.344400  1.0  -0.0947
  C  C300  1  0.116900  0.458800  0.273700  1.0  -0.1023
  C  C301  1  0.150500  0.355200  0.336900  1.0  -0.057
  C  C302  1  0.140800  0.422900  0.261600  1.0  -0.0179
  C  C303  1  0.158600  0.374500  0.294400  1.0  -0.122
  C  C304  1  0.185400  0.331400  0.282100  1.0  0.5782
  C  C305  1  0.312400  0.834400  0.884500  1.0  0.7471
  C  C306  1  0.310800  0.879200  0.923100  1.0  -0.1583
  C  C307  1  0.301900  0.149300  0.187900  1.0  -0.1803
  C  C308  1  0.267400  0.885500  0.913300  1.0  -0.0776
  C  C309  1  0.349300  0.916600  0.965500  1.0  -0.0501
  C  C310  1  0.265600  0.925300  0.950400  1.0  -0.1281
  C  C311  1  0.347400  0.957900  0.996500  1.0  -0.1567
  C  C312  1  0.302000  0.963600  0.991200  1.0  -0.0011
  C  C313  1  0.303000  0.004500  0.030200  1.0  0.0707
  C  C314  1  0.300200  0.038400  0.060700  1.0  0.177
  C  C315  1  0.253500  0.091700  0.083300  1.0  -0.1821
  C  C316  1  0.344400  0.097800  0.158000  1.0  -0.1273
  C  C317  1  0.297900  0.077300  0.098400  1.0  0.0483
  C  C318  1  0.256100  0.126800  0.126700  1.0  -0.048
  C  C319  1  0.345000  0.132300  0.202300  1.0  -0.0128
  C  C320  1  0.302200  0.187800  0.234400  1.0  0.6372
  C  C321  1  0.331000  0.668400  0.771300  1.0  0.7564
  C  C322  1  0.336800  0.629700  0.733800  1.0  -0.1479
  C  C323  1  0.292800  0.607500  0.673000  1.0  -0.054
  C  C324  1  0.380600  0.612000  0.752000  1.0  -0.0387
  C  C325  1  0.294800  0.568300  0.632800  1.0  -0.1395
  C  C326  1  0.386100  0.577200  0.719000  1.0  -0.147
  C  C327  1  0.337700  0.560500  0.650000  1.0  0.1109
  C  C328  1  0.348300  0.517500  0.617000  1.0  0.0523
  C  C329  1  0.347000  0.486200  0.580300  1.0  -0.0176
  C  C330  1  0.344900  0.444100  0.539700  1.0  0.1143
  C  C331  1  0.302500  0.431900  0.475000  1.0  -0.1514
  C  C332  1  0.390800  0.416800  0.568400  1.0  -0.1236
  C  C333  1  0.302400  0.390600  0.438000  1.0  -0.0456
  C  C334  1  0.391600  0.375600  0.532400  1.0  -0.0671
  C  C335  1  0.347700  0.363800  0.464400  1.0  -0.098
  C  C336  1  0.348000  0.319500  0.427900  1.0  0.6913
  C  C337  1  0.461300  0.834600  0.884800  1.0  0.4217
  C  C338  1  0.483100  0.879800  0.868700  1.0  0.0039
  C  C339  1  0.505800  0.861500  0.843000  1.0  -0.0454
  C  C340  1  0.486300  0.933100  0.881400  1.0  0.0064
  C  C341  1  0.531300  0.896000  0.833000  1.0  -0.1775
  C  C342  1  0.509900  0.974000  0.871600  1.0  -0.1525
  C  C343  1  0.530200  0.954100  0.842200  1.0  -0.0385
  C  C344  1  0.559900  0.988600  0.835300  1.0  0.012
  C  C345  1  0.579500  0.022000  0.825500  1.0  -0.0262
  C  C346  1  0.603500  0.060400  0.811600  1.0  0.0016
  C  C347  1  0.621800  0.110400  0.844400  1.0  -0.0949
  C  C348  1  0.616900  0.041200  0.773700  1.0  -0.1015
  C  C349  1  0.650500  0.144800  0.836900  1.0  -0.057
  C  C350  1  0.640800  0.077100  0.761600  1.0  -0.0171
  C  C351  1  0.658600  0.125500  0.794400  1.0  -0.1218
  C  C352  1  0.685400  0.168600  0.782100  1.0  0.5795
  C  C353  1  0.812400  0.334400  0.884500  1.0  0.7471
  C  C354  1  0.810800  0.379200  0.923100  1.0  -0.1583
  C  C355  1  0.801900  0.649300  0.187900  1.0  -0.1803
  C  C356  1  0.767400  0.385500  0.913300  1.0  -0.0776
  C  C357  1  0.849300  0.416600  0.965500  1.0  -0.0501
  C  C358  1  0.765600  0.425300  0.950400  1.0  -0.1281
  C  C359  1  0.847400  0.457900  0.996500  1.0  -0.1567
  C  C360  1  0.802000  0.463600  0.991200  1.0  -0.0011
  C  C361  1  0.803000  0.504500  0.030200  1.0  0.0707
  C  C362  1  0.800200  0.538400  0.060700  1.0  0.177
  C  C363  1  0.753500  0.591700  0.083300  1.0  -0.1821
  C  C364  1  0.844400  0.597800  0.158000  1.0  -0.1273
  C  C365  1  0.797900  0.577300  0.098400  1.0  0.0483
  C  C366  1  0.756100  0.626800  0.126700  1.0  -0.048
  C  C367  1  0.845000  0.632300  0.202300  1.0  -0.0128
  C  C368  1  0.802200  0.687800  0.234400  1.0  0.6372
  C  C369  1  0.831000  0.168400  0.771300  1.0  0.7564
  C  C370  1  0.836800  0.129700  0.733800  1.0  -0.1479
  C  C371  1  0.792800  0.107500  0.673000  1.0  -0.054
  C  C372  1  0.880600  0.112000  0.752000  1.0  -0.0387
  C  C373  1  0.794800  0.068300  0.632800  1.0  -0.1395
  C  C374  1  0.886100  0.077200  0.719000  1.0  -0.147
  C  C375  1  0.837700  0.060500  0.650000  1.0  0.1109
  C  C376  1  0.848300  0.017500  0.617000  1.0  0.0523
  C  C377  1  0.847000  0.986200  0.580300  1.0  -0.0176
  C  C378  1  0.844900  0.944100  0.539700  1.0  0.1143
  C  C379  1  0.802500  0.931900  0.475000  1.0  -0.1514
  C  C380  1  0.890800  0.916800  0.568400  1.0  -0.1236
  C  C381  1  0.802400  0.890600  0.438000  1.0  -0.0456
  C  C382  1  0.891600  0.875600  0.532400  1.0  -0.0671
  C  C383  1  0.847700  0.863800  0.464400  1.0  -0.098
  C  C384  1  0.848000  0.819500  0.427900  1.0  0.6913
  C  C385  1  0.961300  0.334600  0.884800  1.0  0.4217
  C  C386  1  0.983100  0.379800  0.868700  1.0  0.0039
  C  C387  1  0.005800  0.361500  0.843000  1.0  -0.0454
  C  C388  1  0.986300  0.433100  0.881400  1.0  0.0064
  C  C389  1  0.031300  0.396000  0.833000  1.0  -0.1775
  C  C390  1  0.009900  0.474000  0.871600  1.0  -0.1525
  C  C391  1  0.030200  0.454100  0.842200  1.0  -0.0385
  C  C392  1  0.059900  0.488600  0.835300  1.0  0.012
  C  C393  1  0.079500  0.522000  0.825500  1.0  -0.0262
  C  C394  1  0.103500  0.560400  0.811600  1.0  0.0016
  C  C395  1  0.121800  0.610400  0.844400  1.0  -0.0949
  C  C396  1  0.116900  0.541200  0.773700  1.0  -0.1015
  C  C397  1  0.150500  0.644800  0.836900  1.0  -0.057
  C  C398  1  0.140800  0.577100  0.761600  1.0  -0.0171
  C  C399  1  0.158600  0.625500  0.794400  1.0  -0.1218
  C  C400  1  0.185400  0.668600  0.782100  1.0  0.5795
  C  C401  1  0.687600  0.165600  0.115500  1.0  0.7472
  C  C402  1  0.689200  0.120800  0.076900  1.0  -0.1575
  C  C403  1  0.698100  0.850700  0.812100  1.0  -0.1815
  C  C404  1  0.732600  0.114500  0.086700  1.0  -0.0785
  C  C405  1  0.650700  0.083400  0.034500  1.0  -0.0494
  C  C406  1  0.734400  0.074700  0.049600  1.0  -0.1286
  C  C407  1  0.652600  0.042100  0.003500  1.0  -0.1564
  C  C408  1  0.698000  0.036400  0.008800  1.0  -0.0005
  C  C409  1  0.697000  0.995500  0.969800  1.0  0.0709
  C  C410  1  0.699800  0.961600  0.939300  1.0  0.177
  C  C411  1  0.746500  0.908300  0.916700  1.0  -0.1804
  C  C412  1  0.655600  0.902200  0.842000  1.0  -0.1274
  C  C413  1  0.702100  0.922700  0.901600  1.0  0.0434
  C  C414  1  0.743900  0.873200  0.873300  1.0  -0.0495
  C  C415  1  0.655000  0.867700  0.797700  1.0  -0.014
  C  C416  1  0.697800  0.812200  0.765600  1.0  0.6386
  C  C417  1  0.669000  0.331600  0.228700  1.0  0.7575
  C  C418  1  0.663200  0.370300  0.266200  1.0  -0.147
  C  C419  1  0.707200  0.392500  0.327000  1.0  -0.055
  C  C420  1  0.619400  0.388000  0.248000  1.0  -0.0376
  C  C421  1  0.705200  0.431700  0.367200  1.0  -0.1382
  C  C422  1  0.613900  0.422800  0.281000  1.0  -0.147
  C  C423  1  0.662300  0.439500  0.350000  1.0  0.1147
  C  C424  1  0.651700  0.482500  0.383000  1.0  0.056
  C  C425  1  0.653000  0.513800  0.419700  1.0  -0.0193
  C  C426  1  0.655100  0.555900  0.460300  1.0  0.1148
  C  C427  1  0.697500  0.568100  0.525000  1.0  -0.1515
  C  C428  1  0.609200  0.583200  0.431600  1.0  -0.1268
  C  C429  1  0.697600  0.609400  0.562000  1.0  -0.0452
  C  C430  1  0.608400  0.624400  0.467600  1.0  -0.0674
  C  C431  1  0.652300  0.636200  0.535600  1.0  -0.0971
  C  C432  1  0.652000  0.680500  0.572100  1.0  0.6899
  C  C433  1  0.538700  0.165400  0.115200  1.0  0.422
  C  C434  1  0.516900  0.120200  0.131300  1.0  0.0061
  C  C435  1  0.494200  0.138500  0.157000  1.0  -0.0426
  C  C436  1  0.513700  0.066900  0.118600  1.0  0.0076
  C  C437  1  0.468700  0.104000  0.167000  1.0  -0.1778
  C  C438  1  0.490100  0.026000  0.128400  1.0  -0.1493
  C  C439  1  0.469800  0.045900  0.157800  1.0  -0.0418
  C  C440  1  0.440100  0.011400  0.164700  1.0  0.0115
  C  C441  1  0.420500  0.978000  0.174500  1.0  -0.0251
  C  C442  1  0.396500  0.939600  0.188400  1.0  -0.0009
  C  C443  1  0.378200  0.889600  0.155600  1.0  -0.0968
  C  C444  1  0.383100  0.958800  0.226300  1.0  -0.1015
  C  C445  1  0.349500  0.855200  0.163100  1.0  -0.0566
  C  C446  1  0.359200  0.922900  0.238400  1.0  -0.0225
  C  C447  1  0.341400  0.874500  0.205600  1.0  -0.1236
  C  C448  1  0.314600  0.831400  0.217900  1.0  0.5803
  C  C449  1  0.187600  0.665600  0.115500  1.0  0.7472
  C  C450  1  0.189200  0.620800  0.076900  1.0  -0.1575
  C  C451  1  0.198100  0.350700  0.812100  1.0  -0.1815
  C  C452  1  0.232600  0.614500  0.086700  1.0  -0.0785
  C  C453  1  0.150700  0.583400  0.034500  1.0  -0.0494
  C  C454  1  0.234400  0.574700  0.049600  1.0  -0.1286
  C  C455  1  0.152600  0.542100  0.003500  1.0  -0.1564
  C  C456  1  0.198000  0.536400  0.008800  1.0  -0.0005
  C  C457  1  0.197000  0.495500  0.969800  1.0  0.0709
  C  C458  1  0.199800  0.461600  0.939300  1.0  0.177
  C  C459  1  0.246500  0.408300  0.916700  1.0  -0.1804
  C  C460  1  0.155600  0.402200  0.842000  1.0  -0.1274
  C  C461  1  0.202100  0.422700  0.901600  1.0  0.0434
  C  C462  1  0.243900  0.373200  0.873300  1.0  -0.0495
  C  C463  1  0.155000  0.367700  0.797700  1.0  -0.014
  C  C464  1  0.197800  0.312200  0.765600  1.0  0.6386
  C  C465  1  0.169000  0.831600  0.228700  1.0  0.7575
  C  C466  1  0.163200  0.870300  0.266200  1.0  -0.147
  C  C467  1  0.207200  0.892500  0.327000  1.0  -0.055
  C  C468  1  0.119400  0.888000  0.248000  1.0  -0.0376
  C  C469  1  0.205200  0.931700  0.367200  1.0  -0.1382
  C  C470  1  0.113900  0.922800  0.281000  1.0  -0.147
  C  C471  1  0.162300  0.939500  0.350000  1.0  0.1147
  C  C472  1  0.151700  0.982500  0.383000  1.0  0.056
  C  C473  1  0.153000  0.013800  0.419700  1.0  -0.0193
  C  C474  1  0.155100  0.055900  0.460300  1.0  0.1148
  C  C475  1  0.197500  0.068100  0.525000  1.0  -0.1515
  C  C476  1  0.109200  0.083200  0.431600  1.0  -0.1268
  C  C477  1  0.197600  0.109400  0.562000  1.0  -0.0452
  C  C478  1  0.108400  0.124400  0.467600  1.0  -0.0674
  C  C479  1  0.152300  0.136200  0.535600  1.0  -0.0971
  C  C480  1  0.152000  0.180500  0.572100  1.0  0.6899
  C  C481  1  0.038700  0.665400  0.115200  1.0  0.422
  C  C482  1  0.016900  0.620200  0.131300  1.0  0.0061
  C  C483  1  0.994200  0.638500  0.157000  1.0  -0.0426
  C  C484  1  0.013700  0.566900  0.118600  1.0  0.0076
  C  C485  1  0.968700  0.604000  0.167000  1.0  -0.1778
  C  C486  1  0.990100  0.526000  0.128400  1.0  -0.1493
  C  C487  1  0.969800  0.545900  0.157800  1.0  -0.0418
  C  C488  1  0.940100  0.511400  0.164700  1.0  0.0115
  C  C489  1  0.920500  0.478000  0.174500  1.0  -0.0251
  C  C490  1  0.896500  0.439600  0.188400  1.0  -0.0009
  C  C491  1  0.878200  0.389600  0.155600  1.0  -0.0968
  C  C492  1  0.883100  0.458800  0.226300  1.0  -0.1015
  C  C493  1  0.849500  0.355200  0.163100  1.0  -0.0566
  C  C494  1  0.859200  0.422900  0.238400  1.0  -0.0225
  C  C495  1  0.841400  0.374500  0.205600  1.0  -0.1236
  C  C496  1  0.814600  0.331400  0.217900  1.0  0.5803
  C  C497  1  0.687600  0.834400  0.615500  1.0  0.7465
  C  C498  1  0.689200  0.879200  0.576900  1.0  -0.1574
  C  C499  1  0.698100  0.149300  0.312100  1.0  -0.1806
  C  C500  1  0.732600  0.885500  0.586700  1.0  -0.0783
  C  C501  1  0.650700  0.916600  0.534500  1.0  -0.0491
  C  C502  1  0.734400  0.925300  0.549600  1.0  -0.1294
  C  C503  1  0.652600  0.957900  0.503500  1.0  -0.1571
  C  C504  1  0.698000  0.963600  0.508800  1.0  -0.0004
  C  C505  1  0.697000  0.004500  0.469800  1.0  0.0708
  C  C506  1  0.699800  0.038400  0.439300  1.0  0.1776
  C  C507  1  0.746500  0.091700  0.416700  1.0  -0.1809
  C  C508  1  0.655600  0.097800  0.342000  1.0  -0.1284
  C  C509  1  0.702100  0.077300  0.401600  1.0  0.045
  C  C510  1  0.743900  0.126800  0.373300  1.0  -0.0489
  C  C511  1  0.655000  0.132300  0.297700  1.0  -0.0144
  C  C512  1  0.697800  0.187800  0.265600  1.0  0.6389
  C  C513  1  0.669000  0.668400  0.728700  1.0  0.7565
  C  C514  1  0.663200  0.629700  0.766200  1.0  -0.1471
  C  C515  1  0.707200  0.607500  0.827000  1.0  -0.0548
  C  C516  1  0.619400  0.612000  0.748000  1.0  -0.0379
  C  C517  1  0.705200  0.568300  0.867200  1.0  -0.1383
  C  C518  1  0.613900  0.577200  0.781000  1.0  -0.1469
  C  C519  1  0.662300  0.560500  0.850000  1.0  0.115
  C  C520  1  0.651700  0.517500  0.883000  1.0  0.0557
  C  C521  1  0.653000  0.486200  0.919700  1.0  -0.0187
  C  C522  1  0.655100  0.444100  0.960300  1.0  0.1162
  C  C523  1  0.697500  0.431900  0.025000  1.0  -0.1509
  C  C524  1  0.609200  0.416800  0.931600  1.0  -0.1269
  C  C525  1  0.697600  0.390600  0.062000  1.0  -0.0454
  C  C526  1  0.608400  0.375600  0.967600  1.0  -0.0672
  C  C527  1  0.652300  0.363800  0.035600  1.0  -0.0971
  C  C528  1  0.652000  0.319500  0.072100  1.0  0.6906
  C  C529  1  0.538700  0.834600  0.615200  1.0  0.4208
  C  C530  1  0.516900  0.879800  0.631300  1.0  0.0037
  C  C531  1  0.494200  0.861500  0.657000  1.0  -0.045
  C  C532  1  0.513700  0.933100  0.618600  1.0  0.0063
  C  C533  1  0.468700  0.896000  0.667000  1.0  -0.1775
  C  C534  1  0.490100  0.974000  0.628400  1.0  -0.1512
  C  C535  1  0.469800  0.954100  0.657800  1.0  -0.0394
  C  C536  1  0.440100  0.988600  0.664700  1.0  0.012
  C  C537  1  0.420500  0.022000  0.674500  1.0  -0.0247
  C  C538  1  0.396500  0.060400  0.688400  1.0  -1e-04
  C  C539  1  0.378200  0.110400  0.655600  1.0  -0.0979
  C  C540  1  0.383100  0.041200  0.726300  1.0  -0.1017
  C  C541  1  0.349500  0.144800  0.663100  1.0  -0.0592
  C  C542  1  0.359200  0.077100  0.738400  1.0  -0.0222
  C  C543  1  0.341400  0.125500  0.705600  1.0  -0.1238
  C  C544  1  0.314600  0.168600  0.717900  1.0  0.5798
  C  C545  1  0.187600  0.334400  0.615500  1.0  0.7465
  C  C546  1  0.189200  0.379200  0.576900  1.0  -0.1574
  C  C547  1  0.198100  0.649300  0.312100  1.0  -0.1806
  C  C548  1  0.232600  0.385500  0.586700  1.0  -0.0783
  C  C549  1  0.150700  0.416600  0.534500  1.0  -0.0491
  C  C550  1  0.234400  0.425300  0.549600  1.0  -0.1294
  C  C551  1  0.152600  0.457900  0.503500  1.0  -0.1571
  C  C552  1  0.198000  0.463600  0.508800  1.0  -0.0004
  C  C553  1  0.197000  0.504500  0.469800  1.0  0.0708
  C  C554  1  0.199800  0.538400  0.439300  1.0  0.1776
  C  C555  1  0.246500  0.591700  0.416700  1.0  -0.1809
  C  C556  1  0.155600  0.597800  0.342000  1.0  -0.1284
  C  C557  1  0.202100  0.577300  0.401600  1.0  0.045
  C  C558  1  0.243900  0.626800  0.373300  1.0  -0.0489
  C  C559  1  0.155000  0.632300  0.297700  1.0  -0.0144
  C  C560  1  0.197800  0.687800  0.265600  1.0  0.6389
  C  C561  1  0.169000  0.168400  0.728700  1.0  0.7565
  C  C562  1  0.163200  0.129700  0.766200  1.0  -0.1471
  C  C563  1  0.207200  0.107500  0.827000  1.0  -0.0548
  C  C564  1  0.119400  0.112000  0.748000  1.0  -0.0379
  C  C565  1  0.205200  0.068300  0.867200  1.0  -0.1383
  C  C566  1  0.113900  0.077200  0.781000  1.0  -0.1469
  C  C567  1  0.162300  0.060500  0.850000  1.0  0.115
  C  C568  1  0.151700  0.017500  0.883000  1.0  0.0557
  C  C569  1  0.153000  0.986200  0.919700  1.0  -0.0187
  C  C570  1  0.155100  0.944100  0.960300  1.0  0.1162
  C  C571  1  0.197500  0.931900  0.025000  1.0  -0.1509
  C  C572  1  0.109200  0.916800  0.931600  1.0  -0.1269
  C  C573  1  0.197600  0.890600  0.062000  1.0  -0.0454
  C  C574  1  0.108400  0.875600  0.967600  1.0  -0.0672
  C  C575  1  0.152300  0.863800  0.035600  1.0  -0.0971
  C  C576  1  0.152000  0.819500  0.072100  1.0  0.6906
  C  C577  1  0.038700  0.334600  0.615200  1.0  0.4208
  C  C578  1  0.016900  0.379800  0.631300  1.0  0.0037
  C  C579  1  0.994200  0.361500  0.657000  1.0  -0.045
  C  C580  1  0.013700  0.433100  0.618600  1.0  0.0063
  C  C581  1  0.968700  0.396000  0.667000  1.0  -0.1775
  C  C582  1  0.990100  0.474000  0.628400  1.0  -0.1512
  C  C583  1  0.969800  0.454100  0.657800  1.0  -0.0394
  C  C584  1  0.940100  0.488600  0.664700  1.0  0.012
  C  C585  1  0.920500  0.522000  0.674500  1.0  -0.0247
  C  C586  1  0.896500  0.560400  0.688400  1.0  -1e-04
  C  C587  1  0.878200  0.610400  0.655600  1.0  -0.0979
  C  C588  1  0.883100  0.541200  0.726300  1.0  -0.1017
  C  C589  1  0.849500  0.644800  0.663100  1.0  -0.0592
  C  C590  1  0.859200  0.577100  0.738400  1.0  -0.0222
  C  C591  1  0.841400  0.625500  0.705600  1.0  -0.1238
  C  C592  1  0.814600  0.668600  0.717900  1.0  0.5798
  O  O593  1  0.357200  0.176900  0.409200  1.0  -0.752
  O  O594  1  0.272800  0.191700  0.340200  1.0  -0.7378
  O  O595  1  0.343200  0.797500  0.785900  1.0  -0.6461
  O  O596  1  0.255100  0.800800  0.714400  1.0  -0.6316
  O  O597  1  0.372800  0.310300  0.327000  1.0  -0.7534
  O  O598  1  0.285800  0.318600  0.245000  1.0  -0.7128
  O  O599  1  0.386300  0.704300  0.951300  1.0  -0.6075
  O  O600  1  0.303200  0.695500  0.866800  1.0  -0.7003
  O  O601  1  0.440900  0.143800  0.406600  1.0  -0.742
  O  O602  1  0.453000  0.210800  0.367000  1.0  -0.5942
  O  O603  1  0.696700  0.850600  0.248800  1.0  -0.6887
  O  O604  1  0.699100  0.784000  0.312500  1.0  -0.6253
  O  O605  1  0.857200  0.676900  0.409200  1.0  -0.752
  O  O606  1  0.772800  0.691700  0.340200  1.0  -0.7378
  O  O607  1  0.843200  0.297500  0.785900  1.0  -0.6461
  O  O608  1  0.755100  0.300800  0.714400  1.0  -0.6316
  O  O609  1  0.872800  0.810300  0.327000  1.0  -0.7534
  O  O610  1  0.785800  0.818600  0.245000  1.0  -0.7128
  O  O611  1  0.886300  0.204300  0.951300  1.0  -0.6075
  O  O612  1  0.803200  0.195500  0.866800  1.0  -0.7003
  O  O613  1  0.940900  0.643800  0.406600  1.0  -0.742
  O  O614  1  0.953000  0.710800  0.367000  1.0  -0.5942
  O  O615  1  0.196700  0.350600  0.248800  1.0  -0.6887
  O  O616  1  0.199100  0.284000  0.312500  1.0  -0.6253
  O  O617  1  0.357200  0.823100  0.909200  1.0  -0.7519
  O  O618  1  0.272800  0.808300  0.840200  1.0  -0.7384
  O  O619  1  0.343200  0.202500  0.285900  1.0  -0.6462
  O  O620  1  0.255100  0.199200  0.214400  1.0  -0.6306
  O  O621  1  0.372800  0.689700  0.827000  1.0  -0.7546
  O  O622  1  0.285800  0.681400  0.745000  1.0  -0.7127
  O  O623  1  0.386300  0.295700  0.451300  1.0  -0.6073
  O  O624  1  0.303200  0.304500  0.366800  1.0  -0.7008
  O  O625  1  0.440900  0.856200  0.906600  1.0  -0.7419
  O  O626  1  0.453000  0.789200  0.867000  1.0  -0.5938
  O  O627  1  0.696700  0.149400  0.748800  1.0  -0.6891
  O  O628  1  0.699100  0.216000  0.812500  1.0  -0.6283
  O  O629  1  0.857200  0.323100  0.909200  1.0  -0.7519
  O  O630  1  0.772800  0.308300  0.840200  1.0  -0.7384
  O  O631  1  0.843200  0.702500  0.285900  1.0  -0.6462
  O  O632  1  0.755100  0.699200  0.214400  1.0  -0.6306
  O  O633  1  0.872800  0.189700  0.827000  1.0  -0.7546
  O  O634  1  0.785800  0.181400  0.745000  1.0  -0.7127
  O  O635  1  0.886300  0.795700  0.451300  1.0  -0.6073
  O  O636  1  0.803200  0.804500  0.366800  1.0  -0.7008
  O  O637  1  0.940900  0.356200  0.906600  1.0  -0.7419
  O  O638  1  0.953000  0.289200  0.867000  1.0  -0.5938
  O  O639  1  0.196700  0.649400  0.748800  1.0  -0.6891
  O  O640  1  0.199100  0.716000  0.812500  1.0  -0.6283
  O  O641  1  0.642800  0.176900  0.090800  1.0  -0.7521
  O  O642  1  0.727200  0.191700  0.159800  1.0  -0.7346
  O  O643  1  0.656800  0.797500  0.714100  1.0  -0.6464
  O  O644  1  0.744900  0.800800  0.785600  1.0  -0.6287
  O  O645  1  0.627200  0.310300  0.173000  1.0  -0.7545
  O  O646  1  0.714200  0.318600  0.255000  1.0  -0.7113
  O  O647  1  0.613700  0.704300  0.548700  1.0  -0.6107
  O  O648  1  0.696800  0.695500  0.633200  1.0  -0.6982
  O  O649  1  0.559100  0.143800  0.093400  1.0  -0.7416
  O  O650  1  0.547000  0.210800  0.133000  1.0  -0.597
  O  O651  1  0.303300  0.850600  0.251200  1.0  -0.6887
  O  O652  1  0.300900  0.784000  0.187500  1.0  -0.6239
  O  O653  1  0.142800  0.676900  0.090800  1.0  -0.7521
  O  O654  1  0.227200  0.691700  0.159800  1.0  -0.7346
  O  O655  1  0.156800  0.297500  0.714100  1.0  -0.6464
  O  O656  1  0.244900  0.300800  0.785600  1.0  -0.6287
  O  O657  1  0.127200  0.810300  0.173000  1.0  -0.7545
  O  O658  1  0.214200  0.818600  0.255000  1.0  -0.7113
  O  O659  1  0.113700  0.204300  0.548700  1.0  -0.6107
  O  O660  1  0.196800  0.195500  0.633200  1.0  -0.6982
  O  O661  1  0.059100  0.643800  0.093400  1.0  -0.7416
  O  O662  1  0.047000  0.710800  0.133000  1.0  -0.597
  O  O663  1  0.803300  0.350600  0.251200  1.0  -0.6887
  O  O664  1  0.800900  0.284000  0.187500  1.0  -0.6239
  O  O665  1  0.642800  0.823100  0.590800  1.0  -0.7526
  O  O666  1  0.727200  0.808300  0.659800  1.0  -0.7351
  O  O667  1  0.656800  0.202500  0.214100  1.0  -0.6464
  O  O668  1  0.744900  0.199200  0.285600  1.0  -0.628
  O  O669  1  0.627200  0.689700  0.673000  1.0  -0.7547
  O  O670  1  0.714200  0.681400  0.755000  1.0  -0.7115
  O  O671  1  0.613700  0.295700  0.048700  1.0  -0.6108
  O  O672  1  0.696800  0.304500  0.133200  1.0  -0.6988
  O  O673  1  0.559100  0.856200  0.593400  1.0  -0.742
  O  O674  1  0.547000  0.789200  0.633000  1.0  -0.5938
  O  O675  1  0.303300  0.149400  0.751200  1.0  -0.6889
  O  O676  1  0.300900  0.216000  0.687500  1.0  -0.625
  O  O677  1  0.142800  0.323100  0.590800  1.0  -0.7526
  O  O678  1  0.227200  0.308300  0.659800  1.0  -0.7351
  O  O679  1  0.156800  0.702500  0.214100  1.0  -0.6464
  O  O680  1  0.244900  0.699200  0.285600  1.0  -0.628
  O  O681  1  0.127200  0.189700  0.673000  1.0  -0.7547
  O  O682  1  0.214200  0.181400  0.755000  1.0  -0.7115
  O  O683  1  0.113700  0.795700  0.048700  1.0  -0.6108
  O  O684  1  0.196800  0.804500  0.133200  1.0  -0.6988
  O  O685  1  0.059100  0.356200  0.593400  1.0  -0.742
  O  O686  1  0.047000  0.289200  0.633000  1.0  -0.5938
  O  O687  1  0.803300  0.649400  0.751200  1.0  -0.6889
  O  O688  1  0.800900  0.716000  0.687500  1.0  -0.625
