# generated using pymatgen
data_AgH34(C19N2)2
_symmetry_space_group_name_H-M   'P 1'
_cell_length_a   13.58350000
_cell_length_b   13.58350000
_cell_length_c   16.50100000
_cell_angle_alpha   119.80210000
_cell_angle_beta   119.80210000
_cell_angle_gamma   77.62200000
_symmetry_Int_Tables_number   1
_chemical_formula_structural   AgH34(C19N2)2
_chemical_formula_sum   'Ag2 H68 C76 N8'
_cell_volume   2290.40009252
_cell_formula_units_Z   2
loop_
 _symmetry_equiv_pos_site_id
 _symmetry_equiv_pos_as_xyz
  1  'x, y, z'
loop_
 _atom_site_type_symbol
 _atom_site_label
 _atom_site_symmetry_multiplicity
 _atom_site_fract_x
 _atom_site_fract_y
 _atom_site_fract_z
 _atom_site_occupancy
 _atom_site_charge
  Ag  Ag1  1  0.069000  0.931000  0.750000  1.0  0.3155
  Ag  Ag2  1  0.931000  0.069000  0.250000  1.0  0.315
  H  H3  1  0.967800  0.169200  0.865500  1.0  0.0712
  H  H4  1  0.005500  0.366300  0.957800  1.0  0.1008
  H  H5  1  0.274200  0.112400  0.893000  1.0  0.0799
  H  H6  1  0.320500  0.305100  0.986700  1.0  0.1139
  H  H7  1  0.114200  0.391400  0.827900  1.0  0.116
  H  H8  1  0.128000  0.500800  0.821200  1.0  0.116
  H  H9  1  0.018600  0.483800  0.826400  1.0  0.1192
  H  H10  1  0.223700  0.426700  0.175700  1.0  0.1279
  H  H11  1  0.303000  0.534000  0.278400  1.0  0.1099
  H  H12  1  0.353500  0.436500  0.204000  1.0  0.1428
  H  H13  1  0.305800  0.872400  0.256100  1.0  0.1003
  H  H14  1  0.211100  0.876900  0.150000  1.0  0.1167
  H  H15  1  0.338100  0.846500  0.166600  1.0  0.1176
  H  H16  1  0.994500  0.730700  0.917200  1.0  0.1108
  H  H17  1  0.956800  0.830200  0.823400  1.0  0.0796
  H  H18  1  0.315900  0.707100  0.964600  1.0  0.1232
  H  H19  1  0.268200  0.797800  0.863200  1.0  0.0813
  H  H20  1  0.830800  0.032200  0.634500  1.0  0.0732
  H  H21  1  0.633700  0.994500  0.542200  1.0  0.1013
  H  H22  1  0.887600  0.725800  0.607000  1.0  0.0804
  H  H23  1  0.694900  0.679500  0.513300  1.0  0.1143
  H  H24  1  0.608600  0.885800  0.672100  1.0  0.1078
  H  H25  1  0.499200  0.872000  0.678800  1.0  0.1174
  H  H26  1  0.516200  0.981400  0.673600  1.0  0.1219
  H  H27  1  0.573300  0.776300  0.324300  1.0  0.127
  H  H28  1  0.466000  0.697000  0.221600  1.0  0.1123
  H  H29  1  0.563500  0.646500  0.296000  1.0  0.1375
  H  H30  1  0.127600  0.694200  0.243900  1.0  0.101
  H  H31  1  0.123100  0.788900  0.350000  1.0  0.1175
  H  H32  1  0.153500  0.661900  0.333400  1.0  0.1176
  H  H33  1  0.269300  0.005500  0.582800  1.0  0.1111
  H  H34  1  0.169800  0.043200  0.676600  1.0  0.082
  H  H35  1  0.292900  0.684100  0.535400  1.0  0.1227
  H  H36  1  0.202200  0.731800  0.636800  1.0  0.0819
  H  H37  1  0.032200  0.830800  0.134500  1.0  0.0719
  H  H38  1  0.994500  0.633700  0.042200  1.0  0.1015
  H  H39  1  0.725800  0.887600  0.107000  1.0  0.0802
  H  H40  1  0.679500  0.694900  0.013300  1.0  0.1147
  H  H41  1  0.885800  0.608600  0.172100  1.0  0.114
  H  H42  1  0.872000  0.499200  0.178800  1.0  0.1171
  H  H43  1  0.981400  0.516200  0.173600  1.0  0.1195
  H  H44  1  0.776300  0.573300  0.824300  1.0  0.1249
  H  H45  1  0.697000  0.466000  0.721600  1.0  0.1087
  H  H46  1  0.646500  0.563500  0.796000  1.0  0.1406
  H  H47  1  0.694200  0.127600  0.743900  1.0  0.1009
  H  H48  1  0.788900  0.123100  0.850000  1.0  0.117
  H  H49  1  0.661900  0.153500  0.833400  1.0  0.1169
  H  H50  1  0.005500  0.269300  0.082800  1.0  0.1125
  H  H51  1  0.043200  0.169800  0.176600  1.0  0.0796
  H  H52  1  0.684100  0.292900  0.035400  1.0  0.1233
  H  H53  1  0.731800  0.202200  0.136800  1.0  0.0816
  H  H54  1  0.169200  0.967800  0.365500  1.0  0.0734
  H  H55  1  0.366300  0.005500  0.457800  1.0  0.1015
  H  H56  1  0.112400  0.274200  0.393000  1.0  0.0803
  H  H57  1  0.305100  0.320500  0.486700  1.0  0.1145
  H  H58  1  0.391400  0.114200  0.327900  1.0  0.1106
  H  H59  1  0.500800  0.128000  0.321200  1.0  0.1159
  H  H60  1  0.483800  0.018600  0.326400  1.0  0.1203
  H  H61  1  0.426700  0.223700  0.675700  1.0  0.1282
  H  H62  1  0.534000  0.303000  0.778400  1.0  0.1097
  H  H63  1  0.436500  0.353500  0.704000  1.0  0.1378
  H  H64  1  0.872400  0.305800  0.756100  1.0  0.1007
  H  H65  1  0.876900  0.211100  0.650000  1.0  0.1165
  H  H66  1  0.846500  0.338100  0.666667  1.0  0.1163
  H  H67  1  0.730700  0.994500  0.417200  1.0  0.1107
  H  H68  1  0.830200  0.956800  0.323400  1.0  0.0823
  H  H69  1  0.707100  0.315900  0.464600  1.0  0.1236
  H  H70  1  0.797800  0.268200  0.363200  1.0  0.0808
  C  C71  1  0.040300  0.196900  0.888500  1.0  0.1649
  C  C72  1  0.062000  0.316000  0.944300  1.0  -0.2225
  C  C73  1  0.217800  0.164200  0.904800  1.0  0.1337
  C  C74  1  0.245800  0.279800  0.960600  1.0  -0.1984
  C  C75  1  0.166800  0.357200  0.978300  1.0  0.0437
  C  C76  1  0.193200  0.482600  0.032000  1.0  -0.0433
  C  C77  1  0.162700  0.537300  0.970900  1.0  0.0844
  C  C78  1  0.190300  0.652700  0.020100  1.0  -0.0794
  C  C79  1  0.248200  0.714000  0.130000  1.0  0.0504
  C  C80  1  0.278400  0.658600  0.191200  1.0  -0.0857
  C  C81  1  0.251100  0.542100  0.141300  1.0  0.0495
  C  C82  1  0.100300  0.472500  0.850800  1.0  -0.3907
  C  C83  1  0.285900  0.479300  0.205500  1.0  -0.386
  C  C84  1  0.278500  0.838300  0.180100  1.0  -0.3844
  C  C85  1  0.160500  0.712900  0.955000  1.0  0.1007
  C  C86  1  0.053500  0.746300  0.909600  1.0  -0.1765
  C  C87  1  0.030700  0.803500  0.851600  1.0  0.1289
  C  C88  1  0.240800  0.731400  0.936300  1.0  -0.2327
  C  C89  1  0.211800  0.785800  0.875800  1.0  0.1452
  C  C90  1  0.803100  0.959700  0.611500  1.0  0.1633
  C  C91  1  0.684000  0.938000  0.555700  1.0  -0.2234
  C  C92  1  0.835800  0.782200  0.595200  1.0  0.1347
  C  C93  1  0.720200  0.754200  0.539400  1.0  -0.1971
  C  C94  1  0.642800  0.833200  0.521700  1.0  0.042
  C  C95  1  0.517400  0.806800  0.468000  1.0  -0.0434
  C  C96  1  0.462700  0.837300  0.529100  1.0  0.0859
  C  C97  1  0.347300  0.809700  0.479900  1.0  -0.0798
  C  C98  1  0.286000  0.751800  0.370000  1.0  0.0497
  C  C99  1  0.341400  0.721600  0.308800  1.0  -0.0849
  C  C100  1  0.457900  0.748900  0.358700  1.0  0.0487
  C  C101  1  0.527500  0.899700  0.649200  1.0  -0.3895
  C  C102  1  0.520700  0.714100  0.294500  1.0  -0.3855
  C  C103  1  0.161700  0.721500  0.319900  1.0  -0.387
  C  C104  1  0.287100  0.839500  0.545000  1.0  0.1032
  C  C105  1  0.253700  0.946500  0.590400  1.0  -0.1776
  C  C106  1  0.196500  0.969300  0.648400  1.0  0.1267
  C  C107  1  0.268600  0.759200  0.563700  1.0  -0.2321
  C  C108  1  0.214200  0.788200  0.624200  1.0  0.1428
  C  C109  1  0.959700  0.803100  0.111500  1.0  0.1617
  C  C110  1  0.938000  0.684000  0.055700  1.0  -0.2242
  C  C111  1  0.782200  0.835800  0.095200  1.0  0.1348
  C  C112  1  0.754200  0.720200  0.039400  1.0  -0.1975
  C  C113  1  0.833200  0.642800  0.021700  1.0  0.0442
  C  C114  1  0.806800  0.517400  0.968000  1.0  -0.0418
  C  C115  1  0.837300  0.462700  0.029100  1.0  0.0848
  C  C116  1  0.809700  0.347300  0.979900  1.0  -0.0805
  C  C117  1  0.751800  0.286000  0.870000  1.0  0.0494
  C  C118  1  0.721600  0.341400  0.808800  1.0  -0.0856
  C  C119  1  0.748900  0.457900  0.858700  1.0  0.0484
  C  C120  1  0.899700  0.527500  0.149200  1.0  -0.3907
  C  C121  1  0.714100  0.520700  0.794500  1.0  -0.3861
  C  C122  1  0.721500  0.161700  0.819900  1.0  -0.3843
  C  C123  1  0.839500  0.287100  0.045000  1.0  0.1022
  C  C124  1  0.946500  0.253700  0.090400  1.0  -0.1762
  C  C125  1  0.969300  0.196500  0.148400  1.0  0.1295
  C  C126  1  0.759200  0.268600  0.063700  1.0  -0.2326
  C  C127  1  0.788200  0.214200  0.124200  1.0  0.1459
  C  C128  1  0.196900  0.040300  0.388500  1.0  0.1613
  C  C129  1  0.316000  0.062000  0.444300  1.0  -0.2248
  C  C130  1  0.164200  0.217800  0.404800  1.0  0.1349
  C  C131  1  0.279800  0.245800  0.460600  1.0  -0.197
  C  C132  1  0.357200  0.166800  0.478300  1.0  0.0415
  C  C133  1  0.482600  0.193200  0.532000  1.0  -0.0448
  C  C134  1  0.537300  0.162700  0.470900  1.0  0.0856
  C  C135  1  0.652700  0.190300  0.520100  1.0  -0.0785
  C  C136  1  0.714000  0.248200  0.630000  1.0  0.0499
  C  C137  1  0.658600  0.278400  0.691200  1.0  -0.085
  C  C138  1  0.542100  0.251100  0.641300  1.0  0.0485
  C  C139  1  0.472500  0.100300  0.350800  1.0  -0.3895
  C  C140  1  0.479300  0.285900  0.705500  1.0  -0.3866
  C  C141  1  0.838300  0.278500  0.680100  1.0  -0.3838
  C  C142  1  0.712900  0.160500  0.455000  1.0  0.1019
  C  C143  1  0.746300  0.053500  0.409600  1.0  -0.1757
  C  C144  1  0.803500  0.030700  0.351600  1.0  0.1266
  C  C145  1  0.731400  0.240800  0.436300  1.0  -0.2313
  C  C146  1  0.785800  0.211800  0.375800  1.0  0.1416
  N  N147  1  0.113700  0.122700  0.866700  1.0  -0.3459
  N  N148  1  0.109500  0.821700  0.834900  1.0  -0.3396
  N  N149  1  0.877300  0.886300  0.633300  1.0  -0.3491
  N  N150  1  0.178300  0.890500  0.665100  1.0  -0.3326
  N  N151  1  0.886300  0.877300  0.133300  1.0  -0.3442
  N  N152  1  0.890500  0.178300  0.165100  1.0  -0.3354
  N  N153  1  0.122700  0.113700  0.366700  1.0  -0.3457
  N  N154  1  0.821700  0.109500  0.334900  1.0  -0.3346
