# generated using pymatgen
data_TbH9C21NO8
_symmetry_space_group_name_H-M   'P 1'
_cell_length_a   19.60840000
_cell_length_b   11.90160000
_cell_length_c   21.93640000
_cell_angle_alpha   90.00000000
_cell_angle_beta   97.18600000
_cell_angle_gamma   90.00000000
_symmetry_Int_Tables_number   1
_chemical_formula_structural   TbH9C21NO8
_chemical_formula_sum   'Tb8 H72 C168 N8 O64'
_cell_volume   5079.11612321
_cell_formula_units_Z   8
loop_
 _symmetry_equiv_pos_site_id
 _symmetry_equiv_pos_as_xyz
  1  'x, y, z'
loop_
 _atom_site_type_symbol
 _atom_site_label
 _atom_site_symmetry_multiplicity
 _atom_site_fract_x
 _atom_site_fract_y
 _atom_site_fract_z
 _atom_site_occupancy
 _atom_site_charge
  Tb  Tb1  1  0.830760  0.330840  0.474260  1.0  2.268
  Tb  Tb2  1  0.330760  0.830840  0.474260  1.0  2.268
  Tb  Tb3  1  0.169240  0.330840  0.025740  1.0  2.2683
  Tb  Tb4  1  0.669240  0.830840  0.025740  1.0  2.2683
  Tb  Tb5  1  0.169240  0.669160  0.525740  1.0  2.2681
  Tb  Tb6  1  0.669240  0.169160  0.525740  1.0  2.2681
  Tb  Tb7  1  0.830760  0.669160  0.974260  1.0  2.2683
  Tb  Tb8  1  0.330760  0.169160  0.974260  1.0  2.2683
  H  H9  1  0.650500  0.229900  0.180800  1.0  0.1203
  H  H10  1  0.649300  0.803800  0.316600  1.0  0.1486
  H  H11  1  0.922500  0.763600  0.449600  1.0  0.1225
  H  H12  1  0.917100  0.067100  0.585000  1.0  0.1317
  H  H13  1  0.013100  0.949000  0.593000  1.0  0.1313
  H  H14  1  0.680300  0.903700  0.229000  1.0  0.1168
  H  H15  1  0.692500  0.283600  0.280600  1.0  0.1281
  H  H16  1  0.789800  0.700000  0.456700  1.0  0.1206
  H  H17  1  0.691700  0.663700  0.386500  1.0  0.1226
  H  H18  1  0.150500  0.729900  0.180800  1.0  0.1203
  H  H19  1  0.149300  0.303800  0.316600  1.0  0.1486
  H  H20  1  0.422500  0.263600  0.449600  1.0  0.1225
  H  H21  1  0.417100  0.567100  0.585000  1.0  0.1317
  H  H22  1  0.513100  0.449000  0.593000  1.0  0.1313
  H  H23  1  0.180300  0.403700  0.229000  1.0  0.1168
  H  H24  1  0.192500  0.783600  0.280600  1.0  0.1281
  H  H25  1  0.289800  0.200000  0.456700  1.0  0.1206
  H  H26  1  0.191700  0.163700  0.386500  1.0  0.1226
  H  H27  1  0.349500  0.229900  0.319200  1.0  0.12
  H  H28  1  0.350700  0.803800  0.183400  1.0  0.1484
  H  H29  1  0.077500  0.763600  0.050400  1.0  0.1229
  H  H30  1  0.082900  0.067100  0.915000  1.0  0.132
  H  H31  1  0.986900  0.949000  0.907000  1.0  0.1316
  H  H32  1  0.319700  0.903700  0.271000  1.0  0.1169
  H  H33  1  0.307500  0.283600  0.219400  1.0  0.1287
  H  H34  1  0.210200  0.700000  0.043300  1.0  0.1205
  H  H35  1  0.308300  0.663700  0.113500  1.0  0.1226
  H  H36  1  0.849500  0.729900  0.319200  1.0  0.12
  H  H37  1  0.850700  0.303800  0.183400  1.0  0.1484
  H  H38  1  0.577500  0.263600  0.050400  1.0  0.1229
  H  H39  1  0.582900  0.567100  0.915000  1.0  0.132
  H  H40  1  0.486900  0.449000  0.907000  1.0  0.1316
  H  H41  1  0.819700  0.403700  0.271000  1.0  0.1169
  H  H42  1  0.807500  0.783600  0.219400  1.0  0.1287
  H  H43  1  0.710200  0.200000  0.043300  1.0  0.1205
  H  H44  1  0.808300  0.163700  0.113500  1.0  0.1226
  H  H45  1  0.349500  0.770100  0.819200  1.0  0.1197
  H  H46  1  0.350700  0.196200  0.683400  1.0  0.1485
  H  H47  1  0.077500  0.236400  0.550400  1.0  0.1227
  H  H48  1  0.082900  0.932900  0.415000  1.0  0.1317
  H  H49  1  0.986900  0.051000  0.407000  1.0  0.1314
  H  H50  1  0.319700  0.096300  0.771000  1.0  0.1166
  H  H51  1  0.307500  0.716400  0.719400  1.0  0.128
  H  H52  1  0.210200  0.300000  0.543300  1.0  0.1209
  H  H53  1  0.308300  0.336300  0.613500  1.0  0.1224
  H  H54  1  0.849500  0.270100  0.819200  1.0  0.1197
  H  H55  1  0.850700  0.696200  0.683400  1.0  0.1485
  H  H56  1  0.577500  0.736400  0.550400  1.0  0.1227
  H  H57  1  0.582900  0.432900  0.415000  1.0  0.1317
  H  H58  1  0.486900  0.551000  0.407000  1.0  0.1314
  H  H59  1  0.819700  0.596300  0.771000  1.0  0.1166
  H  H60  1  0.807500  0.216400  0.719400  1.0  0.128
  H  H61  1  0.710200  0.800000  0.543300  1.0  0.1209
  H  H62  1  0.808300  0.836300  0.613500  1.0  0.1224
  H  H63  1  0.650500  0.770100  0.680800  1.0  0.1198
  H  H64  1  0.649300  0.196200  0.816600  1.0  0.1489
  H  H65  1  0.922500  0.236400  0.949600  1.0  0.1226
  H  H66  1  0.917100  0.932900  0.085000  1.0  0.132
  H  H67  1  0.013100  0.051000  0.093000  1.0  0.1314
  H  H68  1  0.680300  0.096300  0.729000  1.0  0.1174
  H  H69  1  0.692500  0.716400  0.780600  1.0  0.1279
  H  H70  1  0.789800  0.300000  0.956700  1.0  0.1206
  H  H71  1  0.691700  0.336300  0.886500  1.0  0.123
  H  H72  1  0.150500  0.270100  0.680800  1.0  0.1198
  H  H73  1  0.149300  0.696200  0.816600  1.0  0.1489
  H  H74  1  0.422500  0.736400  0.949600  1.0  0.1226
  H  H75  1  0.417100  0.432900  0.085000  1.0  0.132
  H  H76  1  0.513100  0.551000  0.093000  1.0  0.1314
  H  H77  1  0.180300  0.596300  0.729000  1.0  0.1174
  H  H78  1  0.192500  0.216400  0.780600  1.0  0.1279
  H  H79  1  0.289800  0.800000  0.956700  1.0  0.1206
  H  H80  1  0.191700  0.836300  0.886500  1.0  0.123
  C  C81  1  0.664080  0.174400  0.211090  1.0  -0.0277
  C  C82  1  0.718480  0.167470  0.381920  1.0  0.7091
  C  C83  1  0.688550  0.817180  0.345660  1.0  -0.136
  C  C84  1  0.920610  0.824000  0.477620  1.0  -0.07
  C  C85  1  0.800730  0.863600  0.429180  1.0  0.2136
  C  C86  1  0.700800  0.010900  0.301680  1.0  -0.0419
  C  C87  1  0.703200  0.125300  0.316970  1.0  -0.0294
  C  C88  1  0.977110  0.846500  0.522180  1.0  -0.0813
  C  C89  1  0.861330  0.982400  0.514700  1.0  -0.1083
  C  C90  1  0.722890  0.922100  0.347910  1.0  0.1795
  C  C91  1  0.041780  0.777900  0.523570  1.0  0.7002
  C  C92  1  0.917870  0.004500  0.558220  1.0  -0.0396
  C  C93  1  0.975250  0.935300  0.562440  1.0  -0.0049
  C  C94  1  0.634890  0.024200  0.131030  1.0  0.7701
  C  C95  1  0.680470  0.980800  0.240210  1.0  -0.0606
  C  C96  1  0.797660  0.051500  0.517250  1.0  0.6935
  C  C97  1  0.861820  0.890800  0.474820  1.0  -0.0318
  C  C98  1  0.687290  0.206100  0.270730  1.0  -0.0676
  C  C99  1  0.660580  0.060500  0.195450  1.0  -0.0913
  C  C100  1  0.771080  0.756400  0.428850  1.0  -0.0989
  C  C101  1  0.713720  0.734900  0.386880  1.0  -0.0952
  C  C102  1  0.164080  0.674400  0.211090  1.0  -0.0277
  C  C103  1  0.218480  0.667470  0.381920  1.0  0.7091
  C  C104  1  0.188550  0.317180  0.345660  1.0  -0.136
  C  C105  1  0.420610  0.324000  0.477620  1.0  -0.07
  C  C106  1  0.300730  0.363600  0.429180  1.0  0.2136
  C  C107  1  0.200800  0.510900  0.301680  1.0  -0.0419
  C  C108  1  0.203200  0.625300  0.316970  1.0  -0.0294
  C  C109  1  0.477110  0.346500  0.522180  1.0  -0.0813
  C  C110  1  0.361330  0.482400  0.514700  1.0  -0.1083
  C  C111  1  0.222890  0.422100  0.347910  1.0  0.1795
  C  C112  1  0.541780  0.277900  0.523570  1.0  0.7002
  C  C113  1  0.417870  0.504500  0.558220  1.0  -0.0396
  C  C114  1  0.475250  0.435300  0.562440  1.0  -0.0049
  C  C115  1  0.134890  0.524200  0.131030  1.0  0.7701
  C  C116  1  0.180470  0.480800  0.240210  1.0  -0.0606
  C  C117  1  0.297660  0.551500  0.517250  1.0  0.6935
  C  C118  1  0.361820  0.390800  0.474820  1.0  -0.0318
  C  C119  1  0.187290  0.706100  0.270730  1.0  -0.0676
  C  C120  1  0.160580  0.560500  0.195450  1.0  -0.0913
  C  C121  1  0.271080  0.256400  0.428850  1.0  -0.0989
  C  C122  1  0.213720  0.234900  0.386880  1.0  -0.0952
  C  C123  1  0.335920  0.174400  0.288910  1.0  -0.0293
  C  C124  1  0.281520  0.167470  0.118080  1.0  0.7083
  C  C125  1  0.311450  0.817180  0.154340  1.0  -0.1326
  C  C126  1  0.079390  0.824000  0.022380  1.0  -0.0703
  C  C127  1  0.199270  0.863600  0.070820  1.0  0.2146
  C  C128  1  0.299200  0.010900  0.198320  1.0  -0.0428
  C  C129  1  0.296800  0.125300  0.183030  1.0  -0.028
  C  C130  1  0.022890  0.846500  0.977820  1.0  -0.0831
  C  C131  1  0.138670  0.982400  0.985300  1.0  -0.1082
  C  C132  1  0.277110  0.922100  0.152090  1.0  0.1804
  C  C133  1  0.958220  0.777900  0.976430  1.0  0.7009
  C  C134  1  0.082130  0.004500  0.941780  1.0  -0.0367
  C  C135  1  0.024750  0.935300  0.937560  1.0  -0.005
  C  C136  1  0.365110  0.024200  0.368970  1.0  0.7706
  C  C137  1  0.319530  0.980800  0.259790  1.0  -0.0607
  C  C138  1  0.202340  0.051500  0.982750  1.0  0.6945
  C  C139  1  0.138180  0.890800  0.025180  1.0  -0.0329
  C  C140  1  0.312710  0.206100  0.229270  1.0  -0.0668
  C  C141  1  0.339420  0.060500  0.304550  1.0  -0.0919
  C  C142  1  0.228920  0.756400  0.071150  1.0  -0.0999
  C  C143  1  0.286280  0.734900  0.113120  1.0  -0.0955
  C  C144  1  0.835920  0.674400  0.288910  1.0  -0.0293
  C  C145  1  0.781520  0.667470  0.118080  1.0  0.7083
  C  C146  1  0.811450  0.317180  0.154340  1.0  -0.1326
  C  C147  1  0.579390  0.324000  0.022380  1.0  -0.0703
  C  C148  1  0.699270  0.363600  0.070820  1.0  0.2146
  C  C149  1  0.799200  0.510900  0.198320  1.0  -0.0428
  C  C150  1  0.796800  0.625300  0.183030  1.0  -0.028
  C  C151  1  0.522890  0.346500  0.977820  1.0  -0.0831
  C  C152  1  0.638670  0.482400  0.985300  1.0  -0.1082
  C  C153  1  0.777110  0.422100  0.152090  1.0  0.1804
  C  C154  1  0.458220  0.277900  0.976430  1.0  0.7009
  C  C155  1  0.582130  0.504500  0.941780  1.0  -0.0367
  C  C156  1  0.524750  0.435300  0.937560  1.0  -0.005
  C  C157  1  0.865110  0.524200  0.368970  1.0  0.7706
  C  C158  1  0.819530  0.480800  0.259790  1.0  -0.0607
  C  C159  1  0.702340  0.551500  0.982750  1.0  0.6945
  C  C160  1  0.638180  0.390800  0.025180  1.0  -0.0329
  C  C161  1  0.812710  0.706100  0.229270  1.0  -0.0668
  C  C162  1  0.839420  0.560500  0.304550  1.0  -0.0919
  C  C163  1  0.728920  0.256400  0.071150  1.0  -0.0999
  C  C164  1  0.786280  0.234900  0.113120  1.0  -0.0955
  C  C165  1  0.335920  0.825600  0.788910  1.0  -0.0294
  C  C166  1  0.281520  0.832530  0.618080  1.0  0.7087
  C  C167  1  0.311450  0.182820  0.654340  1.0  -0.1326
  C  C168  1  0.079390  0.176000  0.522380  1.0  -0.0717
  C  C169  1  0.199270  0.136400  0.570820  1.0  0.2143
  C  C170  1  0.299200  0.989100  0.698320  1.0  -0.0429
  C  C171  1  0.296800  0.874700  0.683030  1.0  -0.028
  C  C172  1  0.022890  0.153500  0.477820  1.0  -0.0821
  C  C173  1  0.138670  0.017600  0.485300  1.0  -0.1079
  C  C174  1  0.277110  0.077900  0.652090  1.0  0.1804
  C  C175  1  0.958220  0.222100  0.476430  1.0  0.7024
  C  C176  1  0.082130  0.995500  0.441780  1.0  -0.0361
  C  C177  1  0.024750  0.064700  0.437560  1.0  -0.0046
  C  C178  1  0.365110  0.975800  0.868970  1.0  0.7702
  C  C179  1  0.319530  0.019200  0.759790  1.0  -0.0608
  C  C180  1  0.202340  0.948500  0.482750  1.0  0.6941
  C  C181  1  0.138180  0.109200  0.525180  1.0  -0.0328
  C  C182  1  0.312710  0.793900  0.729270  1.0  -0.066
  C  C183  1  0.339420  0.939500  0.804550  1.0  -0.092
  C  C184  1  0.228920  0.243600  0.571150  1.0  -0.1004
  C  C185  1  0.286280  0.265100  0.613120  1.0  -0.095
  C  C186  1  0.835920  0.325600  0.788910  1.0  -0.0294
  C  C187  1  0.781520  0.332530  0.618080  1.0  0.7087
  C  C188  1  0.811450  0.682820  0.654340  1.0  -0.1326
  C  C189  1  0.579390  0.676000  0.522380  1.0  -0.0717
  C  C190  1  0.699270  0.636400  0.570820  1.0  0.2143
  C  C191  1  0.799200  0.489100  0.698320  1.0  -0.0429
  C  C192  1  0.796800  0.374700  0.683030  1.0  -0.028
  C  C193  1  0.522890  0.653500  0.477820  1.0  -0.0821
  C  C194  1  0.638670  0.517600  0.485300  1.0  -0.1079
  C  C195  1  0.777110  0.577900  0.652090  1.0  0.1804
  C  C196  1  0.458220  0.722100  0.476430  1.0  0.7024
  C  C197  1  0.582130  0.495500  0.441780  1.0  -0.0361
  C  C198  1  0.524750  0.564700  0.437560  1.0  -0.0046
  C  C199  1  0.865110  0.475800  0.868970  1.0  0.7702
  C  C200  1  0.819530  0.519200  0.759790  1.0  -0.0608
  C  C201  1  0.702340  0.448500  0.482750  1.0  0.6941
  C  C202  1  0.638180  0.609200  0.525180  1.0  -0.0328
  C  C203  1  0.812710  0.293900  0.729270  1.0  -0.066
  C  C204  1  0.839420  0.439500  0.804550  1.0  -0.092
  C  C205  1  0.728920  0.743600  0.571150  1.0  -0.1004
  C  C206  1  0.786280  0.765100  0.613120  1.0  -0.095
  C  C207  1  0.664080  0.825600  0.711090  1.0  -0.0274
  C  C208  1  0.718480  0.832530  0.881920  1.0  0.7095
  C  C209  1  0.688550  0.182820  0.845660  1.0  -0.1355
  C  C210  1  0.920610  0.176000  0.977620  1.0  -0.0713
  C  C211  1  0.800730  0.136400  0.929180  1.0  0.2134
  C  C212  1  0.700800  0.989100  0.801680  1.0  -0.042
  C  C213  1  0.703200  0.874700  0.816970  1.0  -0.0293
  C  C214  1  0.977110  0.153500  0.022180  1.0  -0.0808
  C  C215  1  0.861330  0.017600  0.014700  1.0  -0.1089
  C  C216  1  0.722890  0.077900  0.847910  1.0  0.1794
  C  C217  1  0.041780  0.222100  0.023570  1.0  0.7023
  C  C218  1  0.917870  0.995500  0.058220  1.0  -0.039
  C  C219  1  0.975250  0.064700  0.062440  1.0  -0.005
  C  C220  1  0.634890  0.975800  0.631030  1.0  0.7703
  C  C221  1  0.680470  0.019200  0.740210  1.0  -0.0613
  C  C222  1  0.797660  0.948500  0.017250  1.0  0.694
  C  C223  1  0.861820  0.109200  0.974820  1.0  -0.0318
  C  C224  1  0.687290  0.793900  0.770730  1.0  -0.0675
  C  C225  1  0.660580  0.939500  0.695450  1.0  -0.0912
  C  C226  1  0.771080  0.243600  0.928850  1.0  -0.0994
  C  C227  1  0.713720  0.265100  0.886880  1.0  -0.0943
  C  C228  1  0.164080  0.325600  0.711090  1.0  -0.0274
  C  C229  1  0.218480  0.332530  0.881920  1.0  0.7095
  C  C230  1  0.188550  0.682820  0.845660  1.0  -0.1355
  C  C231  1  0.420610  0.676000  0.977620  1.0  -0.0713
  C  C232  1  0.300730  0.636400  0.929180  1.0  0.2134
  C  C233  1  0.200800  0.489100  0.801680  1.0  -0.042
  C  C234  1  0.203200  0.374700  0.816970  1.0  -0.0293
  C  C235  1  0.477110  0.653500  0.022180  1.0  -0.0808
  C  C236  1  0.361330  0.517600  0.014700  1.0  -0.1089
  C  C237  1  0.222890  0.577900  0.847910  1.0  0.1794
  C  C238  1  0.541780  0.722100  0.023570  1.0  0.7023
  C  C239  1  0.417870  0.495500  0.058220  1.0  -0.039
  C  C240  1  0.475250  0.564700  0.062440  1.0  -0.005
  C  C241  1  0.134890  0.475800  0.631030  1.0  0.7703
  C  C242  1  0.180470  0.519200  0.740210  1.0  -0.0613
  C  C243  1  0.297660  0.448500  0.017250  1.0  0.694
  C  C244  1  0.361820  0.609200  0.974820  1.0  -0.0318
  C  C245  1  0.187290  0.293900  0.770730  1.0  -0.0675
  C  C246  1  0.160580  0.439500  0.695450  1.0  -0.0912
  C  C247  1  0.271080  0.743600  0.928850  1.0  -0.0994
  C  C248  1  0.213720  0.765100  0.886880  1.0  -0.0943
  N  N249  1  0.776960  0.945100  0.389540  1.0  -0.3968
  N  N250  1  0.276960  0.445100  0.389540  1.0  -0.3968
  N  N251  1  0.223040  0.945100  0.110460  1.0  -0.3992
  N  N252  1  0.723040  0.445100  0.110460  1.0  -0.3992
  N  N253  1  0.223040  0.054900  0.610460  1.0  -0.399
  N  N254  1  0.723040  0.554900  0.610460  1.0  -0.399
  N  N255  1  0.776960  0.054900  0.889540  1.0  -0.3964
  N  N256  1  0.276960  0.554900  0.889540  1.0  -0.3964
  O  O257  1  0.800210  0.157390  0.514710  1.0  -0.7741
  O  O258  1  0.677960  0.135370  0.419490  1.0  -0.7036
  O  O259  1  0.742680  0.002120  0.524340  1.0  -0.6537
  O  O260  1  0.766970  0.235390  0.392050  1.0  -0.698
  O  O261  1  0.052280  0.719960  0.477690  1.0  -0.6167
  O  O262  1  0.086000  0.782220  0.570340  1.0  -0.6134
  O  O263  1  0.595400  0.090710  0.097980  1.0  -0.5283
  O  O264  1  0.652820  0.929600  0.114250  1.0  -0.7117
  O  O265  1  0.300210  0.657390  0.514710  1.0  -0.7741
  O  O266  1  0.177960  0.635370  0.419490  1.0  -0.7036
  O  O267  1  0.242680  0.502120  0.524340  1.0  -0.6537
  O  O268  1  0.266970  0.735390  0.392050  1.0  -0.698
  O  O269  1  0.552280  0.219960  0.477690  1.0  -0.6167
  O  O270  1  0.586000  0.282220  0.570340  1.0  -0.6134
  O  O271  1  0.095400  0.590710  0.097980  1.0  -0.5283
  O  O272  1  0.152820  0.429600  0.114250  1.0  -0.7117
  O  O273  1  0.199790  0.157390  0.985290  1.0  -0.7739
  O  O274  1  0.322040  0.135370  0.080510  1.0  -0.7005
  O  O275  1  0.257320  0.002120  0.975660  1.0  -0.6538
  O  O276  1  0.233030  0.235390  0.107950  1.0  -0.6978
  O  O277  1  0.947720  0.719960  0.022310  1.0  -0.618
  O  O278  1  0.914000  0.782220  0.929660  1.0  -0.6122
  O  O279  1  0.404600  0.090710  0.402020  1.0  -0.5286
  O  O280  1  0.347180  0.929600  0.385750  1.0  -0.7096
  O  O281  1  0.699790  0.657390  0.985290  1.0  -0.7739
  O  O282  1  0.822040  0.635370  0.080510  1.0  -0.7005
  O  O283  1  0.757320  0.502120  0.975660  1.0  -0.6538
  O  O284  1  0.733030  0.735390  0.107950  1.0  -0.6978
  O  O285  1  0.447720  0.219960  0.022310  1.0  -0.618
  O  O286  1  0.414000  0.282220  0.929660  1.0  -0.6122
  O  O287  1  0.904600  0.590710  0.402020  1.0  -0.5286
  O  O288  1  0.847180  0.429600  0.385750  1.0  -0.7096
  O  O289  1  0.199790  0.842610  0.485290  1.0  -0.7744
  O  O290  1  0.322040  0.864630  0.580510  1.0  -0.7003
  O  O291  1  0.257320  0.997880  0.475660  1.0  -0.654
  O  O292  1  0.233030  0.764610  0.607950  1.0  -0.6973
  O  O293  1  0.947720  0.280040  0.522310  1.0  -0.619
  O  O294  1  0.914000  0.217780  0.429660  1.0  -0.6129
  O  O295  1  0.404600  0.909290  0.902020  1.0  -0.5291
  O  O296  1  0.347180  0.070400  0.885750  1.0  -0.709
  O  O297  1  0.699790  0.342610  0.485290  1.0  -0.7744
  O  O298  1  0.822040  0.364630  0.580510  1.0  -0.7003
  O  O299  1  0.757320  0.497880  0.475660  1.0  -0.654
  O  O300  1  0.733030  0.264610  0.607950  1.0  -0.6973
  O  O301  1  0.447720  0.780040  0.522310  1.0  -0.6191
  O  O302  1  0.414000  0.717780  0.429660  1.0  -0.6129
  O  O303  1  0.904600  0.409290  0.902020  1.0  -0.5291
  O  O304  1  0.847180  0.570400  0.885750  1.0  -0.709
  O  O305  1  0.800210  0.842610  0.014710  1.0  -0.7742
  O  O306  1  0.677960  0.864630  0.919490  1.0  -0.7035
  O  O307  1  0.742680  0.997880  0.024340  1.0  -0.6528
  O  O308  1  0.766970  0.764610  0.892050  1.0  -0.6974
  O  O309  1  0.052280  0.280040  0.977690  1.0  -0.6189
  O  O310  1  0.086000  0.217780  0.070340  1.0  -0.6137
  O  O311  1  0.595400  0.909290  0.597980  1.0  -0.529
  O  O312  1  0.652820  0.070400  0.614250  1.0  -0.7128
  O  O313  1  0.300210  0.342610  0.014710  1.0  -0.7742
  O  O314  1  0.177960  0.364630  0.919490  1.0  -0.7035
  O  O315  1  0.242680  0.497880  0.024340  1.0  -0.6528
  O  O316  1  0.266970  0.264610  0.892050  1.0  -0.6974
  O  O317  1  0.552280  0.780040  0.977690  1.0  -0.6189
  O  O318  1  0.586000  0.717780  0.070340  1.0  -0.6137
  O  O319  1  0.095400  0.409290  0.597980  1.0  -0.529
  O  O320  1  0.152820  0.570400  0.614250  1.0  -0.7128
