# generated using pymatgen
data_Ga4P5O23
_symmetry_space_group_name_H-M   'P 1'
_cell_length_a   15.26100000
_cell_length_b   15.26100000
_cell_length_c   28.89800000
_cell_angle_alpha   90.00000000
_cell_angle_beta   90.00000000
_cell_angle_gamma   90.00000000
_symmetry_Int_Tables_number   1
_chemical_formula_structural   Ga4P5O23
_chemical_formula_sum   'Ga32 P40 O184'
_cell_volume   6730.28990066
_cell_formula_units_Z   8
loop_
 _symmetry_equiv_pos_site_id
 _symmetry_equiv_pos_as_xyz
  1  'x, y, z'
loop_
 _atom_site_type_symbol
 _atom_site_label
 _atom_site_symmetry_multiplicity
 _atom_site_fract_x
 _atom_site_fract_y
 _atom_site_fract_z
 _atom_site_occupancy
 _atom_site_charge
  Ga  Ga1  1  0.199420  0.258670  0.296420  1.0  1.6531
  Ga  Ga2  1  0.069920  0.155200  0.199300  1.0  1.704
  Ga  Ga3  1  0.699420  0.758670  0.796420  1.0  1.6531
  Ga  Ga4  1  0.569920  0.655200  0.699300  1.0  1.704
  Ga  Ga5  1  0.300580  0.741330  0.796420  1.0  1.6538
  Ga  Ga6  1  0.430080  0.844800  0.699300  1.0  1.7012
  Ga  Ga7  1  0.800580  0.241330  0.296420  1.0  1.6538
  Ga  Ga8  1  0.930080  0.344800  0.199300  1.0  1.7012
  Ga  Ga9  1  0.491330  0.449420  0.546420  1.0  1.654
  Ga  Ga10  1  0.594800  0.319920  0.449300  1.0  1.7033
  Ga  Ga11  1  0.991330  0.949420  0.046420  1.0  1.654
  Ga  Ga12  1  0.094800  0.819920  0.949300  1.0  1.7033
  Ga  Ga13  1  0.008670  0.550580  0.046420  1.0  1.655
  Ga  Ga14  1  0.905200  0.680080  0.949300  1.0  1.7045
  Ga  Ga15  1  0.508670  0.050580  0.546420  1.0  1.655
  Ga  Ga16  1  0.405200  0.180080  0.449300  1.0  1.7045
  Ga  Ga17  1  0.800580  0.741330  0.703580  1.0  1.6556
  Ga  Ga18  1  0.930080  0.844800  0.800700  1.0  1.6993
  Ga  Ga19  1  0.300580  0.241330  0.203580  1.0  1.6556
  Ga  Ga20  1  0.430080  0.344800  0.300700  1.0  1.6993
  Ga  Ga21  1  0.699420  0.258670  0.203580  1.0  1.6549
  Ga  Ga22  1  0.569920  0.155200  0.300700  1.0  1.7016
  Ga  Ga23  1  0.199420  0.758670  0.703580  1.0  1.6549
  Ga  Ga24  1  0.069920  0.655200  0.800700  1.0  1.7016
  Ga  Ga25  1  0.508670  0.550580  0.453580  1.0  1.6569
  Ga  Ga26  1  0.405200  0.680080  0.550700  1.0  1.7022
  Ga  Ga27  1  0.008670  0.050580  0.953580  1.0  1.6569
  Ga  Ga28  1  0.905200  0.180080  0.050700  1.0  1.7022
  Ga  Ga29  1  0.991330  0.449420  0.953580  1.0  1.6557
  Ga  Ga30  1  0.094800  0.319920  0.050700  1.0  1.701
  Ga  Ga31  1  0.491330  0.949420  0.453580  1.0  1.6557
  Ga  Ga32  1  0.594800  0.819920  0.550700  1.0  1.701
  P  P33  1  0.227780  0.074860  0.251080  1.0  1.9164
  P  P34  1  0.205450  0.179830  0.111710  1.0  1.8427
  P  P35  1  0.727780  0.574860  0.751080  1.0  1.9164
  P  P36  1  0.705450  0.679830  0.611710  1.0  1.8427
  P  P37  1  0.272220  0.925140  0.751080  1.0  1.9174
  P  P38  1  0.294550  0.820170  0.611710  1.0  1.8422
  P  P39  1  0.772220  0.425140  0.251080  1.0  1.9174
  P  P40  1  0.794550  0.320170  0.111710  1.0  1.8422
  P  P41  1  0.675140  0.477780  0.501080  1.0  1.9092
  P  P42  1  0.570170  0.455450  0.361710  1.0  1.8426
  P  P43  1  0.175140  0.977780  0.001080  1.0  1.9092
  P  P44  1  0.070170  0.955450  0.861710  1.0  1.8426
  P  P45  1  0.824860  0.522220  0.001080  1.0  1.9054
  P  P46  1  0.929830  0.544550  0.861710  1.0  1.844
  P  P47  1  0.324860  0.022220  0.501080  1.0  1.9054
  P  P48  1  0.429830  0.044550  0.361710  1.0  1.844
  P  P49  1  0.772220  0.925140  0.748920  1.0  1.9176
  P  P50  1  0.794550  0.820170  0.888290  1.0  1.8391
  P  P51  1  0.272220  0.425140  0.248920  1.0  1.9176
  P  P52  1  0.294550  0.320170  0.388290  1.0  1.8391
  P  P53  1  0.727780  0.074860  0.248920  1.0  1.9164
  P  P54  1  0.705450  0.179830  0.388290  1.0  1.8391
  P  P55  1  0.227780  0.574860  0.748920  1.0  1.9164
  P  P56  1  0.205450  0.679830  0.888290  1.0  1.8391
  P  P57  1  0.324860  0.522220  0.498920  1.0  1.9053
  P  P58  1  0.429830  0.544550  0.638290  1.0  1.841
  P  P59  1  0.824860  0.022220  0.998920  1.0  1.9053
  P  P60  1  0.929830  0.044550  0.138290  1.0  1.841
  P  P61  1  0.175140  0.477780  0.998920  1.0  1.9094
  P  P62  1  0.070170  0.455450  0.138290  1.0  1.8397
  P  P63  1  0.675140  0.977780  0.498920  1.0  1.9094
  P  P64  1  0.570170  0.955450  0.638290  1.0  1.8397
  P  P65  1  0.500000  0.250000  0.212560  1.0  1.9168
  P  P66  1  0.000000  0.750000  0.712560  1.0  1.9168
  P  P67  1  0.500000  0.750000  0.462560  1.0  1.9168
  P  P68  1  0.000000  0.250000  0.962560  1.0  1.9168
  P  P69  1  0.500000  0.750000  0.787440  1.0  1.9189
  P  P70  1  0.000000  0.250000  0.287440  1.0  1.9189
  P  P71  1  0.500000  0.250000  0.537440  1.0  1.9189
  P  P72  1  0.000000  0.750000  0.037440  1.0  1.9189
  O  O73  1  0.212600  0.132700  0.294380  1.0  -0.7381
  O  O74  1  0.128300  0.143200  0.139020  1.0  -0.8078
  O  O75  1  0.294500  0.119500  0.218460  1.0  -0.7541
  O  O76  1  0.178500  0.228000  0.068030  1.0  -0.7474
  O  O77  1  0.235900  0.262300  0.358850  1.0  -0.7393
  O  O78  1  0.235900  0.400100  0.403680  1.0  -0.4628
  O  O79  1  0.492900  0.332300  0.242560  1.0  -0.7459
  O  O80  1  0.165800  0.243200  0.225170  1.0  -0.8511
  O  O81  1  0.580700  0.259400  0.181490  1.0  -0.6964
  O  O82  1  0.233400  0.511900  0.233280  1.0  -0.5044
  O  O83  1  0.359200  0.439600  0.274910  1.0  -0.6702
  O  O84  1  0.712600  0.632700  0.794380  1.0  -0.7381
  O  O85  1  0.628300  0.643200  0.639020  1.0  -0.8078
  O  O86  1  0.794500  0.619500  0.718460  1.0  -0.7541
  O  O87  1  0.678500  0.728000  0.568030  1.0  -0.7474
  O  O88  1  0.735900  0.762300  0.858850  1.0  -0.7393
  O  O89  1  0.735900  0.900100  0.903680  1.0  -0.4628
  O  O90  1  0.992900  0.832300  0.742560  1.0  -0.7459
  O  O91  1  0.665800  0.743200  0.725170  1.0  -0.8511
  O  O92  1  0.080700  0.759400  0.681490  1.0  -0.6964
  O  O93  1  0.733400  0.011900  0.733280  1.0  -0.5044
  O  O94  1  0.859200  0.939600  0.774910  1.0  -0.6702
  O  O95  1  0.287400  0.867300  0.794380  1.0  -0.7391
  O  O96  1  0.371700  0.856800  0.639020  1.0  -0.8086
  O  O97  1  0.205500  0.880500  0.718460  1.0  -0.7517
  O  O98  1  0.321500  0.772000  0.568030  1.0  -0.7492
  O  O99  1  0.264100  0.737700  0.858850  1.0  -0.7366
  O  O100  1  0.264100  0.599900  0.903680  1.0  -0.4621
  O  O101  1  0.007100  0.667700  0.742560  1.0  -0.747
  O  O102  1  0.334200  0.756800  0.725170  1.0  -0.8526
  O  O103  1  0.919300  0.740600  0.681490  1.0  -0.6962
  O  O104  1  0.266600  0.488100  0.733280  1.0  -0.5034
  O  O105  1  0.140800  0.560400  0.774910  1.0  -0.6699
  O  O106  1  0.787400  0.367300  0.294380  1.0  -0.7391
  O  O107  1  0.871700  0.356800  0.139020  1.0  -0.8086
  O  O108  1  0.705500  0.380500  0.218460  1.0  -0.7517
  O  O109  1  0.821500  0.272000  0.068030  1.0  -0.7492
  O  O110  1  0.764100  0.237700  0.358850  1.0  -0.7366
  O  O111  1  0.764100  0.099900  0.403680  1.0  -0.4621
  O  O112  1  0.507100  0.167700  0.242560  1.0  -0.747
  O  O113  1  0.834200  0.256800  0.225170  1.0  -0.8526
  O  O114  1  0.419300  0.240600  0.181490  1.0  -0.6962
  O  O115  1  0.766600  0.988100  0.233280  1.0  -0.5034
  O  O116  1  0.640800  0.060400  0.274910  1.0  -0.6699
  O  O117  1  0.617300  0.462600  0.544380  1.0  -0.7388
  O  O118  1  0.606800  0.378300  0.389020  1.0  -0.8047
  O  O119  1  0.630500  0.544500  0.468460  1.0  -0.7498
  O  O120  1  0.522000  0.428500  0.318030  1.0  -0.7531
  O  O121  1  0.487700  0.485900  0.608850  1.0  -0.7415
  O  O122  1  0.349900  0.485900  0.653680  1.0  -0.4628
  O  O123  1  0.417700  0.742900  0.492560  1.0  -0.7435
  O  O124  1  0.506800  0.415800  0.475170  1.0  -0.8508
  O  O125  1  0.490600  0.830700  0.431490  1.0  -0.6952
  O  O126  1  0.238100  0.483400  0.483280  1.0  -0.4974
  O  O127  1  0.310400  0.609200  0.524910  1.0  -0.6664
  O  O128  1  0.117300  0.962600  0.044380  1.0  -0.7388
  O  O129  1  0.106800  0.878300  0.889020  1.0  -0.8047
  O  O130  1  0.130500  0.044500  0.968460  1.0  -0.7498
  O  O131  1  0.022000  0.928500  0.818030  1.0  -0.7531
  O  O132  1  0.987700  0.985900  0.108850  1.0  -0.7415
  O  O133  1  0.849900  0.985900  0.153680  1.0  -0.4628
  O  O134  1  0.917700  0.242900  0.992560  1.0  -0.7435
  O  O135  1  0.006800  0.915800  0.975170  1.0  -0.8508
  O  O136  1  0.990600  0.330700  0.931490  1.0  -0.6952
  O  O137  1  0.738100  0.983400  0.983280  1.0  -0.4974
  O  O138  1  0.810400  0.109200  0.024910  1.0  -0.6664
  O  O139  1  0.882700  0.537400  0.044380  1.0  -0.7371
  O  O140  1  0.893200  0.621700  0.889020  1.0  -0.805
  O  O141  1  0.869500  0.455500  0.968460  1.0  -0.7532
  O  O142  1  0.978000  0.571500  0.818030  1.0  -0.7536
  O  O143  1  0.012300  0.514100  0.108850  1.0  -0.7413
  O  O144  1  0.150100  0.514100  0.153680  1.0  -0.4626
  O  O145  1  0.082300  0.257100  0.992560  1.0  -0.7448
  O  O146  1  0.993200  0.584200  0.975170  1.0  -0.8518
  O  O147  1  0.009400  0.169300  0.931490  1.0  -0.6971
  O  O148  1  0.261900  0.516600  0.983280  1.0  -0.498
  O  O149  1  0.189600  0.390800  0.024910  1.0  -0.6642
  O  O150  1  0.382700  0.037400  0.544380  1.0  -0.7371
  O  O151  1  0.393200  0.121700  0.389020  1.0  -0.805
  O  O152  1  0.369500  0.955500  0.468460  1.0  -0.7532
  O  O153  1  0.478000  0.071500  0.318030  1.0  -0.7536
  O  O154  1  0.512300  0.014100  0.608850  1.0  -0.7413
  O  O155  1  0.650100  0.014100  0.653680  1.0  -0.4626
  O  O156  1  0.582300  0.757100  0.492560  1.0  -0.7448
  O  O157  1  0.493200  0.084200  0.475170  1.0  -0.8518
  O  O158  1  0.509400  0.669300  0.431490  1.0  -0.6971
  O  O159  1  0.761900  0.016600  0.483280  1.0  -0.5007
  O  O160  1  0.689600  0.890800  0.524910  1.0  -0.6642
  O  O161  1  0.787400  0.867300  0.705620  1.0  -0.7404
  O  O162  1  0.871700  0.856800  0.860980  1.0  -0.8075
  O  O163  1  0.705500  0.880500  0.781540  1.0  -0.7521
  O  O164  1  0.821500  0.772000  0.931970  1.0  -0.7477
  O  O165  1  0.764100  0.737700  0.641150  1.0  -0.7362
  O  O166  1  0.764100  0.599900  0.596320  1.0  -0.4618
  O  O167  1  0.507100  0.667700  0.757440  1.0  -0.7464
  O  O168  1  0.834200  0.756800  0.774830  1.0  -0.8527
  O  O169  1  0.419300  0.740600  0.818510  1.0  -0.6946
  O  O170  1  0.766600  0.488100  0.766720  1.0  -0.504
  O  O171  1  0.640800  0.560400  0.725090  1.0  -0.6696
  O  O172  1  0.287400  0.367300  0.205620  1.0  -0.7404
  O  O173  1  0.371700  0.356800  0.360980  1.0  -0.8075
  O  O174  1  0.205500  0.380500  0.281540  1.0  -0.7521
  O  O175  1  0.321500  0.272000  0.431970  1.0  -0.7477
  O  O176  1  0.264100  0.237700  0.141150  1.0  -0.7362
  O  O177  1  0.264100  0.099900  0.096320  1.0  -0.4618
  O  O178  1  0.007100  0.167700  0.257440  1.0  -0.7464
  O  O179  1  0.334200  0.256800  0.274830  1.0  -0.8527
  O  O180  1  0.919300  0.240600  0.318510  1.0  -0.6946
  O  O181  1  0.266600  0.988100  0.266720  1.0  -0.504
  O  O182  1  0.140800  0.060400  0.225090  1.0  -0.6696
  O  O183  1  0.712600  0.132700  0.205620  1.0  -0.7377
  O  O184  1  0.628300  0.143200  0.360980  1.0  -0.8067
  O  O185  1  0.794500  0.119500  0.281540  1.0  -0.7533
  O  O186  1  0.678500  0.228000  0.431970  1.0  -0.748
  O  O187  1  0.735900  0.262300  0.141150  1.0  -0.7384
  O  O188  1  0.735900  0.400100  0.096320  1.0  -0.4633
  O  O189  1  0.992900  0.332300  0.257440  1.0  -0.7459
  O  O190  1  0.665800  0.243200  0.274830  1.0  -0.8514
  O  O191  1  0.080700  0.259400  0.318510  1.0  -0.6961
  O  O192  1  0.733400  0.511900  0.266720  1.0  -0.5051
  O  O193  1  0.859200  0.439600  0.225090  1.0  -0.6701
  O  O194  1  0.212600  0.632700  0.705620  1.0  -0.7377
  O  O195  1  0.128300  0.643200  0.860980  1.0  -0.8067
  O  O196  1  0.294500  0.619500  0.781540  1.0  -0.7533
  O  O197  1  0.178500  0.728000  0.931970  1.0  -0.748
  O  O198  1  0.235900  0.762300  0.641150  1.0  -0.7384
  O  O199  1  0.235900  0.900100  0.596320  1.0  -0.4633
  O  O200  1  0.492900  0.832300  0.757440  1.0  -0.7459
  O  O201  1  0.165800  0.743200  0.774830  1.0  -0.8514
  O  O202  1  0.580700  0.759400  0.818510  1.0  -0.6961
  O  O203  1  0.233400  0.011900  0.766720  1.0  -0.5051
  O  O204  1  0.359200  0.939600  0.725090  1.0  -0.6701
  O  O205  1  0.382700  0.537400  0.455620  1.0  -0.7381
  O  O206  1  0.393200  0.621700  0.610980  1.0  -0.805
  O  O207  1  0.369500  0.455500  0.531540  1.0  -0.752
  O  O208  1  0.478000  0.571500  0.681970  1.0  -0.7536
  O  O209  1  0.512300  0.514100  0.391150  1.0  -0.74
  O  O210  1  0.650100  0.514100  0.346320  1.0  -0.4629
  O  O211  1  0.582300  0.257100  0.507440  1.0  -0.745
  O  O212  1  0.493200  0.584200  0.524830  1.0  -0.8519
  O  O213  1  0.509400  0.169300  0.568510  1.0  -0.695
  O  O214  1  0.761900  0.516600  0.516720  1.0  -0.4985
  O  O215  1  0.689600  0.390800  0.475090  1.0  -0.6641
  O  O216  1  0.882700  0.037400  0.955620  1.0  -0.7381
  O  O217  1  0.893200  0.121700  0.110980  1.0  -0.805
  O  O218  1  0.869500  0.955500  0.031540  1.0  -0.752
  O  O219  1  0.978000  0.071500  0.181970  1.0  -0.7536
  O  O220  1  0.012300  0.014100  0.891150  1.0  -0.74
  O  O221  1  0.150100  0.014100  0.846320  1.0  -0.4629
  O  O222  1  0.082300  0.757100  0.007440  1.0  -0.745
  O  O223  1  0.993200  0.084200  0.024830  1.0  -0.8519
  O  O224  1  0.009400  0.669300  0.068510  1.0  -0.695
  O  O225  1  0.261900  0.016600  0.016720  1.0  -0.4985
  O  O226  1  0.189600  0.890800  0.975090  1.0  -0.6641
  O  O227  1  0.117300  0.462600  0.955620  1.0  -0.7388
  O  O228  1  0.106800  0.378300  0.110980  1.0  -0.8043
  O  O229  1  0.130500  0.544500  0.031540  1.0  -0.7502
  O  O230  1  0.022000  0.428500  0.181970  1.0  -0.753
  O  O231  1  0.987700  0.485900  0.891150  1.0  -0.7407
  O  O232  1  0.849900  0.485900  0.846320  1.0  -0.4623
  O  O233  1  0.917700  0.742900  0.007440  1.0  -0.743
  O  O234  1  0.006800  0.415800  0.024830  1.0  -0.851
  O  O235  1  0.990600  0.830700  0.068510  1.0  -0.6936
  O  O236  1  0.738100  0.483400  0.016720  1.0  -0.4975
  O  O237  1  0.810400  0.609200  0.975090  1.0  -0.666
  O  O238  1  0.617300  0.962600  0.455620  1.0  -0.7388
  O  O239  1  0.606800  0.878300  0.610980  1.0  -0.8043
  O  O240  1  0.630500  0.044500  0.531540  1.0  -0.7502
  O  O241  1  0.522000  0.928500  0.681970  1.0  -0.753
  O  O242  1  0.487700  0.985900  0.391150  1.0  -0.7407
  O  O243  1  0.349900  0.985900  0.346320  1.0  -0.4623
  O  O244  1  0.417700  0.242900  0.507440  1.0  -0.743
  O  O245  1  0.506800  0.915800  0.524830  1.0  -0.851
  O  O246  1  0.490600  0.330700  0.568510  1.0  -0.6936
  O  O247  1  0.238100  0.983400  0.516720  1.0  -0.5002
  O  O248  1  0.310400  0.109200  0.475090  1.0  -0.666
  O  O249  1  0.000000  0.250000  0.174300  1.0  -0.719
  O  O250  1  0.500000  0.750000  0.674300  1.0  -0.719
  O  O251  1  0.500000  0.250000  0.424300  1.0  -0.719
  O  O252  1  0.000000  0.750000  0.924300  1.0  -0.719
  O  O253  1  0.000000  0.750000  0.825700  1.0  -0.7162
  O  O254  1  0.500000  0.250000  0.325700  1.0  -0.7162
  O  O255  1  0.500000  0.750000  0.575700  1.0  -0.7162
  O  O256  1  0.000000  0.250000  0.075700  1.0  -0.7162
