# generated using pymatgen
data_TiH12(C5O)4
_symmetry_space_group_name_H-M   'P 1'
_cell_length_a   11.09500000
_cell_length_b   17.97000000
_cell_length_c   19.48400000
_cell_angle_alpha   90.00000000
_cell_angle_beta   90.00000000
_cell_angle_gamma   90.00000000
_symmetry_Int_Tables_number   1
_chemical_formula_structural   TiH12(C5O)4
_chemical_formula_sum   'Ti8 H96 C160 O32'
_cell_volume   3884.66439060
_cell_formula_units_Z   8
loop_
 _symmetry_equiv_pos_site_id
 _symmetry_equiv_pos_as_xyz
  1  'x, y, z'
loop_
 _atom_site_type_symbol
 _atom_site_label
 _atom_site_symmetry_multiplicity
 _atom_site_fract_x
 _atom_site_fract_y
 _atom_site_fract_z
 _atom_site_occupancy
 _atom_site_charge
  Ti  Ti1  1  0.099700  0.458500  0.553800  1.0  1.8802
  Ti  Ti2  1  0.400300  0.541500  0.053800  1.0  1.8834
  Ti  Ti3  1  0.900300  0.958500  0.946200  1.0  1.8798
  Ti  Ti4  1  0.599700  0.041500  0.446200  1.0  1.8844
  Ti  Ti5  1  0.900300  0.541500  0.446200  1.0  1.8844
  Ti  Ti6  1  0.599700  0.458500  0.946200  1.0  1.8798
  Ti  Ti7  1  0.099700  0.041500  0.053800  1.0  1.8834
  Ti  Ti8  1  0.400300  0.958500  0.553800  1.0  1.8802
  H  H9  1  0.232100  0.801600  0.498100  1.0  0.1276
  H  H10  1  0.127200  0.676200  0.508500  1.0  0.1244
  H  H11  1  0.240800  0.505700  0.392500  1.0  0.1271
  H  H12  1  0.391900  0.576500  0.347900  1.0  0.0937
  H  H13  1  0.499100  0.697300  0.340500  1.0  0.1107
  H  H14  1  0.517500  0.819300  0.371900  1.0  0.1161
  H  H15  1  0.699300  0.610000  0.804500  1.0  0.1314
  H  H16  1  0.682900  0.635700  0.689000  1.0  0.1102
  H  H17  1  0.573900  0.620400  0.577700  1.0  0.1097
  H  H18  1  0.427600  0.565600  0.514300  1.0  0.1193
  H  H19  1  0.305600  0.458300  0.681800  1.0  0.1221
  H  H20  1  0.407700  0.477900  0.794800  1.0  0.1204
  H  H21  1  0.267900  0.198400  0.998100  1.0  0.128
  H  H22  1  0.372800  0.323800  0.008500  1.0  0.1249
  H  H23  1  0.259200  0.494300  0.892500  1.0  0.1256
  H  H24  1  0.108100  0.423500  0.847900  1.0  0.0942
  H  H25  1  0.000900  0.302700  0.840500  1.0  0.1106
  H  H26  1  0.982500  0.180700  0.871900  1.0  0.1166
  H  H27  1  0.800700  0.390000  0.304500  1.0  0.1317
  H  H28  1  0.817100  0.364300  0.189000  1.0  0.1096
  H  H29  1  0.926100  0.379600  0.077700  1.0  0.1093
  H  H30  1  0.072400  0.434400  0.014300  1.0  0.1189
  H  H31  1  0.194400  0.541700  0.181800  1.0  0.1217
  H  H32  1  0.092300  0.522100  0.294800  1.0  0.1202
  H  H33  1  0.767900  0.301600  0.001900  1.0  0.1278
  H  H34  1  0.872800  0.176200  0.991500  1.0  0.1259
  H  H35  1  0.759200  0.005700  0.107500  1.0  0.1271
  H  H36  1  0.608100  0.076500  0.152100  1.0  0.0937
  H  H37  1  0.500900  0.197300  0.159500  1.0  0.1106
  H  H38  1  0.482500  0.319300  0.128100  1.0  0.1167
  H  H39  1  0.300700  0.110000  0.695500  1.0  0.1319
  H  H40  1  0.317100  0.135700  0.811000  1.0  0.1101
  H  H41  1  0.426100  0.120400  0.922300  1.0  0.1097
  H  H42  1  0.572400  0.065600  0.985700  1.0  0.1183
  H  H43  1  0.694400  0.958300  0.818200  1.0  0.1223
  H  H44  1  0.592300  0.977900  0.705200  1.0  0.12
  H  H45  1  0.732100  0.698400  0.501900  1.0  0.1275
  H  H46  1  0.627200  0.823800  0.491500  1.0  0.1262
  H  H47  1  0.740800  0.994300  0.607500  1.0  0.1266
  H  H48  1  0.891900  0.923500  0.652100  1.0  0.0945
  H  H49  1  0.999100  0.802700  0.659500  1.0  0.1103
  H  H50  1  0.017500  0.680700  0.628100  1.0  0.1164
  H  H51  1  0.199300  0.890000  0.195500  1.0  0.1318
  H  H52  1  0.182900  0.864300  0.311000  1.0  0.1101
  H  H53  1  0.073900  0.879600  0.422300  1.0  0.1094
  H  H54  1  0.927600  0.934400  0.485700  1.0  0.1184
  H  H55  1  0.805600  0.041700  0.318200  1.0  0.1222
  H  H56  1  0.907700  0.022100  0.205200  1.0  0.1198
  H  H57  1  0.767900  0.198400  0.501900  1.0  0.1278
  H  H58  1  0.872800  0.323800  0.491500  1.0  0.1252
  H  H59  1  0.759200  0.494300  0.607500  1.0  0.126
  H  H60  1  0.608100  0.423500  0.652100  1.0  0.0942
  H  H61  1  0.500900  0.302700  0.659500  1.0  0.1102
  H  H62  1  0.482500  0.180700  0.628100  1.0  0.1166
  H  H63  1  0.300700  0.390000  0.195500  1.0  0.1319
  H  H64  1  0.317100  0.364300  0.311000  1.0  0.1096
  H  H65  1  0.426100  0.379600  0.422300  1.0  0.1092
  H  H66  1  0.572400  0.434400  0.485700  1.0  0.1181
  H  H67  1  0.694400  0.541700  0.318200  1.0  0.1218
  H  H68  1  0.592300  0.522100  0.205200  1.0  0.1196
  H  H69  1  0.732100  0.801600  0.001900  1.0  0.1276
  H  H70  1  0.627200  0.676200  0.991500  1.0  0.1252
  H  H71  1  0.740800  0.505700  0.107500  1.0  0.1276
  H  H72  1  0.891900  0.576500  0.152100  1.0  0.0938
  H  H73  1  0.999100  0.697300  0.159500  1.0  0.1106
  H  H74  1  0.017500  0.819300  0.128100  1.0  0.1166
  H  H75  1  0.199300  0.610000  0.695500  1.0  0.1315
  H  H76  1  0.182900  0.635700  0.811000  1.0  0.1101
  H  H77  1  0.073900  0.620400  0.922300  1.0  0.1097
  H  H78  1  0.927600  0.565600  0.985700  1.0  0.1185
  H  H79  1  0.805600  0.458300  0.818200  1.0  0.1221
  H  H80  1  0.907700  0.477900  0.705200  1.0  0.1197
  H  H81  1  0.232100  0.698400  0.998100  1.0  0.1276
  H  H82  1  0.127200  0.823800  0.008500  1.0  0.1258
  H  H83  1  0.240800  0.994300  0.892500  1.0  0.1263
  H  H84  1  0.391900  0.923500  0.847900  1.0  0.0944
  H  H85  1  0.499100  0.802700  0.840500  1.0  0.1106
  H  H86  1  0.517500  0.680700  0.871900  1.0  0.1164
  H  H87  1  0.699300  0.890000  0.304500  1.0  0.1316
  H  H88  1  0.682900  0.864300  0.189000  1.0  0.1099
  H  H89  1  0.573900  0.879600  0.077700  1.0  0.1094
  H  H90  1  0.427600  0.934400  0.014300  1.0  0.1193
  H  H91  1  0.305600  0.041700  0.181800  1.0  0.122
  H  H92  1  0.407700  0.022100  0.294800  1.0  0.1203
  H  H93  1  0.267900  0.301600  0.498100  1.0  0.1279
  H  H94  1  0.372800  0.176200  0.508500  1.0  0.1254
  H  H95  1  0.259200  0.005700  0.392500  1.0  0.1266
  H  H96  1  0.108100  0.076500  0.347900  1.0  0.0936
  H  H97  1  0.000900  0.197300  0.340500  1.0  0.1105
  H  H98  1  0.982500  0.319300  0.371900  1.0  0.1165
  H  H99  1  0.800700  0.110000  0.804500  1.0  0.1317
  H  H100  1  0.817100  0.135700  0.689000  1.0  0.1102
  H  H101  1  0.926100  0.120400  0.577700  1.0  0.1098
  H  H102  1  0.072400  0.065600  0.514300  1.0  0.1189
  H  H103  1  0.194400  0.958300  0.681800  1.0  0.1223
  H  H104  1  0.092300  0.977900  0.794800  1.0  0.1207
  C  C105  1  0.374700  0.821500  0.437600  1.0  0.368
  C  C106  1  0.284700  0.780100  0.466600  1.0  -0.3363
  C  C107  1  0.272300  0.703900  0.448200  1.0  0.1231
  C  C108  1  0.179900  0.657300  0.475800  1.0  -0.2701
  C  C109  1  0.168100  0.585200  0.454600  1.0  0.3323
  C  C110  1  0.249000  0.555000  0.406100  1.0  -0.2171
  C  C111  1  0.338800  0.597400  0.379300  1.0  -0.0771
  C  C112  1  0.352700  0.673600  0.398700  1.0  -0.0101
  C  C113  1  0.444900  0.717700  0.371700  1.0  -0.099
  C  C114  1  0.456100  0.790300  0.390400  1.0  -0.1941
  C  C115  1  0.552000  0.541200  0.810400  1.0  0.3492
  C  C116  1  0.637400  0.589000  0.778800  1.0  -0.2196
  C  C117  1  0.627500  0.604000  0.709600  1.0  -0.0686
  C  C118  1  0.535000  0.572300  0.669700  1.0  -0.0076
  C  C119  1  0.521300  0.587300  0.598800  1.0  -0.0562
  C  C120  1  0.434000  0.554900  0.560900  1.0  -0.1976
  C  C121  1  0.351200  0.504300  0.592100  1.0  0.3842
  C  C122  1  0.360600  0.490300  0.661200  1.0  -0.3066
  C  C123  1  0.450800  0.523100  0.701800  1.0  0.1262
  C  C124  1  0.462400  0.509300  0.773200  1.0  -0.2832
  C  C125  1  0.125300  0.178500  0.937600  1.0  0.3671
  C  C126  1  0.215300  0.219900  0.966600  1.0  -0.3376
  C  C127  1  0.227700  0.296100  0.948200  1.0  0.122
  C  C128  1  0.320100  0.342700  0.975800  1.0  -0.2697
  C  C129  1  0.331900  0.414800  0.954600  1.0  0.3334
  C  C130  1  0.251000  0.445000  0.906100  1.0  -0.2179
  C  C131  1  0.161200  0.402600  0.879300  1.0  -0.0766
  C  C132  1  0.147300  0.326400  0.898700  1.0  -0.0101
  C  C133  1  0.055100  0.282300  0.871700  1.0  -0.0987
  C  C134  1  0.043900  0.209700  0.890400  1.0  -0.1947
  C  C135  1  0.948000  0.458800  0.310400  1.0  0.3493
  C  C136  1  0.862600  0.411000  0.278800  1.0  -0.2204
  C  C137  1  0.872500  0.396000  0.209600  1.0  -0.0694
  C  C138  1  0.965000  0.427700  0.169700  1.0  -0.0071
  C  C139  1  0.978700  0.412700  0.098800  1.0  -0.0574
  C  C140  1  0.066000  0.445100  0.060900  1.0  -0.1988
  C  C141  1  0.148800  0.495700  0.092100  1.0  0.3834
  C  C142  1  0.139400  0.509700  0.161200  1.0  -0.3087
  C  C143  1  0.049200  0.476900  0.201800  1.0  0.1263
  C  C144  1  0.037600  0.490700  0.273200  1.0  -0.2839
  C  C145  1  0.625300  0.321500  0.062400  1.0  0.368
  C  C146  1  0.715300  0.280100  0.033400  1.0  -0.3301
  C  C147  1  0.727700  0.203900  0.051800  1.0  0.1221
  C  C148  1  0.820100  0.157300  0.024200  1.0  -0.2682
  C  C149  1  0.831900  0.085200  0.045400  1.0  0.3329
  C  C150  1  0.751000  0.055000  0.093900  1.0  -0.2171
  C  C151  1  0.661200  0.097400  0.120700  1.0  -0.0772
  C  C152  1  0.647300  0.173600  0.101300  1.0  -0.0092
  C  C153  1  0.555100  0.217700  0.128300  1.0  -0.0987
  C  C154  1  0.543900  0.290300  0.109600  1.0  -0.1943
  C  C155  1  0.448000  0.041200  0.689600  1.0  0.3496
  C  C156  1  0.362600  0.089000  0.721200  1.0  -0.22
  C  C157  1  0.372500  0.104000  0.790400  1.0  -0.0688
  C  C158  1  0.465000  0.072300  0.830300  1.0  -0.0084
  C  C159  1  0.478700  0.087300  0.901200  1.0  -0.0558
  C  C160  1  0.566000  0.054900  0.939100  1.0  -0.199
  C  C161  1  0.648800  0.004300  0.907900  1.0  0.3833
  C  C162  1  0.639400  0.990300  0.838800  1.0  -0.3062
  C  C163  1  0.549200  0.023100  0.798200  1.0  0.1269
  C  C164  1  0.537600  0.009300  0.726800  1.0  -0.2821
  C  C165  1  0.874700  0.678500  0.562400  1.0  0.3668
  C  C166  1  0.784700  0.719900  0.533400  1.0  -0.3276
  C  C167  1  0.772300  0.796100  0.551800  1.0  0.123
  C  C168  1  0.679900  0.842700  0.524200  1.0  -0.2686
  C  C169  1  0.668100  0.914800  0.545400  1.0  0.3328
  C  C170  1  0.749000  0.945000  0.593900  1.0  -0.2184
  C  C171  1  0.838800  0.902600  0.620700  1.0  -0.0767
  C  C172  1  0.852700  0.826400  0.601300  1.0  -0.0092
  C  C173  1  0.944900  0.782300  0.628300  1.0  -0.0983
  C  C174  1  0.956100  0.709700  0.609600  1.0  -0.1936
  C  C175  1  0.052000  0.958800  0.189600  1.0  0.3502
  C  C176  1  0.137400  0.911000  0.221200  1.0  -0.2205
  C  C177  1  0.127500  0.896000  0.290400  1.0  -0.0699
  C  C178  1  0.035000  0.927700  0.330300  1.0  -0.0075
  C  C179  1  0.021300  0.912700  0.401200  1.0  -0.0567
  C  C180  1  0.934000  0.945100  0.439100  1.0  -0.1987
  C  C181  1  0.851200  0.995700  0.407900  1.0  0.3824
  C  C182  1  0.860600  0.009700  0.338800  1.0  -0.3075
  C  C183  1  0.950800  0.976900  0.298200  1.0  0.1261
  C  C184  1  0.962400  0.990700  0.226800  1.0  -0.2834
  C  C185  1  0.625300  0.178500  0.562400  1.0  0.3671
  C  C186  1  0.715300  0.219900  0.533400  1.0  -0.3302
  C  C187  1  0.727700  0.296100  0.551800  1.0  0.122
  C  C188  1  0.820100  0.342700  0.524200  1.0  -0.2683
  C  C189  1  0.831900  0.414800  0.545400  1.0  0.3333
  C  C190  1  0.751000  0.445000  0.593900  1.0  -0.2185
  C  C191  1  0.661200  0.402600  0.620700  1.0  -0.0763
  C  C192  1  0.647300  0.326400  0.601300  1.0  -0.0092
  C  C193  1  0.555100  0.282300  0.628300  1.0  -0.0989
  C  C194  1  0.543900  0.209700  0.609600  1.0  -0.1946
  C  C195  1  0.448000  0.458800  0.189600  1.0  0.3499
  C  C196  1  0.362600  0.411000  0.221200  1.0  -0.2206
  C  C197  1  0.372500  0.396000  0.290400  1.0  -0.0699
  C  C198  1  0.465000  0.427700  0.330300  1.0  -0.0077
  C  C199  1  0.478700  0.412700  0.401200  1.0  -0.0566
  C  C200  1  0.566000  0.445100  0.439100  1.0  -0.1997
  C  C201  1  0.648800  0.495700  0.407900  1.0  0.3819
  C  C202  1  0.639400  0.509700  0.338800  1.0  -0.3078
  C  C203  1  0.549200  0.476900  0.298200  1.0  0.1265
  C  C204  1  0.537600  0.490700  0.226800  1.0  -0.2824
  C  C205  1  0.874700  0.821500  0.062400  1.0  0.3679
  C  C206  1  0.784700  0.780100  0.033400  1.0  -0.3278
  C  C207  1  0.772300  0.703900  0.051800  1.0  0.123
  C  C208  1  0.679900  0.657300  0.024200  1.0  -0.2684
  C  C209  1  0.668100  0.585200  0.045400  1.0  0.3326
  C  C210  1  0.749000  0.555000  0.093900  1.0  -0.2166
  C  C211  1  0.838800  0.597400  0.120700  1.0  -0.077
  C  C212  1  0.852700  0.673600  0.101300  1.0  -0.0093
  C  C213  1  0.944900  0.717700  0.128300  1.0  -0.0985
  C  C214  1  0.956100  0.790300  0.109600  1.0  -0.1936
  C  C215  1  0.052000  0.541200  0.689600  1.0  0.3498
  C  C216  1  0.137400  0.589000  0.721200  1.0  -0.2196
  C  C217  1  0.127500  0.604000  0.790400  1.0  -0.0685
  C  C218  1  0.035000  0.572300  0.830300  1.0  -0.0081
  C  C219  1  0.021300  0.587300  0.901200  1.0  -0.0559
  C  C220  1  0.934000  0.554900  0.939100  1.0  -0.1979
  C  C221  1  0.851200  0.504300  0.907900  1.0  0.3834
  C  C222  1  0.860600  0.490300  0.838800  1.0  -0.3058
  C  C223  1  0.950800  0.523100  0.798200  1.0  0.1266
  C  C224  1  0.962400  0.509300  0.726800  1.0  -0.2825
  C  C225  1  0.374700  0.678500  0.937600  1.0  0.3669
  C  C226  1  0.284700  0.719900  0.966600  1.0  -0.3362
  C  C227  1  0.272300  0.796100  0.948200  1.0  0.123
  C  C228  1  0.179900  0.842700  0.975800  1.0  -0.27
  C  C229  1  0.168100  0.914800  0.954600  1.0  0.3326
  C  C230  1  0.249000  0.945000  0.906100  1.0  -0.2177
  C  C231  1  0.338800  0.902600  0.879300  1.0  -0.0772
  C  C232  1  0.352700  0.826400  0.898700  1.0  -0.0104
  C  C233  1  0.444900  0.782300  0.871700  1.0  -0.0989
  C  C234  1  0.456100  0.709700  0.890400  1.0  -0.1939
  C  C235  1  0.552000  0.958800  0.310400  1.0  0.3493
  C  C236  1  0.637400  0.911000  0.278800  1.0  -0.2201
  C  C237  1  0.627500  0.896000  0.209600  1.0  -0.0697
  C  C238  1  0.535000  0.927700  0.169700  1.0  -0.0069
  C  C239  1  0.521300  0.912700  0.098800  1.0  -0.0575
  C  C240  1  0.434000  0.945100  0.060900  1.0  -0.1979
  C  C241  1  0.351200  0.995700  0.092100  1.0  0.3836
  C  C242  1  0.360600  0.009700  0.161200  1.0  -0.3085
  C  C243  1  0.450800  0.976900  0.201800  1.0  0.1258
  C  C244  1  0.462400  0.990700  0.273200  1.0  -0.2848
  C  C245  1  0.125300  0.321500  0.437600  1.0  0.3681
  C  C246  1  0.215300  0.280100  0.466600  1.0  -0.3375
  C  C247  1  0.227700  0.203900  0.448200  1.0  0.1222
  C  C248  1  0.320100  0.157300  0.475800  1.0  -0.2699
  C  C249  1  0.331900  0.085200  0.454600  1.0  0.3329
  C  C250  1  0.251000  0.055000  0.406100  1.0  -0.2174
  C  C251  1  0.161200  0.097400  0.379300  1.0  -0.0767
  C  C252  1  0.147300  0.173600  0.398700  1.0  -0.01
  C  C253  1  0.055100  0.217700  0.371700  1.0  -0.0986
  C  C254  1  0.043900  0.290300  0.390400  1.0  -0.1943
  C  C255  1  0.948000  0.041200  0.810400  1.0  0.3492
  C  C256  1  0.862600  0.089000  0.778800  1.0  -0.2203
  C  C257  1  0.872500  0.104000  0.709600  1.0  -0.0686
  C  C258  1  0.965000  0.072300  0.669700  1.0  -0.0079
  C  C259  1  0.978700  0.087300  0.598800  1.0  -0.0563
  C  C260  1  0.066000  0.054900  0.560900  1.0  -0.1985
  C  C261  1  0.148800  0.004300  0.592100  1.0  0.3843
  C  C262  1  0.139400  0.990300  0.661200  1.0  -0.307
  C  C263  1  0.049200  0.023100  0.701800  1.0  0.1265
  C  C264  1  0.037600  0.009300  0.773200  1.0  -0.2828
  O  O265  1  0.383800  0.896300  0.453600  1.0  -0.6512
  O  O266  1  0.077100  0.541300  0.480100  1.0  -0.7176
  O  O267  1  0.560100  0.531600  0.880000  1.0  -0.6131
  O  O268  1  0.263400  0.472700  0.553300  1.0  -0.6522
  O  O269  1  0.116200  0.103700  0.953600  1.0  -0.6523
  O  O270  1  0.422900  0.458700  0.980100  1.0  -0.7181
  O  O271  1  0.939900  0.468400  0.380000  1.0  -0.6134
  O  O272  1  0.236600  0.527300  0.053300  1.0  -0.6525
  O  O273  1  0.616200  0.396300  0.046400  1.0  -0.6517
  O  O274  1  0.922900  0.041300  0.019900  1.0  -0.7183
  O  O275  1  0.439900  0.031600  0.620000  1.0  -0.613
  O  O276  1  0.736600  0.972700  0.946700  1.0  -0.6534
  O  O277  1  0.883800  0.603700  0.546400  1.0  -0.6519
  O  O278  1  0.577100  0.958700  0.519900  1.0  -0.7177
  O  O279  1  0.060100  0.968400  0.120000  1.0  -0.6125
  O  O280  1  0.763400  0.027300  0.446700  1.0  -0.6528
  O  O281  1  0.616200  0.103700  0.546400  1.0  -0.6519
  O  O282  1  0.922900  0.458700  0.519900  1.0  -0.7181
  O  O283  1  0.439900  0.468400  0.120000  1.0  -0.6128
  O  O284  1  0.736600  0.527300  0.446700  1.0  -0.6529
  O  O285  1  0.883800  0.896300  0.046400  1.0  -0.6517
  O  O286  1  0.577100  0.541300  0.019900  1.0  -0.7176
  O  O287  1  0.060100  0.531600  0.620000  1.0  -0.6127
  O  O288  1  0.763400  0.472700  0.946700  1.0  -0.6531
  O  O289  1  0.383800  0.603700  0.953600  1.0  -0.6521
  O  O290  1  0.077100  0.958700  0.980100  1.0  -0.7177
  O  O291  1  0.560100  0.968400  0.380000  1.0  -0.6131
  O  O292  1  0.263400  0.027300  0.053300  1.0  -0.6523
  O  O293  1  0.116200  0.396300  0.453600  1.0  -0.6513
  O  O294  1  0.422900  0.041300  0.480100  1.0  -0.7183
  O  O295  1  0.939900  0.031600  0.880000  1.0  -0.6134
  O  O296  1  0.236600  0.972700  0.553300  1.0  -0.6525
