# generated using pymatgen
data_TiH8(C3O)4
_symmetry_space_group_name_H-M   'P 1'
_cell_length_a   10.76200000
_cell_length_b   16.13700000
_cell_length_c   20.36800000
_cell_angle_alpha   111.65000000
_cell_angle_beta   90.00000000
_cell_angle_gamma   90.00000000
_symmetry_Int_Tables_number   1
_chemical_formula_structural   TiH8(C3O)4
_chemical_formula_sum   'Ti8 H64 C96 O32'
_cell_volume   3287.70230566
_cell_formula_units_Z   8
loop_
 _symmetry_equiv_pos_site_id
 _symmetry_equiv_pos_as_xyz
  1  'x, y, z'
loop_
 _atom_site_type_symbol
 _atom_site_label
 _atom_site_symmetry_multiplicity
 _atom_site_fract_x
 _atom_site_fract_y
 _atom_site_fract_z
 _atom_site_occupancy
 _atom_site_charge
  Ti  Ti1  1  0.359800  0.461800  0.788300  1.0  2.0627
  Ti  Ti2  1  0.578500  0.540400  0.713800  1.0  2.0422
  Ti  Ti3  1  0.859800  0.038200  0.711700  1.0  2.06
  Ti  Ti4  1  0.078500  0.959600  0.786200  1.0  2.0431
  Ti  Ti5  1  0.640200  0.538200  0.211700  1.0  2.0604
  Ti  Ti6  1  0.421500  0.459600  0.286200  1.0  2.0444
  Ti  Ti7  1  0.140200  0.961800  0.288300  1.0  2.0629
  Ti  Ti8  1  0.921500  0.040400  0.213800  1.0  2.0438
  H  H9  1  0.587300  0.307300  0.631500  1.0  0.1265
  H  H10  1  0.713900  0.183800  0.616900  1.0  0.1271
  H  H11  1  0.277200  0.224200  0.675500  1.0  0.1313
  H  H12  1  0.652500  0.398800  0.838500  1.0  0.118
  H  H13  1  0.162000  0.728300  0.682400  1.0  0.1249
  H  H14  1  0.292500  0.607500  0.667400  1.0  0.1183
  H  H15  1  0.358400  0.704000  0.875400  1.0  0.1248
  H  H16  1  0.221400  0.819300  0.890200  1.0  0.1158
  H  H17  1  0.073400  0.636300  0.807700  1.0  0.1053
  H  H18  1  0.879600  0.637100  0.756400  1.0  0.1161
  H  H19  1  0.871900  0.369700  0.689700  1.0  0.1044
  H  H20  1  0.065900  0.368200  0.737700  1.0  0.1167
  H  H21  1  0.445500  0.372900  0.904000  1.0  0.1147
  H  H22  1  0.490000  0.638700  0.990700  1.0  0.1269
  H  H23  1  0.316400  0.481700  0.552100  1.0  0.1143
  H  H24  1  0.688500  0.511400  0.560100  1.0  0.1253
  H  H25  1  0.087300  0.192700  0.868500  1.0  0.1264
  H  H26  1  0.213900  0.316200  0.883100  1.0  0.128
  H  H27  1  0.777200  0.275800  0.824500  1.0  0.131
  H  H28  1  0.152500  0.101200  0.661500  1.0  0.1179
  H  H29  1  0.662000  0.771700  0.817600  1.0  0.1249
  H  H30  1  0.792500  0.892500  0.832600  1.0  0.1182
  H  H31  1  0.858400  0.796000  0.624600  1.0  0.1257
  H  H32  1  0.721400  0.680700  0.609800  1.0  0.1157
  H  H33  1  0.573400  0.863700  0.692300  1.0  0.1053
  H  H34  1  0.379600  0.862900  0.743600  1.0  0.1154
  H  H35  1  0.371900  0.130300  0.810300  1.0  0.1041
  H  H36  1  0.565900  0.131800  0.762300  1.0  0.1168
  H  H37  1  0.945500  0.127100  0.596000  1.0  0.1157
  H  H38  1  0.990000  0.861300  0.509300  1.0  0.1271
  H  H39  1  0.816400  0.018300  0.947900  1.0  0.1143
  H  H40  1  0.188500  0.988600  0.939900  1.0  0.1249
  H  H41  1  0.412700  0.692700  0.368500  1.0  0.1262
  H  H42  1  0.286100  0.816200  0.383100  1.0  0.1268
  H  H43  1  0.722800  0.775800  0.324500  1.0  0.1315
  H  H44  1  0.347500  0.601200  0.161500  1.0  0.1179
  H  H45  1  0.838000  0.271700  0.317600  1.0  0.1248
  H  H46  1  0.707500  0.392500  0.332600  1.0  0.1183
  H  H47  1  0.641600  0.296000  0.124600  1.0  0.1255
  H  H48  1  0.778600  0.180700  0.109800  1.0  0.1158
  H  H49  1  0.926600  0.363700  0.192300  1.0  0.1051
  H  H50  1  0.120400  0.362900  0.243600  1.0  0.1159
  H  H51  1  0.128100  0.630300  0.310300  1.0  0.1046
  H  H52  1  0.934100  0.631800  0.262300  1.0  0.117
  H  H53  1  0.554500  0.627100  0.096000  1.0  0.1169
  H  H54  1  0.510000  0.361300  0.009300  1.0  0.1272
  H  H55  1  0.683600  0.518300  0.447900  1.0  0.113
  H  H56  1  0.311500  0.488600  0.439900  1.0  0.1252
  H  H57  1  0.912700  0.807300  0.131500  1.0  0.1266
  H  H58  1  0.786100  0.683800  0.116900  1.0  0.1269
  H  H59  1  0.222800  0.724200  0.175500  1.0  0.131
  H  H60  1  0.847500  0.898800  0.338500  1.0  0.1179
  H  H61  1  0.338000  0.228300  0.182400  1.0  0.1253
  H  H62  1  0.207500  0.107500  0.167400  1.0  0.1186
  H  H63  1  0.141600  0.204000  0.375400  1.0  0.1249
  H  H64  1  0.278600  0.319300  0.390200  1.0  0.116
  H  H65  1  0.426600  0.136300  0.307700  1.0  0.1051
  H  H66  1  0.620400  0.137100  0.256400  1.0  0.1162
  H  H67  1  0.628100  0.869700  0.189700  1.0  0.1046
  H  H68  1  0.434100  0.868200  0.237700  1.0  0.1166
  H  H69  1  0.054500  0.872900  0.404000  1.0  0.1158
  H  H70  1  0.010000  0.138700  0.490700  1.0  0.1271
  H  H71  1  0.183600  0.981700  0.052100  1.0  0.1129
  H  H72  1  0.811500  0.011400  0.060100  1.0  0.1247
  C  C73  1  0.602200  0.362600  0.736500  1.0  0.3524
  C  C74  1  0.624100  0.300800  0.670600  1.0  -0.1634
  C  C75  1  0.702000  0.227200  0.661500  1.0  -0.1878
  C  C76  1  0.260800  0.279900  0.780400  1.0  0.372
  C  C77  1  0.240100  0.218000  0.714600  1.0  -0.2006
  C  C78  1  0.663000  0.355000  0.793900  1.0  -0.1591
  C  C79  1  0.177500  0.784900  0.787300  1.0  0.3575
  C  C80  1  0.199800  0.722500  0.721500  1.0  -0.1887
  C  C81  1  0.278900  0.650100  0.712200  1.0  -0.1825
  C  C82  1  0.336200  0.642800  0.770300  1.0  0.3575
  C  C83  1  0.316800  0.707500  0.836500  1.0  -0.1708
  C  C84  1  0.236200  0.777300  0.845200  1.0  -0.1659
  C  C85  1  0.088600  0.503900  0.778700  1.0  0.3271
  C  C86  1  0.032700  0.582700  0.784000  1.0  -0.1782
  C  C87  1  0.915600  0.583800  0.754200  1.0  -0.2038
  C  C88  1  0.853600  0.501500  0.720900  1.0  0.3469
  C  C89  1  0.911900  0.423500  0.714100  1.0  -0.162
  C  C90  1  0.028200  0.422000  0.742400  1.0  -0.2001
  C  C91  1  0.456000  0.508900  0.938800  1.0  0.3454
  C  C92  1  0.466100  0.423700  0.942700  1.0  -0.2105
  C  C93  1  0.492700  0.583200  0.994700  1.0  -0.1853
  C  C94  1  0.500500  0.486700  0.565500  1.0  0.33
  C  C95  1  0.390800  0.487000  0.530700  1.0  -0.191
  C  C96  1  0.613700  0.505000  0.535800  1.0  -0.1996
  C  C97  1  0.102200  0.137400  0.763500  1.0  0.3498
  C  C98  1  0.124100  0.199200  0.829400  1.0  -0.1686
  C  C99  1  0.202000  0.272800  0.838500  1.0  -0.1894
  C  C100  1  0.760800  0.220100  0.719600  1.0  0.3703
  C  C101  1  0.740100  0.282000  0.785400  1.0  -0.2
  C  C102  1  0.163000  0.145000  0.706100  1.0  -0.1592
  C  C103  1  0.677500  0.715100  0.712700  1.0  0.3572
  C  C104  1  0.699800  0.777500  0.778500  1.0  -0.1906
  C  C105  1  0.778900  0.849900  0.787800  1.0  -0.1827
  C  C106  1  0.836200  0.857200  0.729700  1.0  0.3579
  C  C107  1  0.816800  0.792500  0.663500  1.0  -0.1706
  C  C108  1  0.736200  0.722700  0.654800  1.0  -0.164
  C  C109  1  0.588600  0.996100  0.721300  1.0  0.3274
  C  C110  1  0.532700  0.917300  0.716000  1.0  -0.179
  C  C111  1  0.415600  0.916200  0.745800  1.0  -0.2034
  C  C112  1  0.353600  0.998500  0.779100  1.0  0.3459
  C  C113  1  0.411900  0.076500  0.785900  1.0  -0.1615
  C  C114  1  0.528200  0.078000  0.757600  1.0  -0.2006
  C  C115  1  0.956000  0.991100  0.561200  1.0  0.3451
  C  C116  1  0.966100  0.076300  0.557300  1.0  -0.2085
  C  C117  1  0.992700  0.916800  0.505300  1.0  -0.1848
  C  C118  1  0.000500  0.013300  0.934500  1.0  0.3319
  C  C119  1  0.890800  0.013000  0.969300  1.0  -0.1916
  C  C120  1  0.113700  0.995000  0.964200  1.0  -0.1975
  C  C121  1  0.397800  0.637400  0.263500  1.0  0.3541
  C  C122  1  0.375900  0.699200  0.329400  1.0  -0.1677
  C  C123  1  0.298000  0.772800  0.338500  1.0  -0.1892
  C  C124  1  0.739200  0.720100  0.219600  1.0  0.3686
  C  C125  1  0.759900  0.782000  0.285400  1.0  -0.2011
  C  C126  1  0.337000  0.645000  0.206100  1.0  -0.1585
  C  C127  1  0.822500  0.215100  0.212700  1.0  0.3575
  C  C128  1  0.800200  0.277500  0.278500  1.0  -0.1899
  C  C129  1  0.721100  0.349900  0.287800  1.0  -0.1832
  C  C130  1  0.663800  0.357200  0.229700  1.0  0.3574
  C  C131  1  0.683200  0.292500  0.163500  1.0  -0.1692
  C  C132  1  0.763800  0.222700  0.154800  1.0  -0.164
  C  C133  1  0.911400  0.496100  0.221300  1.0  0.325
  C  C134  1  0.967300  0.417300  0.216000  1.0  -0.18
  C  C135  1  0.084400  0.416200  0.245800  1.0  -0.2024
  C  C136  1  0.146400  0.498500  0.279100  1.0  0.3467
  C  C137  1  0.088100  0.576500  0.285900  1.0  -0.1611
  C  C138  1  0.971800  0.578000  0.257600  1.0  -0.2011
  C  C139  1  0.544000  0.491100  0.061200  1.0  0.3463
  C  C140  1  0.533900  0.576300  0.057300  1.0  -0.2079
  C  C141  1  0.507300  0.416800  0.005300  1.0  -0.1832
  C  C142  1  0.499500  0.513300  0.434500  1.0  0.3333
  C  C143  1  0.609200  0.513000  0.469300  1.0  -0.1905
  C  C144  1  0.386300  0.495000  0.464200  1.0  -0.1969
  C  C145  1  0.897800  0.862600  0.236500  1.0  0.3519
  C  C146  1  0.875900  0.800800  0.170600  1.0  -0.1626
  C  C147  1  0.798000  0.727200  0.161500  1.0  -0.1889
  C  C148  1  0.239200  0.779900  0.280400  1.0  0.3706
  C  C149  1  0.259900  0.718000  0.214600  1.0  -0.2005
  C  C150  1  0.837000  0.855000  0.293900  1.0  -0.1575
  C  C151  1  0.322500  0.284900  0.287300  1.0  0.3578
  C  C152  1  0.300200  0.222500  0.221500  1.0  -0.1893
  C  C153  1  0.221100  0.150100  0.212200  1.0  -0.1829
  C  C154  1  0.163800  0.142800  0.270300  1.0  0.3571
  C  C155  1  0.183200  0.207500  0.336500  1.0  -0.1717
  C  C156  1  0.263800  0.277300  0.345200  1.0  -0.1656
  C  C157  1  0.411400  0.003900  0.278700  1.0  0.3252
  C  C158  1  0.467300  0.082700  0.284000  1.0  -0.1791
  C  C159  1  0.584400  0.083800  0.254200  1.0  -0.2033
  C  C160  1  0.646400  0.001500  0.220900  1.0  0.3477
  C  C161  1  0.588100  0.923500  0.214100  1.0  -0.1611
  C  C162  1  0.471800  0.922000  0.242400  1.0  -0.2006
  C  C163  1  0.044000  0.008900  0.438800  1.0  0.3467
  C  C164  1  0.033900  0.923700  0.442700  1.0  -0.2096
  C  C165  1  0.007300  0.083200  0.494700  1.0  -0.1838
  C  C166  1  0.999500  0.986700  0.065500  1.0  0.3315
  C  C167  1  0.109200  0.987000  0.030700  1.0  -0.1897
  C  C168  1  0.886300  0.005000  0.035800  1.0  -0.1986
  O  O169  1  0.201700  0.506200  0.810000  1.0  -0.6783
  O  O170  1  0.531500  0.436900  0.746200  1.0  -0.8698
  O  O171  1  0.419000  0.517200  0.876800  1.0  -0.6511
  O  O172  1  0.412300  0.570200  0.762900  1.0  -0.8835
  O  O173  1  0.335000  0.352400  0.788100  1.0  -0.7299
  O  O174  1  0.095400  0.853300  0.794700  1.0  -0.6983
  O  O175  1  0.738100  0.502900  0.695000  1.0  -0.6938
  O  O176  1  0.500900  0.479000  0.628300  1.0  -0.6535
  O  O177  1  0.701700  0.993800  0.690000  1.0  -0.6789
  O  O178  1  0.031500  0.063100  0.753800  1.0  -0.8687
  O  O179  1  0.919000  0.982800  0.623200  1.0  -0.6513
  O  O180  1  0.912300  0.929800  0.737100  1.0  -0.8832
  O  O181  1  0.835000  0.147600  0.711900  1.0  -0.7288
  O  O182  1  0.595400  0.646700  0.705300  1.0  -0.6984
  O  O183  1  0.238100  0.997100  0.805000  1.0  -0.6931
  O  O184  1  0.000900  0.021000  0.871700  1.0  -0.6536
  O  O185  1  0.798300  0.493800  0.190000  1.0  -0.6792
  O  O186  1  0.468500  0.563100  0.253800  1.0  -0.8677
  O  O187  1  0.581000  0.482800  0.123200  1.0  -0.6505
  O  O188  1  0.587700  0.429800  0.237100  1.0  -0.8833
  O  O189  1  0.665000  0.647600  0.211900  1.0  -0.7284
  O  O190  1  0.904600  0.146700  0.205300  1.0  -0.6977
  O  O191  1  0.261900  0.497100  0.305000  1.0  -0.694
  O  O192  1  0.499100  0.521000  0.371700  1.0  -0.6529
  O  O193  1  0.298300  0.006200  0.310000  1.0  -0.6781
  O  O194  1  0.968500  0.936900  0.246200  1.0  -0.8687
  O  O195  1  0.081000  0.017200  0.376800  1.0  -0.6502
  O  O196  1  0.087700  0.070200  0.262900  1.0  -0.8833
  O  O197  1  0.165000  0.852400  0.288100  1.0  -0.7296
  O  O198  1  0.404600  0.353300  0.294700  1.0  -0.6974
  O  O199  1  0.761900  0.002900  0.195000  1.0  -0.6946
  O  O200  1  0.999100  0.979000  0.128300  1.0  -0.6539
