# generated using pymatgen
data_YbH9(C3O)6
_symmetry_space_group_name_H-M   'P 1'
_cell_length_a   8.45150000
_cell_length_b   12.39720000
_cell_length_c   12.56800000
_cell_angle_alpha   110.45300000
_cell_angle_beta   102.13200000
_cell_angle_gamma   109.61900000
_symmetry_Int_Tables_number   1
_chemical_formula_structural   YbH9(C3O)6
_chemical_formula_sum   'Yb2 H18 C36 O12'
_cell_volume   1079.19827369
_cell_formula_units_Z   2
loop_
 _symmetry_equiv_pos_site_id
 _symmetry_equiv_pos_as_xyz
  1  'x, y, z'
loop_
 _atom_site_type_symbol
 _atom_site_label
 _atom_site_symmetry_multiplicity
 _atom_site_fract_x
 _atom_site_fract_y
 _atom_site_fract_z
 _atom_site_occupancy
 _atom_site_charge
  Yb  Yb1  1  0.705970  0.541470  0.403610  1.0  1.5228
  Yb  Yb2  1  0.294030  0.458530  0.596390  1.0  1.5219
  H  H3  1  0.055100  0.951100  0.408100  1.0  0.1237
  H  H4  1  0.314900  0.116700  0.431800  1.0  0.109
  H  H5  1  0.646400  0.212200  0.476400  1.0  0.1154
  H  H6  1  0.348900  0.416700  0.987800  1.0  0.1103
  H  H7  1  0.114900  0.388600  0.830300  1.0  0.1248
  H  H8  1  0.838600  0.414800  0.761600  1.0  0.1234
  H  H9  1  0.030000  0.828300  0.728300  1.0  0.1202
  H  H10  1  0.254600  0.989200  0.910300  1.0  0.1199
  H  H11  1  0.349200  0.160800  0.123900  1.0  0.1217
  H  H12  1  0.944900  0.048900  0.591900  1.0  0.1233
  H  H13  1  0.685100  0.883300  0.568200  1.0  0.1096
  H  H14  1  0.353600  0.787800  0.523600  1.0  0.1156
  H  H15  1  0.651100  0.583300  0.012200  1.0  0.1104
  H  H16  1  0.885100  0.611400  0.169700  1.0  0.1245
  H  H17  1  0.161400  0.585200  0.238400  1.0  0.1231
  H  H18  1  0.970000  0.171700  0.271700  1.0  0.1193
  H  H19  1  0.745400  0.010800  0.089700  1.0  0.1204
  H  H20  1  0.650800  0.839200  0.876100  1.0  0.1211
  C  C21  1  0.014300  0.748900  0.450000  1.0  0.6743
  C  C22  1  0.182300  0.852900  0.463800  1.0  -0.113
  C  C23  1  0.169400  0.952100  0.435600  1.0  -0.0443
  C  C24  1  0.323000  0.049200  0.448400  1.0  -0.097
  C  C25  1  0.493400  0.049400  0.486300  1.0  0.0497
  C  C26  1  0.653400  0.146600  0.496900  1.0  -0.087
  C  C27  1  0.430100  0.521300  0.227500  1.0  0.6855
  C  C28  1  0.275900  0.503500  0.128200  1.0  -0.11
  C  C29  1  0.261700  0.444900  0.005700  1.0  -0.0347
  C  C30  1  0.123400  0.428300  0.912400  1.0  -0.1177
  C  C31  1  0.992600  0.470500  0.938300  1.0  0.0544
  C  C32  1  0.849300  0.454500  0.844200  1.0  -0.0916
  C  C33  1  0.671500  0.708600  0.668500  1.0  0.724
  C  C34  1  0.817900  0.821000  0.785100  1.0  -0.1359
  C  C35  1  0.999700  0.865800  0.796100  1.0  -0.0378
  C  C36  1  0.131900  0.962200  0.903200  1.0  -0.1138
  C  C37  1  0.091300  0.023500  0.004400  1.0  0.0564
  C  C38  1  0.226500  0.127000  0.116700  1.0  -0.0884
  C  C39  1  0.985700  0.251100  0.550000  1.0  0.6735
  C  C40  1  0.817700  0.147100  0.536200  1.0  -0.1134
  C  C41  1  0.830600  0.047900  0.564400  1.0  -0.0438
  C  C42  1  0.677000  0.950800  0.551600  1.0  -0.1022
  C  C43  1  0.506600  0.950600  0.513700  1.0  0.0497
  C  C44  1  0.346600  0.853400  0.503100  1.0  -0.0867
  C  C45  1  0.569900  0.478700  0.772500  1.0  0.6797
  C  C46  1  0.724100  0.496500  0.871800  1.0  -0.1096
  C  C47  1  0.738300  0.555100  0.994300  1.0  -0.0347
  C  C48  1  0.876600  0.571700  0.087600  1.0  -0.1197
  C  C49  1  0.007400  0.529500  0.061700  1.0  0.0544
  C  C50  1  0.150700  0.545500  0.155800  1.0  -0.0929
  C  C51  1  0.328500  0.291400  0.331500  1.0  0.7125
  C  C52  1  0.182100  0.179000  0.214900  1.0  -0.1357
  C  C53  1  0.000300  0.134200  0.203900  1.0  -0.0389
  C  C54  1  0.868100  0.037800  0.096800  1.0  -0.1181
  C  C55  1  0.908700  0.976500  0.995600  1.0  0.0563
  C  C56  1  0.773500  0.873000  0.883300  1.0  -0.0894
  O  O57  1  0.861000  0.733900  0.392700  1.0  -0.5752
  O  O58  1  0.028200  0.671700  0.493200  1.0  -0.6348
  O  O59  1  0.550300  0.491500  0.201000  1.0  -0.5782
  O  O60  1  0.440800  0.566600  0.338900  1.0  -0.6026
  O  O61  1  0.716500  0.673000  0.578400  1.0  -0.6738
  O  O62  1  0.516000  0.658500  0.667800  1.0  -0.6812
  O  O63  1  0.139000  0.266100  0.607300  1.0  -0.5746
  O  O64  1  0.971800  0.328300  0.506800  1.0  -0.6341
  O  O65  1  0.449700  0.508500  0.799000  1.0  -0.5781
  O  O66  1  0.559200  0.433400  0.661100  1.0  -0.6052
  O  O67  1  0.283500  0.327000  0.421600  1.0  -0.6772
  O  O68  1  0.484000  0.341500  0.332200  1.0  -0.6794
