# generated using pymatgen
data_EuH9C21NO8
_symmetry_space_group_name_H-M   'P 1'
_cell_length_a   19.66750000
_cell_length_b   11.94570000
_cell_length_c   21.97730000
_cell_angle_alpha   90.00000000
_cell_angle_beta   97.16600000
_cell_angle_gamma   90.00000000
_symmetry_Int_Tables_number   1
_chemical_formula_structural   EuH9C21NO8
_chemical_formula_sum   'Eu8 H72 C168 N8 O64'
_cell_volume   5123.06025293
_cell_formula_units_Z   8
loop_
 _symmetry_equiv_pos_site_id
 _symmetry_equiv_pos_as_xyz
  1  'x, y, z'
loop_
 _atom_site_type_symbol
 _atom_site_label
 _atom_site_symmetry_multiplicity
 _atom_site_fract_x
 _atom_site_fract_y
 _atom_site_fract_z
 _atom_site_occupancy
 _atom_site_charge
  Eu  Eu1  1  0.331550  0.329890  0.974320  1.0  2.1388
  Eu  Eu2  1  0.831550  0.829890  0.974320  1.0  2.1388
  Eu  Eu3  1  0.668450  0.329890  0.525680  1.0  2.1392
  Eu  Eu4  1  0.168450  0.829890  0.525680  1.0  2.1392
  Eu  Eu5  1  0.668450  0.670110  0.025680  1.0  2.1393
  Eu  Eu6  1  0.168450  0.170110  0.025680  1.0  2.1414
  Eu  Eu7  1  0.331550  0.670110  0.474320  1.0  2.1395
  Eu  Eu8  1  0.831550  0.170110  0.474320  1.0  2.1416
  H  H9  1  0.151400  0.228600  0.680800  1.0  0.1271
  H  H10  1  0.149100  0.805600  0.816500  1.0  0.1489
  H  H11  1  0.422300  0.765100  0.948900  1.0  0.1244
  H  H12  1  0.415800  0.067500  0.083300  1.0  0.1344
  H  H13  1  0.179400  0.902800  0.729100  1.0  0.1259
  H  H14  1  0.511100  0.948800  0.092400  1.0  0.1391
  H  H15  1  0.192000  0.282100  0.780700  1.0  0.1379
  H  H16  1  0.190700  0.664900  0.886200  1.0  0.1359
  H  H17  1  0.288800  0.701400  0.955900  1.0  0.1267
  H  H18  1  0.651400  0.728600  0.680800  1.0  0.1271
  H  H19  1  0.649100  0.305600  0.816500  1.0  0.1489
  H  H20  1  0.922300  0.265100  0.948900  1.0  0.1244
  H  H21  1  0.915800  0.567500  0.083300  1.0  0.1344
  H  H22  1  0.679400  0.402800  0.729100  1.0  0.1259
  H  H23  1  0.011100  0.448800  0.092400  1.0  0.1391
  H  H24  1  0.692000  0.782100  0.780700  1.0  0.1379
  H  H25  1  0.690700  0.164900  0.886200  1.0  0.1359
  H  H26  1  0.788800  0.201400  0.955900  1.0  0.1267
  H  H27  1  0.848600  0.228600  0.819200  1.0  0.1264
  H  H28  1  0.850900  0.805600  0.683500  1.0  0.149
  H  H29  1  0.577700  0.765100  0.551100  1.0  0.1245
  H  H30  1  0.584200  0.067500  0.416700  1.0  0.1349
  H  H31  1  0.820600  0.902800  0.770900  1.0  0.1259
  H  H32  1  0.488900  0.948800  0.407600  1.0  0.1395
  H  H33  1  0.808000  0.282100  0.719300  1.0  0.1382
  H  H34  1  0.809300  0.664900  0.613800  1.0  0.1353
  H  H35  1  0.711200  0.701400  0.544100  1.0  0.1266
  H  H36  1  0.348600  0.728600  0.819200  1.0  0.1264
  H  H37  1  0.350900  0.305600  0.683500  1.0  0.149
  H  H38  1  0.077700  0.265100  0.551100  1.0  0.1245
  H  H39  1  0.084200  0.567500  0.416700  1.0  0.1349
  H  H40  1  0.320600  0.402800  0.770900  1.0  0.1259
  H  H41  1  0.988900  0.448800  0.407600  1.0  0.1395
  H  H42  1  0.308000  0.782100  0.719300  1.0  0.1382
  H  H43  1  0.309300  0.164900  0.613800  1.0  0.1353
  H  H44  1  0.211200  0.201400  0.544100  1.0  0.1266
  H  H45  1  0.848600  0.771400  0.319200  1.0  0.1262
  H  H46  1  0.850900  0.194400  0.183500  1.0  0.149
  H  H47  1  0.577700  0.234900  0.051100  1.0  0.1244
  H  H48  1  0.584200  0.932500  0.916700  1.0  0.1347
  H  H49  1  0.820600  0.097200  0.270900  1.0  0.1255
  H  H50  1  0.488900  0.051200  0.907600  1.0  0.1392
  H  H51  1  0.808000  0.717900  0.219300  1.0  0.1378
  H  H52  1  0.809300  0.335100  0.113800  1.0  0.1353
  H  H53  1  0.711200  0.298600  0.044100  1.0  0.1278
  H  H54  1  0.348600  0.271400  0.319200  1.0  0.1262
  H  H55  1  0.350900  0.694400  0.183500  1.0  0.149
  H  H56  1  0.077700  0.734900  0.051100  1.0  0.1244
  H  H57  1  0.084200  0.432500  0.916700  1.0  0.1347
  H  H58  1  0.320600  0.597200  0.270900  1.0  0.1255
  H  H59  1  0.988900  0.551200  0.907600  1.0  0.1392
  H  H60  1  0.308000  0.217900  0.219300  1.0  0.1378
  H  H61  1  0.309300  0.835100  0.113800  1.0  0.1353
  H  H62  1  0.211200  0.798600  0.044100  1.0  0.1278
  H  H63  1  0.151400  0.771400  0.180800  1.0  0.1271
  H  H64  1  0.149100  0.194400  0.316500  1.0  0.1494
  H  H65  1  0.422300  0.234900  0.448900  1.0  0.1244
  H  H66  1  0.415800  0.932500  0.583300  1.0  0.1349
  H  H67  1  0.179400  0.097200  0.229100  1.0  0.1265
  H  H68  1  0.511100  0.051200  0.592400  1.0  0.139
  H  H69  1  0.192000  0.717900  0.280700  1.0  0.138
  H  H70  1  0.190700  0.335100  0.386200  1.0  0.1363
  H  H71  1  0.288800  0.298600  0.455900  1.0  0.1274
  H  H72  1  0.651400  0.271400  0.180800  1.0  0.1271
  H  H73  1  0.649100  0.694400  0.316500  1.0  0.1494
  H  H74  1  0.922300  0.734900  0.448900  1.0  0.1244
  H  H75  1  0.915800  0.432500  0.583300  1.0  0.1349
  H  H76  1  0.679400  0.597200  0.229100  1.0  0.1265
  H  H77  1  0.011100  0.551200  0.592400  1.0  0.139
  H  H78  1  0.692000  0.217900  0.280700  1.0  0.138
  H  H79  1  0.690700  0.835100  0.386200  1.0  0.1363
  H  H80  1  0.788800  0.798600  0.455900  1.0  0.1274
  C  C81  1  0.164300  0.173200  0.711100  1.0  -0.0104
  C  C82  1  0.188300  0.818400  0.845500  1.0  -0.118
  C  C83  1  0.218400  0.166500  0.881400  1.0  0.7159
  C  C84  1  0.476100  0.847300  0.021000  1.0  -0.0881
  C  C85  1  0.420100  0.825000  0.977000  1.0  -0.0508
  C  C86  1  0.299800  0.863700  0.928400  1.0  0.2389
  C  C87  1  0.134400  0.024400  0.630800  1.0  0.766
  C  C88  1  0.359100  0.981400  0.013900  1.0  -0.0899
  C  C89  1  0.203500  0.123900  0.816300  1.0  -0.0287
  C  C90  1  0.416300  0.004400  0.057000  1.0  -0.0376
  C  C91  1  0.540300  0.779600  0.022700  1.0  0.6978
  C  C92  1  0.201100  0.010500  0.801200  1.0  -0.0337
  C  C93  1  0.222500  0.921400  0.847400  1.0  0.219
  C  C94  1  0.180100  0.979700  0.740200  1.0  -0.0323
  C  C95  1  0.473600  0.935400  0.061600  1.0  -0.0335
  C  C96  1  0.187200  0.204900  0.770700  1.0  -0.0625
  C  C97  1  0.296700  0.049500  0.017000  1.0  0.7085
  C  C98  1  0.360500  0.890900  0.974200  1.0  -0.0371
  C  C99  1  0.212800  0.735600  0.886500  1.0  -0.0865
  C  C100  1  0.160200  0.060300  0.695500  1.0  -0.0982
  C  C101  1  0.270000  0.757600  0.928100  1.0  -0.0782
  C  C102  1  0.664300  0.673200  0.711100  1.0  -0.0104
  C  C103  1  0.688300  0.318400  0.845500  1.0  -0.118
  C  C104  1  0.718400  0.666500  0.881400  1.0  0.7159
  C  C105  1  0.976100  0.347300  0.021000  1.0  -0.0881
  C  C106  1  0.920100  0.325000  0.977000  1.0  -0.0508
  C  C107  1  0.799800  0.363700  0.928400  1.0  0.2389
  C  C108  1  0.634400  0.524400  0.630800  1.0  0.766
  C  C109  1  0.859100  0.481400  0.013900  1.0  -0.0899
  C  C110  1  0.703500  0.623900  0.816300  1.0  -0.0287
  C  C111  1  0.916300  0.504400  0.057000  1.0  -0.0376
  C  C112  1  0.040300  0.279600  0.022700  1.0  0.6978
  C  C113  1  0.701100  0.510500  0.801200  1.0  -0.0337
  C  C114  1  0.722500  0.421400  0.847400  1.0  0.219
  C  C115  1  0.680100  0.479700  0.740200  1.0  -0.0323
  C  C116  1  0.973600  0.435400  0.061600  1.0  -0.0335
  C  C117  1  0.687200  0.704900  0.770700  1.0  -0.0625
  C  C118  1  0.796700  0.549500  0.017000  1.0  0.7085
  C  C119  1  0.860500  0.390900  0.974200  1.0  -0.0371
  C  C120  1  0.712800  0.235600  0.886500  1.0  -0.0865
  C  C121  1  0.660200  0.560300  0.695500  1.0  -0.0982
  C  C122  1  0.770000  0.257600  0.928100  1.0  -0.0782
  C  C123  1  0.835700  0.173200  0.788900  1.0  -0.0118
  C  C124  1  0.811700  0.818400  0.654500  1.0  -0.1153
  C  C125  1  0.781600  0.166500  0.618600  1.0  0.7157
  C  C126  1  0.523900  0.847300  0.479000  1.0  -0.0889
  C  C127  1  0.579900  0.825000  0.523000  1.0  -0.0509
  C  C128  1  0.700200  0.863700  0.571600  1.0  0.239
  C  C129  1  0.865600  0.024400  0.869200  1.0  0.7674
  C  C130  1  0.640900  0.981400  0.486100  1.0  -0.0898
  C  C131  1  0.796500  0.123900  0.683700  1.0  -0.0272
  C  C132  1  0.583700  0.004400  0.443000  1.0  -0.0346
  C  C133  1  0.459700  0.779600  0.477300  1.0  0.6992
  C  C134  1  0.798900  0.010500  0.698800  1.0  -0.0342
  C  C135  1  0.777500  0.921400  0.652600  1.0  0.2189
  C  C136  1  0.819900  0.979700  0.759800  1.0  -0.0323
  C  C137  1  0.526400  0.935400  0.438400  1.0  -0.0331
  C  C138  1  0.812800  0.204900  0.729300  1.0  -0.0624
  C  C139  1  0.703300  0.049500  0.483000  1.0  0.7089
  C  C140  1  0.639500  0.890900  0.525800  1.0  -0.0389
  C  C141  1  0.787200  0.735600  0.613500  1.0  -0.0861
  C  C142  1  0.839800  0.060300  0.804500  1.0  -0.1002
  C  C143  1  0.730000  0.757600  0.571900  1.0  -0.0792
  C  C144  1  0.335700  0.673200  0.788900  1.0  -0.0118
  C  C145  1  0.311700  0.318400  0.654500  1.0  -0.1153
  C  C146  1  0.281600  0.666500  0.618600  1.0  0.7157
  C  C147  1  0.023900  0.347300  0.479000  1.0  -0.0889
  C  C148  1  0.079900  0.325000  0.523000  1.0  -0.0509
  C  C149  1  0.200200  0.363700  0.571600  1.0  0.239
  C  C150  1  0.365600  0.524400  0.869200  1.0  0.7674
  C  C151  1  0.140900  0.481400  0.486100  1.0  -0.0898
  C  C152  1  0.296500  0.623900  0.683700  1.0  -0.0272
  C  C153  1  0.083700  0.504400  0.443000  1.0  -0.0346
  C  C154  1  0.959700  0.279600  0.477300  1.0  0.6992
  C  C155  1  0.298900  0.510500  0.698800  1.0  -0.0342
  C  C156  1  0.277500  0.421400  0.652600  1.0  0.2189
  C  C157  1  0.319900  0.479700  0.759800  1.0  -0.0323
  C  C158  1  0.026400  0.435400  0.438400  1.0  -0.0331
  C  C159  1  0.312800  0.704900  0.729300  1.0  -0.0624
  C  C160  1  0.203300  0.549500  0.483000  1.0  0.7089
  C  C161  1  0.139500  0.390900  0.525800  1.0  -0.0389
  C  C162  1  0.287200  0.235600  0.613500  1.0  -0.0861
  C  C163  1  0.339800  0.560300  0.804500  1.0  -0.1002
  C  C164  1  0.230000  0.257600  0.571900  1.0  -0.0792
  C  C165  1  0.835700  0.826800  0.288900  1.0  -0.0118
  C  C166  1  0.811700  0.181600  0.154500  1.0  -0.1155
  C  C167  1  0.781600  0.833500  0.118600  1.0  0.7161
  C  C168  1  0.523900  0.152700  0.979000  1.0  -0.0876
  C  C169  1  0.579900  0.175000  0.023000  1.0  -0.0517
  C  C170  1  0.700200  0.136300  0.071600  1.0  0.2385
  C  C171  1  0.865600  0.975600  0.369200  1.0  0.7675
  C  C172  1  0.640900  0.018600  0.986100  1.0  -0.0895
  C  C173  1  0.796500  0.876100  0.183700  1.0  -0.0273
  C  C174  1  0.583700  0.995600  0.943000  1.0  -0.0345
  C  C175  1  0.459700  0.220400  0.977300  1.0  0.6999
  C  C176  1  0.798900  0.989500  0.198800  1.0  -0.0341
  C  C177  1  0.777500  0.078600  0.152600  1.0  0.2184
  C  C178  1  0.819900  0.020300  0.259800  1.0  -0.0317
  C  C179  1  0.526400  0.064600  0.938400  1.0  -0.0332
  C  C180  1  0.812800  0.795100  0.229300  1.0  -0.0612
  C  C181  1  0.703300  0.950500  0.983000  1.0  0.7084
  C  C182  1  0.639500  0.109100  0.025800  1.0  -0.0386
  C  C183  1  0.787200  0.264400  0.113500  1.0  -0.0853
  C  C184  1  0.839800  0.939700  0.304500  1.0  -0.1003
  C  C185  1  0.730000  0.242400  0.071900  1.0  -0.0792
  C  C186  1  0.335700  0.326800  0.288900  1.0  -0.0118
  C  C187  1  0.311700  0.681600  0.154500  1.0  -0.1155
  C  C188  1  0.281600  0.333500  0.118600  1.0  0.7161
  C  C189  1  0.023900  0.652700  0.979000  1.0  -0.0876
  C  C190  1  0.079900  0.675000  0.023000  1.0  -0.0517
  C  C191  1  0.200200  0.636300  0.071600  1.0  0.2385
  C  C192  1  0.365600  0.475600  0.369200  1.0  0.7675
  C  C193  1  0.140900  0.518600  0.986100  1.0  -0.0895
  C  C194  1  0.296500  0.376100  0.183700  1.0  -0.0273
  C  C195  1  0.083700  0.495600  0.943000  1.0  -0.0345
  C  C196  1  0.959700  0.720400  0.977300  1.0  0.6999
  C  C197  1  0.298900  0.489500  0.198800  1.0  -0.0341
  C  C198  1  0.277500  0.578600  0.152600  1.0  0.2184
  C  C199  1  0.319900  0.520300  0.259800  1.0  -0.0317
  C  C200  1  0.026400  0.564600  0.938400  1.0  -0.0332
  C  C201  1  0.312800  0.295100  0.229300  1.0  -0.0612
  C  C202  1  0.203300  0.450500  0.983000  1.0  0.7084
  C  C203  1  0.139500  0.609100  0.025800  1.0  -0.0386
  C  C204  1  0.287200  0.764400  0.113500  1.0  -0.0853
  C  C205  1  0.339800  0.439700  0.304500  1.0  -0.1003
  C  C206  1  0.230000  0.742400  0.071900  1.0  -0.0792
  C  C207  1  0.164300  0.826800  0.211100  1.0  -0.0105
  C  C208  1  0.188300  0.181600  0.345500  1.0  -0.1178
  C  C209  1  0.218400  0.833500  0.381400  1.0  0.7163
  C  C210  1  0.476100  0.152700  0.521000  1.0  -0.0884
  C  C211  1  0.420100  0.175000  0.477000  1.0  -0.0517
  C  C212  1  0.299800  0.136300  0.428400  1.0  0.2385
  C  C213  1  0.134400  0.975600  0.130800  1.0  0.7669
  C  C214  1  0.359100  0.018600  0.513900  1.0  -0.0904
  C  C215  1  0.203500  0.876100  0.316300  1.0  -0.0286
  C  C216  1  0.416300  0.995600  0.557000  1.0  -0.0376
  C  C217  1  0.540300  0.220400  0.522700  1.0  0.6986
  C  C218  1  0.201100  0.989500  0.301200  1.0  -0.0336
  C  C219  1  0.222500  0.078600  0.347400  1.0  0.2182
  C  C220  1  0.180100  0.020300  0.240200  1.0  -0.0324
  C  C221  1  0.473600  0.064600  0.561600  1.0  -0.0339
  C  C222  1  0.187200  0.795100  0.270700  1.0  -0.0621
  C  C223  1  0.296700  0.950500  0.517000  1.0  0.7084
  C  C224  1  0.360500  0.109100  0.474200  1.0  -0.037
  C  C225  1  0.212800  0.264400  0.386500  1.0  -0.0848
  C  C226  1  0.160200  0.939700  0.195500  1.0  -0.0979
  C  C227  1  0.270000  0.242400  0.428100  1.0  -0.0783
  C  C228  1  0.664300  0.326800  0.211100  1.0  -0.0105
  C  C229  1  0.688300  0.681600  0.345500  1.0  -0.1178
  C  C230  1  0.718400  0.333500  0.381400  1.0  0.7163
  C  C231  1  0.976100  0.652700  0.521000  1.0  -0.0884
  C  C232  1  0.920100  0.675000  0.477000  1.0  -0.0517
  C  C233  1  0.799800  0.636300  0.428400  1.0  0.2385
  C  C234  1  0.634400  0.475600  0.130800  1.0  0.7669
  C  C235  1  0.859100  0.518600  0.513900  1.0  -0.0904
  C  C236  1  0.703500  0.376100  0.316300  1.0  -0.0286
  C  C237  1  0.916300  0.495600  0.557000  1.0  -0.0376
  C  C238  1  0.040300  0.720400  0.522700  1.0  0.6986
  C  C239  1  0.701100  0.489500  0.301200  1.0  -0.0336
  C  C240  1  0.722500  0.578600  0.347400  1.0  0.2182
  C  C241  1  0.680100  0.520300  0.240200  1.0  -0.0324
  C  C242  1  0.973600  0.564600  0.561600  1.0  -0.0339
  C  C243  1  0.687200  0.295100  0.270700  1.0  -0.0621
  C  C244  1  0.796700  0.450500  0.517000  1.0  0.7084
  C  C245  1  0.860500  0.609100  0.474200  1.0  -0.037
  C  C246  1  0.712800  0.764400  0.386500  1.0  -0.0848
  C  C247  1  0.660200  0.439700  0.195500  1.0  -0.0979
  C  C248  1  0.770000  0.742400  0.428100  1.0  -0.0783
  N  N249  1  0.276800  0.945100  0.889230  1.0  -0.3936
  N  N250  1  0.776800  0.445100  0.889230  1.0  -0.3936
  N  N251  1  0.723200  0.945100  0.610770  1.0  -0.3948
  N  N252  1  0.223200  0.445100  0.610770  1.0  -0.3948
  N  N253  1  0.723200  0.054900  0.110770  1.0  -0.3947
  N  N254  1  0.223200  0.554900  0.110770  1.0  -0.3947
  N  N255  1  0.276800  0.054900  0.389230  1.0  -0.3926
  N  N256  1  0.776800  0.554900  0.389230  1.0  -0.3926
  O  O257  1  0.300130  0.156100  0.015610  1.0  -0.8288
  O  O258  1  0.177940  0.135800  0.918450  1.0  -0.7034
  O  O259  1  0.241690  0.000700  0.023460  1.0  -0.6378
  O  O260  1  0.266710  0.233100  0.891760  1.0  -0.6811
  O  O261  1  0.551360  0.721300  0.977310  1.0  -0.6264
  O  O262  1  0.151500  0.928800  0.614330  1.0  -0.7271
  O  O263  1  0.583930  0.784900  0.069720  1.0  -0.662
  O  O264  1  0.095620  0.090700  0.598290  1.0  -0.5411
  O  O265  1  0.800130  0.656100  0.015610  1.0  -0.8288
  O  O266  1  0.677940  0.635800  0.918450  1.0  -0.7034
  O  O267  1  0.741690  0.500700  0.023460  1.0  -0.6378
  O  O268  1  0.766710  0.733100  0.891760  1.0  -0.6811
  O  O269  1  0.051360  0.221300  0.977310  1.0  -0.6264
  O  O270  1  0.651500  0.428800  0.614330  1.0  -0.7271
  O  O271  1  0.083930  0.284900  0.069720  1.0  -0.662
  O  O272  1  0.595620  0.590700  0.598290  1.0  -0.5411
  O  O273  1  0.699870  0.156100  0.484390  1.0  -0.8288
  O  O274  1  0.822060  0.135800  0.581550  1.0  -0.7047
  O  O275  1  0.758310  0.000700  0.476540  1.0  -0.637
  O  O276  1  0.733290  0.233100  0.608240  1.0  -0.6814
  O  O277  1  0.448640  0.721300  0.522690  1.0  -0.6287
  O  O278  1  0.848500  0.928800  0.885670  1.0  -0.7254
  O  O279  1  0.416070  0.784900  0.430280  1.0  -0.6642
  O  O280  1  0.904380  0.090700  0.901710  1.0  -0.5423
  O  O281  1  0.199870  0.656100  0.484390  1.0  -0.8288
  O  O282  1  0.322060  0.635800  0.581550  1.0  -0.7047
  O  O283  1  0.258310  0.500700  0.476540  1.0  -0.637
  O  O284  1  0.233290  0.733100  0.608240  1.0  -0.6814
  O  O285  1  0.948640  0.221300  0.522690  1.0  -0.6287
  O  O286  1  0.348500  0.428800  0.885670  1.0  -0.7254
  O  O287  1  0.916070  0.284900  0.430280  1.0  -0.6642
  O  O288  1  0.404380  0.590700  0.901710  1.0  -0.5423
  O  O289  1  0.699870  0.843900  0.984390  1.0  -0.8284
  O  O290  1  0.822060  0.864200  0.081550  1.0  -0.7048
  O  O291  1  0.758310  0.999300  0.976540  1.0  -0.6378
  O  O292  1  0.733290  0.766900  0.108240  1.0  -0.681
  O  O293  1  0.448640  0.278700  0.022690  1.0  -0.6286
  O  O294  1  0.848500  0.071200  0.385670  1.0  -0.7248
  O  O295  1  0.416070  0.215100  0.930280  1.0  -0.6651
  O  O296  1  0.904380  0.909300  0.401710  1.0  -0.542
  O  O297  1  0.199870  0.343900  0.984390  1.0  -0.8284
  O  O298  1  0.322060  0.364200  0.081550  1.0  -0.7048
  O  O299  1  0.258310  0.499300  0.976540  1.0  -0.6378
  O  O300  1  0.233290  0.266900  0.108240  1.0  -0.681
  O  O301  1  0.948640  0.778700  0.022690  1.0  -0.6287
  O  O302  1  0.348500  0.571200  0.385670  1.0  -0.7248
  O  O303  1  0.916070  0.715100  0.930280  1.0  -0.6651
  O  O304  1  0.404380  0.409300  0.401710  1.0  -0.542
  O  O305  1  0.300130  0.843900  0.515610  1.0  -0.8279
  O  O306  1  0.177940  0.864200  0.418450  1.0  -0.7038
  O  O307  1  0.241690  0.999300  0.523460  1.0  -0.6371
  O  O308  1  0.266710  0.766900  0.391760  1.0  -0.6807
  O  O309  1  0.551360  0.278700  0.477310  1.0  -0.6273
  O  O310  1  0.151500  0.071200  0.114330  1.0  -0.7276
  O  O311  1  0.583930  0.215100  0.569720  1.0  -0.6623
  O  O312  1  0.095620  0.909300  0.098290  1.0  -0.5411
  O  O313  1  0.800130  0.343900  0.515610  1.0  -0.8279
  O  O314  1  0.677940  0.364200  0.418450  1.0  -0.7038
  O  O315  1  0.741690  0.499300  0.523460  1.0  -0.6371
  O  O316  1  0.766710  0.266900  0.391760  1.0  -0.6807
  O  O317  1  0.051360  0.778700  0.477310  1.0  -0.6274
  O  O318  1  0.651500  0.571200  0.114330  1.0  -0.7276
  O  O319  1  0.083930  0.715100  0.569720  1.0  -0.6623
  O  O320  1  0.595620  0.409300  0.098290  1.0  -0.5411
