# generated using pymatgen
data_Zn4H48C54O25
_symmetry_space_group_name_H-M   'P 1'
_cell_length_a   16.82890000
_cell_length_b   16.96250000
_cell_length_c   17.03410000
_cell_angle_alpha   94.81200000
_cell_angle_beta   95.54900000
_cell_angle_gamma   91.60900000
_symmetry_Int_Tables_number   1
_chemical_formula_structural   Zn4H48C54O25
_chemical_formula_sum   'Zn8 H96 C108 O50'
_cell_volume   4819.50088326
_cell_formula_units_Z   2
loop_
 _symmetry_equiv_pos_site_id
 _symmetry_equiv_pos_as_xyz
  1  'x, y, z'
loop_
 _atom_site_type_symbol
 _atom_site_label
 _atom_site_symmetry_multiplicity
 _atom_site_fract_x
 _atom_site_fract_y
 _atom_site_fract_z
 _atom_site_occupancy
 _atom_site_charge
  Zn  Zn1  1  0.329340  0.234040  0.212280  1.0  1.0453
  Zn  Zn2  1  0.184740  0.351980  0.228900  1.0  1.1136
  Zn  Zn3  1  0.347820  0.364960  0.354560  1.0  1.0913
  Zn  Zn4  1  0.229720  0.224880  0.354570  1.0  1.0673
  Zn  Zn5  1  0.670660  0.765960  0.787720  1.0  1.0448
  Zn  Zn6  1  0.815260  0.648020  0.771100  1.0  1.118
  Zn  Zn7  1  0.652180  0.635040  0.645440  1.0  1.0915
  Zn  Zn8  1  0.770280  0.775120  0.645430  1.0  1.0669
  H  H9  1  0.588000  0.314600  0.429000  1.0  0.1138
  H  H10  1  0.578700  0.212800  0.205700  1.0  0.1088
  H  H11  1  0.419200  0.602000  0.312700  1.0  0.1109
  H  H12  1  0.169600  0.377200  0.980200  1.0  0.1156
  H  H13  1  0.392400  0.294900  0.988800  1.0  0.1104
  H  H14  1  0.975800  0.378700  0.315200  1.0  0.1098
  H  H15  1  0.040500  0.425700  0.820800  1.0  0.1108
  H  H16  1  0.090700  0.452700  0.901400  1.0  0.0943
  H  H17  1  0.060500  0.364200  0.882800  1.0  0.0841
  H  H18  1  0.816800  0.495700  0.266900  1.0  0.0999
  H  H19  1  0.880500  0.442500  0.229600  1.0  0.0775
  H  H20  1  0.895900  0.478100  0.317900  1.0  0.0868
  H  H21  1  0.184900  0.593300  0.234200  1.0  0.1145
  H  H22  1  0.060000  0.740900  0.176400  1.0  0.0968
  H  H23  1  0.083500  0.678800  0.236900  1.0  0.0761
  H  H24  1  0.105700  0.665500  0.149600  1.0  0.0762
  H  H25  1  0.556900  0.758300  0.352700  1.0  0.1212
  H  H26  1  0.529200  0.679300  0.301900  1.0  0.0901
  H  H27  1  0.504000  0.695100  0.387900  1.0  0.0841
  H  H28  1  0.747100  0.357600  0.571900  1.0  0.1236
  H  H29  1  0.672600  0.301000  0.544400  1.0  0.1067
  H  H30  1  0.676200  0.386500  0.516200  1.0  0.0984
  H  H31  1  0.829200  0.016100  0.389500  1.0  0.0991
  H  H32  1  0.903900  0.068600  0.426300  1.0  0.0748
  H  H33  1  0.893800  0.042000  0.335400  1.0  0.0763
  H  H34  1  0.409700  0.571600  0.769600  1.0  0.1183
  H  H35  1  0.345800  0.556800  0.696100  1.0  0.1021
  H  H36  1  0.428200  0.515800  0.696000  1.0  0.0956
  H  H37  1  0.391700  0.828500  0.032500  1.0  0.0884
  H  H38  1  0.421300  0.902700  0.090200  1.0  0.0783
  H  H39  1  0.332900  0.896200  0.051000  1.0  0.0639
  H  H40  1  0.518700  0.257500  0.843600  1.0  0.1137
  H  H41  1  0.463000  0.222200  0.901600  1.0  0.084
  H  H42  1  0.501600  0.307600  0.921300  1.0  0.0982
  H  H43  1  0.726400  0.148300  0.092800  1.0  0.1019
  H  H44  1  0.661000  0.210200  0.107900  1.0  0.0896
  H  H45  1  0.654000  0.126200  0.139100  1.0  0.0881
  H  H46  1  0.980800  0.152700  0.370300  1.0  0.1156
  H  H47  1  0.348700  0.439200  0.605700  1.0  0.1089
  H  H48  1  0.224200  0.232100  0.588300  1.0  0.106
  H  H49  1  0.135500  0.133000  0.724200  1.0  0.111
  H  H50  1  0.196400  0.137200  0.660500  1.0  0.0837
  H  H51  1  0.121300  0.189900  0.656700  1.0  0.0981
  H  H52  1  0.265200  0.988200  0.377700  1.0  0.1092
  H  H53  1  0.337900  0.982900  0.159100  1.0  0.1079
  H  H54  1  0.226200  0.838000  0.494800  1.0  0.119
  H  H55  1  0.187900  0.900100  0.440600  1.0  0.0944
  H  H56  1  0.275500  0.914500  0.480800  1.0  0.0878
  H  H57  1  0.412000  0.685400  0.571000  1.0  0.1145
  H  H58  1  0.421300  0.787200  0.794300  1.0  0.1085
  H  H59  1  0.580800  0.398000  0.687300  1.0  0.111
  H  H60  1  0.830400  0.622800  0.019800  1.0  0.1156
  H  H61  1  0.607600  0.705100  0.011200  1.0  0.1102
  H  H62  1  0.024200  0.621300  0.684800  1.0  0.1111
  H  H63  1  0.959500  0.574300  0.179200  1.0  0.1104
  H  H64  1  0.909300  0.547300  0.098600  1.0  0.0924
  H  H65  1  0.939500  0.635800  0.117200  1.0  0.0842
  H  H66  1  0.183200  0.504300  0.733100  1.0  0.0998
  H  H67  1  0.119500  0.557500  0.770400  1.0  0.0773
  H  H68  1  0.104100  0.521900  0.682100  1.0  0.0865
  H  H69  1  0.815100  0.406700  0.765800  1.0  0.1134
  H  H70  1  0.940000  0.259100  0.823600  1.0  0.0962
  H  H71  1  0.916500  0.321200  0.763100  1.0  0.077
  H  H72  1  0.894300  0.334500  0.850400  1.0  0.0788
  H  H73  1  0.443100  0.241700  0.647300  1.0  0.1214
  H  H74  1  0.470800  0.320700  0.698100  1.0  0.0898
  H  H75  1  0.496000  0.304900  0.612100  1.0  0.083
  H  H76  1  0.252900  0.642400  0.428100  1.0  0.1234
  H  H77  1  0.327400  0.699000  0.455600  1.0  0.1065
  H  H78  1  0.323800  0.613500  0.483800  1.0  0.0975
  H  H79  1  0.170800  0.983900  0.610500  1.0  0.0999
  H  H80  1  0.096100  0.931400  0.573700  1.0  0.0738
  H  H81  1  0.106200  0.958000  0.664600  1.0  0.0773
  H  H82  1  0.590300  0.428400  0.230400  1.0  0.1155
  H  H83  1  0.654200  0.443200  0.303900  1.0  0.1018
  H  H84  1  0.571800  0.484200  0.304000  1.0  0.0952
  H  H85  1  0.608300  0.171500  0.967500  1.0  0.0891
  H  H86  1  0.578700  0.097300  0.909800  1.0  0.0822
  H  H87  1  0.667100  0.103800  0.949000  1.0  0.0615
  H  H88  1  0.481300  0.742500  0.156400  1.0  0.1139
  H  H89  1  0.537000  0.777800  0.098400  1.0  0.0869
  H  H90  1  0.498400  0.692400  0.078700  1.0  0.0976
  H  H91  1  0.273600  0.851700  0.907200  1.0  0.1027
  H  H92  1  0.339000  0.789800  0.892100  1.0  0.0877
  H  H93  1  0.346000  0.873800  0.860900  1.0  0.0889
  H  H94  1  0.019200  0.847300  0.629700  1.0  0.1165
  H  H95  1  0.651300  0.560800  0.394300  1.0  0.1096
  H  H96  1  0.775800  0.767900  0.411700  1.0  0.1051
  H  H97  1  0.864500  0.867000  0.275800  1.0  0.1106
  H  H98  1  0.803600  0.862800  0.339500  1.0  0.0834
  H  H99  1  0.878700  0.810100  0.343300  1.0  0.1009
  H  H100  1  0.734800  0.011800  0.622300  1.0  0.1096
  H  H101  1  0.662100  0.017100  0.840900  1.0  0.1095
  H  H102  1  0.773800  0.162000  0.505200  1.0  0.1184
  H  H103  1  0.812100  0.099900  0.559400  1.0  0.0949
  H  H104  1  0.724500  0.085500  0.519200  1.0  0.0874
  C  C105  1  0.238100  0.702600  0.241400  1.0  0.1929
  C  C106  1  0.613700  0.293400  0.386600  1.0  -0.2209
  C  C107  1  0.329000  0.875200  0.200000  1.0  0.2347
  C  C108  1  0.482000  0.276600  0.304700  1.0  0.7197
  C  C109  1  0.295200  0.499100  0.288800  1.0  0.7017
  C  C110  1  0.319900  0.406400  0.712200  1.0  0.1933
  C  C111  1  0.865700  0.328500  0.320000  1.0  0.2417
  C  C112  1  0.608400  0.232600  0.252500  1.0  -0.2175
  C  C113  1  0.215600  0.368500  0.873400  1.0  0.245
  C  C114  1  0.736300  0.256200  0.330800  1.0  -0.0854
  C  C115  1  0.301000  0.585700  0.275700  1.0  -0.1449
  C  C116  1  0.570700  0.266800  0.315800  1.0  -0.1647
  C  C117  1  0.373600  0.627800  0.295600  1.0  -0.2029
  C  C118  1  0.279600  0.334000  0.996400  1.0  -0.1025
  C  C119  1  0.348700  0.321900  0.880000  1.0  0.2275
  C  C120  1  0.308200  0.747300  0.262000  1.0  -0.0855
  C  C121  1  0.214100  0.362400  0.954900  1.0  -0.1717
  C  C122  1  0.348200  0.313600  0.959900  1.0  -0.1745
  C  C123  1  0.825000  0.258700  0.335500  1.0  -0.0678
  C  C124  1  0.869100  0.193400  0.353200  1.0  0.1998
  C  C125  1  0.309700  0.834500  0.263800  1.0  -0.0613
  C  C126  1  0.948600  0.332400  0.324400  1.0  -0.2017
  C  C127  1  0.276700  0.320200  0.081600  1.0  0.7179
  C  C128  1  0.281700  0.348700  0.835600  1.0  -0.0414
  C  C129  1  0.080000  0.410200  0.860500  1.0  -0.0236
  C  C130  1  0.280800  0.347200  0.748200  1.0  -0.1088
  C  C131  1  0.855900  0.456700  0.277100  1.0  -0.0224
  C  C132  1  0.691100  0.228800  0.260700  1.0  0.22
  C  C133  1  0.376600  0.708600  0.289200  1.0  0.2321
  C  C134  1  0.232800  0.622100  0.248000  1.0  -0.2276
  C  C135  1  0.099800  0.704500  0.192700  1.0  -0.024
  C  C136  1  0.696800  0.287900  0.393300  1.0  0.2512
  C  C137  1  0.514300  0.719100  0.340600  1.0  -0.0276
  C  C138  1  0.707100  0.341800  0.529000  1.0  -0.0245
  C  C139  1  0.866100  0.057900  0.380500  1.0  -0.0256
  C  C140  1  0.387200  0.533300  0.728200  1.0  -0.0273
  C  C141  1  0.376700  0.867000  0.072500  1.0  -0.0109
  C  C142  1  0.479300  0.269600  0.879500  1.0  -0.0345
  C  C143  1  0.690500  0.168100  0.129600  1.0  -0.0181
  C  C144  1  0.989900  0.265900  0.342800  1.0  -0.1454
  C  C145  1  0.079100  0.269200  0.345300  1.0  0.6744
  C  C146  1  0.951700  0.196400  0.357600  1.0  -0.2067
  C  C147  1  0.323400  0.399600  0.629900  1.0  -0.2075
  C  C148  1  0.289300  0.334000  0.585500  1.0  -0.1426
  C  C149  1  0.296000  0.322700  0.498300  1.0  0.7004
  C  C150  1  0.248300  0.275600  0.619400  1.0  -0.2351
  C  C151  1  0.244000  0.283200  0.701000  1.0  0.2432
  C  C152  1  0.161100  0.167200  0.691400  1.0  -0.0344
  C  C153  1  0.284000  0.878100  0.330000  1.0  0.2278
  C  C154  1  0.280500  0.959400  0.333100  1.0  -0.2115
  C  C155  1  0.324600  0.956300  0.201900  1.0  -0.1988
  C  C156  1  0.300400  0.997400  0.267600  1.0  -0.1341
  C  C157  1  0.293100  0.086100  0.271600  1.0  0.7277
  C  C158  1  0.236500  0.875000  0.457000  1.0  -0.0239
  C  C159  1  0.761900  0.297400  0.758600  1.0  0.1931
  C  C160  1  0.386300  0.706600  0.613400  1.0  -0.2183
  C  C161  1  0.671000  0.124800  0.800000  1.0  0.2355
  C  C162  1  0.518000  0.723400  0.695300  1.0  0.7198
  C  C163  1  0.704800  0.500900  0.711200  1.0  0.7036
  C  C164  1  0.680100  0.593600  0.287800  1.0  0.1941
  C  C165  1  0.134300  0.671500  0.680000  1.0  0.2431
  C  C166  1  0.391600  0.767400  0.747500  1.0  -0.2151
  C  C167  1  0.784400  0.631500  0.126600  1.0  0.2479
  C  C168  1  0.263700  0.743800  0.669200  1.0  -0.0851
  C  C169  1  0.699000  0.414300  0.724300  1.0  -0.143
  C  C170  1  0.429300  0.733200  0.684200  1.0  -0.1638
  C  C171  1  0.626400  0.372200  0.704400  1.0  -0.2028
  C  C172  1  0.720400  0.666000  0.003600  1.0  -0.1026
  C  C173  1  0.651300  0.678100  0.120000  1.0  0.226
  C  C174  1  0.691800  0.252700  0.738000  1.0  -0.085
  C  C175  1  0.785900  0.637600  0.045100  1.0  -0.17
  C  C176  1  0.651800  0.686400  0.040100  1.0  -0.1753
  C  C177  1  0.175000  0.741300  0.664500  1.0  -0.068
  C  C178  1  0.130900  0.806600  0.646800  1.0  0.1997
  C  C179  1  0.690300  0.165500  0.736200  1.0  -0.0611
  C  C180  1  0.051400  0.667600  0.675600  1.0  -0.2005
  C  C181  1  0.723300  0.679800  0.918400  1.0  0.7171
  C  C182  1  0.718300  0.651300  0.164400  1.0  -0.0411
  C  C183  1  0.920000  0.589800  0.139500  1.0  -0.0263
  C  C184  1  0.719200  0.652800  0.251800  1.0  -0.1081
  C  C185  1  0.144100  0.543300  0.722900  1.0  -0.0223
  C  C186  1  0.308900  0.771200  0.739300  1.0  0.2205
  C  C187  1  0.623400  0.291400  0.710800  1.0  0.2316
  C  C188  1  0.767200  0.377900  0.752000  1.0  -0.2248
  C  C189  1  0.900200  0.295500  0.807300  1.0  -0.0215
  C  C190  1  0.303200  0.712100  0.606700  1.0  0.2515
  C  C191  1  0.485700  0.280900  0.659400  1.0  -0.0277
  C  C192  1  0.292900  0.658200  0.471000  1.0  -0.0244
  C  C193  1  0.133900  0.942100  0.619500  1.0  -0.0246
  C  C194  1  0.612800  0.466700  0.271800  1.0  -0.028
  C  C195  1  0.623300  0.133000  0.927500  1.0  -0.0093
  C  C196  1  0.520700  0.730400  0.120500  1.0  -0.0336
  C  C197  1  0.309500  0.831900  0.870400  1.0  -0.0183
  C  C198  1  0.010100  0.734100  0.657200  1.0  -0.147
  C  C199  1  0.920900  0.730800  0.654700  1.0  0.6732
  C  C200  1  0.048300  0.803600  0.642400  1.0  -0.2051
  C  C201  1  0.676600  0.600400  0.370100  1.0  -0.2077
  C  C202  1  0.710700  0.666000  0.414500  1.0  -0.1425
  C  C203  1  0.704000  0.677300  0.501700  1.0  0.7008
  C  C204  1  0.751700  0.724400  0.380600  1.0  -0.2333
  C  C205  1  0.756000  0.716800  0.299000  1.0  0.2429
  C  C206  1  0.838900  0.832800  0.308600  1.0  -0.0342
  C  C207  1  0.716000  0.121900  0.670000  1.0  0.2277
  C  C208  1  0.719500  0.040600  0.666900  1.0  -0.2093
  C  C209  1  0.675400  0.043700  0.798100  1.0  -0.1997
  C  C210  1  0.699600  0.002600  0.732400  1.0  -0.1345
  C  C211  1  0.706900  0.913900  0.728400  1.0  0.7274
  C  C212  1  0.763500  0.125000  0.543000  1.0  -0.0245
  O  O213  1  0.273790  0.296060  0.286250  1.0  -1.2388
  O  O214  1  0.358900  0.468970  0.316750  1.0  -0.6042
  O  O215  1  0.325410  0.378760  0.465800  1.0  -0.5987
  O  O216  1  0.233420  0.362250  0.121630  1.0  -0.6371
  O  O217  1  0.272130  0.119760  0.332890  1.0  -0.617
  O  O218  1  0.228900  0.464010  0.275700  1.0  -0.6348
  O  O219  1  0.453490  0.317640  0.359550  1.0  -0.5992
  O  O220  1  0.745240  0.312100  0.460630  1.0  -0.2683
  O  O221  1  0.411200  0.301900  0.837530  1.0  -0.2953
  O  O222  1  0.319020  0.265300  0.106740  1.0  -0.6103
  O  O223  1  0.272500  0.256390  0.464270  1.0  -0.6161
  O  O224  1  0.116560  0.207900  0.360000  1.0  -0.5909
  O  O225  1  0.445630  0.244800  0.242630  1.0  -0.6024
  O  O226  1  0.311200  0.119310  0.211510  1.0  -0.6156
  O  O227  1  0.443930  0.755670  0.309900  1.0  -0.2537
  O  O228  1  0.114180  0.333100  0.333700  1.0  -0.6645
  O  O229  1  0.173100  0.746050  0.214900  1.0  -0.2778
  O  O230  1  0.818030  0.388470  0.302000  1.0  -0.2701
  O  O231  1  0.823590  0.127130  0.366100  1.0  -0.2825
  O  O232  1  0.354100  0.466740  0.762520  1.0  -0.2423
  O  O233  1  0.353100  0.827650  0.137730  1.0  -0.274
  O  O234  1  0.735000  0.197300  0.202470  1.0  -0.293
  O  O235  1  0.152120  0.392200  0.825150  1.0  -0.2927
  O  O236  1  0.205900  0.228900  0.740160  1.0  -0.2917
  O  O237  1  0.266300  0.833960  0.389400  1.0  -0.2762
  O  O238  1  0.726210  0.703940  0.713750  1.0  -1.239
  O  O239  1  0.641100  0.531030  0.683250  1.0  -0.6042
  O  O240  1  0.674590  0.621240  0.534200  1.0  -0.5976
  O  O241  1  0.766580  0.637750  0.878370  1.0  -0.6359
  O  O242  1  0.727870  0.880240  0.667110  1.0  -0.6156
  O  O243  1  0.771100  0.535990  0.724300  1.0  -0.6365
  O  O244  1  0.546510  0.682360  0.640450  1.0  -0.5975
  O  O245  1  0.254760  0.687900  0.539370  1.0  -0.2716
  O  O246  1  0.588800  0.698100  0.162470  1.0  -0.2955
  O  O247  1  0.680980  0.734700  0.893260  1.0  -0.6108
  O  O248  1  0.727500  0.743610  0.535730  1.0  -0.6154
  O  O249  1  0.883440  0.792100  0.640000  1.0  -0.5905
  O  O250  1  0.554370  0.755200  0.757370  1.0  -0.6044
  O  O251  1  0.688800  0.880690  0.788490  1.0  -0.62
  O  O252  1  0.556070  0.244330  0.690100  1.0  -0.2559
  O  O253  1  0.885820  0.666900  0.666300  1.0  -0.6674
  O  O254  1  0.826900  0.253950  0.785100  1.0  -0.2757
  O  O255  1  0.181970  0.611530  0.698000  1.0  -0.2735
  O  O256  1  0.176410  0.872870  0.633900  1.0  -0.2788
  O  O257  1  0.645900  0.533260  0.237480  1.0  -0.2439
  O  O258  1  0.646900  0.172350  0.862270  1.0  -0.2724
  O  O259  1  0.265000  0.802700  0.797530  1.0  -0.2903
  O  O260  1  0.847880  0.607800  0.174850  1.0  -0.294
  O  O261  1  0.794100  0.771100  0.259840  1.0  -0.291
  O  O262  1  0.733700  0.166040  0.610600  1.0  -0.2773
