# generated using pymatgen
data_CuH16(C9O4)2
_symmetry_space_group_name_H-M   'P 1'
_cell_length_a   15.30350000
_cell_length_b   39.69460000
_cell_length_c   21.59340000
_cell_angle_alpha   90.00000000
_cell_angle_beta   107.40200000
_cell_angle_gamma   90.00000000
_symmetry_Int_Tables_number   1
_chemical_formula_structural   CuH16(C9O4)2
_chemical_formula_sum   'Cu12 H192 C216 O96'
_cell_volume   12516.88446245
_cell_formula_units_Z   12
loop_
 _symmetry_equiv_pos_site_id
 _symmetry_equiv_pos_as_xyz
  1  'x, y, z'
loop_
 _atom_site_type_symbol
 _atom_site_label
 _atom_site_symmetry_multiplicity
 _atom_site_fract_x
 _atom_site_fract_y
 _atom_site_fract_z
 _atom_site_occupancy
 _atom_site_charge
  Cu  Cu1  1  0.299130  0.236480  0.202850  1.0  0.9069
  Cu  Cu2  1  0.191470  0.283390  0.133710  1.0  0.895
  Cu  Cu3  1  0.518630  0.992170  0.945910  1.0  0.893
  Cu  Cu4  1  0.200870  0.736480  0.297150  1.0  0.9062
  Cu  Cu5  1  0.308530  0.783390  0.366290  1.0  0.8956
  Cu  Cu6  1  0.981370  0.492170  0.554090  1.0  0.8934
  Cu  Cu7  1  0.700870  0.763520  0.797150  1.0  0.9077
  Cu  Cu8  1  0.808530  0.716610  0.866290  1.0  0.8951
  Cu  Cu9  1  0.481370  0.007830  0.054090  1.0  0.8937
  Cu  Cu10  1  0.799130  0.263520  0.702850  1.0  0.9088
  Cu  Cu11  1  0.691470  0.216610  0.633710  1.0  0.8945
  Cu  Cu12  1  0.018630  0.507830  0.445910  1.0  0.8932
  H  H13  1  0.016800  0.301200  0.257500  1.0  0.1077
  H  H14  1  0.947900  0.223800  0.059600  1.0  0.103
  H  H15  1  0.731900  0.062100  0.954900  1.0  0.1043
  H  H16  1  0.665500  0.091600  0.113300  1.0  0.1036
  H  H17  1  0.189600  0.230800  0.359400  1.0  0.0976
  H  H18  1  0.539000  0.295100  0.280700  1.0  0.1076
  H  H19  1  0.359900  0.369900  0.217600  1.0  0.0989
  H  H20  1  0.125600  0.150500  0.142700  1.0  0.1021
  H  H21  1  0.784800  0.220300  0.463700  1.0  0.1067
  H  H22  1  0.954400  0.288500  0.576500  1.0  0.1147
  H  H23  1  0.731600  0.440300  0.468400  1.0  0.1083
  H  H24  1  0.825100  0.440100  0.313100  1.0  0.1128
  H  H25  1  0.714700  0.222200  0.985900  1.0  0.0993
  H  H26  1  0.813000  0.226600  0.978800  1.0  0.0914
  H  H27  1  0.795700  0.234100  0.045400  1.0  0.0844
  H  H28  1  0.142700  0.330200  0.555000  1.0  0.0816
  H  H29  1  0.110600  0.301200  0.592500  1.0  0.0805
  H  H30  1  0.044600  0.331300  0.563600  1.0  0.0816
  H  H31  1  0.826700  0.338200  0.283200  1.0  0.0842
  H  H32  1  0.866200  0.314600  0.239900  1.0  0.0867
  H  H33  1  0.928600  0.342200  0.283300  1.0  0.0711
  H  H34  1  0.185300  0.183900  0.494300  1.0  0.1148
  H  H35  1  0.234200  0.210300  0.462100  1.0  0.0768
  H  H36  1  0.169300  0.183200  0.419200  1.0  0.0945
  H  H37  1  0.899800  0.089800  0.889100  1.0  0.1112
  H  H38  1  0.795100  0.087500  0.882500  1.0  0.0953
  H  H39  1  0.863100  0.060500  0.923100  1.0  0.1115
  H  H40  1  0.757800  0.151900  0.228400  1.0  0.0923
  H  H41  1  0.742400  0.113500  0.211800  1.0  0.096
  H  H42  1  0.674500  0.140300  0.170200  1.0  0.0802
  H  H43  1  0.093900  0.065900  0.163800  1.0  0.1215
  H  H44  1  0.114400  0.101200  0.197600  1.0  0.0974
  H  H45  1  0.137200  0.094500  0.132500  1.0  0.0705
  H  H46  1  0.544800  0.401700  0.496000  1.0  0.101
  H  H47  1  0.591800  0.435400  0.485100  1.0  0.0873
  H  H48  1  0.651700  0.403700  0.513200  1.0  0.0867
  H  H49  1  0.766500  0.296100  0.376100  1.0  0.1189
  H  H50  1  0.691700  0.286800  0.311100  1.0  0.0961
  H  H51  1  0.665600  0.289200  0.375800  1.0  0.0951
  H  H52  1  0.752400  0.396600  0.168100  1.0  0.1133
  H  H53  1  0.827200  0.399300  0.235700  1.0  0.0856
  H  H54  1  0.769400  0.431100  0.205100  1.0  0.0864
  H  H55  1  0.382100  0.457100  0.236800  1.0  0.1294
  H  H56  1  0.340800  0.424000  0.256200  1.0  0.1025
  H  H57  1  0.362700  0.426000  0.189900  1.0  0.0987
  H  H58  1  0.774600  0.187200  0.314100  1.0  0.0578
  H  H59  1  0.729100  0.211100  0.353500  1.0  0.0911
  H  H60  1  0.793300  0.181700  0.388800  1.0  0.0849
  H  H61  1  0.483200  0.801200  0.242500  1.0  0.1078
  H  H62  1  0.552100  0.723800  0.440400  1.0  0.1035
  H  H63  1  0.768100  0.562100  0.545100  1.0  0.1042
  H  H64  1  0.834500  0.591600  0.386700  1.0  0.1037
  H  H65  1  0.310400  0.730800  0.140600  1.0  0.0988
  H  H66  1  0.961000  0.795100  0.219300  1.0  0.1081
  H  H67  1  0.140100  0.869900  0.282400  1.0  0.0988
  H  H68  1  0.374400  0.650500  0.357300  1.0  0.1019
  H  H69  1  0.715200  0.720300  0.036300  1.0  0.1058
  H  H70  1  0.545600  0.788500  0.923500  1.0  0.1155
  H  H71  1  0.768400  0.940300  0.031600  1.0  0.1078
  H  H72  1  0.674900  0.940100  0.186900  1.0  0.112
  H  H73  1  0.785300  0.722200  0.514100  1.0  0.1001
  H  H74  1  0.687000  0.726600  0.521200  1.0  0.0909
  H  H75  1  0.704300  0.734100  0.454600  1.0  0.0837
  H  H76  1  0.357300  0.830200  0.945000  1.0  0.0826
  H  H77  1  0.389400  0.801200  0.907500  1.0  0.0787
  H  H78  1  0.455400  0.831300  0.936400  1.0  0.0821
  H  H79  1  0.673300  0.838200  0.216800  1.0  0.0841
  H  H80  1  0.633800  0.814600  0.260100  1.0  0.0879
  H  H81  1  0.571400  0.842200  0.216700  1.0  0.0725
  H  H82  1  0.314700  0.683900  0.005700  1.0  0.1143
  H  H83  1  0.265800  0.710300  0.037900  1.0  0.0778
  H  H84  1  0.330700  0.683200  0.080800  1.0  0.0946
  H  H85  1  0.600200  0.589800  0.610900  1.0  0.1112
  H  H86  1  0.704900  0.587500  0.617500  1.0  0.0948
  H  H87  1  0.636900  0.560500  0.576900  1.0  0.1125
  H  H88  1  0.742200  0.651900  0.271600  1.0  0.0912
  H  H89  1  0.757600  0.613500  0.288200  1.0  0.0944
  H  H90  1  0.825500  0.640300  0.329800  1.0  0.0778
  H  H91  1  0.406100  0.565900  0.336200  1.0  0.1206
  H  H92  1  0.385600  0.601200  0.302400  1.0  0.0959
  H  H93  1  0.362800  0.594500  0.367500  1.0  0.0708
  H  H94  1  0.955200  0.901700  0.004000  1.0  0.1007
  H  H95  1  0.908200  0.935400  0.014900  1.0  0.0878
  H  H96  1  0.848300  0.903700  0.986800  1.0  0.0888
  H  H97  1  0.733500  0.796100  0.123900  1.0  0.1189
  H  H98  1  0.808300  0.786800  0.188900  1.0  0.095
  H  H99  1  0.834400  0.789200  0.124200  1.0  0.0956
  H  H100  1  0.747600  0.896600  0.331900  1.0  0.1143
  H  H101  1  0.672800  0.899300  0.264300  1.0  0.0876
  H  H102  1  0.730600  0.931100  0.294900  1.0  0.0868
  H  H103  1  0.117900  0.957100  0.263200  1.0  0.1296
  H  H104  1  0.159200  0.924000  0.243800  1.0  0.1044
  H  H105  1  0.137300  0.926000  0.310100  1.0  0.1001
  H  H106  1  0.725400  0.687200  0.185900  1.0  0.0564
  H  H107  1  0.770900  0.711100  0.146500  1.0  0.0913
  H  H108  1  0.706700  0.681700  0.111200  1.0  0.0849
  H  H109  1  0.983200  0.698800  0.742500  1.0  0.1076
  H  H110  1  0.052100  0.776200  0.940400  1.0  0.1043
  H  H111  1  0.268100  0.937900  0.045100  1.0  0.1039
  H  H112  1  0.334500  0.908400  0.886700  1.0  0.1042
  H  H113  1  0.810400  0.769200  0.640600  1.0  0.0989
  H  H114  1  0.461000  0.704900  0.719300  1.0  0.107
  H  H115  1  0.640100  0.630100  0.782400  1.0  0.0984
  H  H116  1  0.874400  0.849500  0.857300  1.0  0.1027
  H  H117  1  0.215200  0.779700  0.536300  1.0  0.1059
  H  H118  1  0.045600  0.711500  0.423500  1.0  0.1152
  H  H119  1  0.268400  0.559700  0.531600  1.0  0.1074
  H  H120  1  0.174900  0.559900  0.686900  1.0  0.1128
  H  H121  1  0.285300  0.777800  0.014100  1.0  0.1007
  H  H122  1  0.187000  0.773400  0.021200  1.0  0.091
  H  H123  1  0.204300  0.765900  0.954600  1.0  0.0838
  H  H124  1  0.857300  0.669800  0.445000  1.0  0.0825
  H  H125  1  0.889400  0.698800  0.407500  1.0  0.0798
  H  H126  1  0.955400  0.668700  0.436400  1.0  0.0815
  H  H127  1  0.173300  0.661800  0.716800  1.0  0.0842
  H  H128  1  0.133800  0.685400  0.760100  1.0  0.0886
  H  H129  1  0.071400  0.657800  0.716700  1.0  0.0725
  H  H130  1  0.814700  0.816100  0.505700  1.0  0.1133
  H  H131  1  0.765800  0.789700  0.537900  1.0  0.0775
  H  H132  1  0.830700  0.816800  0.580800  1.0  0.0946
  H  H133  1  0.100200  0.910200  0.110900  1.0  0.1115
  H  H134  1  0.204900  0.912500  0.117500  1.0  0.0958
  H  H135  1  0.136900  0.939500  0.076900  1.0  0.1127
  H  H136  1  0.242200  0.848100  0.771600  1.0  0.0914
  H  H137  1  0.257600  0.886500  0.788200  1.0  0.0961
  H  H138  1  0.325500  0.859700  0.829800  1.0  0.0778
  H  H139  1  0.906100  0.934100  0.836200  1.0  0.1182
  H  H140  1  0.885600  0.898800  0.802400  1.0  0.0966
  H  H141  1  0.862800  0.905500  0.867500  1.0  0.0712
  H  H142  1  0.455200  0.598300  0.504000  1.0  0.1003
  H  H143  1  0.408200  0.564600  0.514900  1.0  0.0852
  H  H144  1  0.348300  0.596300  0.486800  1.0  0.0893
  H  H145  1  0.233500  0.703900  0.623900  1.0  0.119
  H  H146  1  0.308300  0.713200  0.688900  1.0  0.0953
  H  H147  1  0.334400  0.710800  0.624200  1.0  0.0955
  H  H148  1  0.247600  0.603400  0.831900  1.0  0.1137
  H  H149  1  0.172800  0.600700  0.764300  1.0  0.0873
  H  H150  1  0.230600  0.568900  0.794900  1.0  0.088
  H  H151  1  0.617900  0.542900  0.763200  1.0  0.1356
  H  H152  1  0.659200  0.576000  0.743800  1.0  0.1046
  H  H153  1  0.637300  0.574000  0.810100  1.0  0.099
  H  H154  1  0.225400  0.812800  0.685900  1.0  0.0571
  H  H155  1  0.270900  0.788900  0.646500  1.0  0.091
  H  H156  1  0.206700  0.818300  0.611200  1.0  0.0856
  H  H157  1  0.516800  0.198800  0.757500  1.0  0.1077
  H  H158  1  0.447900  0.276200  0.559600  1.0  0.1034
  H  H159  1  0.231900  0.437900  0.454900  1.0  0.1042
  H  H160  1  0.165500  0.408400  0.613300  1.0  0.1039
  H  H161  1  0.689600  0.269200  0.859400  1.0  0.0982
  H  H162  1  0.039000  0.204900  0.780700  1.0  0.1064
  H  H163  1  0.859900  0.130100  0.717600  1.0  0.0985
  H  H164  1  0.625600  0.349500  0.642700  1.0  0.1028
  H  H165  1  0.284800  0.279700  0.963700  1.0  0.1067
  H  H166  1  0.454400  0.211500  0.076500  1.0  0.1144
  H  H167  1  0.231600  0.059700  0.968400  1.0  0.1079
  H  H168  1  0.325100  0.059900  0.813100  1.0  0.1128
  H  H169  1  0.214700  0.277800  0.485900  1.0  0.0996
  H  H170  1  0.313000  0.273400  0.478800  1.0  0.0911
  H  H171  1  0.295700  0.265900  0.545400  1.0  0.0848
  H  H172  1  0.642700  0.169800  0.055000  1.0  0.0808
  H  H173  1  0.610600  0.198800  0.092500  1.0  0.0808
  H  H174  1  0.544600  0.168700  0.063600  1.0  0.0815
  H  H175  1  0.326700  0.161800  0.783200  1.0  0.084
  H  H176  1  0.366200  0.185400  0.739900  1.0  0.0869
  H  H177  1  0.428600  0.157800  0.783300  1.0  0.07
  H  H178  1  0.685300  0.316100  0.994300  1.0  0.1149
  H  H179  1  0.734200  0.289700  0.962100  1.0  0.0771
  H  H180  1  0.669300  0.316800  0.919200  1.0  0.0952
  H  H181  1  0.399800  0.410200  0.389100  1.0  0.1116
  H  H182  1  0.295100  0.412500  0.382500  1.0  0.0968
  H  H183  1  0.363100  0.439500  0.423100  1.0  0.1119
  H  H184  1  0.257800  0.348100  0.728400  1.0  0.0919
  H  H185  1  0.242400  0.386500  0.711800  1.0  0.0957
  H  H186  1  0.174500  0.359700  0.670200  1.0  0.0801
  H  H187  1  0.593900  0.434100  0.663800  1.0  0.1182
  H  H188  1  0.614400  0.398800  0.697600  1.0  0.0963
  H  H189  1  0.637200  0.405500  0.632500  1.0  0.0713
  H  H190  1  0.044800  0.098300  0.996000  1.0  0.1011
  H  H191  1  0.091800  0.064600  0.985100  1.0  0.0851
  H  H192  1  0.151700  0.096300  0.013200  1.0  0.0875
  H  H193  1  0.266500  0.203900  0.876100  1.0  0.1192
  H  H194  1  0.191700  0.213200  0.811100  1.0  0.0959
  H  H195  1  0.165600  0.210800  0.875800  1.0  0.0947
  H  H196  1  0.252400  0.103400  0.668100  1.0  0.1126
  H  H197  1  0.327200  0.100700  0.735700  1.0  0.0871
  H  H198  1  0.269400  0.068900  0.705100  1.0  0.0885
  H  H199  1  0.882100  0.042900  0.736800  1.0  0.1351
  H  H200  1  0.840800  0.076000  0.756200  1.0  0.1029
  H  H201  1  0.862700  0.074000  0.689900  1.0  0.1006
  H  H202  1  0.274600  0.312800  0.814100  1.0  0.0575
  H  H203  1  0.229100  0.288900  0.853500  1.0  0.0907
  H  H204  1  0.293300  0.318300  0.888800  1.0  0.0848
  C  C205  1  0.613530  0.047430  0.017350  1.0  0.6673
  C  C206  1  0.165280  0.267230  0.254280  1.0  0.6744
  C  C207  1  0.365920  0.303460  0.216970  1.0  0.6691
  C  C208  1  0.817330  0.249220  0.579180  1.0  0.6831
  C  C209  1  0.034150  0.286350  0.292320  1.0  -0.1797
  C  C210  1  0.007830  0.261640  0.387080  1.0  -0.0783
  C  C211  1  0.959310  0.201390  0.071850  1.0  -0.1842
  C  C212  1  0.954940  0.259520  0.434610  1.0  -0.0689
  C  C213  1  0.829170  0.119700  0.059360  1.0  -0.0596
  C  C214  1  0.084720  0.241030  0.395140  1.0  0.2058
  C  C215  1  0.742650  0.075850  0.991300  1.0  -0.1865
  C  C216  1  0.772300  0.117080  0.099510  1.0  0.2472
  C  C217  1  0.983900  0.284170  0.335210  1.0  0.257
  C  C218  1  0.905840  0.144710  0.074910  1.0  -0.07
  C  C219  1  0.888800  0.178530  0.058170  1.0  0.2523
  C  C220  1  0.813300  0.098950  0.005170  1.0  0.2337
  C  C221  1  0.111530  0.266050  0.301320  1.0  -0.1484
  C  C222  1  0.122640  0.216280  0.123200  1.0  0.6614
  C  C223  1  0.702340  0.093640  0.086170  1.0  -0.2196
  C  C224  1  0.137180  0.243860  0.352960  1.0  -0.2211
  C  C225  1  0.047820  0.190860  0.104010  1.0  -0.1326
  C  C226  1  0.982940  0.278470  0.491860  1.0  0.1904
  C  C227  1  0.526170  0.318010  0.277250  1.0  -0.1735
  C  C228  1  0.687650  0.073220  0.032050  1.0  -0.1483
  C  C229  1  0.594600  0.341400  0.305190  1.0  0.2373
  C  C230  1  0.439520  0.329180  0.244520  1.0  -0.1428
  C  C231  1  0.419000  0.362870  0.239500  1.0  -0.1761
  C  C232  1  0.575600  0.375590  0.299630  1.0  -0.0725
  C  C233  1  0.648030  0.400370  0.331980  1.0  -0.0454
  C  C234  1  0.066080  0.157360  0.121210  1.0  -0.2178
  C  C235  1  0.880700  0.237660  0.424520  1.0  0.217
  C  C236  1  0.995650  0.134170  0.106370  1.0  0.2303
  C  C237  1  0.485700  0.386290  0.266700  1.0  0.2327
  C  C238  1  0.834610  0.234730  0.470790  1.0  -0.2232
  C  C239  1  0.936530  0.275700  0.538730  1.0  -0.1688
  C  C240  1  0.727040  0.432830  0.426710  1.0  -0.1837
  C  C241  1  0.791180  0.442540  0.396840  1.0  -0.1407
  C  C242  1  0.863120  0.253370  0.527320  1.0  -0.1254
  C  C243  1  0.783410  0.432560  0.333750  1.0  -0.1624
  C  C244  1  0.870590  0.463920  0.433400  1.0  0.6777
  C  C245  1  0.655640  0.411810  0.393800  1.0  0.2555
  C  C246  1  0.712240  0.411170  0.302020  1.0  0.2352
  C  C247  1  0.779000  0.219960  0.007660  1.0  -0.0196
  C  C248  1  0.091400  0.316850  0.557080  1.0  -0.019
  C  C249  1  0.880200  0.326380  0.280500  1.0  -0.0227
  C  C250  1  0.179200  0.197440  0.456490  1.0  -0.0284
  C  C251  1  0.855800  0.083840  0.910970  1.0  -0.039
  C  C252  1  0.737300  0.135810  0.193900  1.0  -0.0353
  C  C253  1  0.095100  0.089690  0.156600  1.0  -0.0515
  C  C254  1  0.594900  0.411220  0.483700  1.0  -0.0341
  C  C255  1  0.703200  0.298490  0.351600  1.0  -0.0374
  C  C256  1  0.768100  0.407060  0.210000  1.0  -0.0374
  C  C257  1  0.382100  0.432900  0.234500  1.0  -0.0403
  C  C258  1  0.783000  0.198280  0.355000  1.0  -0.0191
  C  C259  1  0.886470  0.547430  0.482650  1.0  0.6667
  C  C260  1  0.334720  0.767230  0.245720  1.0  0.6748
  C  C261  1  0.134080  0.803460  0.283030  1.0  0.67
  C  C262  1  0.682670  0.749220  0.920820  1.0  0.6822
  C  C263  1  0.465850  0.786350  0.207680  1.0  -0.1801
  C  C264  1  0.492170  0.761640  0.112920  1.0  -0.0778
  C  C265  1  0.540690  0.701390  0.428150  1.0  -0.1827
  C  C266  1  0.545060  0.759520  0.065390  1.0  -0.0685
  C  C267  1  0.670830  0.619700  0.440640  1.0  -0.0589
  C  C268  1  0.415280  0.741030  0.104860  1.0  0.2083
  C  C269  1  0.757350  0.575850  0.508700  1.0  -0.1867
  C  C270  1  0.727700  0.617080  0.400490  1.0  0.2444
  C  C271  1  0.516100  0.784170  0.164790  1.0  0.2565
  C  C272  1  0.594160  0.644710  0.425090  1.0  -0.071
  C  C273  1  0.611200  0.678530  0.441830  1.0  0.2527
  C  C274  1  0.686700  0.598950  0.494830  1.0  0.234
  C  C275  1  0.388470  0.766050  0.198680  1.0  -0.1496
  C  C276  1  0.377360  0.716280  0.376800  1.0  0.6608
  C  C277  1  0.797660  0.593640  0.413830  1.0  -0.2181
  C  C278  1  0.362820  0.743860  0.147040  1.0  -0.2229
  C  C279  1  0.452180  0.690860  0.395990  1.0  -0.133
  C  C280  1  0.517060  0.778470  0.008140  1.0  0.1903
  C  C281  1  0.973830  0.818010  0.222750  1.0  -0.1733
  C  C282  1  0.812350  0.573220  0.467950  1.0  -0.1477
  C  C283  1  0.905400  0.841400  0.194810  1.0  0.238
  C  C284  1  0.060480  0.829180  0.255480  1.0  -0.1417
  C  C285  1  0.081000  0.862870  0.260500  1.0  -0.1754
  C  C286  1  0.924400  0.875590  0.200370  1.0  -0.0723
  C  C287  1  0.851970  0.900370  0.168020  1.0  -0.046
  C  C288  1  0.433920  0.657360  0.378790  1.0  -0.2193
  C  C289  1  0.619300  0.737660  0.075480  1.0  0.2156
  C  C290  1  0.504350  0.634170  0.393630  1.0  0.231
  C  C291  1  0.014300  0.886290  0.233300  1.0  0.2314
  C  C292  1  0.665390  0.734730  0.029210  1.0  -0.2221
  C  C293  1  0.563470  0.775700  0.961270  1.0  -0.1689
  C  C294  1  0.772960  0.932830  0.073290  1.0  -0.1811
  C  C295  1  0.708820  0.942540  0.103160  1.0  -0.1402
  C  C296  1  0.636880  0.753370  0.972680  1.0  -0.1262
  C  C297  1  0.716590  0.932560  0.166250  1.0  -0.1649
  C  C298  1  0.629410  0.963920  0.066600  1.0  0.6771
  C  C299  1  0.844360  0.911810  0.106200  1.0  0.2548
  C  C300  1  0.787760  0.911170  0.197980  1.0  0.234
  C  C301  1  0.721000  0.719960  0.492340  1.0  -0.0189
  C  C302  1  0.408600  0.816850  0.942920  1.0  -0.0211
  C  C303  1  0.619800  0.826380  0.219500  1.0  -0.0229
  C  C304  1  0.320800  0.697440  0.043510  1.0  -0.0273
  C  C305  1  0.644200  0.583840  0.589030  1.0  -0.0392
  C  C306  1  0.762700  0.635810  0.306100  1.0  -0.0365
  C  C307  1  0.404900  0.589690  0.343400  1.0  -0.0478
  C  C308  1  0.905100  0.911220  0.016300  1.0  -0.0351
  C  C309  1  0.796800  0.798490  0.148400  1.0  -0.0393
  C  C310  1  0.731900  0.907060  0.290000  1.0  -0.0369
  C  C311  1  0.117900  0.932900  0.265500  1.0  -0.0447
  C  C312  1  0.717000  0.698280  0.145000  1.0  -0.0213
  C  C313  1  0.386470  0.952570  0.982650  1.0  0.6669
  C  C314  1  0.834720  0.732770  0.745720  1.0  0.6748
  C  C315  1  0.634080  0.696540  0.783030  1.0  0.6701
  C  C316  1  0.182670  0.750780  0.420820  1.0  0.6823
  C  C317  1  0.965850  0.713650  0.707680  1.0  -0.1801
  C  C318  1  0.992170  0.738360  0.612920  1.0  -0.0781
  C  C319  1  0.040690  0.798610  0.928150  1.0  -0.1854
  C  C320  1  0.045060  0.740480  0.565390  1.0  -0.0688
  C  C321  1  0.170830  0.880300  0.940640  1.0  -0.0586
  C  C322  1  0.915280  0.758970  0.604860  1.0  0.2085
  C  C323  1  0.257350  0.924150  0.008700  1.0  -0.1867
  C  C324  1  0.227700  0.882920  0.900490  1.0  0.2448
  C  C325  1  0.016100  0.715830  0.664790  1.0  0.2567
  C  C326  1  0.094160  0.855290  0.925090  1.0  -0.0714
  C  C327  1  0.111200  0.821470  0.941830  1.0  0.2534
  C  C328  1  0.186700  0.901050  0.994830  1.0  0.2337
  C  C329  1  0.888470  0.733950  0.698680  1.0  -0.1492
  C  C330  1  0.877360  0.783720  0.876800  1.0  0.6609
  C  C331  1  0.297660  0.906360  0.913830  1.0  -0.2174
  C  C332  1  0.862820  0.756140  0.647040  1.0  -0.2233
  C  C333  1  0.952180  0.809140  0.895990  1.0  -0.1334
  C  C334  1  0.017060  0.721530  0.508140  1.0  0.1904
  C  C335  1  0.473830  0.681990  0.722750  1.0  -0.1725
  C  C336  1  0.312350  0.926780  0.967950  1.0  -0.1478
  C  C337  1  0.405400  0.658600  0.694810  1.0  0.2378
  C  C338  1  0.560480  0.670820  0.755480  1.0  -0.142
  C  C339  1  0.581000  0.637130  0.760500  1.0  -0.1755
  C  C340  1  0.424400  0.624410  0.700370  1.0  -0.0725
  C  C341  1  0.351970  0.599630  0.668020  1.0  -0.046
  C  C342  1  0.933920  0.842640  0.878790  1.0  -0.2192
  C  C343  1  0.119300  0.762340  0.575480  1.0  0.217
  C  C344  1  0.004350  0.865830  0.893630  1.0  0.2311
  C  C345  1  0.514300  0.613710  0.733300  1.0  0.2315
  C  C346  1  0.165390  0.765270  0.529210  1.0  -0.2207
  C  C347  1  0.063470  0.724300  0.461270  1.0  -0.1679
  C  C348  1  0.272960  0.567170  0.573290  1.0  -0.1809
  C  C349  1  0.208820  0.557460  0.603160  1.0  -0.1411
  C  C350  1  0.136880  0.746630  0.472680  1.0  -0.1261
  C  C351  1  0.216590  0.567440  0.666250  1.0  -0.165
  C  C352  1  0.129410  0.536080  0.566600  1.0  0.6769
  C  C353  1  0.344360  0.588190  0.606200  1.0  0.2552
  C  C354  1  0.287760  0.588830  0.697980  1.0  0.2346
  C  C355  1  0.221000  0.780040  0.992340  1.0  -0.019
  C  C356  1  0.908600  0.683150  0.442920  1.0  -0.0214
  C  C357  1  0.119800  0.673620  0.719500  1.0  -0.0222
  C  C358  1  0.820800  0.802560  0.543510  1.0  -0.0284
  C  C359  1  0.144200  0.916160  0.089030  1.0  -0.0391
  C  C360  1  0.262700  0.864190  0.806100  1.0  -0.0366
  C  C361  1  0.904900  0.910310  0.843400  1.0  -0.0466
  C  C362  1  0.405100  0.588780  0.516300  1.0  -0.0347
  C  C363  1  0.296800  0.701510  0.648400  1.0  -0.0401
  C  C364  1  0.231900  0.592940  0.790000  1.0  -0.0363
  C  C365  1  0.617900  0.567100  0.765500  1.0  -0.0457
  C  C366  1  0.217000  0.801720  0.645000  1.0  -0.021
  C  C367  1  0.113530  0.452570  0.517350  1.0  0.6675
  C  C368  1  0.665280  0.232770  0.754280  1.0  0.6744
  C  C369  1  0.865920  0.196540  0.716970  1.0  0.6693
  C  C370  1  0.317330  0.250780  0.079180  1.0  0.6831
  C  C371  1  0.534150  0.213650  0.792320  1.0  -0.1798
  C  C372  1  0.507830  0.238360  0.887080  1.0  -0.0787
  C  C373  1  0.459310  0.298610  0.571850  1.0  -0.1861
  C  C374  1  0.454940  0.240480  0.934610  1.0  -0.0692
  C  C375  1  0.329170  0.380300  0.559360  1.0  -0.0593
  C  C376  1  0.584720  0.258970  0.895140  1.0  0.2066
  C  C377  1  0.242650  0.424150  0.491300  1.0  -0.1856
  C  C378  1  0.272300  0.382920  0.599510  1.0  0.2472
  C  C379  1  0.483900  0.215830  0.835210  1.0  0.2572
  C  C380  1  0.405840  0.355290  0.574910  1.0  -0.0704
  C  C381  1  0.388800  0.321470  0.558170  1.0  0.2528
  C  C382  1  0.313300  0.401050  0.505170  1.0  0.2332
  C  C383  1  0.611530  0.233950  0.801320  1.0  -0.1489
  C  C384  1  0.622640  0.283720  0.623200  1.0  0.6613
  C  C385  1  0.202340  0.406360  0.586170  1.0  -0.2196
  C  C386  1  0.637180  0.256140  0.852960  1.0  -0.2213
  C  C387  1  0.547820  0.309140  0.604010  1.0  -0.1326
  C  C388  1  0.482940  0.221530  0.991860  1.0  0.1906
  C  C389  1  0.026170  0.181990  0.777250  1.0  -0.1721
  C  C390  1  0.187650  0.426780  0.532050  1.0  -0.1476
  C  C391  1  0.094600  0.158600  0.805190  1.0  0.237
  C  C392  1  0.939520  0.170820  0.744520  1.0  -0.1424
  C  C393  1  0.919000  0.137130  0.739500  1.0  -0.1761
  C  C394  1  0.075600  0.124410  0.799630  1.0  -0.0727
  C  C395  1  0.148030  0.099630  0.831980  1.0  -0.0456
  C  C396  1  0.566080  0.342640  0.621210  1.0  -0.2175
  C  C397  1  0.380700  0.262340  0.924520  1.0  0.2179
  C  C398  1  0.495650  0.365830  0.606370  1.0  0.2305
  C  C399  1  0.985700  0.113710  0.766700  1.0  0.2332
  C  C400  1  0.334610  0.265270  0.970790  1.0  -0.2224
  C  C401  1  0.436530  0.224300  0.038730  1.0  -0.1674
  C  C402  1  0.227040  0.067170  0.926710  1.0  -0.1839
  C  C403  1  0.291180  0.057460  0.896840  1.0  -0.141
  C  C404  1  0.363120  0.246630  0.027320  1.0  -0.1257
  C  C405  1  0.283410  0.067440  0.833750  1.0  -0.1623
  C  C406  1  0.370590  0.036080  0.933400  1.0  0.6773
  C  C407  1  0.155640  0.088190  0.893800  1.0  0.2561
  C  C408  1  0.212240  0.088830  0.802020  1.0  0.2347
  C  C409  1  0.279000  0.280040  0.507660  1.0  -0.02
  C  C410  1  0.591400  0.183150  0.057080  1.0  -0.0193
  C  C411  1  0.380200  0.173620  0.780500  1.0  -0.0221
  C  C412  1  0.679200  0.302560  0.956490  1.0  -0.0299
  C  C413  1  0.355800  0.416160  0.410970  1.0  -0.0392
  C  C414  1  0.237300  0.364190  0.693900  1.0  -0.0353
  C  C415  1  0.595100  0.410310  0.656600  1.0  -0.0508
  C  C416  1  0.094900  0.088780  0.983700  1.0  -0.0337
  C  C417  1  0.203200  0.201510  0.851600  1.0  -0.038
  C  C418  1  0.268100  0.092940  0.710000  1.0  -0.0378
  C  C419  1  0.882100  0.067100  0.734500  1.0  -0.0427
  C  C420  1  0.283000  0.301720  0.855000  1.0  -0.02
  O  O421  1  0.137260  0.286020  0.205300  1.0  -0.5855
  O  O422  1  0.290220  0.314080  0.179270  1.0  -0.5722
  O  O423  1  0.198260  0.206320  0.163050  1.0  -0.5953
  O  O424  1  0.600940  0.030830  0.965920  1.0  -0.599
  O  O425  1  0.756960  0.226530  0.570630  1.0  -0.5903
  O  O426  1  0.844220  0.267930  0.627680  1.0  -0.5788
  O  O427  1  0.234760  0.248490  0.266480  1.0  -0.601
  O  O428  1  0.385220  0.273120  0.233100  1.0  -0.5805
  O  O429  1  0.106550  0.245850  0.101130  1.0  -0.5861
  O  O430  1  0.917220  0.477780  0.402240  1.0  -0.5734
  O  O431  1  0.883780  0.465890  0.494060  1.0  -0.6031
  O  O432  1  0.569700  0.044070  0.058230  1.0  -0.5895
  O  O433  1  0.799310  0.185780  0.026630  1.0  -0.2684
  O  O434  1  0.681870  0.333540  0.339420  1.0  -0.2813
  O  O435  1  0.870150  0.104170  0.967960  1.0  -0.2704
  O  O436  1  0.792690  0.138400  0.151050  1.0  -0.2528
  O  O437  1  0.103230  0.219780  0.447390  1.0  -0.2676
  O  O438  1  0.907910  0.303250  0.331770  1.0  -0.2734
  O  O439  1  0.005700  0.100900  0.120740  1.0  -0.258
  O  O440  1  0.473380  0.420410  0.265580  1.0  -0.2585
  O  O441  1  0.056130  0.298810  0.498070  1.0  -0.2676
  O  O442  1  0.589370  0.400740  0.419660  1.0  -0.2731
  O  O443  1  0.858750  0.219940  0.367590  1.0  -0.2613
  O  O444  1  0.701430  0.398440  0.241510  1.0  -0.2562
  O  O445  1  0.362740  0.786020  0.294700  1.0  -0.5857
  O  O446  1  0.209780  0.814080  0.320730  1.0  -0.572
  O  O447  1  0.301740  0.706320  0.336950  1.0  -0.5957
  O  O448  1  0.899060  0.530830  0.534080  1.0  -0.598
  O  O449  1  0.743040  0.726530  0.929370  1.0  -0.5907
  O  O450  1  0.655780  0.767930  0.872320  1.0  -0.5783
  O  O451  1  0.265240  0.748490  0.233520  1.0  -0.6006
  O  O452  1  0.114780  0.773120  0.266900  1.0  -0.5793
  O  O453  1  0.393450  0.745850  0.398870  1.0  -0.5862
  O  O454  1  0.582780  0.977780  0.097760  1.0  -0.5727
  O  O455  1  0.616220  0.965890  0.005940  1.0  -0.6022
  O  O456  1  0.930300  0.544070  0.441770  1.0  -0.5907
  O  O457  1  0.700690  0.685780  0.473370  1.0  -0.2677
  O  O458  1  0.818130  0.833540  0.160580  1.0  -0.2812
  O  O459  1  0.629850  0.604170  0.532040  1.0  -0.2691
  O  O460  1  0.707310  0.638400  0.348950  1.0  -0.2523
  O  O461  1  0.396770  0.719780  0.052610  1.0  -0.2652
  O  O462  1  0.592090  0.803250  0.168230  1.0  -0.2722
  O  O463  1  0.494300  0.600900  0.379260  1.0  -0.2575
  O  O464  1  0.026620  0.920410  0.234420  1.0  -0.2544
  O  O465  1  0.443870  0.798810  0.001930  1.0  -0.2674
  O  O466  1  0.910630  0.900740  0.080340  1.0  -0.2713
  O  O467  1  0.641250  0.719940  0.132410  1.0  -0.2648
  O  O468  1  0.798570  0.898440  0.258490  1.0  -0.2559
  O  O469  1  0.862740  0.713980  0.794700  1.0  -0.5864
  O  O470  1  0.709780  0.685920  0.820730  1.0  -0.5715
  O  O471  1  0.801740  0.793680  0.836950  1.0  -0.5951
  O  O472  1  0.399060  0.969170  0.034080  1.0  -0.5974
  O  O473  1  0.243040  0.773470  0.429370  1.0  -0.5908
  O  O474  1  0.155780  0.732070  0.372320  1.0  -0.5793
  O  O475  1  0.765240  0.751510  0.733520  1.0  -0.6004
  O  O476  1  0.614780  0.726880  0.766900  1.0  -0.579
  O  O477  1  0.893450  0.754150  0.898870  1.0  -0.5873
  O  O478  1  0.082780  0.522220  0.597760  1.0  -0.5725
  O  O479  1  0.116220  0.534110  0.505940  1.0  -0.6027
  O  O480  1  0.430300  0.955930  0.941770  1.0  -0.5902
  O  O481  1  0.200690  0.814220  0.973370  1.0  -0.2669
  O  O482  1  0.318130  0.666460  0.660580  1.0  -0.2809
  O  O483  1  0.129850  0.895830  0.032040  1.0  -0.2688
  O  O484  1  0.207310  0.861600  0.848950  1.0  -0.2534
  O  O485  1  0.896770  0.780220  0.552610  1.0  -0.2656
  O  O486  1  0.092090  0.696750  0.668230  1.0  -0.2719
  O  O487  1  0.994300  0.899100  0.879260  1.0  -0.2592
  O  O488  1  0.526620  0.579590  0.734420  1.0  -0.2555
  O  O489  1  0.943870  0.701190  0.501930  1.0  -0.2679
  O  O490  1  0.410630  0.599260  0.580340  1.0  -0.2738
  O  O491  1  0.141250  0.780060  0.632410  1.0  -0.2614
  O  O492  1  0.298570  0.601560  0.758490  1.0  -0.2544
  O  O493  1  0.637260  0.213980  0.705300  1.0  -0.5862
  O  O494  1  0.790220  0.185920  0.679270  1.0  -0.5719
  O  O495  1  0.698260  0.293680  0.663050  1.0  -0.5952
  O  O496  1  0.100940  0.469170  0.465920  1.0  -0.5985
  O  O497  1  0.256960  0.273470  0.070630  1.0  -0.5903
  O  O498  1  0.344220  0.232070  0.127680  1.0  -0.5793
  O  O499  1  0.734760  0.251510  0.766480  1.0  -0.6013
  O  O500  1  0.885220  0.226880  0.733100  1.0  -0.5793
  O  O501  1  0.606550  0.254150  0.601130  1.0  -0.5867
  O  O502  1  0.417220  0.022220  0.902240  1.0  -0.5738
  O  O503  1  0.383780  0.034110  0.994060  1.0  -0.6029
  O  O504  1  0.069700  0.455930  0.558230  1.0  -0.5891
  O  O505  1  0.299310  0.314220  0.526630  1.0  -0.2671
  O  O506  1  0.181870  0.166460  0.839420  1.0  -0.2804
  O  O507  1  0.370150  0.395830  0.467960  1.0  -0.2694
  O  O508  1  0.292690  0.361600  0.651050  1.0  -0.2513
  O  O509  1  0.603230  0.280220  0.947390  1.0  -0.2632
  O  O510  1  0.407910  0.196750  0.831770  1.0  -0.2734
  O  O511  1  0.505700  0.399100  0.620740  1.0  -0.2584
  O  O512  1  0.973380  0.079590  0.765580  1.0  -0.2563
  O  O513  1  0.556130  0.201190  0.998070  1.0  -0.2686
  O  O514  1  0.089370  0.099260  0.919660  1.0  -0.2735
  O  O515  1  0.358750  0.280060  0.867590  1.0  -0.2624
  O  O516  1  0.201430  0.101560  0.741510  1.0  -0.2535
