# generated using pymatgen
data_NiH4C2(NO2)2
_symmetry_space_group_name_H-M   'P 1'
_cell_length_a   14.76100000
_cell_length_b   14.76100000
_cell_length_c   10.87900000
_cell_angle_alpha   90.00000000
_cell_angle_beta   90.00000000
_cell_angle_gamma   90.00000000
_symmetry_Int_Tables_number   1
_chemical_formula_structural   NiH4C2(NO2)2
_chemical_formula_sum   'Ni16 H64 C32 N32 O64'
_cell_volume   2370.39398936
_cell_formula_units_Z   16
loop_
 _symmetry_equiv_pos_site_id
 _symmetry_equiv_pos_as_xyz
  1  'x, y, z'
loop_
 _atom_site_type_symbol
 _atom_site_label
 _atom_site_symmetry_multiplicity
 _atom_site_fract_x
 _atom_site_fract_y
 _atom_site_fract_z
 _atom_site_occupancy
 _atom_site_charge
  Ni  Ni1  1  0.595010  0.654990  0.125000  1.0  0.827
  Ni  Ni2  1  0.095010  0.154990  0.625000  1.0  0.827
  Ni  Ni3  1  0.904990  0.345010  0.625000  1.0  0.8257
  Ni  Ni4  1  0.404990  0.845010  0.125000  1.0  0.8257
  Ni  Ni5  1  0.595010  0.345010  0.375000  1.0  0.8255
  Ni  Ni6  1  0.095010  0.845010  0.875000  1.0  0.8255
  Ni  Ni7  1  0.904990  0.654990  0.875000  1.0  0.8286
  Ni  Ni8  1  0.404990  0.154990  0.375000  1.0  0.8286
  Ni  Ni9  1  0.404990  0.345010  0.875000  1.0  0.8257
  Ni  Ni10  1  0.904990  0.845010  0.375000  1.0  0.8257
  Ni  Ni11  1  0.095010  0.654990  0.375000  1.0  0.827
  Ni  Ni12  1  0.595010  0.154990  0.875000  1.0  0.827
  Ni  Ni13  1  0.404990  0.654990  0.625000  1.0  0.8286
  Ni  Ni14  1  0.904990  0.154990  0.125000  1.0  0.8286
  Ni  Ni15  1  0.095010  0.345010  0.125000  1.0  0.8255
  Ni  Ni16  1  0.595010  0.845010  0.625000  1.0  0.8255
  H  H17  1  0.647000  0.810200  0.159000  1.0  0.2584
  H  H18  1  0.573700  0.799900  0.239000  1.0  0.2529
  H  H19  1  0.147000  0.310200  0.659000  1.0  0.2584
  H  H20  1  0.073700  0.299900  0.739000  1.0  0.2529
  H  H21  1  0.853000  0.189800  0.659000  1.0  0.2583
  H  H22  1  0.926300  0.200100  0.739000  1.0  0.2536
  H  H23  1  0.353000  0.689800  0.159000  1.0  0.2583
  H  H24  1  0.426300  0.700100  0.239000  1.0  0.2536
  H  H25  1  0.439800  0.397000  0.409000  1.0  0.2614
  H  H26  1  0.450100  0.323700  0.489000  1.0  0.2531
  H  H27  1  0.939800  0.897000  0.909000  1.0  0.2614
  H  H28  1  0.950100  0.823700  0.989000  1.0  0.2531
  H  H29  1  0.060200  0.603000  0.909000  1.0  0.2583
  H  H30  1  0.049900  0.676300  0.989000  1.0  0.2534
  H  H31  1  0.560200  0.103000  0.409000  1.0  0.2583
  H  H32  1  0.549900  0.176300  0.489000  1.0  0.2534
  H  H33  1  0.853000  0.810200  0.841000  1.0  0.2587
  H  H34  1  0.926300  0.799900  0.761000  1.0  0.2536
  H  H35  1  0.353000  0.310200  0.341000  1.0  0.2587
  H  H36  1  0.426300  0.299900  0.261000  1.0  0.2536
  H  H37  1  0.647000  0.189800  0.341000  1.0  0.2586
  H  H38  1  0.573700  0.200100  0.261000  1.0  0.2521
  H  H39  1  0.147000  0.689800  0.841000  1.0  0.2586
  H  H40  1  0.073700  0.700100  0.761000  1.0  0.2521
  H  H41  1  0.060200  0.397000  0.591000  1.0  0.2599
  H  H42  1  0.049900  0.323700  0.511000  1.0  0.2531
  H  H43  1  0.560200  0.897000  0.091000  1.0  0.2599
  H  H44  1  0.549900  0.823700  0.011000  1.0  0.2531
  H  H45  1  0.439800  0.603000  0.091000  1.0  0.2579
  H  H46  1  0.450100  0.676300  0.011000  1.0  0.253
  H  H47  1  0.939800  0.103000  0.591000  1.0  0.2579
  H  H48  1  0.950100  0.176300  0.511000  1.0  0.253
  H  H49  1  0.353000  0.189800  0.841000  1.0  0.258
  H  H50  1  0.426300  0.200100  0.761000  1.0  0.2531
  H  H51  1  0.853000  0.689800  0.341000  1.0  0.258
  H  H52  1  0.926300  0.700100  0.261000  1.0  0.2531
  H  H53  1  0.147000  0.810200  0.341000  1.0  0.2584
  H  H54  1  0.073700  0.799900  0.261000  1.0  0.2532
  H  H55  1  0.647000  0.310200  0.841000  1.0  0.2584
  H  H56  1  0.573700  0.299900  0.761000  1.0  0.2532
  H  H57  1  0.560200  0.603000  0.591000  1.0  0.2586
  H  H58  1  0.549900  0.676300  0.511000  1.0  0.2526
  H  H59  1  0.060200  0.103000  0.091000  1.0  0.2586
  H  H60  1  0.049900  0.176300  0.011000  1.0  0.2526
  H  H61  1  0.939800  0.397000  0.091000  1.0  0.2612
  H  H62  1  0.950100  0.323700  0.011000  1.0  0.2536
  H  H63  1  0.439800  0.897000  0.591000  1.0  0.2612
  H  H64  1  0.450100  0.823700  0.511000  1.0  0.2536
  H  H65  1  0.147000  0.189800  0.159000  1.0  0.2587
  H  H66  1  0.073700  0.200100  0.239000  1.0  0.2523
  H  H67  1  0.647000  0.689800  0.659000  1.0  0.2587
  H  H68  1  0.573700  0.700100  0.739000  1.0  0.2523
  H  H69  1  0.353000  0.810200  0.659000  1.0  0.2588
  H  H70  1  0.426300  0.799900  0.739000  1.0  0.254
  H  H71  1  0.853000  0.310200  0.159000  1.0  0.2588
  H  H72  1  0.926300  0.299900  0.239000  1.0  0.254
  H  H73  1  0.939800  0.603000  0.409000  1.0  0.2581
  H  H74  1  0.950100  0.676300  0.489000  1.0  0.254
  H  H75  1  0.439800  0.103000  0.909000  1.0  0.2581
  H  H76  1  0.450100  0.176300  0.989000  1.0  0.254
  H  H77  1  0.560200  0.397000  0.909000  1.0  0.2598
  H  H78  1  0.549900  0.323700  0.989000  1.0  0.2525
  H  H79  1  0.060200  0.897000  0.409000  1.0  0.2598
  H  H80  1  0.049900  0.823700  0.489000  1.0  0.2525
  C  C81  1  0.777840  0.665690  0.060750  1.0  0.709
  C  C82  1  0.277840  0.165690  0.560750  1.0  0.709
  C  C83  1  0.722160  0.334310  0.560750  1.0  0.7092
  C  C84  1  0.222160  0.834310  0.060750  1.0  0.7092
  C  C85  1  0.584310  0.527840  0.310750  1.0  0.7098
  C  C86  1  0.084310  0.027840  0.810750  1.0  0.7098
  C  C87  1  0.915690  0.472160  0.810750  1.0  0.7092
  C  C88  1  0.415690  0.972160  0.310750  1.0  0.7092
  C  C89  1  0.722160  0.665690  0.939250  1.0  0.7092
  C  C90  1  0.222160  0.165690  0.439250  1.0  0.7092
  C  C91  1  0.777840  0.334310  0.439250  1.0  0.7103
  C  C92  1  0.277840  0.834310  0.939250  1.0  0.7103
  C  C93  1  0.915690  0.527840  0.689250  1.0  0.7109
  C  C94  1  0.415690  0.027840  0.189250  1.0  0.7109
  C  C95  1  0.584310  0.472160  0.189250  1.0  0.7106
  C  C96  1  0.084310  0.972160  0.689250  1.0  0.7106
  C  C97  1  0.222160  0.334310  0.939250  1.0  0.7101
  C  C98  1  0.722160  0.834310  0.439250  1.0  0.7101
  C  C99  1  0.277840  0.665690  0.439250  1.0  0.7092
  C  C100  1  0.777840  0.165690  0.939250  1.0  0.7092
  C  C101  1  0.415690  0.472160  0.689250  1.0  0.7102
  C  C102  1  0.915690  0.972160  0.189250  1.0  0.7102
  C  C103  1  0.084310  0.527840  0.189250  1.0  0.7107
  C  C104  1  0.584310  0.027840  0.689250  1.0  0.7107
  C  C105  1  0.277840  0.334310  0.060750  1.0  0.7097
  C  C106  1  0.777840  0.834310  0.560750  1.0  0.7097
  C  C107  1  0.222160  0.665690  0.560750  1.0  0.7086
  C  C108  1  0.722160  0.165690  0.060750  1.0  0.7086
  C  C109  1  0.084310  0.472160  0.310750  1.0  0.7099
  C  C110  1  0.584310  0.972160  0.810750  1.0  0.7099
  C  C111  1  0.415690  0.527840  0.810750  1.0  0.7095
  C  C112  1  0.915690  0.027840  0.310750  1.0  0.7095
  N  N113  1  0.597230  0.792260  0.165910  1.0  -0.5658
  N  N114  1  0.097230  0.292260  0.665910  1.0  -0.5658
  N  N115  1  0.902770  0.207740  0.665910  1.0  -0.5654
  N  N116  1  0.402770  0.707740  0.165910  1.0  -0.5654
  N  N117  1  0.457740  0.347230  0.415910  1.0  -0.5665
  N  N118  1  0.957740  0.847230  0.915910  1.0  -0.5665
  N  N119  1  0.042260  0.652770  0.915910  1.0  -0.5653
  N  N120  1  0.542260  0.152770  0.415910  1.0  -0.5653
  N  N121  1  0.902770  0.792260  0.834090  1.0  -0.5631
  N  N122  1  0.402770  0.292260  0.334090  1.0  -0.5631
  N  N123  1  0.597230  0.207740  0.334090  1.0  -0.5627
  N  N124  1  0.097230  0.707740  0.834090  1.0  -0.5627
  N  N125  1  0.042260  0.347230  0.584090  1.0  -0.5635
  N  N126  1  0.542260  0.847230  0.084090  1.0  -0.5635
  N  N127  1  0.457740  0.652770  0.084090  1.0  -0.5642
  N  N128  1  0.957740  0.152770  0.584090  1.0  -0.5642
  N  N129  1  0.402770  0.207740  0.834090  1.0  -0.5637
  N  N130  1  0.902770  0.707740  0.334090  1.0  -0.5637
  N  N131  1  0.097230  0.792260  0.334090  1.0  -0.5634
  N  N132  1  0.597230  0.292260  0.834090  1.0  -0.5634
  N  N133  1  0.542260  0.652770  0.584090  1.0  -0.5646
  N  N134  1  0.042260  0.152770  0.084090  1.0  -0.5646
  N  N135  1  0.957740  0.347230  0.084090  1.0  -0.5639
  N  N136  1  0.457740  0.847230  0.584090  1.0  -0.5639
  N  N137  1  0.097230  0.207740  0.165910  1.0  -0.5655
  N  N138  1  0.597230  0.707740  0.665910  1.0  -0.5655
  N  N139  1  0.402770  0.792260  0.665910  1.0  -0.5647
  N  N140  1  0.902770  0.292260  0.165910  1.0  -0.5647
  N  N141  1  0.957740  0.652770  0.415910  1.0  -0.5663
  N  N142  1  0.457740  0.152770  0.915910  1.0  -0.5663
  N  N143  1  0.542260  0.347230  0.915910  1.0  -0.5653
  N  N144  1  0.042260  0.847230  0.415910  1.0  -0.5653
  O  O145  1  0.734480  0.654080  0.158420  1.0  -0.5338
  O  O146  1  0.862320  0.675330  0.052390  1.0  -0.5368
  O  O147  1  0.234480  0.154080  0.658420  1.0  -0.5338
  O  O148  1  0.362320  0.175330  0.552390  1.0  -0.5368
  O  O149  1  0.765520  0.345920  0.658420  1.0  -0.5344
  O  O150  1  0.637680  0.324670  0.552390  1.0  -0.536
  O  O151  1  0.265520  0.845920  0.158420  1.0  -0.5344
  O  O152  1  0.137680  0.824670  0.052390  1.0  -0.536
  O  O153  1  0.595920  0.484480  0.408420  1.0  -0.5331
  O  O154  1  0.574670  0.612320  0.302390  1.0  -0.5362
  O  O155  1  0.095920  0.984480  0.908420  1.0  -0.5331
  O  O156  1  0.074670  0.112320  0.802390  1.0  -0.5362
  O  O157  1  0.904080  0.515520  0.908420  1.0  -0.5339
  O  O158  1  0.925330  0.387680  0.802390  1.0  -0.5374
  O  O159  1  0.404080  0.015520  0.408420  1.0  -0.5339
  O  O160  1  0.425330  0.887680  0.302390  1.0  -0.5374
  O  O161  1  0.765520  0.654080  0.841580  1.0  -0.5357
  O  O162  1  0.637680  0.675330  0.947610  1.0  -0.5348
  O  O163  1  0.265520  0.154080  0.341580  1.0  -0.5357
  O  O164  1  0.137680  0.175330  0.447610  1.0  -0.5348
  O  O165  1  0.734480  0.345920  0.341580  1.0  -0.5347
  O  O166  1  0.862320  0.324670  0.447610  1.0  -0.5355
  O  O167  1  0.234480  0.845920  0.841580  1.0  -0.5347
  O  O168  1  0.362320  0.824670  0.947610  1.0  -0.5355
  O  O169  1  0.904080  0.484480  0.591580  1.0  -0.5352
  O  O170  1  0.925330  0.612320  0.697610  1.0  -0.5355
  O  O171  1  0.404080  0.984480  0.091580  1.0  -0.5352
  O  O172  1  0.425330  0.112320  0.197610  1.0  -0.5355
  O  O173  1  0.595920  0.515520  0.091580  1.0  -0.5346
  O  O174  1  0.574670  0.387680  0.197610  1.0  -0.5369
  O  O175  1  0.095920  0.015520  0.591580  1.0  -0.5346
  O  O176  1  0.074670  0.887680  0.697610  1.0  -0.5369
  O  O177  1  0.265520  0.345920  0.841580  1.0  -0.5352
  O  O178  1  0.137680  0.324670  0.947610  1.0  -0.5344
  O  O179  1  0.765520  0.845920  0.341580  1.0  -0.5352
  O  O180  1  0.637680  0.824670  0.447610  1.0  -0.5344
  O  O181  1  0.234480  0.654080  0.341580  1.0  -0.5353
  O  O182  1  0.362320  0.675330  0.447610  1.0  -0.5357
  O  O183  1  0.734480  0.154080  0.841580  1.0  -0.5353
  O  O184  1  0.862320  0.175330  0.947610  1.0  -0.5357
  O  O185  1  0.404080  0.515520  0.591580  1.0  -0.5353
  O  O186  1  0.425330  0.387680  0.697610  1.0  -0.5363
  O  O187  1  0.904080  0.015520  0.091580  1.0  -0.5353
  O  O188  1  0.925330  0.887680  0.197610  1.0  -0.5363
  O  O189  1  0.095920  0.484480  0.091580  1.0  -0.5344
  O  O190  1  0.074670  0.612320  0.197610  1.0  -0.5351
  O  O191  1  0.595920  0.984480  0.591580  1.0  -0.5344
  O  O192  1  0.574670  0.112320  0.697610  1.0  -0.5351
  O  O193  1  0.234480  0.345920  0.158420  1.0  -0.5341
  O  O194  1  0.362320  0.324670  0.052390  1.0  -0.5373
  O  O195  1  0.734480  0.845920  0.658420  1.0  -0.5341
  O  O196  1  0.862320  0.824670  0.552390  1.0  -0.5373
  O  O197  1  0.265520  0.654080  0.658420  1.0  -0.534
  O  O198  1  0.137680  0.675330  0.552390  1.0  -0.5357
  O  O199  1  0.765520  0.154080  0.158420  1.0  -0.534
  O  O200  1  0.637680  0.175330  0.052390  1.0  -0.5357
  O  O201  1  0.095920  0.515520  0.408420  1.0  -0.533
  O  O202  1  0.074670  0.387680  0.302390  1.0  -0.5381
  O  O203  1  0.595920  0.015520  0.908420  1.0  -0.533
  O  O204  1  0.574670  0.887680  0.802390  1.0  -0.5381
  O  O205  1  0.404080  0.484480  0.908420  1.0  -0.5339
  O  O206  1  0.425330  0.612320  0.802390  1.0  -0.5366
  O  O207  1  0.904080  0.984480  0.408420  1.0  -0.5339
  O  O208  1  0.925330  0.112320  0.302390  1.0  -0.5366
