# generated using pymatgen
data_CuH2C6SO4
_symmetry_space_group_name_H-M   'P 1'
_cell_length_a   6.58860000
_cell_length_b   16.76070000
_cell_length_c   11.71570000
_cell_angle_alpha   90.00000000
_cell_angle_beta   95.64400000
_cell_angle_gamma   90.00000000
_symmetry_Int_Tables_number   1
_chemical_formula_structural   CuH2C6SO4
_chemical_formula_sum   'Cu4 H8 C24 S4 O16'
_cell_volume   1287.48752756
_cell_formula_units_Z   4
loop_
 _symmetry_equiv_pos_site_id
 _symmetry_equiv_pos_as_xyz
  1  'x, y, z'
loop_
 _atom_site_type_symbol
 _atom_site_label
 _atom_site_symmetry_multiplicity
 _atom_site_fract_x
 _atom_site_fract_y
 _atom_site_fract_z
 _atom_site_occupancy
 _atom_site_charge
  Cu  Cu1  1  0.000000  0.500000  0.000000  1.0  0.9743
  Cu  Cu2  1  0.500000  0.000000  0.500000  1.0  0.9743
  Cu  Cu3  1  0.000000  0.000000  0.500000  1.0  0.6168
  Cu  Cu4  1  0.500000  0.500000  0.000000  1.0  0.6168
  H  H5  1  0.488100  0.678700  0.864100  1.0  0.1254
  H  H6  1  0.581300  0.793700  0.752400  1.0  0.1379
  H  H7  1  0.011900  0.178700  0.635900  1.0  0.1249
  H  H8  1  0.918700  0.293700  0.747600  1.0  0.1386
  H  H9  1  0.511900  0.321300  0.135900  1.0  0.1252
  H  H10  1  0.418700  0.206300  0.247600  1.0  0.1385
  H  H11  1  0.988100  0.821300  0.364100  1.0  0.1254
  H  H12  1  0.081300  0.706300  0.252400  1.0  0.1378
  C  C13  1  0.066800  0.631790  0.855700  1.0  0.7295
  C  C14  1  0.189700  0.693930  0.804600  1.0  -0.1906
  C  C15  1  0.394600  0.708940  0.817900  1.0  -0.0349
  C  C16  1  0.448300  0.775400  0.753700  1.0  -0.0271
  C  C17  1  0.282200  0.810160  0.693100  1.0  -0.1788
  C  C18  1  0.274300  0.880980  0.616600  1.0  0.7296
  C  C19  1  0.433200  0.131790  0.644300  1.0  0.728
  C  C20  1  0.310300  0.193930  0.695400  1.0  -0.1876
  C  C21  1  0.105400  0.208940  0.682100  1.0  -0.0343
  C  C22  1  0.051700  0.275400  0.746300  1.0  -0.0277
  C  C23  1  0.217800  0.310160  0.806900  1.0  -0.1756
  C  C24  1  0.225700  0.380980  0.883400  1.0  0.73
  C  C25  1  0.933200  0.368210  0.144300  1.0  0.7276
  C  C26  1  0.810300  0.306070  0.195400  1.0  -0.1876
  C  C27  1  0.605400  0.291060  0.182100  1.0  -0.0347
  C  C28  1  0.551700  0.224600  0.246300  1.0  -0.027
  C  C29  1  0.717800  0.189840  0.306900  1.0  -0.1755
  C  C30  1  0.725700  0.119020  0.383400  1.0  0.7301
  C  C31  1  0.566800  0.868210  0.355700  1.0  0.7288
  C  C32  1  0.689700  0.806070  0.304600  1.0  -0.1906
  C  C33  1  0.894600  0.791060  0.317900  1.0  -0.0355
  C  C34  1  0.948300  0.724600  0.253700  1.0  -0.0272
  C  C35  1  0.782200  0.689840  0.193100  1.0  -0.1793
  C  C36  1  0.774300  0.619020  0.116600  1.0  0.73
  S  S37  1  0.060510  0.761430  0.714500  1.0  0.1545
  S  S38  1  0.439490  0.261430  0.785500  1.0  0.1541
  S  S39  1  0.939490  0.238570  0.285500  1.0  0.1541
  S  S40  1  0.560510  0.738570  0.214500  1.0  0.1541
  O  O41  1  0.160100  0.575090  0.912200  1.0  -0.5962
  O  O42  1  0.878200  0.639370  0.839410  1.0  -0.5116
  O  O43  1  0.442900  0.912370  0.601460  1.0  -0.5645
  O  O44  1  0.099900  0.902400  0.574750  1.0  -0.574
  O  O45  1  0.339900  0.075090  0.587800  1.0  -0.595
  O  O46  1  0.621800  0.139370  0.660590  1.0  -0.5078
  O  O47  1  0.057100  0.412370  0.898540  1.0  -0.5623
  O  O48  1  0.400100  0.402400  0.925250  1.0  -0.5745
  O  O49  1  0.839900  0.424910  0.087800  1.0  -0.5948
  O  O50  1  0.121800  0.360630  0.160590  1.0  -0.5109
  O  O51  1  0.557100  0.087630  0.398540  1.0  -0.5627
  O  O52  1  0.900100  0.097600  0.425250  1.0  -0.5745
  O  O53  1  0.660100  0.924910  0.412200  1.0  -0.5966
  O  O54  1  0.378200  0.860630  0.339410  1.0  -0.5084
  O  O55  1  0.942900  0.587630  0.101460  1.0  -0.5647
  O  O56  1  0.599900  0.597600  0.074750  1.0  -0.574
