# generated using pymatgen
data_Co3H13(CO)11
_symmetry_space_group_name_H-M   'P 1'
_cell_length_a   9.08620000
_cell_length_b   10.72990000
_cell_length_c   19.54960000
_cell_angle_alpha   89.45200000
_cell_angle_beta   87.33700000
_cell_angle_gamma   80.34700000
_symmetry_Int_Tables_number   1
_chemical_formula_structural   Co3H13(CO)11
_chemical_formula_sum   'Co12 H52 C44 O44'
_cell_volume   1876.95091086
_cell_formula_units_Z   4
loop_
 _symmetry_equiv_pos_site_id
 _symmetry_equiv_pos_as_xyz
  1  'x, y, z'
loop_
 _atom_site_type_symbol
 _atom_site_label
 _atom_site_symmetry_multiplicity
 _atom_site_fract_x
 _atom_site_fract_y
 _atom_site_fract_z
 _atom_site_occupancy
 _atom_site_charge
  Co  Co1  1  0.827930  0.748410  0.778440  1.0  1.0446
  Co  Co2  1  0.153030  0.765160  0.723030  1.0  1.028
  Co  Co3  1  0.934530  0.759180  0.589400  1.0  1.2209
  Co  Co4  1  0.057620  0.744030  0.911080  1.0  1.2085
  Co  Co5  1  0.172070  0.251590  0.221560  1.0  1.046
  Co  Co6  1  0.846970  0.234840  0.276970  1.0  1.0285
  Co  Co7  1  0.065470  0.240820  0.410600  1.0  1.2202
  Co  Co8  1  0.942380  0.255970  0.088920  1.0  1.2097
  Co  Co9  1  0.000000  0.500000  0.500000  1.0  1.1312
  Co  Co10  1  0.000000  0.000000  0.000000  1.0  1.1057
  Co  Co11  1  0.000000  0.500000  0.000000  1.0  1.1761
  Co  Co12  1  0.000000  0.000000  0.500000  1.0  1.1759
  H  H13  1  0.922000  0.883000  0.690000  1.0  0.4671
  H  H14  1  0.063000  0.630000  0.807000  1.0  0.4595
  H  H15  1  0.886400  0.262200  0.829500  1.0  0.1432
  H  H16  1  0.002900  0.139400  0.848800  1.0  0.1403
  H  H17  1  0.464500  0.844200  0.547700  1.0  0.1158
  H  H18  1  0.367000  0.982100  0.543300  1.0  0.14
  H  H19  1  0.644300  0.503500  0.960200  1.0  0.131
  H  H20  1  0.532800  0.633900  0.951500  1.0  0.1386
  H  H21  1  0.451900  0.835400  0.436100  1.0  0.1164
  H  H22  1  0.282500  0.815000  0.449300  1.0  0.1267
  H  H23  1  0.631900  0.928200  0.968000  1.0  0.0872
  H  H24  1  0.498700  0.866800  0.003100  1.0  0.0819
  H  H25  1  0.698200  0.693100  0.048300  1.0  0.1377
  H  H26  1  0.538000  0.653100  0.062200  1.0  0.1227
  H  H27  1  0.500800  0.633600  0.498800  1.0  0.0825
  H  H28  1  0.367800  0.570400  0.532800  1.0  0.0865
  H  H29  1  0.500900  0.884000  0.876600  1.0  0.1194
  H  H30  1  0.445100  0.032600  0.887400  1.0  0.1196
  H  H31  1  0.705000  0.151000  0.842400  1.0  0.1346
  H  H32  1  0.735900  0.137600  0.922400  1.0  0.1228
  H  H33  1  0.554700  0.460800  0.611600  1.0  0.1156
  H  H34  1  0.501000  0.609000  0.624800  1.0  0.1208
  H  H35  1  0.273700  0.372200  0.579400  1.0  0.1174
  H  H36  1  0.302400  0.357100  0.659700  1.0  0.1336
  H  H37  1  0.998800  0.360100  0.649600  1.0  0.1341
  H  H38  1  0.116100  0.239300  0.671400  1.0  0.1414
  H  H39  1  0.078000  0.117000  0.310000  1.0  0.4669
  H  H40  1  0.937000  0.370000  0.193000  1.0  0.4621
  H  H41  1  0.113600  0.737800  0.170500  1.0  0.1441
  H  H42  1  0.997100  0.860600  0.151200  1.0  0.1412
  H  H43  1  0.535500  0.155800  0.452300  1.0  0.116
  H  H44  1  0.633000  0.017900  0.456700  1.0  0.1383
  H  H45  1  0.355700  0.496500  0.039800  1.0  0.1325
  H  H46  1  0.467200  0.366100  0.048500  1.0  0.1387
  H  H47  1  0.548100  0.164600  0.563900  1.0  0.1146
  H  H48  1  0.717500  0.185000  0.550700  1.0  0.1265
  H  H49  1  0.368100  0.071800  0.032000  1.0  0.0864
  H  H50  1  0.501300  0.133200  0.996900  1.0  0.0794
  H  H51  1  0.301800  0.306900  0.951700  1.0  0.1393
  H  H52  1  0.462000  0.346900  0.937800  1.0  0.125
  H  H53  1  0.499200  0.366400  0.501200  1.0  0.0836
  H  H54  1  0.632200  0.429600  0.467200  1.0  0.0863
  H  H55  1  0.499100  0.116000  0.123400  1.0  0.1205
  H  H56  1  0.554900  0.967400  0.112600  1.0  0.1191
  H  H57  1  0.295000  0.849000  0.157600  1.0  0.1354
  H  H58  1  0.264100  0.862400  0.077600  1.0  0.123
  H  H59  1  0.445300  0.539200  0.388400  1.0  0.1193
  H  H60  1  0.499000  0.391000  0.375200  1.0  0.1197
  H  H61  1  0.726300  0.627800  0.420600  1.0  0.1162
  H  H62  1  0.697600  0.642900  0.340300  1.0  0.1328
  H  H63  1  0.001200  0.639900  0.350400  1.0  0.133
  H  H64  1  0.883900  0.760700  0.328600  1.0  0.1397
  C  C65  1  0.912000  0.197400  0.865350  1.0  -0.3079
  C  C66  1  0.710800  0.512500  0.085890  1.0  0.7459
  C  C67  1  0.945900  0.261500  0.929570  1.0  0.76
  C  C68  1  0.715000  0.568000  0.581310  1.0  0.7492
  C  C69  1  0.366700  0.891400  0.534460  1.0  -0.3273
  C  C70  1  0.300000  0.996800  0.420200  1.0  0.7318
  C  C71  1  0.068300  0.238000  0.569340  1.0  0.7799
  C  C72  1  0.633100  0.596100  0.966480  1.0  -0.3178
  C  C73  1  0.835600  0.982300  0.866620  1.0  0.7512
  C  C74  1  0.160300  0.522600  0.636760  1.0  0.7492
  C  C75  1  0.286500  0.925300  0.919060  1.0  0.7615
  C  C76  1  0.353200  0.874000  0.456490  1.0  -0.3202
  C  C77  1  0.522400  0.941400  0.977360  1.0  -0.0839
  C  C78  1  0.640700  0.623300  0.043370  1.0  -0.3348
  C  C79  1  0.477200  0.557800  0.523330  1.0  -0.0992
  C  C80  1  0.749900  0.645500  0.920160  1.0  0.7701
  C  C81  1  0.445000  0.948300  0.908340  1.0  -0.3168
  C  C82  1  0.782200  0.121700  0.875780  1.0  -0.3081
  C  C83  1  0.245700  0.849100  0.580360  1.0  0.7532
  C  C84  1  0.555600  0.546100  0.592010  1.0  -0.3319
  C  C85  1  0.225700  0.384800  0.625900  1.0  -0.2996
  C  C86  1  0.092000  0.303400  0.635000  1.0  -0.3131
  C  C87  1  0.088000  0.802600  0.134650  1.0  -0.3075
  C  C88  1  0.289200  0.487500  0.914110  1.0  0.7454
  C  C89  1  0.054100  0.738500  0.070430  1.0  0.7604
  C  C90  1  0.285000  0.432000  0.418690  1.0  0.7523
  C  C91  1  0.633300  0.108600  0.465540  1.0  -0.3281
  C  C92  1  0.700000  0.003200  0.579800  1.0  0.7345
  C  C93  1  0.931700  0.762000  0.430660  1.0  0.7793
  C  C94  1  0.366900  0.403900  0.033520  1.0  -0.3196
  C  C95  1  0.164400  0.017700  0.133380  1.0  0.7514
  C  C96  1  0.839700  0.477400  0.363240  1.0  0.7473
  C  C97  1  0.713500  0.074700  0.080940  1.0  0.756
  C  C98  1  0.646800  0.126000  0.543510  1.0  -0.3187
  C  C99  1  0.477600  0.058600  0.022640  1.0  -0.0856
  C  C100  1  0.359300  0.376700  0.956630  1.0  -0.3327
  C  C101  1  0.522800  0.442200  0.476670  1.0  -0.0998
  C  C102  1  0.250100  0.354500  0.079840  1.0  0.7713
  C  C103  1  0.555000  0.051700  0.091660  1.0  -0.3248
  C  C104  1  0.217800  0.878300  0.124220  1.0  -0.3092
  C  C105  1  0.754300  0.150900  0.419640  1.0  0.748
  C  C106  1  0.444400  0.453900  0.407990  1.0  -0.3275
  C  C107  1  0.774300  0.615200  0.374100  1.0  -0.2995
  C  C108  1  0.908000  0.696600  0.365000  1.0  -0.3116
  O  O109  1  0.937600  0.808000  0.689250  1.0  -1.0258
  O  O110  1  0.659500  0.500600  0.145590  1.0  -0.5889
  O  O111  1  0.043500  0.702700  0.811880  1.0  -1.0216
  O  O112  1  0.377500  0.035500  0.373580  1.0  -0.569
  O  O113  1  0.791200  0.929300  0.816740  1.0  -0.6046
  O  O114  1  0.036000  0.128700  0.574120  1.0  -0.6024
  O  O115  1  0.749100  0.668100  0.605390  1.0  -0.6262
  O  O116  1  0.195000  0.577700  0.688090  1.0  -0.5931
  O  O117  1  0.255200  0.820700  0.899410  1.0  -0.6215
  O  O118  1  0.879900  0.644400  0.943140  1.0  -0.692
  O  O119  1  0.278900  0.815500  0.639840  1.0  -0.6066
  O  O120  1  0.978500  0.371700  0.924420  1.0  -0.6001
  O  O121  1  0.196300  0.010600  0.950670  1.0  -0.6033
  O  O122  1  0.712100  0.683900  0.862060  1.0  -0.6176
  O  O123  1  0.926900  0.926300  0.909860  1.0  -0.6885
  O  O124  1  0.070400  0.300400  0.514030  1.0  -0.678
  O  O125  1  0.068300  0.575000  0.592920  1.0  -0.6897
  O  O126  1  0.172500  0.059500  0.442030  1.0  -0.7086
  O  O127  1  0.825300  0.439300  0.059660  1.0  -0.697
  O  O128  1  0.115600  0.852200  0.556890  1.0  -0.6989
  O  O129  1  0.804400  0.484200  0.547960  1.0  -0.608
  O  O130  1  0.940600  0.201800  0.985900  1.0  -0.6767
  O  O131  1  0.062400  0.192000  0.310750  1.0  -1.0286
  O  O132  1  0.340500  0.499400  0.854410  1.0  -0.5872
  O  O133  1  0.956500  0.297300  0.188120  1.0  -1.0207
  O  O134  1  0.622500  0.964500  0.626420  1.0  -0.5691
  O  O135  1  0.208800  0.070700  0.183260  1.0  -0.6071
  O  O136  1  0.964000  0.871300  0.425880  1.0  -0.6015
  O  O137  1  0.250900  0.331900  0.394610  1.0  -0.6269
  O  O138  1  0.805000  0.422300  0.311910  1.0  -0.5938
  O  O139  1  0.744800  0.179300  0.100590  1.0  -0.6221
  O  O140  1  0.120100  0.355600  0.056860  1.0  -0.6921
  O  O141  1  0.721100  0.184500  0.360160  1.0  -0.6082
  O  O142  1  0.021500  0.628300  0.075580  1.0  -0.6002
  O  O143  1  0.803700  0.989400  0.049330  1.0  -0.608
  O  O144  1  0.287900  0.316100  0.137940  1.0  -0.6162
  O  O145  1  0.073100  0.073700  0.090140  1.0  -0.6889
  O  O146  1  0.929600  0.699600  0.485970  1.0  -0.6784
  O  O147  1  0.931700  0.425000  0.407080  1.0  -0.6884
  O  O148  1  0.827500  0.940500  0.557970  1.0  -0.7086
  O  O149  1  0.174700  0.560700  0.940340  1.0  -0.698
  O  O150  1  0.884400  0.147800  0.443110  1.0  -0.699
  O  O151  1  0.195600  0.515800  0.452040  1.0  -0.6068
  O  O152  1  0.059400  0.798200  0.014100  1.0  -0.6761
