# generated using pymatgen
data_CoH14C17(NO)8
_symmetry_space_group_name_H-M   'P 1'
_cell_length_a   16.08240000
_cell_length_b   23.86420000
_cell_length_c   23.86420000
_cell_angle_alpha   83.48060000
_cell_angle_beta   70.30840000
_cell_angle_gamma   70.30850000
_symmetry_Int_Tables_number   1
_chemical_formula_structural   CoH14C17(NO)8
_chemical_formula_sum   'Co12 H168 C204 N96 O96'
_cell_volume   8119.02632699
_cell_formula_units_Z   12
loop_
 _symmetry_equiv_pos_site_id
 _symmetry_equiv_pos_as_xyz
  1  'x, y, z'
loop_
 _atom_site_type_symbol
 _atom_site_label
 _atom_site_symmetry_multiplicity
 _atom_site_fract_x
 _atom_site_fract_y
 _atom_site_fract_z
 _atom_site_occupancy
 _atom_site_charge
  Co  Co1  1  0.350480  0.067580  0.654120  1.0  1.0679
  Co  Co2  1  0.572180  0.432420  0.845880  1.0  1.0676
  Co  Co3  1  0.004600  0.345880  0.567580  1.0  1.0702
  Co  Co4  1  0.418060  0.154120  0.932420  1.0  1.0681
  Co  Co5  1  0.649520  0.932420  0.345880  1.0  1.0674
  Co  Co6  1  0.427820  0.567580  0.154120  1.0  1.0676
  Co  Co7  1  0.995400  0.654120  0.432420  1.0  1.0681
  Co  Co8  1  0.581940  0.845880  0.067580  1.0  1.0663
  Co  Co9  1  0.500000  0.000000  0.500000  1.0  0.4886
  Co  Co10  1  0.500000  0.500000  0.000000  1.0  0.4886
  Co  Co11  1  0.000000  0.500000  0.500000  1.0  0.4886
  Co  Co12  1  0.500000  0.000000  0.000000  1.0  0.4886
  H  H13  1  0.359200  0.199800  0.607400  1.0  0.125
  H  H14  1  0.517600  0.132500  0.450300  1.0  0.1224
  H  H15  1  0.578200  0.214600  0.441800  1.0  0.1377
  H  H16  1  0.324800  0.292500  0.554100  1.0  0.1453
  H  H17  1  0.590900  0.306600  0.407000  1.0  0.1367
  H  H18  1  0.339000  0.384700  0.520700  1.0  0.1174
  H  H19  1  0.420900  0.447600  0.458600  1.0  0.1422
  H  H20  1  0.488200  0.419500  0.396700  1.0  0.1339
  H  H21  1  0.629000  0.439400  0.368400  1.0  0.133
  H  H22  1  0.510300  0.414900  0.539900  1.0  0.1375
  H  H23  1  0.758600  0.444300  0.387500  1.0  0.141
  H  H24  1  0.635900  0.420900  0.561300  1.0  0.1605
  H  H25  1  0.821100  0.353600  0.536000  1.0  0.1211
  H  H26  1  0.822200  0.506100  0.455900  1.0  0.1222
  H  H27  1  0.496300  0.978300  0.713900  1.0  0.1189
  H  H28  1  0.647900  0.904300  0.557900  1.0  0.1184
  H  H29  1  0.763300  0.854600  0.595200  1.0  0.1426
  H  H30  1  0.573100  0.894400  0.757800  1.0  0.1388
  H  H31  1  0.861700  0.783400  0.637600  1.0  0.1157
  H  H32  1  0.676800  0.825100  0.798300  1.0  0.1186
  H  H33  1  0.856100  0.767500  0.780300  1.0  0.1317
  H  H34  1  0.666400  0.300200  0.892600  1.0  0.1241
  H  H35  1  0.600400  0.367500  0.049700  1.0  0.1231
  H  H36  1  0.734600  0.285400  0.058200  1.0  0.1355
  H  H37  1  0.671400  0.207500  0.945900  1.0  0.1455
  H  H38  1  0.804500  0.193400  0.093000  1.0  0.135
  H  H39  1  0.744400  0.115300  0.979300  1.0  0.1169
  H  H40  1  0.827100  0.052400  0.041400  1.0  0.1409
  H  H41  1  0.804400  0.080500  0.103300  1.0  0.136
  H  H42  1  0.936800  0.060600  0.131600  1.0  0.1328
  H  H43  1  0.965100  0.085100  0.960100  1.0  0.1385
  H  H44  1  0.090400  0.055700  0.112500  1.0  0.1404
  H  H45  1  0.118100  0.079100  0.938700  1.0  0.1602
  H  H46  1  0.210700  0.146400  0.964000  1.0  0.1212
  H  H47  1  0.284200  0.993900  0.044100  1.0  0.122
  H  H48  1  0.688500  0.521700  0.786100  1.0  0.1208
  H  H49  1  0.610100  0.595700  0.942100  1.0  0.1193
  H  H50  1  0.713100  0.645400  0.904800  1.0  0.1438
  H  H51  1  0.725300  0.605600  0.742200  1.0  0.1389
  H  H52  1  0.782700  0.716600  0.862400  1.0  0.1167
  H  H53  1  0.800200  0.674900  0.701700  1.0  0.1197
  H  H54  1  0.903900  0.732500  0.719700  1.0  0.1317
  H  H55  1  0.966600  0.392600  0.699800  1.0  0.1247
  H  H56  1  0.967900  0.549700  0.632500  1.0  0.1235
  H  H57  1  0.020000  0.558200  0.714600  1.0  0.1378
  H  H58  1  0.878900  0.445900  0.792500  1.0  0.1459
  H  H59  1  0.997900  0.593000  0.806600  1.0  0.1358
  H  H60  1  0.859700  0.479300  0.884700  1.0  0.1167
  H  H61  1  0.879500  0.541400  0.947600  1.0  0.1421
  H  H62  1  0.884900  0.603300  0.919500  1.0  0.1384
  H  H63  1  0.997400  0.631600  0.939400  1.0  0.1303
  H  H64  1  0.050200  0.460100  0.914900  1.0  0.1369
  H  H65  1  0.146100  0.612500  0.944300  1.0  0.1398
  H  H66  1  0.197200  0.438700  0.920900  1.0  0.1603
  H  H67  1  0.357100  0.464000  0.853600  1.0  0.1216
  H  H68  1  0.278100  0.544100  0.006100  1.0  0.1221
  H  H69  1  0.210200  0.286100  0.478300  1.0  0.1211
  H  H70  1  0.205800  0.442100  0.404300  1.0  0.1189
  H  H71  1  0.358500  0.404800  0.354600  1.0  0.1436
  H  H72  1  0.330900  0.242200  0.394400  1.0  0.1392
  H  H73  1  0.499300  0.362400  0.283400  1.0  0.1161
  H  H74  1  0.475100  0.201700  0.325100  1.0  0.1192
  H  H75  1  0.636400  0.219700  0.267500  1.0  0.1329
  H  H76  1  0.559000  0.107400  0.800200  1.0  0.1235
  H  H77  1  0.650100  0.950300  0.867500  1.0  0.1228
  H  H78  1  0.792800  0.941800  0.785400  1.0  0.1381
  H  H79  1  0.617300  0.054100  0.707500  1.0  0.1457
  H  H80  1  0.897500  0.907000  0.693400  1.0  0.1364
  H  H81  1  0.723700  0.020700  0.615300  1.0  0.1197
  H  H82  1  0.868500  0.958600  0.552400  1.0  0.1396
  H  H83  1  0.907700  0.896700  0.580500  1.0  0.138
  H  H84  1  0.068400  0.868400  0.560600  1.0  0.1318
  H  H85  1  0.925200  0.039900  0.585100  1.0  0.1372
  H  H86  1  0.202900  0.887500  0.555700  1.0  0.14
  H  H87  1  0.056800  0.061300  0.579100  1.0  0.1586
  H  H88  1  0.174700  0.036000  0.646400  1.0  0.1224
  H  H89  1  0.328300  0.955900  0.493900  1.0  0.1201
  H  H90  1  0.474600  0.213900  0.021700  1.0  0.1204
  H  H91  1  0.552200  0.057900  0.095700  1.0  0.1201
  H  H92  1  0.617900  0.095200  0.145400  1.0  0.1435
  H  H93  1  0.467500  0.257800  0.105600  1.0  0.1392
  H  H94  1  0.645100  0.137600  0.216600  1.0  0.1162
  H  H95  1  0.501900  0.298300  0.174900  1.0  0.1195
  H  H96  1  0.623600  0.280300  0.232500  1.0  0.1326
  H  H97  1  0.640800  0.800200  0.392600  1.0  0.124
  H  H98  1  0.482400  0.867500  0.549700  1.0  0.1231
  H  H99  1  0.421800  0.785400  0.558200  1.0  0.1371
  H  H100  1  0.675200  0.707500  0.445900  1.0  0.1452
  H  H101  1  0.409100  0.693400  0.593000  1.0  0.1369
  H  H102  1  0.661000  0.615300  0.479300  1.0  0.1178
  H  H103  1  0.579100  0.552400  0.541400  1.0  0.1427
  H  H104  1  0.511800  0.580500  0.603300  1.0  0.136
  H  H105  1  0.371000  0.560600  0.631600  1.0  0.1331
  H  H106  1  0.489700  0.585100  0.460100  1.0  0.1378
  H  H107  1  0.241400  0.555700  0.612500  1.0  0.1401
  H  H108  1  0.364100  0.579100  0.438700  1.0  0.1601
  H  H109  1  0.178900  0.646400  0.464000  1.0  0.12
  H  H110  1  0.177800  0.493900  0.544100  1.0  0.1222
  H  H111  1  0.503700  0.021700  0.286100  1.0  0.1195
  H  H112  1  0.352100  0.095700  0.442100  1.0  0.1175
  H  H113  1  0.236700  0.145400  0.404800  1.0  0.1429
  H  H114  1  0.426900  0.105600  0.242200  1.0  0.1389
  H  H115  1  0.138300  0.216600  0.362400  1.0  0.1153
  H  H116  1  0.323200  0.174900  0.201700  1.0  0.1196
  H  H117  1  0.143900  0.232500  0.219700  1.0  0.1337
  H  H118  1  0.333600  0.699800  0.107400  1.0  0.1243
  H  H119  1  0.399600  0.632500  0.950300  1.0  0.1233
  H  H120  1  0.265400  0.714600  0.941800  1.0  0.1362
  H  H121  1  0.328600  0.792500  0.054100  1.0  0.1466
  H  H122  1  0.195500  0.806600  0.907000  1.0  0.1359
  H  H123  1  0.255600  0.884700  0.020700  1.0  0.1172
  H  H124  1  0.172900  0.947600  0.958600  1.0  0.1405
  H  H125  1  0.195600  0.919500  0.896700  1.0  0.135
  H  H126  1  0.063200  0.939400  0.868400  1.0  0.1342
  H  H127  1  0.034900  0.914900  0.039900  1.0  0.1377
  H  H128  1  0.909600  0.944300  0.887500  1.0  0.1414
  H  H129  1  0.881900  0.920900  0.061300  1.0  0.1601
  H  H130  1  0.789300  0.853600  0.036000  1.0  0.1218
  H  H131  1  0.715800  0.006100  0.955900  1.0  0.1217
  H  H132  1  0.311500  0.478300  0.213900  1.0  0.1202
  H  H133  1  0.389900  0.404300  0.057900  1.0  0.1189
  H  H134  1  0.286900  0.354600  0.095200  1.0  0.1435
  H  H135  1  0.274700  0.394400  0.257800  1.0  0.1397
  H  H136  1  0.217300  0.283400  0.137600  1.0  0.1177
  H  H137  1  0.199800  0.325100  0.298300  1.0  0.1189
  H  H138  1  0.096100  0.267500  0.280300  1.0  0.1317
  H  H139  1  0.033400  0.607400  0.300200  1.0  0.1239
  H  H140  1  0.032100  0.450300  0.367500  1.0  0.1226
  H  H141  1  0.980000  0.441800  0.285400  1.0  0.1379
  H  H142  1  0.121100  0.554100  0.207500  1.0  0.1456
  H  H143  1  0.002100  0.407000  0.193400  1.0  0.1358
  H  H144  1  0.140300  0.520700  0.115300  1.0  0.1159
  H  H145  1  0.120500  0.458600  0.052400  1.0  0.1414
  H  H146  1  0.115100  0.396700  0.080500  1.0  0.1386
  H  H147  1  0.002600  0.368400  0.060600  1.0  0.1321
  H  H148  1  0.949800  0.539900  0.085100  1.0  0.1365
  H  H149  1  0.853900  0.387500  0.055700  1.0  0.1406
  H  H150  1  0.802800  0.561300  0.079100  1.0  0.1593
  H  H151  1  0.642900  0.536000  0.146400  1.0  0.121
  H  H152  1  0.721900  0.455900  0.993900  1.0  0.1209
  H  H153  1  0.789800  0.713900  0.521700  1.0  0.1209
  H  H154  1  0.794200  0.557900  0.595700  1.0  0.1187
  H  H155  1  0.641500  0.595200  0.645400  1.0  0.1428
  H  H156  1  0.669100  0.757800  0.605600  1.0  0.1398
  H  H157  1  0.500700  0.637600  0.716600  1.0  0.116
  H  H158  1  0.524900  0.798300  0.674900  1.0  0.1195
  H  H159  1  0.363600  0.780300  0.732500  1.0  0.134
  H  H160  1  0.441000  0.892600  0.199800  1.0  0.124
  H  H161  1  0.349900  0.049700  0.132500  1.0  0.123
  H  H162  1  0.207200  0.058200  0.214600  1.0  0.1384
  H  H163  1  0.382700  0.945900  0.292500  1.0  0.1455
  H  H164  1  0.102500  0.093000  0.306600  1.0  0.1364
  H  H165  1  0.276300  0.979300  0.384700  1.0  0.119
  H  H166  1  0.131500  0.041400  0.447600  1.0  0.1401
  H  H167  1  0.092300  0.103300  0.419500  1.0  0.1378
  H  H168  1  0.931600  0.131600  0.439400  1.0  0.1303
  H  H169  1  0.074800  0.960100  0.414900  1.0  0.1378
  H  H170  1  0.797100  0.112500  0.444300  1.0  0.1401
  H  H171  1  0.943200  0.938700  0.420900  1.0  0.1593
  H  H172  1  0.825300  0.964000  0.353600  1.0  0.1221
  H  H173  1  0.671700  0.044100  0.506100  1.0  0.1217
  H  H174  1  0.525400  0.786100  0.978300  1.0  0.1203
  H  H175  1  0.447800  0.942100  0.904300  1.0  0.1194
  H  H176  1  0.382100  0.904800  0.854600  1.0  0.1442
  H  H177  1  0.532500  0.742200  0.894400  1.0  0.1398
  H  H178  1  0.354900  0.862400  0.783400  1.0  0.1162
  H  H179  1  0.498100  0.701700  0.825100  1.0  0.1188
  H  H180  1  0.376400  0.719700  0.767500  1.0  0.1336
  C  C181  1  0.394100  0.172980  0.576220  1.0  0.1739
  C  C182  1  0.480860  0.136260  0.490020  1.0  0.1768
  C  C183  1  0.450650  0.245150  0.499950  1.0  0.1911
  C  C184  1  0.529400  0.249000  0.457400  1.0  -0.1466
  C  C185  1  0.378400  0.295400  0.524600  1.0  -0.1718
  C  C186  1  0.537200  0.304200  0.437000  1.0  -0.0558
  C  C187  1  0.387400  0.350500  0.504300  1.0  -0.1051
  C  C188  1  0.465700  0.356100  0.460700  1.0  0.0982
  C  C189  1  0.477800  0.416300  0.439300  1.0  -0.1984
  C  C190  1  0.558000  0.425100  0.452100  1.0  0.0464
  C  C191  1  0.631200  0.434900  0.407100  1.0  -0.0792
  C  C192  1  0.560700  0.420500  0.509100  1.0  -0.0757
  C  C193  1  0.708700  0.438100  0.418300  1.0  -0.1567
  C  C194  1  0.635300  0.423900  0.522300  1.0  -0.1927
  C  C195  1  0.837500  0.387470  0.520730  1.0  0.1705
  C  C196  1  0.837890  0.470990  0.477030  1.0  0.1928
  C  C197  1  0.710400  0.431900  0.475500  1.0  0.2094
  C  C198  1  0.518020  0.969730  0.673430  1.0  0.1891
  C  C199  1  0.601300  0.929210  0.587990  1.0  0.1625
  C  C200  1  0.658640  0.881510  0.672210  1.0  0.1283
  C  C201  1  0.745200  0.848510  0.636090  1.0  -0.1741
  C  C202  1  0.631780  0.872640  0.733400  1.0  -0.1579
  C  C203  1  0.804050  0.806540  0.661760  1.0  -0.098
  C  C204  1  0.693900  0.830900  0.757300  1.0  -0.0646
  C  C205  1  0.779830  0.797850  0.722490  1.0  0.0621
  C  C206  1  0.643300  0.327020  0.923780  1.0  0.173
  C  C207  1  0.607140  0.363740  0.009980  1.0  0.1772
  C  C208  1  0.695750  0.254850  0.000050  1.0  0.195
  C  C209  1  0.735800  0.251000  0.042600  1.0  -0.1444
  C  C210  1  0.698400  0.204600  0.975400  1.0  -0.1711
  C  C211  1  0.778400  0.195800  0.063000  1.0  -0.0612
  C  C212  1  0.742200  0.149500  0.995700  1.0  -0.1015
  C  C213  1  0.782500  0.143900  0.039300  1.0  0.0956
  C  C214  1  0.833400  0.083700  0.060700  1.0  -0.198
  C  C215  1  0.935200  0.074900  0.047900  1.0  0.0469
  C  C216  1  0.973200  0.065100  0.092900  1.0  -0.0807
  C  C217  1  0.990300  0.079500  0.990900  1.0  -0.075
  C  C218  1  0.065100  0.061900  0.081700  1.0  -0.1582
  C  C219  1  0.081500  0.076100  0.977700  1.0  -0.1918
  C  C220  1  0.245700  0.112530  0.979270  1.0  0.1695
  C  C221  1  0.285910  0.029010  0.022970  1.0  0.1932
  C  C222  1  0.117800  0.068100  0.024500  1.0  0.2079
  C  C223  1  0.661180  0.530270  0.826570  1.0  0.1899
  C  C224  1  0.618500  0.570790  0.912010  1.0  0.1618
  C  C225  1  0.712360  0.618490  0.827790  1.0  0.1281
  C  C226  1  0.729800  0.651490  0.863910  1.0  -0.1751
  C  C227  1  0.737820  0.627360  0.766600  1.0  -0.1614
  C  C228  1  0.772350  0.693460  0.838240  1.0  -0.0987
  C  C229  1  0.782100  0.669100  0.742700  1.0  -0.0637
  C  C230  1  0.800170  0.702150  0.777510  1.0  0.062
  C  C231  1  0.970320  0.423780  0.672980  1.0  0.1763
  C  C232  1  0.970880  0.509980  0.636260  1.0  0.1778
  C  C233  1  0.950600  0.500050  0.745150  1.0  0.1926
  C  C234  1  0.986800  0.542600  0.749000  1.0  -0.1441
  C  C235  1  0.903000  0.475400  0.795400  1.0  -0.1729
  C  C236  1  0.974200  0.563000  0.804200  1.0  -0.0566
  C  C237  1  0.891700  0.495700  0.850500  1.0  -0.1112
  C  C238  1  0.926400  0.539300  0.856100  1.0  0.095
  C  C239  1  0.917100  0.560700  0.916300  1.0  -0.1985
  C  C240  1  0.010100  0.547900  0.925100  1.0  0.0457
  C  C241  1  0.038300  0.592900  0.934900  1.0  -0.0817
  C  C242  1  0.069800  0.490900  0.920500  1.0  -0.0771
  C  C243  1  0.127000  0.581700  0.938100  1.0  -0.1598
  C  C244  1  0.157600  0.477700  0.923900  1.0  -0.1935
  C  C245  1  0.358230  0.479270  0.887470  1.0  0.1716
  C  C246  1  0.314920  0.522970  0.970990  1.0  0.1925
  C  C247  1  0.185900  0.524500  0.931900  1.0  0.2088
  C  C248  1  0.191450  0.326570  0.469730  1.0  0.1904
  C  C249  1  0.189290  0.412010  0.429210  1.0  0.1616
  C  C250  1  0.330850  0.327790  0.381510  1.0  0.1278
  C  C251  1  0.381290  0.363910  0.348510  1.0  -0.1743
  C  C252  1  0.365180  0.266600  0.372640  1.0  -0.1571
  C  C253  1  0.465810  0.338240  0.306540  1.0  -0.1038
  C  C254  1  0.451200  0.242700  0.330900  1.0  -0.0626
  C  C255  1  0.502320  0.277510  0.297850  1.0  0.062
  C  C256  1  0.567080  0.076220  0.827020  1.0  0.1738
  C  C257  1  0.617120  0.990020  0.863740  1.0  0.1768
  C  C258  1  0.695800  0.999950  0.754850  1.0  0.1918
  C  C259  1  0.778400  0.957400  0.751000  1.0  -0.1459
  C  C260  1  0.673800  0.024600  0.704600  1.0  -0.1735
  C  C261  1  0.841400  0.937000  0.695800  1.0  -0.0592
  C  C262  1  0.737900  0.004300  0.649500  1.0  -0.11
  C  C263  1  0.821800  0.960700  0.643900  1.0  0.0968
  C  C264  1  0.894100  0.939300  0.583700  1.0  -0.1977
  C  C265  1  0.983100  0.952100  0.574900  1.0  0.0466
  C  C266  1  0.066100  0.907100  0.565100  1.0  -0.0848
  C  C267  1  0.981200  0.009100  0.579500  1.0  -0.0758
  C  C268  1  0.146800  0.918300  0.561900  1.0  -0.1584
  C  C269  1  0.059200  0.022300  0.576100  1.0  -0.1927
  C  C270  1  0.224970  0.020730  0.612530  1.0  0.1708
  C  C271  1  0.308880  0.977030  0.529010  1.0  0.1908
  C  C272  1  0.142300  0.975500  0.568100  1.0  0.2093
  C  C273  1  0.487750  0.173430  0.030270  1.0  0.1912
  C  C274  1  0.530510  0.087990  0.070790  1.0  0.162
  C  C275  1  0.540150  0.172210  0.118490  1.0  0.1287
  C  C276  1  0.593710  0.136090  0.151490  1.0  -0.1703
  C  C277  1  0.504420  0.233400  0.127360  1.0  -0.1581
  C  C278  1  0.610590  0.161760  0.193460  1.0  -0.1009
  C  C279  1  0.524800  0.257300  0.169100  1.0  -0.0618
  C  C280  1  0.577680  0.222490  0.202150  1.0  0.0623
  C  C281  1  0.605900  0.827020  0.423780  1.0  0.1733
  C  C282  1  0.519140  0.863740  0.509980  1.0  0.1782
  C  C283  1  0.549350  0.754850  0.500050  1.0  0.1902
  C  C284  1  0.470600  0.751000  0.542600  1.0  -0.1452
  C  C285  1  0.621600  0.704600  0.475400  1.0  -0.1709
  C  C286  1  0.462800  0.695800  0.563000  1.0  -0.0576
  C  C287  1  0.612600  0.649500  0.495700  1.0  -0.1035
  C  C288  1  0.534300  0.643900  0.539300  1.0  0.0982
  C  C289  1  0.522200  0.583700  0.560700  1.0  -0.1995
  C  C290  1  0.442000  0.574900  0.547900  1.0  0.0456
  C  C291  1  0.368800  0.565100  0.592900  1.0  -0.0809
  C  C292  1  0.439300  0.579500  0.490900  1.0  -0.0739
  C  C293  1  0.291300  0.561900  0.581700  1.0  -0.1583
  C  C294  1  0.364700  0.576100  0.477700  1.0  -0.1907
  C  C295  1  0.162500  0.612530  0.479270  1.0  0.1685
  C  C296  1  0.162110  0.529010  0.522970  1.0  0.1928
  C  C297  1  0.289600  0.568100  0.524500  1.0  0.2096
  C  C298  1  0.481980  0.030270  0.326570  1.0  0.1887
  C  C299  1  0.398700  0.070790  0.412010  1.0  0.1619
  C  C300  1  0.341360  0.118490  0.327790  1.0  0.1282
  C  C301  1  0.254800  0.151490  0.363910  1.0  -0.1765
  C  C302  1  0.368220  0.127360  0.266600  1.0  -0.1575
  C  C303  1  0.195950  0.193460  0.338240  1.0  -0.0986
  C  C304  1  0.306100  0.169100  0.242700  1.0  -0.0616
  C  C305  1  0.220170  0.202150  0.277510  1.0  0.0627
  C  C306  1  0.356700  0.672980  0.076220  1.0  0.1736
  C  C307  1  0.392860  0.636260  0.990020  1.0  0.1769
  C  C308  1  0.304250  0.745150  0.999950  1.0  0.1942
  C  C309  1  0.264200  0.749000  0.957400  1.0  -0.1456
  C  C310  1  0.301600  0.795400  0.024600  1.0  -0.1716
  C  C311  1  0.221600  0.804200  0.937000  1.0  -0.0627
  C  C312  1  0.257800  0.850500  0.004300  1.0  -0.1034
  C  C313  1  0.217500  0.856100  0.960700  1.0  0.0971
  C  C314  1  0.166600  0.916300  0.939300  1.0  -0.1963
  C  C315  1  0.064800  0.925100  0.952100  1.0  0.0462
  C  C316  1  0.026800  0.934900  0.907100  1.0  -0.0802
  C  C317  1  0.009700  0.920500  0.009100  1.0  -0.0763
  C  C318  1  0.934900  0.938100  0.918300  1.0  -0.1564
  C  C319  1  0.918500  0.923900  0.022300  1.0  -0.1941
  C  C320  1  0.754300  0.887470  0.020730  1.0  0.1708
  C  C321  1  0.714090  0.970990  0.977030  1.0  0.193
  C  C322  1  0.882200  0.931900  0.975500  1.0  0.2082
  C  C323  1  0.338820  0.469730  0.173430  1.0  0.1904
  C  C324  1  0.381500  0.429210  0.087990  1.0  0.1618
  C  C325  1  0.287640  0.381510  0.172210  1.0  0.1278
  C  C326  1  0.270200  0.348510  0.136090  1.0  -0.1742
  C  C327  1  0.262180  0.372640  0.233400  1.0  -0.1595
  C  C328  1  0.227650  0.306540  0.161760  1.0  -0.0991
  C  C329  1  0.217900  0.330900  0.257300  1.0  -0.0644
  C  C330  1  0.199830  0.297850  0.222490  1.0  0.0626
  C  C331  1  0.029680  0.576220  0.327020  1.0  0.1755
  C  C332  1  0.029120  0.490020  0.363740  1.0  0.1782
  C  C333  1  0.049400  0.499950  0.254850  1.0  0.1921
  C  C334  1  0.013200  0.457400  0.251000  1.0  -0.145
  C  C335  1  0.097000  0.524600  0.204600  1.0  -0.1735
  C  C336  1  0.025800  0.437000  0.195800  1.0  -0.059
  C  C337  1  0.108300  0.504300  0.149500  1.0  -0.1097
  C  C338  1  0.073600  0.460700  0.143900  1.0  0.0959
  C  C339  1  0.082900  0.439300  0.083700  1.0  -0.1982
  C  C340  1  0.989900  0.452100  0.074900  1.0  0.0461
  C  C341  1  0.961700  0.407100  0.065100  1.0  -0.0856
  C  C342  1  0.930200  0.509100  0.079500  1.0  -0.0763
  C  C343  1  0.873000  0.418300  0.061900  1.0  -0.159
  C  C344  1  0.842400  0.522300  0.076100  1.0  -0.1952
  C  C345  1  0.641770  0.520730  0.112530  1.0  0.1728
  C  C346  1  0.685080  0.477030  0.029010  1.0  0.1918
  C  C347  1  0.814100  0.475500  0.068100  1.0  0.2103
  C  C348  1  0.808550  0.673430  0.530270  1.0  0.1906
  C  C349  1  0.810710  0.587990  0.570790  1.0  0.162
  C  C350  1  0.669150  0.672210  0.618490  1.0  0.1273
  C  C351  1  0.618710  0.636090  0.651490  1.0  -0.1719
  C  C352  1  0.634820  0.733400  0.627360  1.0  -0.1559
  C  C353  1  0.534190  0.661760  0.693460  1.0  -0.1029
  C  C354  1  0.548800  0.757300  0.669100  1.0  -0.0623
  C  C355  1  0.497680  0.722490  0.702150  1.0  0.0622
  C  C356  1  0.432920  0.923780  0.172980  1.0  0.173
  C  C357  1  0.382880  0.009980  0.136260  1.0  0.1774
  C  C358  1  0.304200  0.000050  0.245150  1.0  0.1911
  C  C359  1  0.221600  0.042600  0.249000  1.0  -0.1464
  C  C360  1  0.326200  0.975400  0.295400  1.0  -0.1731
  C  C361  1  0.158600  0.063000  0.304200  1.0  -0.061
  C  C362  1  0.262100  0.995700  0.350500  1.0  -0.1118
  C  C363  1  0.178200  0.039300  0.356100  1.0  0.0968
  C  C364  1  0.105900  0.060700  0.416300  1.0  -0.1986
  C  C365  1  0.016900  0.047900  0.425100  1.0  0.0449
  C  C366  1  0.933900  0.092900  0.434900  1.0  -0.0834
  C  C367  1  0.018800  0.990900  0.420500  1.0  -0.0769
  C  C368  1  0.853200  0.081700  0.438100  1.0  -0.1589
  C  C369  1  0.940800  0.977700  0.423900  1.0  -0.1921
  C  C370  1  0.775030  0.979270  0.387470  1.0  0.1699
  C  C371  1  0.691120  0.022970  0.470990  1.0  0.1911
  C  C372  1  0.857700  0.024500  0.431900  1.0  0.2089
  C  C373  1  0.512250  0.826570  0.969730  1.0  0.1912
  C  C374  1  0.469490  0.912010  0.929210  1.0  0.1613
  C  C375  1  0.459850  0.827790  0.881510  1.0  0.129
  C  C376  1  0.406290  0.863910  0.848510  1.0  -0.1739
  C  C377  1  0.495580  0.766600  0.872640  1.0  -0.1565
  C  C378  1  0.389410  0.838240  0.806540  1.0  -0.1019
  C  C379  1  0.475200  0.742700  0.830900  1.0  -0.0631
  C  C380  1  0.422320  0.777510  0.797850  1.0  0.0628
  C  C381  1  0.844700  0.750000  0.750000  1.0  -0.2295
  C  C382  1  0.594700  0.250000  0.250000  1.0  -0.2295
  C  C383  1  0.155300  0.250000  0.250000  1.0  -0.2297
  C  C384  1  0.405300  0.750000  0.750000  1.0  -0.2297
  N  N385  1  0.443360  0.187410  0.521070  1.0  0.0741
  N  N386  1  0.402390  0.116760  0.579260  1.0  -0.1995
  N  N387  1  0.458930  0.092610  0.522930  1.0  -0.2274
  N  N388  1  0.792810  0.430560  0.489420  1.0  0.0613
  N  N389  1  0.906160  0.454150  0.498730  1.0  -0.2001
  N  N390  1  0.905920  0.400000  0.526360  1.0  -0.1895
  N  N391  1  0.595960  0.923960  0.645920  1.0  0.0713
  N  N392  1  0.532450  0.973840  0.579660  1.0  -0.2105
  N  N393  1  0.478920  0.999400  0.634960  1.0  -0.1911
  N  N394  1  0.651840  0.312590  0.978930  1.0  0.0737
  N  N395  1  0.598410  0.383240  0.920740  1.0  -0.2003
  N  N396  1  0.574470  0.407390  0.977070  1.0  -0.2286
  N  N397  1  0.212790  0.069440  0.010580  1.0  0.0613
  N  N398  1  0.359040  0.045850  0.001270  1.0  -0.1997
  N  N399  1  0.332280  0.100000  0.973640  1.0  -0.1894
  N  N400  1  0.665840  0.576040  0.854080  1.0  0.0723
  N  N401  1  0.585950  0.526160  0.920340  1.0  -0.2109
  N  N402  1  0.613280  0.500600  0.865040  1.0  -0.1907
  N  N403  1  0.964430  0.478930  0.687410  1.0  0.0741
  N  N404  1  0.981650  0.420740  0.616760  1.0  -0.1999
  N  N405  1  0.981860  0.477070  0.592610  1.0  -0.2265
  N  N406  1  0.282230  0.510580  0.930560  1.0  0.0622
  N  N407  1  0.404890  0.501270  0.954150  1.0  -0.2002
  N  N408  1  0.432280  0.473640  0.900000  1.0  -0.1872
  N  N409  1  0.241880  0.354080  0.423960  1.0  0.0714
  N  N410  1  0.112110  0.420340  0.473840  1.0  -0.2121
  N  N411  1  0.113880  0.365040  0.499400  1.0  -0.1899
  N  N412  1  0.630770  0.021070  0.812590  1.0  0.0731
  N  N413  1  0.519150  0.079260  0.883240  1.0  -0.2012
  N  N414  1  0.551540  0.022930  0.907390  1.0  -0.2271
  N  N415  1  0.223370  0.989420  0.569440  1.0  0.0621
  N  N416  1  0.360310  0.998730  0.545850  1.0  -0.2005
  N  N417  1  0.305920  0.026360  0.600000  1.0  -0.1884
  N  N418  1  0.519920  0.145920  0.076040  1.0  0.072
  N  N419  1  0.506290  0.079660  0.026160  1.0  -0.2104
  N  N420  1  0.478320  0.134960  0.000600  1.0  -0.1876
  N  N421  1  0.556640  0.812590  0.478930  1.0  0.0737
  N  N422  1  0.597610  0.883240  0.420740  1.0  -0.2008
  N  N423  1  0.541070  0.907390  0.477070  1.0  -0.2287
  N  N424  1  0.207190  0.569440  0.510580  1.0  0.0615
  N  N425  1  0.093840  0.545850  0.501270  1.0  -0.2004
  N  N426  1  0.094080  0.600000  0.473640  1.0  -0.1902
  N  N427  1  0.404040  0.076040  0.354080  1.0  0.0714
  N  N428  1  0.467550  0.026160  0.420340  1.0  -0.2101
  N  N429  1  0.521080  0.000600  0.365040  1.0  -0.1901
  N  N430  1  0.348160  0.687410  0.021070  1.0  0.0737
  N  N431  1  0.401590  0.616760  0.079260  1.0  -0.1989
  N  N432  1  0.425530  0.592610  0.022930  1.0  -0.2272
  N  N433  1  0.787210  0.930560  0.989420  1.0  0.0588
  N  N434  1  0.640960  0.954150  0.998730  1.0  -0.1996
  N  N435  1  0.667720  0.900000  0.026360  1.0  -0.1872
  N  N436  1  0.334160  0.423960  0.145920  1.0  0.0724
  N  N437  1  0.414050  0.473840  0.079660  1.0  -0.2097
  N  N438  1  0.386720  0.499400  0.134960  1.0  -0.191
  N  N439  1  0.035570  0.521070  0.312590  1.0  0.0726
  N  N440  1  0.018350  0.579260  0.383240  1.0  -0.2001
  N  N441  1  0.018140  0.522930  0.407390  1.0  -0.2277
  N  N442  1  0.717770  0.489420  0.069440  1.0  0.0616
  N  N443  1  0.595110  0.498730  0.045850  1.0  -0.1993
  N  N444  1  0.567720  0.526360  0.100000  1.0  -0.1858
  N  N445  1  0.758120  0.645920  0.576040  1.0  0.0715
  N  N446  1  0.887890  0.579660  0.526160  1.0  -0.2109
  N  N447  1  0.886120  0.634960  0.500600  1.0  -0.1893
  N  N448  1  0.369230  0.978930  0.187410  1.0  0.0743
  N  N449  1  0.480850  0.920740  0.116760  1.0  -0.1998
  N  N450  1  0.448460  0.977070  0.092610  1.0  -0.2276
  N  N451  1  0.776630  0.010580  0.430560  1.0  0.0622
  N  N452  1  0.639690  0.001270  0.454150  1.0  -0.1994
  N  N453  1  0.694080  0.973640  0.400000  1.0  -0.1882
  N  N454  1  0.480080  0.854080  0.923960  1.0  0.0723
  N  N455  1  0.493710  0.920340  0.973840  1.0  -0.2096
  N  N456  1  0.521680  0.865040  0.999400  1.0  -0.1881
  N  N457  1  0.737850  0.465720  0.659380  1.0  0.8031
  N  N458  1  0.379930  0.610720  0.835820  1.0  0.6648
  N  N459  1  0.603900  0.139000  0.589200  1.0  0.6166
  N  N460  1  0.362950  0.034280  0.840620  1.0  0.803
  N  N461  1  0.326470  0.889280  0.664180  1.0  0.6645
  N  N462  1  0.832100  0.361000  0.910800  1.0  0.6163
  N  N463  1  0.397230  0.340620  0.965720  1.0  0.8014
  N  N464  1  0.215750  0.164180  0.110720  1.0  0.6678
  N  N465  1  0.193100  0.410800  0.639000  1.0  0.6229
  N  N466  1  0.203570  0.159380  0.534280  1.0  0.8037
  N  N467  1  0.990650  0.335820  0.389280  1.0  0.6676
  N  N468  1  0.742900  0.089200  0.861000  1.0  0.6153
  N  N469  1  0.262150  0.534280  0.340620  1.0  0.8035
  N  N470  1  0.620070  0.389280  0.164180  1.0  0.6646
  N  N471  1  0.396100  0.861000  0.410800  1.0  0.619
  N  N472  1  0.637050  0.965720  0.159380  1.0  0.8017
  N  N473  1  0.673530  0.110720  0.335820  1.0  0.668
  N  N474  1  0.167900  0.639000  0.089200  1.0  0.6166
  N  N475  1  0.602770  0.659380  0.034280  1.0  0.8013
  N  N476  1  0.784250  0.835820  0.889280  1.0  0.6677
  N  N477  1  0.806900  0.589200  0.361000  1.0  0.6195
  N  N478  1  0.796430  0.840620  0.465720  1.0  0.8037
  N  N479  1  0.009350  0.664180  0.610720  1.0  0.6678
  N  N480  1  0.257100  0.910800  0.139000  1.0  0.6143
  O  O481  1  0.300800  0.017440  0.730160  1.0  -0.2666
  O  O482  1  0.219720  0.132150  0.679010  1.0  -0.3601
  O  O483  1  0.391950  0.110770  0.706730  1.0  -0.306
  O  O484  1  0.548400  0.482560  0.769840  1.0  -0.269
  O  O485  1  0.530880  0.367850  0.820990  1.0  -0.3557
  O  O486  1  0.709450  0.389230  0.793270  1.0  -0.3088
  O  O487  1  0.030960  0.269840  0.517440  1.0  -0.268
  O  O488  1  0.898730  0.320990  0.632150  1.0  -0.3643
  O  O489  1  0.098680  0.293270  0.610770  1.0  -0.3065
  O  O490  1  0.318240  0.230160  0.982560  1.0  -0.2691
  O  O491  1  0.351870  0.179010  0.867850  1.0  -0.365
  O  O492  1  0.502720  0.206730  0.889230  1.0  -0.3063
  O  O493  1  0.699200  0.982560  0.269840  1.0  -0.2666
  O  O494  1  0.780280  0.867850  0.320990  1.0  -0.3599
  O  O495  1  0.608050  0.889230  0.293270  1.0  -0.3066
  O  O496  1  0.451600  0.517440  0.230160  1.0  -0.2679
  O  O497  1  0.469120  0.632150  0.179010  1.0  -0.3546
  O  O498  1  0.290550  0.610770  0.206730  1.0  -0.3063
  O  O499  1  0.969040  0.730160  0.482560  1.0  -0.2686
  O  O500  1  0.101270  0.679010  0.367850  1.0  -0.3621
  O  O501  1  0.901320  0.706730  0.389230  1.0  -0.3088
  O  O502  1  0.681760  0.769840  0.017440  1.0  -0.2701
  O  O503  1  0.648130  0.820990  0.132150  1.0  -0.3652
  O  O504  1  0.497280  0.793270  0.110770  1.0  -0.303
  O  O505  1  0.739440  0.412610  0.676110  1.0  -0.5148
  O  O506  1  0.760990  0.495830  0.686790  1.0  -0.498
  O  O507  1  0.712840  0.486230  0.615290  1.0  -0.4495
  O  O508  1  0.447180  0.605130  0.850310  1.0  -0.3918
  O  O509  1  0.389900  0.585300  0.788900  1.0  -0.4909
  O  O510  1  0.301640  0.640860  0.865860  1.0  -0.4142
  O  O511  1  0.552500  0.187100  0.623500  1.0  -0.5157
  O  O512  1  0.586800  0.094600  0.598600  1.0  -0.4578
  O  O513  1  0.666900  0.143800  0.546400  1.0  -0.4774
  O  O514  1  0.328160  0.087390  0.823890  1.0  -0.5174
  O  O515  1  0.443610  0.004170  0.813210  1.0  -0.4976
  O  O516  1  0.314360  0.013770  0.884710  1.0  -0.4522
  O  O517  1  0.402620  0.894870  0.649690  1.0  -0.3943
  O  O518  1  0.264100  0.914700  0.711100  1.0  -0.4908
  O  O519  1  0.308360  0.859140  0.634140  1.0  -0.4137
  O  O520  1  0.863100  0.312900  0.876500  1.0  -0.5178
  O  O521  1  0.780000  0.405400  0.901400  1.0  -0.4601
  O  O522  1  0.857100  0.356200  0.953600  1.0  -0.4722
  O  O523  1  0.415550  0.323890  0.912610  1.0  -0.5252
  O  O524  1  0.447780  0.313210  0.995830  1.0  -0.4987
  O  O525  1  0.328130  0.384710  0.986230  1.0  -0.4518
  O  O526  1  0.297490  0.149690  0.105130  1.0  -0.3942
  O  O527  1  0.178800  0.211100  0.085300  1.0  -0.49
  O  O528  1  0.167500  0.134140  0.140860  1.0  -0.4127
  O  O529  1  0.176000  0.376500  0.687100  1.0  -0.5204
  O  O530  1  0.185400  0.401400  0.594600  1.0  -0.4582
  O  O531  1  0.213300  0.453600  0.643800  1.0  -0.4714
  O  O532  1  0.152050  0.176110  0.587390  1.0  -0.5247
  O  O533  1  0.256820  0.186790  0.504170  1.0  -0.4976
  O  O534  1  0.199070  0.115290  0.513770  1.0  -0.4528
  O  O535  1  0.052310  0.350310  0.394870  1.0  -0.3923
  O  O536  1  0.975200  0.288900  0.414700  1.0  -0.4879
  O  O537  1  0.942500  0.365860  0.359140  1.0  -0.4146
  O  O538  1  0.739600  0.123500  0.812900  1.0  -0.5268
  O  O539  1  0.681400  0.098600  0.905400  1.0  -0.4593
  O  O540  1  0.810700  0.046400  0.856200  1.0  -0.4714
  O  O541  1  0.260560  0.587390  0.323890  1.0  -0.5166
  O  O542  1  0.239010  0.504170  0.313210  1.0  -0.4981
  O  O543  1  0.287160  0.513770  0.384710  1.0  -0.4506
  O  O544  1  0.552820  0.394870  0.149690  1.0  -0.391
  O  O545  1  0.610100  0.414700  0.211100  1.0  -0.493
  O  O546  1  0.698360  0.359140  0.134140  1.0  -0.416
  O  O547  1  0.447500  0.812900  0.376500  1.0  -0.5168
  O  O548  1  0.413200  0.905400  0.401400  1.0  -0.4593
  O  O549  1  0.333100  0.856200  0.453600  1.0  -0.4749
  O  O550  1  0.671840  0.912610  0.176110  1.0  -0.5172
  O  O551  1  0.556390  0.995830  0.186790  1.0  -0.4977
  O  O552  1  0.685640  0.986230  0.115290  1.0  -0.4533
  O  O553  1  0.597380  0.105130  0.350310  1.0  -0.3927
  O  O554  1  0.735900  0.085300  0.288900  1.0  -0.4884
  O  O555  1  0.691640  0.140860  0.365860  1.0  -0.4143
  O  O556  1  0.136900  0.687100  0.123500  1.0  -0.5173
  O  O557  1  0.220000  0.594600  0.098600  1.0  -0.459
  O  O558  1  0.142900  0.643800  0.046400  1.0  -0.4673
  O  O559  1  0.584450  0.676110  0.087390  1.0  -0.5211
  O  O560  1  0.552220  0.686790  0.004170  1.0  -0.4981
  O  O561  1  0.671870  0.615290  0.013770  1.0  -0.4542
  O  O562  1  0.702510  0.850310  0.894870  1.0  -0.3928
  O  O563  1  0.821200  0.788900  0.914700  1.0  -0.4903
  O  O564  1  0.832500  0.865860  0.859140  1.0  -0.4119
  O  O565  1  0.824000  0.623500  0.312900  1.0  -0.5252
  O  O566  1  0.814600  0.598600  0.405400  1.0  -0.4584
  O  O567  1  0.786700  0.546400  0.356200  1.0  -0.4723
  O  O568  1  0.847950  0.823890  0.412610  1.0  -0.5249
  O  O569  1  0.743180  0.813210  0.495830  1.0  -0.4977
  O  O570  1  0.800930  0.884710  0.486230  1.0  -0.4531
  O  O571  1  0.947690  0.649690  0.605130  1.0  -0.391
  O  O572  1  0.024800  0.711100  0.585300  1.0  -0.4856
  O  O573  1  0.057500  0.634140  0.640860  1.0  -0.419
  O  O574  1  0.260400  0.876500  0.187100  1.0  -0.5229
  O  O575  1  0.318600  0.901400  0.094600  1.0  -0.4603
  O  O576  1  0.189300  0.953600  0.143800  1.0  -0.4726
