# generated using pymatgen
data_Ga9P9O37F4
_symmetry_space_group_name_H-M   'P 1'
_cell_length_a   17.49410000
_cell_length_b   32.39300000
_cell_length_c   10.07490000
_cell_angle_alpha   90.00000000
_cell_angle_beta   90.00000000
_cell_angle_gamma   90.00000000
_symmetry_Int_Tables_number   1
_chemical_formula_structural   Ga9P9O37F4
_chemical_formula_sum   'Ga36 P36 O148 F16'
_cell_volume   5709.30862296
_cell_formula_units_Z   4
loop_
 _symmetry_equiv_pos_site_id
 _symmetry_equiv_pos_as_xyz
  1  'x, y, z'
loop_
 _atom_site_type_symbol
 _atom_site_label
 _atom_site_symmetry_multiplicity
 _atom_site_fract_x
 _atom_site_fract_y
 _atom_site_fract_z
 _atom_site_occupancy
 _atom_site_charge
  Ga  Ga1  1  0.425960  0.920550  0.060590  1.0  1.6137
  Ga  Ga2  1  0.486080  0.025600  0.035380  1.0  1.6472
  Ga  Ga3  1  0.159860  0.992500  0.875550  1.0  1.7154
  Ga  Ga4  1  0.343070  0.506100  0.594140  1.0  1.6958
  Ga  Ga5  1  0.080200  0.581250  0.417990  1.0  1.6794
  Ga  Ga6  1  0.016090  0.475610  0.441410  1.0  1.641
  Ga  Ga7  1  0.341140  0.667660  0.598850  1.0  1.6696
  Ga  Ga8  1  0.156260  0.821910  0.874230  1.0  1.6271
  Ga  Ga9  1  0.300310  0.758870  0.920930  1.0  1.6672
  Ga  Ga10  1  0.574040  0.079450  0.560590  1.0  1.6137
  Ga  Ga11  1  0.513920  0.974400  0.535380  1.0  1.647
  Ga  Ga12  1  0.840140  0.007500  0.375550  1.0  1.7166
  Ga  Ga13  1  0.656930  0.493900  0.094140  1.0  1.6976
  Ga  Ga14  1  0.919800  0.418750  0.917990  1.0  1.6783
  Ga  Ga15  1  0.983910  0.524390  0.941410  1.0  1.6409
  Ga  Ga16  1  0.658860  0.332340  0.098850  1.0  1.6694
  Ga  Ga17  1  0.843740  0.178090  0.374230  1.0  1.6264
  Ga  Ga18  1  0.699690  0.241130  0.420930  1.0  1.6663
  Ga  Ga19  1  0.925960  0.079450  0.060590  1.0  1.6146
  Ga  Ga20  1  0.986080  0.974400  0.035380  1.0  1.6497
  Ga  Ga21  1  0.659860  0.007500  0.875550  1.0  1.7149
  Ga  Ga22  1  0.843070  0.493900  0.594140  1.0  1.6961
  Ga  Ga23  1  0.580200  0.418750  0.417990  1.0  1.6781
  Ga  Ga24  1  0.516090  0.524390  0.441410  1.0  1.6394
  Ga  Ga25  1  0.841140  0.332340  0.598850  1.0  1.6697
  Ga  Ga26  1  0.656260  0.178090  0.874230  1.0  1.627
  Ga  Ga27  1  0.800310  0.241130  0.920930  1.0  1.6663
  Ga  Ga28  1  0.074040  0.920550  0.560590  1.0  1.6148
  Ga  Ga29  1  0.013920  0.025600  0.535380  1.0  1.6443
  Ga  Ga30  1  0.340140  0.992500  0.375550  1.0  1.7177
  Ga  Ga31  1  0.156930  0.506100  0.094140  1.0  1.6975
  Ga  Ga32  1  0.419800  0.581250  0.917990  1.0  1.6796
  Ga  Ga33  1  0.483910  0.475610  0.941410  1.0  1.6424
  Ga  Ga34  1  0.158860  0.667660  0.098850  1.0  1.6694
  Ga  Ga35  1  0.343740  0.821910  0.374230  1.0  1.6276
  Ga  Ga36  1  0.199690  0.758870  0.420930  1.0  1.6672
  P  P37  1  0.313100  0.996370  0.060500  1.0  1.8192
  P  P38  1  0.521400  0.953340  0.834400  1.0  1.8585
  P  P39  1  0.067900  0.907070  0.854400  1.0  1.7836
  P  P40  1  0.981400  0.548120  0.641300  1.0  1.8179
  P  P41  1  0.188600  0.503690  0.408900  1.0  1.7967
  P  P42  1  0.437000  0.590570  0.625800  1.0  1.7695
  P  P43  1  0.350250  0.758670  0.614600  1.0  1.761
  P  P44  1  0.318500  0.840550  0.047300  1.0  1.7779
  P  P45  1  0.309800  0.662740  0.911500  1.0  1.7214
  P  P46  1  0.686900  0.003630  0.560500  1.0  1.8227
  P  P47  1  0.478600  0.046660  0.334400  1.0  1.8566
  P  P48  1  0.932100  0.092930  0.354400  1.0  1.7852
  P  P49  1  0.018600  0.451880  0.141300  1.0  1.8178
  P  P50  1  0.811400  0.496310  0.908900  1.0  1.792
  P  P51  1  0.563000  0.409430  0.125800  1.0  1.7672
  P  P52  1  0.649750  0.241330  0.114600  1.0  1.7571
  P  P53  1  0.681500  0.159450  0.547300  1.0  1.7784
  P  P54  1  0.690200  0.337260  0.411500  1.0  1.7219
  P  P55  1  0.813100  0.003630  0.060500  1.0  1.819
  P  P56  1  0.021400  0.046660  0.834400  1.0  1.8574
  P  P57  1  0.567900  0.092930  0.854400  1.0  1.7843
  P  P58  1  0.481400  0.451880  0.641300  1.0  1.8181
  P  P59  1  0.688600  0.496310  0.408900  1.0  1.7968
  P  P60  1  0.937000  0.409430  0.625800  1.0  1.7693
  P  P61  1  0.850250  0.241330  0.614600  1.0  1.7609
  P  P62  1  0.818500  0.159450  0.047300  1.0  1.7781
  P  P63  1  0.809800  0.337260  0.911500  1.0  1.7233
  P  P64  1  0.186900  0.996370  0.560500  1.0  1.8229
  P  P65  1  0.978600  0.953340  0.334400  1.0  1.858
  P  P66  1  0.432100  0.907070  0.354400  1.0  1.7848
  P  P67  1  0.518600  0.548120  0.141300  1.0  1.8209
  P  P68  1  0.311400  0.503690  0.908900  1.0  1.7928
  P  P69  1  0.063000  0.590570  0.125800  1.0  1.7675
  P  P70  1  0.149750  0.758670  0.114600  1.0  1.7567
  P  P71  1  0.181500  0.840550  0.547300  1.0  1.7782
  P  P72  1  0.190200  0.662740  0.411500  1.0  1.7233
  O  O73  1  0.367100  0.561400  0.638200  1.0  -0.8115
  O  O74  1  0.134300  0.937700  0.834300  1.0  -0.8266
  O  O75  1  0.127700  0.472400  0.440600  1.0  -0.7396
  O  O76  1  0.360200  0.771200  0.759800  1.0  -0.7485
  O  O77  1  0.023000  0.508200  0.602500  1.0  -0.7843
  O  O78  1  0.208600  0.770200  0.826500  1.0  -0.6582
  O  O79  1  0.375700  0.029500  0.037200  1.0  -0.7532
  O  O80  1  0.480500  0.993000  0.875300  1.0  -0.7908
  O  O81  1  0.264800  0.751100  0.585000  1.0  -0.7757
  O  O82  1  0.244100  0.843500  0.968900  1.0  -0.8428
  O  O83  1  0.258700  0.492400  0.495300  1.0  -0.9481
  O  O84  1  0.341600  0.705600  0.941100  1.0  -0.737
  O  O85  1  0.246700  0.007000  0.970600  1.0  -0.8426
  O  O86  1  0.000700  0.925400  0.929100  1.0  -0.757
  O  O87  1  0.354800  0.797200  0.026200  1.0  -0.7258
  O  O88  1  0.506700  0.572700  0.556200  1.0  -0.7338
  O  O89  1  0.495600  0.916900  0.922700  1.0  -0.7891
  O  O90  1  0.012000  0.585700  0.559500  1.0  -0.7696
  O  O91  1  0.608200  0.958200  0.848000  1.0  -0.7568
  O  O92  1  0.339300  0.952000  0.024900  1.0  -0.8286
  O  O93  1  0.166300  0.548800  0.448800  1.0  -0.8184
  O  O94  1  0.895000  0.543900  0.616200  1.0  -0.7522
  O  O95  1  0.297800  0.655400  0.758900  1.0  -0.9441
  O  O96  1  0.500100  0.941400  0.692400  1.0  -0.7559
  O  O97  1  0.283900  0.997100  0.205600  1.0  -0.7275
  O  O98  1  0.212300  0.502400  0.261700  1.0  -0.7443
  O  O99  1  0.305300  0.846800  0.196100  1.0  -0.7935
  O  O100  1  0.457600  0.605800  0.766300  1.0  -0.7983
  O  O101  1  0.996200  0.558600  0.788500  1.0  -0.7545
  O  O102  1  0.411800  0.629300  0.542900  1.0  -0.7849
  O  O103  1  0.041100  0.892900  0.712100  1.0  -0.7848
  O  O104  1  0.096200  0.868200  0.925500  1.0  -0.7637
  O  O105  1  0.375200  0.872200  0.992100  1.0  -0.7777
  O  O106  1  0.363600  0.630900  0.972900  1.0  -0.7542
  O  O107  1  0.387200  0.791900  0.526300  1.0  -0.7491
  O  O108  1  0.228400  0.658400  0.967600  1.0  -0.9637
  O  O109  1  0.392300  0.716600  0.591000  1.0  -0.7806
  O  O110  1  0.632900  0.438600  0.138200  1.0  -0.8109
  O  O111  1  0.865700  0.062300  0.334300  1.0  -0.8279
  O  O112  1  0.872300  0.527600  0.940600  1.0  -0.7403
  O  O113  1  0.639800  0.228800  0.259800  1.0  -0.7489
  O  O114  1  0.977000  0.491800  0.102500  1.0  -0.7827
  O  O115  1  0.791400  0.229800  0.326500  1.0  -0.6591
  O  O116  1  0.624300  0.970500  0.537200  1.0  -0.7514
  O  O117  1  0.519500  0.007000  0.375300  1.0  -0.7922
  O  O118  1  0.735200  0.248900  0.085000  1.0  -0.7764
  O  O119  1  0.755900  0.156500  0.468900  1.0  -0.8413
  O  O120  1  0.741300  0.507600  0.995300  1.0  -0.9494
  O  O121  1  0.658400  0.294400  0.441100  1.0  -0.7364
  O  O122  1  0.753300  0.993000  0.470600  1.0  -0.84
  O  O123  1  0.999300  0.074600  0.429100  1.0  -0.7566
  O  O124  1  0.645200  0.202800  0.526200  1.0  -0.7256
  O  O125  1  0.493300  0.427300  0.056200  1.0  -0.7355
  O  O126  1  0.504400  0.083100  0.422700  1.0  -0.793
  O  O127  1  0.988000  0.414300  0.059500  1.0  -0.7653
  O  O128  1  0.391800  0.041800  0.348000  1.0  -0.7581
  O  O129  1  0.660700  0.048000  0.524900  1.0  -0.8291
  O  O130  1  0.833700  0.451200  0.948800  1.0  -0.8191
  O  O131  1  0.105000  0.456100  0.116200  1.0  -0.7515
  O  O132  1  0.702200  0.344600  0.258900  1.0  -0.9436
  O  O133  1  0.499900  0.058600  0.192400  1.0  -0.7563
  O  O134  1  0.716100  0.002900  0.705600  1.0  -0.7274
  O  O135  1  0.787700  0.497600  0.761700  1.0  -0.7433
  O  O136  1  0.694700  0.153200  0.696100  1.0  -0.794
  O  O137  1  0.542400  0.394200  0.266300  1.0  -0.7959
  O  O138  1  0.003800  0.441400  0.288500  1.0  -0.755
  O  O139  1  0.588200  0.370700  0.042900  1.0  -0.7855
  O  O140  1  0.958900  0.107100  0.212100  1.0  -0.7858
  O  O141  1  0.903800  0.131800  0.425500  1.0  -0.7619
  O  O142  1  0.624800  0.127800  0.492100  1.0  -0.779
  O  O143  1  0.636400  0.369100  0.472900  1.0  -0.755
  O  O144  1  0.612800  0.208100  0.026300  1.0  -0.7484
  O  O145  1  0.771600  0.341600  0.467600  1.0  -0.9639
  O  O146  1  0.607700  0.283400  0.091000  1.0  -0.7788
  O  O147  1  0.867100  0.438600  0.638200  1.0  -0.8116
  O  O148  1  0.634300  0.062300  0.834300  1.0  -0.827
  O  O149  1  0.627700  0.527600  0.440600  1.0  -0.7391
  O  O150  1  0.860200  0.228800  0.759800  1.0  -0.7416
  O  O151  1  0.523000  0.491800  0.602500  1.0  -0.7841
  O  O152  1  0.708600  0.229800  0.826500  1.0  -0.658
  O  O153  1  0.875700  0.970500  0.037200  1.0  -0.7532
  O  O154  1  0.980500  0.007000  0.875300  1.0  -0.7911
  O  O155  1  0.764800  0.248900  0.585000  1.0  -0.7756
  O  O156  1  0.744100  0.156500  0.968900  1.0  -0.8414
  O  O157  1  0.758700  0.507600  0.495300  1.0  -0.948
  O  O158  1  0.841600  0.294400  0.941100  1.0  -0.7373
  O  O159  1  0.746700  0.993000  0.970600  1.0  -0.8405
  O  O160  1  0.500700  0.074600  0.929100  1.0  -0.7573
  O  O161  1  0.854800  0.202800  0.026200  1.0  -0.7201
  O  O162  1  0.006700  0.427300  0.556200  1.0  -0.7342
  O  O163  1  0.995600  0.083100  0.922700  1.0  -0.7861
  O  O164  1  0.512000  0.414300  0.559500  1.0  -0.7698
  O  O165  1  0.108200  0.041800  0.848000  1.0  -0.759
  O  O166  1  0.839300  0.048000  0.024900  1.0  -0.829
  O  O167  1  0.666300  0.451200  0.448800  1.0  -0.8192
  O  O168  1  0.395000  0.456100  0.616200  1.0  -0.7498
  O  O169  1  0.797800  0.344600  0.758900  1.0  -0.9437
  O  O170  1  0.000100  0.058600  0.692400  1.0  -0.7556
  O  O171  1  0.783900  0.002900  0.205600  1.0  -0.7275
  O  O172  1  0.712300  0.497600  0.261700  1.0  -0.7432
  O  O173  1  0.805300  0.153200  0.196100  1.0  -0.7935
  O  O174  1  0.957600  0.394200  0.766300  1.0  -0.8005
  O  O175  1  0.496200  0.441400  0.788500  1.0  -0.7559
  O  O176  1  0.911800  0.370700  0.542900  1.0  -0.7857
  O  O177  1  0.541100  0.107100  0.712100  1.0  -0.7876
  O  O178  1  0.596200  0.131800  0.925500  1.0  -0.7629
  O  O179  1  0.875200  0.127800  0.992100  1.0  -0.7774
  O  O180  1  0.863600  0.369100  0.972900  1.0  -0.7556
  O  O181  1  0.887200  0.208100  0.526300  1.0  -0.7503
  O  O182  1  0.728400  0.341600  0.967600  1.0  -0.965
  O  O183  1  0.892300  0.283400  0.591000  1.0  -0.7781
  O  O184  1  0.132900  0.561400  0.138200  1.0  -0.8111
  O  O185  1  0.365700  0.937700  0.334300  1.0  -0.8277
  O  O186  1  0.372300  0.472400  0.940600  1.0  -0.7399
  O  O187  1  0.139800  0.771200  0.259800  1.0  -0.742
  O  O188  1  0.477000  0.508200  0.102500  1.0  -0.7828
  O  O189  1  0.291400  0.770200  0.326500  1.0  -0.6591
  O  O190  1  0.124300  0.029500  0.537200  1.0  -0.7507
  O  O191  1  0.019500  0.993000  0.375300  1.0  -0.7917
  O  O192  1  0.235200  0.751100  0.085000  1.0  -0.7767
  O  O193  1  0.255900  0.843500  0.468900  1.0  -0.8429
  O  O194  1  0.241300  0.492400  0.995300  1.0  -0.9489
  O  O195  1  0.158400  0.705600  0.441100  1.0  -0.7361
  O  O196  1  0.253300  0.007000  0.470600  1.0  -0.8418
  O  O197  1  0.499300  0.925400  0.429100  1.0  -0.7565
  O  O198  1  0.145200  0.797200  0.526200  1.0  -0.7195
  O  O199  1  0.993300  0.572700  0.056200  1.0  -0.7352
  O  O200  1  0.004400  0.916900  0.422700  1.0  -0.7874
  O  O201  1  0.488000  0.585700  0.059500  1.0  -0.7688
  O  O202  1  0.891800  0.958200  0.348000  1.0  -0.7559
  O  O203  1  0.160700  0.952000  0.524900  1.0  -0.8288
  O  O204  1  0.333700  0.548800  0.948800  1.0  -0.8195
  O  O205  1  0.605000  0.543900  0.116200  1.0  -0.7527
  O  O206  1  0.202200  0.655400  0.258900  1.0  -0.944
  O  O207  1  0.999900  0.941400  0.192400  1.0  -0.7562
  O  O208  1  0.216100  0.997100  0.705600  1.0  -0.7277
  O  O209  1  0.287700  0.502400  0.761700  1.0  -0.7433
  O  O210  1  0.194700  0.846800  0.696100  1.0  -0.7938
  O  O211  1  0.042400  0.605800  0.266300  1.0  -0.8002
  O  O212  1  0.503800  0.558600  0.288500  1.0  -0.7542
  O  O213  1  0.088200  0.629300  0.042900  1.0  -0.7856
  O  O214  1  0.458900  0.892900  0.212100  1.0  -0.7874
  O  O215  1  0.403800  0.868200  0.425500  1.0  -0.7626
  O  O216  1  0.124800  0.872200  0.492100  1.0  -0.7785
  O  O217  1  0.136400  0.630900  0.472900  1.0  -0.7571
  O  O218  1  0.112800  0.791900  0.026300  1.0  -0.7352
  O  O219  1  0.271600  0.658400  0.467600  1.0  -0.9634
  O  O220  1  0.107700  0.716600  0.091000  1.0  -0.7713
  F  F221  1  0.600300  0.015900  0.041600  1.0  -0.4859
  F  F222  1  0.025800  0.529500  0.349400  1.0  -0.5334
  F  F223  1  0.477600  0.971700  0.131300  1.0  -0.514
  F  F224  1  0.404000  0.515200  0.429000  1.0  -0.472
  F  F225  1  0.399700  0.984100  0.541600  1.0  -0.4864
  F  F226  1  0.974200  0.470500  0.849400  1.0  -0.5337
  F  F227  1  0.522400  0.028300  0.631300  1.0  -0.5138
  F  F228  1  0.596000  0.484800  0.929000  1.0  -0.4719
  F  F229  1  0.100300  0.984100  0.041600  1.0  -0.486
  F  F230  1  0.525800  0.470500  0.349400  1.0  -0.5339
  F  F231  1  0.977600  0.028300  0.131300  1.0  -0.5143
  F  F232  1  0.904000  0.484800  0.429000  1.0  -0.472
  F  F233  1  0.899700  0.015900  0.541600  1.0  -0.4863
  F  F234  1  0.474200  0.529500  0.849400  1.0  -0.5334
  F  F235  1  0.022400  0.971700  0.631300  1.0  -0.5134
  F  F236  1  0.096000  0.515200  0.929000  1.0  -0.4719
