# generated using pymatgen
data_La2H20C18O13
_symmetry_space_group_name_H-M   'P 1'
_cell_length_a   9.74900000
_cell_length_b   10.65800000
_cell_length_c   16.41400000
_cell_angle_alpha   74.83000000
_cell_angle_beta   82.72000000
_cell_angle_gamma   63.98000000
_symmetry_Int_Tables_number   1
_chemical_formula_structural   La2H20C18O13
_chemical_formula_sum   'La4 H40 C36 O26'
_cell_volume   1479.08065005
_cell_formula_units_Z   2
loop_
 _symmetry_equiv_pos_site_id
 _symmetry_equiv_pos_as_xyz
  1  'x, y, z'
loop_
 _atom_site_type_symbol
 _atom_site_label
 _atom_site_symmetry_multiplicity
 _atom_site_fract_x
 _atom_site_fract_y
 _atom_site_fract_z
 _atom_site_occupancy
 _atom_site_charge
  La  La1  1  0.876160  0.031080  0.125610  1.0  2.1338
  La  La2  1  0.629510  0.982360  0.375900  1.0  2.1662
  La  La3  1  0.123840  0.968920  0.874390  1.0  2.1338
  La  La4  1  0.370490  0.017640  0.624100  1.0  2.165
  H  H5  1  0.468600  0.243900  0.075300  1.0  0.1276
  H  H6  1  0.330500  0.204500  0.108200  1.0  0.1256
  H  H7  1  0.213900  0.405300  0.165300  1.0  0.0883
  H  H8  1  0.443100  0.472700  0.087300  1.0  0.0906
  H  H9  1  0.166400  0.642400  0.161200  1.0  0.1336
  H  H10  1  0.315900  0.664500  0.157800  1.0  0.1332
  H  H11  1  0.803600  0.570700  0.203200  1.0  0.1539
  H  H12  1  0.953200  0.528200  0.250000  1.0  0.1427
  H  H13  1  0.829500  0.499600  0.379000  1.0  0.1158
  H  H14  1  0.632900  0.487400  0.292200  1.0  0.1108
  H  H15  1  0.534000  0.436000  0.430300  1.0  0.1245
  H  H16  1  0.701200  0.362900  0.464300  1.0  0.1158
  H  H17  1  0.049300  0.763700  0.428000  1.0  0.1274
  H  H18  1  0.191900  0.793300  0.392200  1.0  0.1204
  H  H19  1  0.275500  0.600800  0.322800  1.0  0.0997
  H  H20  1  0.079400  0.529400  0.438200  1.0  0.1028
  H  H21  1  0.168200  0.354900  0.346800  1.0  0.1412
  H  H22  1  0.327700  0.356200  0.348200  1.0  0.1447
  H  H23  1  0.037000  0.207000  0.057000  1.0  0.4895
  H  H24  1  0.133000  0.068000  0.067000  1.0  0.4605
  H  H25  1  0.531400  0.756100  0.924700  1.0  0.1282
  H  H26  1  0.669500  0.795500  0.891800  1.0  0.1258
  H  H27  1  0.786100  0.594700  0.834700  1.0  0.089
  H  H28  1  0.556900  0.527300  0.912700  1.0  0.0915
  H  H29  1  0.833600  0.357600  0.838800  1.0  0.1357
  H  H30  1  0.684100  0.335500  0.842200  1.0  0.1349
  H  H31  1  0.196400  0.429300  0.796800  1.0  0.1574
  H  H32  1  0.046800  0.471800  0.750000  1.0  0.1414
  H  H33  1  0.170500  0.500400  0.621000  1.0  0.1178
  H  H34  1  0.367100  0.512600  0.707800  1.0  0.1099
  H  H35  1  0.466000  0.564000  0.569700  1.0  0.1247
  H  H36  1  0.298800  0.637100  0.535700  1.0  0.117
  H  H37  1  0.950700  0.236300  0.572000  1.0  0.1282
  H  H38  1  0.808100  0.206700  0.607800  1.0  0.1205
  H  H39  1  0.724500  0.399200  0.677200  1.0  0.1004
  H  H40  1  0.920600  0.470600  0.561800  1.0  0.1029
  H  H41  1  0.831800  0.645100  0.653200  1.0  0.1418
  H  H42  1  0.672300  0.643800  0.651800  1.0  0.1428
  H  H43  1  0.963000  0.793000  0.943000  1.0  0.4887
  H  H44  1  0.867000  0.932000  0.933000  1.0  0.462
  C  C45  1  0.485300  0.142700  0.201100  1.0  0.7983
  C  C46  1  0.398000  0.240700  0.122200  1.0  -0.3507
  C  C47  1  0.307200  0.387300  0.137200  1.0  -0.1808
  C  C48  1  0.348500  0.491500  0.114000  1.0  -0.1552
  C  C49  1  0.255700  0.640300  0.127000  1.0  -0.3681
  C  C50  1  0.205400  0.751100  0.045700  1.0  0.7891
  C  C51  1  0.803800  0.736100  0.242300  1.0  0.7267
  C  C52  1  0.843000  0.580200  0.251600  1.0  -0.3779
  C  C53  1  0.783900  0.510400  0.329700  1.0  -0.1113
  C  C54  1  0.687700  0.465400  0.340400  1.0  -0.1174
  C  C55  1  0.640100  0.380800  0.416800  1.0  -0.356
  C  C56  1  0.659100  0.239900  0.402700  1.0  0.7865
  C  C57  1  0.024200  0.876200  0.305800  1.0  0.772
  C  C58  1  0.116100  0.765900  0.379100  1.0  -0.3005
  C  C59  1  0.195400  0.617900  0.361900  1.0  -0.1702
  C  C60  1  0.158600  0.512300  0.398600  1.0  -0.1633
  C  C61  1  0.235400  0.364600  0.381100  1.0  -0.3483
  C  C62  1  0.276500  0.243000  0.458000  1.0  0.7897
  C  C63  1  0.514700  0.857300  0.798900  1.0  0.7957
  C  C64  1  0.602000  0.759300  0.877800  1.0  -0.3542
  C  C65  1  0.692800  0.612700  0.862800  1.0  -0.1786
  C  C66  1  0.651500  0.508500  0.886000  1.0  -0.1566
  C  C67  1  0.744300  0.359700  0.873000  1.0  -0.3673
  C  C68  1  0.794600  0.248900  0.954300  1.0  0.7906
  C  C69  1  0.196200  0.263900  0.757700  1.0  0.7267
  C  C70  1  0.157000  0.419800  0.748400  1.0  -0.3775
  C  C71  1  0.216100  0.489600  0.670300  1.0  -0.11
  C  C72  1  0.312300  0.534600  0.659600  1.0  -0.1151
  C  C73  1  0.359900  0.619200  0.583200  1.0  -0.3553
  C  C74  1  0.340900  0.760100  0.597300  1.0  0.7857
  C  C75  1  0.975800  0.123800  0.694200  1.0  0.7713
  C  C76  1  0.883900  0.234100  0.620900  1.0  -0.298
  C  C77  1  0.804600  0.382100  0.638100  1.0  -0.1725
  C  C78  1  0.841400  0.487700  0.601400  1.0  -0.1623
  C  C79  1  0.764600  0.635400  0.618900  1.0  -0.3494
  C  C80  1  0.723500  0.757000  0.542000  1.0  0.7921
  O  O81  1  0.414800  0.106900  0.265500  1.0  -0.6777
  O  O82  1  0.627300  0.101100  0.202800  1.0  -0.7751
  O  O83  1  0.094100  0.871600  0.046800  1.0  -0.7576
  O  O84  1  0.272900  0.727100  0.976900  1.0  -0.6431
  O  O85  1  0.711400  0.800000  0.291800  1.0  -0.6758
  O  O86  1  0.864400  0.792400  0.179100  1.0  -0.6885
  O  O87  1  0.708000  0.126400  0.460700  1.0  -0.6705
  O  O88  1  0.622600  0.237100  0.332800  1.0  -0.6567
  O  O89  1  0.885400  0.951400  0.314100  1.0  -0.6961
  O  O90  1  0.090100  0.890100  0.234500  1.0  -0.6521
  O  O91  1  0.201200  0.254100  0.524500  1.0  -0.6399
  O  O92  1  0.392900  0.125200  0.453800  1.0  -0.7955
  O  O93  1  0.081700  0.132400  0.092200  1.0  -0.7892
  O  O94  1  0.585200  0.893100  0.734500  1.0  -0.6794
  O  O95  1  0.372700  0.898900  0.797200  1.0  -0.7765
  O  O96  1  0.905900  0.128400  0.953200  1.0  -0.7568
  O  O97  1  0.727100  0.272900  0.023100  1.0  -0.6439
  O  O98  1  0.288600  0.200000  0.708200  1.0  -0.6758
  O  O99  1  0.135600  0.207600  0.820900  1.0  -0.6877
  O  O100  1  0.292000  0.873600  0.539300  1.0  -0.6716
  O  O101  1  0.377400  0.762900  0.667200  1.0  -0.6571
  O  O102  1  0.114600  0.048600  0.685900  1.0  -0.6981
  O  O103  1  0.909900  0.109900  0.765500  1.0  -0.6496
  O  O104  1  0.798800  0.745900  0.475500  1.0  -0.6419
  O  O105  1  0.607100  0.874800  0.546200  1.0  -0.7938
  O  O106  1  0.918300  0.867600  0.907800  1.0  -0.7858
