# generated using pymatgen
data_Co2H11C18N3O7
_symmetry_space_group_name_H-M   'P 1'
_cell_length_a   14.93200000
_cell_length_b   17.07200000
_cell_length_c   21.28200000
_cell_angle_alpha   90.00000000
_cell_angle_beta   90.00000000
_cell_angle_gamma   90.00000000
_symmetry_Int_Tables_number   1
_chemical_formula_structural   Co2H11C18N3O7
_chemical_formula_sum   'Co16 H88 C144 N24 O56'
_cell_volume   5425.18837133
_cell_formula_units_Z   8
loop_
 _symmetry_equiv_pos_site_id
 _symmetry_equiv_pos_as_xyz
  1  'x, y, z'
loop_
 _atom_site_type_symbol
 _atom_site_label
 _atom_site_symmetry_multiplicity
 _atom_site_fract_x
 _atom_site_fract_y
 _atom_site_fract_z
 _atom_site_occupancy
 _atom_site_charge
  Co  Co1  1  0.598890  0.468630  0.487660  1.0  1.0639
  Co  Co2  1  0.442660  0.389510  0.391500  1.0  1.0355
  Co  Co3  1  0.901110  0.531370  0.987660  1.0  1.0676
  Co  Co4  1  0.057340  0.610490  0.891500  1.0  1.0352
  Co  Co5  1  0.401110  0.968630  0.012340  1.0  1.0671
  Co  Co6  1  0.557340  0.889510  0.108500  1.0  1.0353
  Co  Co7  1  0.098890  0.031370  0.512340  1.0  1.0643
  Co  Co8  1  0.942660  0.110490  0.608500  1.0  1.0351
  Co  Co9  1  0.401110  0.531370  0.512340  1.0  1.0677
  Co  Co10  1  0.557340  0.610490  0.608500  1.0  1.0353
  Co  Co11  1  0.098890  0.468630  0.012340  1.0  1.0637
  Co  Co12  1  0.942660  0.389510  0.108500  1.0  1.0354
  Co  Co13  1  0.598890  0.031370  0.987660  1.0  1.0641
  Co  Co14  1  0.442660  0.110490  0.891500  1.0  1.035
  Co  Co15  1  0.901110  0.968630  0.487660  1.0  1.0671
  Co  Co16  1  0.057340  0.889510  0.391500  1.0  1.0355
  H  H17  1  0.449100  0.390900  0.506600  1.0  0.3816
  H  H18  1  0.739700  0.493400  0.220000  1.0  0.1213
  H  H19  1  0.759300  0.675600  0.101100  1.0  0.1065
  H  H20  1  0.590400  0.686700  0.248700  1.0  0.1259
  H  H21  1  0.615400  0.681900  0.425100  1.0  0.1134
  H  H22  1  0.712700  0.780700  0.455000  1.0  0.1054
  H  H23  1  0.914100  0.672600  0.364900  1.0  0.1023
  H  H24  1  0.817900  0.571800  0.337700  1.0  0.1097
  H  H25  1  0.526100  0.494900  0.201300  1.0  0.132
  H  H26  1  0.439700  0.480100  0.241400  1.0  0.149
  H  H27  1  0.509200  0.412400  0.231400  1.0  0.1509
  H  H28  1  0.050900  0.609100  0.006600  1.0  0.3793
  H  H29  1  0.760300  0.506600  0.720000  1.0  0.1208
  H  H30  1  0.740700  0.324400  0.601100  1.0  0.1059
  H  H31  1  0.909600  0.313300  0.748700  1.0  0.1258
  H  H32  1  0.884600  0.318100  0.925100  1.0  0.1123
  H  H33  1  0.787300  0.219300  0.955000  1.0  0.1051
  H  H34  1  0.585900  0.327400  0.864900  1.0  0.1031
  H  H35  1  0.682100  0.428200  0.837700  1.0  0.1103
  H  H36  1  0.973900  0.505100  0.701300  1.0  0.1324
  H  H37  1  0.060300  0.519900  0.741400  1.0  0.1461
  H  H38  1  0.990800  0.587600  0.731400  1.0  0.1523
  H  H39  1  0.550900  0.890900  0.993400  1.0  0.3804
  H  H40  1  0.260300  0.993400  0.280000  1.0  0.1207
  H  H41  1  0.240700  0.175600  0.398900  1.0  0.1062
  H  H42  1  0.409600  0.186700  0.251300  1.0  0.1266
  H  H43  1  0.384600  0.181900  0.074900  1.0  0.1126
  H  H44  1  0.287300  0.280700  0.045000  1.0  0.1056
  H  H45  1  0.085900  0.172600  0.135100  1.0  0.1025
  H  H46  1  0.182100  0.071800  0.162300  1.0  0.109
  H  H47  1  0.473900  0.994900  0.298700  1.0  0.1326
  H  H48  1  0.560300  0.980100  0.258600  1.0  0.1455
  H  H49  1  0.490800  0.912400  0.268600  1.0  0.1496
  H  H50  1  0.949100  0.109100  0.493400  1.0  0.3799
  H  H51  1  0.239700  0.006600  0.780000  1.0  0.1208
  H  H52  1  0.259300  0.824400  0.898900  1.0  0.1063
  H  H53  1  0.090400  0.813300  0.751300  1.0  0.1263
  H  H54  1  0.115400  0.818100  0.574900  1.0  0.1134
  H  H55  1  0.212700  0.719300  0.545000  1.0  0.1049
  H  H56  1  0.414100  0.827400  0.635100  1.0  0.102
  H  H57  1  0.317900  0.928200  0.662300  1.0  0.1093
  H  H58  1  0.026100  0.005100  0.798700  1.0  0.1333
  H  H59  1  0.939700  0.019900  0.758600  1.0  0.1483
  H  H60  1  0.009200  0.087600  0.768600  1.0  0.1507
  H  H61  1  0.550900  0.609100  0.493400  1.0  0.3793
  H  H62  1  0.260300  0.506600  0.780000  1.0  0.1209
  H  H63  1  0.240700  0.324400  0.898900  1.0  0.1062
  H  H64  1  0.409600  0.313300  0.751300  1.0  0.1263
  H  H65  1  0.384600  0.318100  0.574900  1.0  0.1122
  H  H66  1  0.287300  0.219300  0.545000  1.0  0.105
  H  H67  1  0.085900  0.327400  0.635100  1.0  0.1026
  H  H68  1  0.182100  0.428200  0.662300  1.0  0.1096
  H  H69  1  0.473900  0.505100  0.798700  1.0  0.1329
  H  H70  1  0.560300  0.519900  0.758600  1.0  0.1453
  H  H71  1  0.490800  0.587600  0.768600  1.0  0.1504
  H  H72  1  0.949100  0.390900  0.993400  1.0  0.3809
  H  H73  1  0.239700  0.493400  0.280000  1.0  0.121
  H  H74  1  0.259300  0.675600  0.398900  1.0  0.1063
  H  H75  1  0.090400  0.686700  0.251300  1.0  0.1268
  H  H76  1  0.115400  0.681900  0.074900  1.0  0.1135
  H  H77  1  0.212700  0.780700  0.045000  1.0  0.1057
  H  H78  1  0.414100  0.672600  0.135100  1.0  0.1022
  H  H79  1  0.317900  0.571800  0.162300  1.0  0.1087
  H  H80  1  0.026100  0.494900  0.298700  1.0  0.1329
  H  H81  1  0.939700  0.480100  0.258600  1.0  0.1484
  H  H82  1  0.009200  0.412400  0.268600  1.0  0.1503
  H  H83  1  0.449100  0.109100  0.006600  1.0  0.3798
  H  H84  1  0.739700  0.006600  0.720000  1.0  0.1208
  H  H85  1  0.759300  0.824400  0.601100  1.0  0.1063
  H  H86  1  0.590400  0.813300  0.748700  1.0  0.1259
  H  H87  1  0.615400  0.818100  0.925100  1.0  0.1134
  H  H88  1  0.712700  0.719300  0.955000  1.0  0.105
  H  H89  1  0.914100  0.827400  0.864900  1.0  0.1024
  H  H90  1  0.817900  0.928200  0.837700  1.0  0.1101
  H  H91  1  0.526100  0.005100  0.701300  1.0  0.1322
  H  H92  1  0.439700  0.019900  0.741400  1.0  0.1492
  H  H93  1  0.509200  0.087600  0.731400  1.0  0.1525
  H  H94  1  0.050900  0.890900  0.506600  1.0  0.3809
  H  H95  1  0.760300  0.993400  0.220000  1.0  0.1209
  H  H96  1  0.740700  0.175600  0.101100  1.0  0.1061
  H  H97  1  0.909600  0.186700  0.248700  1.0  0.1257
  H  H98  1  0.884600  0.181900  0.425100  1.0  0.1126
  H  H99  1  0.787300  0.280700  0.455000  1.0  0.1053
  H  H100  1  0.585900  0.172600  0.364900  1.0  0.1029
  H  H101  1  0.682100  0.071800  0.337700  1.0  0.1098
  H  H102  1  0.973900  0.994900  0.201300  1.0  0.132
  H  H103  1  0.060300  0.980100  0.241400  1.0  0.1462
  H  H104  1  0.990800  0.912400  0.231400  1.0  0.1502
  C  C105  1  0.641270  0.557320  0.356880  1.0  0.2651
  C  C106  1  0.550910  0.492850  0.294720  1.0  0.3702
  C  C107  1  0.658570  0.584500  0.241410  1.0  0.1569
  C  C108  1  0.722970  0.543620  0.207800  1.0  -0.0858
  C  C109  1  0.762360  0.578620  0.155450  1.0  -0.1537
  C  C110  1  0.734640  0.652790  0.136850  1.0  0.009
  C  C111  1  0.670230  0.693240  0.171330  1.0  -0.1371
  C  C112  1  0.632300  0.659490  0.224810  1.0  -0.1485
  C  C113  1  0.833060  0.534980  0.118890  1.0  0.7145
  C  C114  1  0.638290  0.772070  0.149800  1.0  0.6622
  C  C115  1  0.706600  0.617470  0.377950  1.0  -0.0307
  C  C116  1  0.675260  0.679880  0.413090  1.0  -0.1844
  C  C117  1  0.733480  0.739490  0.430430  1.0  -0.045
  C  C118  1  0.822600  0.738250  0.411490  1.0  -0.1365
  C  C119  1  0.854230  0.674630  0.376930  1.0  -0.0468
  C  C120  1  0.796580  0.614340  0.360450  1.0  -0.0864
  C  C121  1  0.883380  0.806980  0.425290  1.0  0.7222
  C  C122  1  0.502150  0.467820  0.237070  1.0  -0.4525
  C  C123  1  0.858730  0.442680  0.856880  1.0  0.2643
  C  C124  1  0.949090  0.507150  0.794720  1.0  0.3712
  C  C125  1  0.841430  0.415500  0.741410  1.0  0.157
  C  C126  1  0.777030  0.456380  0.707800  1.0  -0.0871
  C  C127  1  0.737640  0.421380  0.655450  1.0  -0.1538
  C  C128  1  0.765360  0.347210  0.636850  1.0  0.0089
  C  C129  1  0.829770  0.306760  0.671330  1.0  -0.1368
  C  C130  1  0.867700  0.340510  0.724810  1.0  -0.1479
  C  C131  1  0.666940  0.465020  0.618890  1.0  0.7153
  C  C132  1  0.861710  0.227930  0.649800  1.0  0.6632
  C  C133  1  0.793400  0.382530  0.877950  1.0  -0.031
  C  C134  1  0.824740  0.320120  0.913090  1.0  -0.1838
  C  C135  1  0.766520  0.260510  0.930430  1.0  -0.0448
  C  C136  1  0.677400  0.261750  0.911490  1.0  -0.1362
  C  C137  1  0.645770  0.325370  0.876930  1.0  -0.048
  C  C138  1  0.703420  0.385660  0.860450  1.0  -0.0863
  C  C139  1  0.616620  0.193020  0.925290  1.0  0.7215
  C  C140  1  0.997850  0.532180  0.737070  1.0  -0.4545
  C  C141  1  0.358730  0.057320  0.143120  1.0  0.2655
  C  C142  1  0.449090  0.992850  0.205280  1.0  0.3706
  C  C143  1  0.341430  0.084500  0.258590  1.0  0.1571
  C  C144  1  0.277030  0.043620  0.292200  1.0  -0.0853
  C  C145  1  0.237640  0.078620  0.344550  1.0  -0.1546
  C  C146  1  0.265360  0.152790  0.363150  1.0  0.0076
  C  C147  1  0.329770  0.193240  0.328670  1.0  -0.1368
  C  C148  1  0.367700  0.159490  0.275190  1.0  -0.1476
  C  C149  1  0.166940  0.034980  0.381110  1.0  0.714
  C  C150  1  0.361710  0.272070  0.350200  1.0  0.663
  C  C151  1  0.293400  0.117470  0.122050  1.0  -0.0318
  C  C152  1  0.324740  0.179880  0.086910  1.0  -0.1841
  C  C153  1  0.266520  0.239490  0.069570  1.0  -0.0436
  C  C154  1  0.177400  0.238250  0.088510  1.0  -0.1358
  C  C155  1  0.145770  0.174630  0.123070  1.0  -0.0474
  C  C156  1  0.203420  0.114340  0.139550  1.0  -0.0867
  C  C157  1  0.116620  0.306980  0.074710  1.0  0.7219
  C  C158  1  0.497850  0.967820  0.262930  1.0  -0.4547
  C  C159  1  0.141270  0.942680  0.643120  1.0  0.266
  C  C160  1  0.050910  0.007150  0.705280  1.0  0.3708
  C  C161  1  0.158570  0.915500  0.758590  1.0  0.1569
  C  C162  1  0.222970  0.956380  0.792200  1.0  -0.0853
  C  C163  1  0.262360  0.921380  0.844550  1.0  -0.1537
  C  C164  1  0.234640  0.847210  0.863150  1.0  0.0087
  C  C165  1  0.170230  0.806760  0.828670  1.0  -0.1367
  C  C166  1  0.132300  0.840510  0.775190  1.0  -0.148
  C  C167  1  0.333060  0.965020  0.881110  1.0  0.7143
  C  C168  1  0.138290  0.727930  0.850200  1.0  0.6635
  C  C169  1  0.206600  0.882530  0.622050  1.0  -0.0304
  C  C170  1  0.175260  0.820120  0.586910  1.0  -0.1839
  C  C171  1  0.233480  0.760510  0.569570  1.0  -0.0442
  C  C172  1  0.322600  0.761750  0.588510  1.0  -0.1367
  C  C173  1  0.354230  0.825370  0.623070  1.0  -0.0467
  C  C174  1  0.296580  0.885660  0.639550  1.0  -0.0874
  C  C175  1  0.383380  0.693020  0.574710  1.0  0.7218
  C  C176  1  0.002150  0.032180  0.762930  1.0  -0.4539
  C  C177  1  0.358730  0.442680  0.643120  1.0  0.2651
  C  C178  1  0.449090  0.507150  0.705280  1.0  0.3708
  C  C179  1  0.341430  0.415500  0.758590  1.0  0.1571
  C  C180  1  0.277030  0.456380  0.792200  1.0  -0.0854
  C  C181  1  0.237640  0.421380  0.844550  1.0  -0.1546
  C  C182  1  0.265360  0.347210  0.863150  1.0  0.0084
  C  C183  1  0.329770  0.306760  0.828670  1.0  -0.1369
  C  C184  1  0.367700  0.340510  0.775190  1.0  -0.1483
  C  C185  1  0.166940  0.465020  0.881110  1.0  0.7146
  C  C186  1  0.361710  0.227930  0.850200  1.0  0.6638
  C  C187  1  0.293400  0.382530  0.622050  1.0  -0.0311
  C  C188  1  0.324740  0.320120  0.586910  1.0  -0.1839
  C  C189  1  0.266520  0.260510  0.569570  1.0  -0.0444
  C  C190  1  0.177400  0.261750  0.588510  1.0  -0.1366
  C  C191  1  0.145770  0.325370  0.623070  1.0  -0.0476
  C  C192  1  0.203420  0.385660  0.639550  1.0  -0.0869
  C  C193  1  0.116620  0.193020  0.574710  1.0  0.7216
  C  C194  1  0.497850  0.532180  0.762930  1.0  -0.4547
  C  C195  1  0.141270  0.557320  0.143120  1.0  0.2664
  C  C196  1  0.050910  0.492850  0.205280  1.0  0.3706
  C  C197  1  0.158570  0.584500  0.258590  1.0  0.1569
  C  C198  1  0.222970  0.543620  0.292200  1.0  -0.0849
  C  C199  1  0.262360  0.578620  0.344550  1.0  -0.1537
  C  C200  1  0.234640  0.652790  0.363150  1.0  0.0078
  C  C201  1  0.170230  0.693240  0.328670  1.0  -0.1372
  C  C202  1  0.132300  0.659490  0.275190  1.0  -0.148
  C  C203  1  0.333060  0.534980  0.381110  1.0  0.7136
  C  C204  1  0.138290  0.772070  0.350200  1.0  0.6626
  C  C205  1  0.206600  0.617470  0.122050  1.0  -0.031
  C  C206  1  0.175260  0.679880  0.086910  1.0  -0.1841
  C  C207  1  0.233480  0.739490  0.069570  1.0  -0.0439
  C  C208  1  0.322600  0.738250  0.088510  1.0  -0.1363
  C  C209  1  0.354230  0.674630  0.123070  1.0  -0.0467
  C  C210  1  0.296580  0.614340  0.139550  1.0  -0.0872
  C  C211  1  0.383380  0.806980  0.074710  1.0  0.7222
  C  C212  1  0.002150  0.467820  0.262930  1.0  -0.4536
  C  C213  1  0.641270  0.942680  0.856880  1.0  0.265
  C  C214  1  0.550910  0.007150  0.794720  1.0  0.3708
  C  C215  1  0.658570  0.915500  0.741410  1.0  0.1568
  C  C216  1  0.722970  0.956380  0.707800  1.0  -0.087
  C  C217  1  0.762360  0.921380  0.655450  1.0  -0.1532
  C  C218  1  0.734640  0.847210  0.636850  1.0  0.0088
  C  C219  1  0.670230  0.806760  0.671330  1.0  -0.1367
  C  C220  1  0.632300  0.840510  0.724810  1.0  -0.1478
  C  C221  1  0.833060  0.965020  0.618890  1.0  0.715
  C  C222  1  0.638290  0.727930  0.649800  1.0  0.6629
  C  C223  1  0.706600  0.882530  0.877950  1.0  -0.0301
  C  C224  1  0.675260  0.820120  0.913090  1.0  -0.1841
  C  C225  1  0.733480  0.760510  0.930430  1.0  -0.0445
  C  C226  1  0.822600  0.761750  0.911490  1.0  -0.1365
  C  C227  1  0.854230  0.825370  0.876930  1.0  -0.0468
  C  C228  1  0.796580  0.885660  0.860450  1.0  -0.0865
  C  C229  1  0.883380  0.693020  0.925290  1.0  0.7217
  C  C230  1  0.502150  0.032180  0.737070  1.0  -0.4527
  C  C231  1  0.858730  0.057320  0.356880  1.0  0.2643
  C  C232  1  0.949090  0.992850  0.294720  1.0  0.3703
  C  C233  1  0.841430  0.084500  0.241410  1.0  0.157
  C  C234  1  0.777030  0.043620  0.207800  1.0  -0.086
  C  C235  1  0.737640  0.078620  0.155450  1.0  -0.1544
  C  C236  1  0.765360  0.152790  0.136850  1.0  0.0093
  C  C237  1  0.829770  0.193240  0.171330  1.0  -0.1367
  C  C238  1  0.867700  0.159490  0.224810  1.0  -0.1479
  C  C239  1  0.666940  0.034980  0.118890  1.0  0.7149
  C  C240  1  0.861710  0.272070  0.149800  1.0  0.6627
  C  C241  1  0.793400  0.117470  0.377950  1.0  -0.0317
  C  C242  1  0.824740  0.179880  0.413090  1.0  -0.1844
  C  C243  1  0.766520  0.239490  0.430430  1.0  -0.0447
  C  C244  1  0.677400  0.238250  0.411490  1.0  -0.1358
  C  C245  1  0.645770  0.174630  0.376930  1.0  -0.0478
  C  C246  1  0.703420  0.114340  0.360450  1.0  -0.0862
  C  C247  1  0.616620  0.306980  0.425290  1.0  0.7219
  C  C248  1  0.997850  0.967820  0.237070  1.0  -0.4547
  N  N249  1  0.618220  0.547290  0.295340  1.0  -0.0863
  N  N250  1  0.592800  0.510290  0.391690  1.0  -0.2292
  N  N251  1  0.535250  0.469720  0.352280  1.0  -0.2383
  N  N252  1  0.881780  0.452710  0.795340  1.0  -0.0865
  N  N253  1  0.907200  0.489710  0.891690  1.0  -0.2301
  N  N254  1  0.964750  0.530280  0.852280  1.0  -0.2382
  N  N255  1  0.381780  0.047290  0.204660  1.0  -0.0868
  N  N256  1  0.407200  0.010290  0.108310  1.0  -0.23
  N  N257  1  0.464750  0.969720  0.147720  1.0  -0.2372
  N  N258  1  0.118220  0.952710  0.704660  1.0  -0.0859
  N  N259  1  0.092800  0.989710  0.608310  1.0  -0.2288
  N  N260  1  0.035250  0.030280  0.647720  1.0  -0.2388
  N  N261  1  0.381780  0.452710  0.704660  1.0  -0.0864
  N  N262  1  0.407200  0.489710  0.608310  1.0  -0.2293
  N  N263  1  0.464750  0.530280  0.647720  1.0  -0.238
  N  N264  1  0.118220  0.547290  0.204660  1.0  -0.0862
  N  N265  1  0.092800  0.510290  0.108310  1.0  -0.2294
  N  N266  1  0.035250  0.469720  0.147720  1.0  -0.2384
  N  N267  1  0.618220  0.952710  0.795340  1.0  -0.0859
  N  N268  1  0.592800  0.989710  0.891690  1.0  -0.2294
  N  N269  1  0.535250  0.030280  0.852280  1.0  -0.239
  N  N270  1  0.881780  0.047290  0.295340  1.0  -0.0869
  N  N271  1  0.907200  0.010290  0.391690  1.0  -0.23
  N  N272  1  0.964750  0.969720  0.352280  1.0  -0.2371
  O  O273  1  0.882020  0.572940  0.081500  1.0  -0.5934
  O  O274  1  0.836710  0.462040  0.128600  1.0  -0.6006
  O  O275  1  0.599240  0.816880  0.188090  1.0  -0.5688
  O  O276  1  0.648680  0.790470  0.093080  1.0  -0.5491
  O  O277  1  0.852560  0.860440  0.459220  1.0  -0.6204
  O  O278  1  0.959360  0.805400  0.399860  1.0  -0.6105
  O  O279  1  0.462950  0.430700  0.480430  1.0  -0.9906
  O  O280  1  0.617980  0.427060  0.581500  1.0  -0.5929
  O  O281  1  0.663290  0.537960  0.628600  1.0  -0.5996
  O  O282  1  0.900760  0.183120  0.688090  1.0  -0.5697
  O  O283  1  0.851320  0.209530  0.593080  1.0  -0.5485
  O  O284  1  0.647440  0.139560  0.959220  1.0  -0.6201
  O  O285  1  0.540640  0.194600  0.899860  1.0  -0.6107
  O  O286  1  0.037050  0.569300  0.980430  1.0  -0.9881
  O  O287  1  0.117980  0.072940  0.418500  1.0  -0.5925
  O  O288  1  0.163290  0.962040  0.371400  1.0  -0.6011
  O  O289  1  0.400760  0.316880  0.311910  1.0  -0.5711
  O  O290  1  0.351320  0.290470  0.406920  1.0  -0.5495
  O  O291  1  0.147440  0.360440  0.040780  1.0  -0.6206
  O  O292  1  0.040640  0.305400  0.100140  1.0  -0.6108
  O  O293  1  0.537050  0.930700  0.019570  1.0  -0.9893
  O  O294  1  0.382020  0.927060  0.918500  1.0  -0.5952
  O  O295  1  0.336710  0.037960  0.871400  1.0  -0.6021
  O  O296  1  0.099240  0.683120  0.811910  1.0  -0.5699
  O  O297  1  0.148680  0.709530  0.906920  1.0  -0.5497
  O  O298  1  0.352560  0.639560  0.540780  1.0  -0.6207
  O  O299  1  0.459360  0.694600  0.600140  1.0  -0.6111
  O  O300  1  0.962950  0.069300  0.519570  1.0  -0.9889
  O  O301  1  0.117980  0.427060  0.918500  1.0  -0.594
  O  O302  1  0.163290  0.537960  0.871400  1.0  -0.6001
  O  O303  1  0.400760  0.183120  0.811910  1.0  -0.5704
  O  O304  1  0.351320  0.209530  0.906920  1.0  -0.5493
  O  O305  1  0.147440  0.139560  0.540780  1.0  -0.62
  O  O306  1  0.040640  0.194600  0.600140  1.0  -0.6108
  O  O307  1  0.537050  0.569300  0.519570  1.0  -0.9881
  O  O308  1  0.382020  0.572940  0.418500  1.0  -0.5941
  O  O309  1  0.336710  0.462040  0.371400  1.0  -0.601
  O  O310  1  0.099240  0.816880  0.311910  1.0  -0.5702
  O  O311  1  0.148680  0.790470  0.406920  1.0  -0.5497
  O  O312  1  0.352560  0.860440  0.040780  1.0  -0.6211
  O  O313  1  0.459360  0.805400  0.100140  1.0  -0.6106
  O  O314  1  0.962950  0.430700  0.019570  1.0  -0.9904
  O  O315  1  0.882020  0.927060  0.581500  1.0  -0.5939
  O  O316  1  0.836710  0.037960  0.628600  1.0  -0.6016
  O  O317  1  0.599240  0.683120  0.688090  1.0  -0.5687
  O  O318  1  0.648680  0.709530  0.593080  1.0  -0.5489
  O  O319  1  0.852560  0.639560  0.959220  1.0  -0.6205
  O  O320  1  0.959360  0.694600  0.899860  1.0  -0.6109
  O  O321  1  0.462950  0.069300  0.980430  1.0  -0.9896
  O  O322  1  0.617980  0.072940  0.081500  1.0  -0.592
  O  O323  1  0.663290  0.962040  0.128600  1.0  -0.601
  O  O324  1  0.900760  0.316880  0.188090  1.0  -0.5702
  O  O325  1  0.851320  0.290470  0.093080  1.0  -0.5488
  O  O326  1  0.647440  0.360440  0.459220  1.0  -0.6201
  O  O327  1  0.540640  0.305400  0.399860  1.0  -0.6106
  O  O328  1  0.037050  0.930700  0.480430  1.0  -0.989
