# generated using pymatgen
data_Zn2H11C18N3O7
_symmetry_space_group_name_H-M   'P 1'
_cell_length_a   18.91000000
_cell_length_b   11.79500000
_cell_length_c   21.01000000
_cell_angle_alpha   90.00000000
_cell_angle_beta   115.20000000
_cell_angle_gamma   90.00000000
_symmetry_Int_Tables_number   1
_chemical_formula_structural   Zn2H11C18N3O7
_chemical_formula_sum   'Zn16 H88 C144 N24 O56'
_cell_volume   4240.14885362
_cell_formula_units_Z   8
loop_
 _symmetry_equiv_pos_site_id
 _symmetry_equiv_pos_as_xyz
  1  'x, y, z'
loop_
 _atom_site_type_symbol
 _atom_site_label
 _atom_site_symmetry_multiplicity
 _atom_site_fract_x
 _atom_site_fract_y
 _atom_site_fract_z
 _atom_site_occupancy
 _atom_site_charge
  Zn  Zn1  1  0.470900  0.649400  0.377900  1.0  0.9818
  Zn  Zn2  1  0.970900  0.149400  0.377900  1.0  0.9818
  Zn  Zn3  1  0.529100  0.649400  0.122100  1.0  0.9832
  Zn  Zn4  1  0.029100  0.149400  0.122100  1.0  0.9832
  Zn  Zn5  1  0.529100  0.350600  0.622100  1.0  0.9837
  Zn  Zn6  1  0.029100  0.850600  0.622100  1.0  0.9837
  Zn  Zn7  1  0.470900  0.350600  0.877900  1.0  0.9821
  Zn  Zn8  1  0.970900  0.850600  0.877900  1.0  0.9821
  Zn  Zn9  1  0.500000  0.552700  0.250000  1.0  1.0634
  Zn  Zn10  1  0.500000  0.813500  0.250000  1.0  1.0105
  Zn  Zn11  1  0.000000  0.052700  0.250000  1.0  1.0637
  Zn  Zn12  1  0.000000  0.313500  0.250000  1.0  1.0105
  Zn  Zn13  1  0.500000  0.447300  0.750000  1.0  1.0618
  Zn  Zn14  1  0.500000  0.186500  0.750000  1.0  1.014
  Zn  Zn15  1  0.000000  0.947300  0.750000  1.0  1.0621
  Zn  Zn16  1  0.000000  0.686500  0.750000  1.0  1.014
  H  H17  1  0.394200  0.699000  0.254000  1.0  0.3814
  H  H18  1  0.729800  0.467900  0.386600  1.0  0.1444
  H  H19  1  0.711100  0.646800  0.542000  1.0  0.1115
  H  H20  1  0.910500  0.481100  0.577300  1.0  0.1321
  H  H21  1  0.933100  0.538500  0.309800  1.0  0.1089
  H  H22  1  0.948800  0.723100  0.281300  1.0  0.1162
  H  H23  1  0.913500  0.833800  0.445900  1.0  0.1106
  H  H24  1  0.900700  0.649600  0.475900  1.0  0.1114
  H  H25  1  0.800400  0.209000  0.463400  1.0  0.147
  H  H26  1  0.875900  0.222800  0.533800  1.0  0.1491
  H  H27  1  0.873600  0.132800  0.478100  1.0  0.1456
  H  H28  1  0.894200  0.199000  0.254000  1.0  0.3814
  H  H29  1  0.229800  0.967900  0.386600  1.0  0.1444
  H  H30  1  0.211100  0.146800  0.542000  1.0  0.1115
  H  H31  1  0.410500  0.981100  0.577300  1.0  0.1321
  H  H32  1  0.433100  0.038500  0.309800  1.0  0.1089
  H  H33  1  0.448800  0.223100  0.281300  1.0  0.1162
  H  H34  1  0.413500  0.333800  0.445900  1.0  0.1106
  H  H35  1  0.400700  0.149600  0.475900  1.0  0.1114
  H  H36  1  0.300400  0.709000  0.463400  1.0  0.147
  H  H37  1  0.375900  0.722800  0.533800  1.0  0.1491
  H  H38  1  0.373600  0.632800  0.478100  1.0  0.1456
  H  H39  1  0.605800  0.699000  0.246000  1.0  0.3819
  H  H40  1  0.270200  0.467900  0.113400  1.0  0.1443
  H  H41  1  0.288900  0.646800  0.958000  1.0  0.1112
  H  H42  1  0.089500  0.481100  0.922700  1.0  0.131
  H  H43  1  0.066900  0.538500  0.190200  1.0  0.1091
  H  H44  1  0.051200  0.723100  0.218700  1.0  0.1163
  H  H45  1  0.086500  0.833800  0.054100  1.0  0.1107
  H  H46  1  0.099300  0.649600  0.024100  1.0  0.111
  H  H47  1  0.199600  0.209000  0.036600  1.0  0.1468
  H  H48  1  0.124100  0.222800  0.966200  1.0  0.1487
  H  H49  1  0.126400  0.132800  0.021900  1.0  0.147
  H  H50  1  0.105800  0.199000  0.246000  1.0  0.3819
  H  H51  1  0.770200  0.967900  0.113400  1.0  0.1443
  H  H52  1  0.788900  0.146800  0.958000  1.0  0.1112
  H  H53  1  0.589500  0.981100  0.922700  1.0  0.131
  H  H54  1  0.566900  0.038500  0.190200  1.0  0.1091
  H  H55  1  0.551200  0.223100  0.218700  1.0  0.1163
  H  H56  1  0.586500  0.333800  0.054100  1.0  0.1107
  H  H57  1  0.599300  0.149600  0.024100  1.0  0.111
  H  H58  1  0.699600  0.709000  0.036600  1.0  0.1468
  H  H59  1  0.624100  0.722800  0.966200  1.0  0.1487
  H  H60  1  0.626400  0.632800  0.021900  1.0  0.147
  H  H61  1  0.605800  0.301000  0.746000  1.0  0.3818
  H  H62  1  0.270200  0.532100  0.613400  1.0  0.1443
  H  H63  1  0.288900  0.353200  0.458000  1.0  0.1113
  H  H64  1  0.089500  0.518900  0.422700  1.0  0.1311
  H  H65  1  0.066900  0.461500  0.690200  1.0  0.1086
  H  H66  1  0.051200  0.276900  0.718700  1.0  0.1164
  H  H67  1  0.086500  0.166200  0.554100  1.0  0.1108
  H  H68  1  0.099300  0.350400  0.524100  1.0  0.1106
  H  H69  1  0.199600  0.791000  0.536600  1.0  0.1468
  H  H70  1  0.124100  0.777200  0.466200  1.0  0.1493
  H  H71  1  0.126400  0.867200  0.521900  1.0  0.1489
  H  H72  1  0.105800  0.801000  0.746000  1.0  0.3818
  H  H73  1  0.770200  0.032100  0.613400  1.0  0.1443
  H  H74  1  0.788900  0.853200  0.458000  1.0  0.1113
  H  H75  1  0.589500  0.018900  0.422700  1.0  0.1311
  H  H76  1  0.566900  0.961500  0.690200  1.0  0.1086
  H  H77  1  0.551200  0.776900  0.718700  1.0  0.1164
  H  H78  1  0.586500  0.666200  0.554100  1.0  0.1108
  H  H79  1  0.599300  0.850400  0.524100  1.0  0.1106
  H  H80  1  0.699600  0.291000  0.536600  1.0  0.1468
  H  H81  1  0.624100  0.277200  0.466200  1.0  0.1493
  H  H82  1  0.626400  0.367200  0.521900  1.0  0.1489
  H  H83  1  0.394200  0.301000  0.754000  1.0  0.3817
  H  H84  1  0.729800  0.532100  0.886600  1.0  0.1442
  H  H85  1  0.711100  0.353200  0.042000  1.0  0.1118
  H  H86  1  0.910500  0.518900  0.077300  1.0  0.1317
  H  H87  1  0.933100  0.461500  0.809800  1.0  0.1093
  H  H88  1  0.948800  0.276900  0.781300  1.0  0.1164
  H  H89  1  0.913500  0.166200  0.945900  1.0  0.1111
  H  H90  1  0.900700  0.350400  0.975900  1.0  0.1115
  H  H91  1  0.800400  0.791000  0.963400  1.0  0.1476
  H  H92  1  0.875900  0.777200  0.033800  1.0  0.1491
  H  H93  1  0.873600  0.867200  0.978100  1.0  0.149
  H  H94  1  0.894200  0.801000  0.754000  1.0  0.3817
  H  H95  1  0.229800  0.032100  0.886600  1.0  0.1442
  H  H96  1  0.211100  0.853200  0.042000  1.0  0.1118
  H  H97  1  0.410500  0.018900  0.077300  1.0  0.1317
  H  H98  1  0.433100  0.961500  0.809800  1.0  0.1093
  H  H99  1  0.448800  0.776900  0.781300  1.0  0.1164
  H  H100  1  0.413500  0.666200  0.945900  1.0  0.1111
  H  H101  1  0.400700  0.850400  0.975900  1.0  0.1115
  H  H102  1  0.300400  0.291000  0.963400  1.0  0.1476
  H  H103  1  0.375900  0.277200  0.033800  1.0  0.1491
  H  H104  1  0.373600  0.367200  0.978100  1.0  0.149
  C  C105  1  0.911800  0.454700  0.413000  1.0  0.2553
  C  C106  1  0.886600  0.293000  0.450600  1.0  0.3785
  C  C107  1  0.826400  0.466900  0.478300  1.0  0.1633
  C  C108  1  0.751100  0.493800  0.432800  1.0  -0.0852
  C  C109  1  0.707100  0.560700  0.457200  1.0  -0.1377
  C  C110  1  0.740100  0.600500  0.526100  1.0  0.0064
  C  C111  1  0.816400  0.571200  0.571400  1.0  -0.1233
  C  C112  1  0.859800  0.502600  0.547300  1.0  -0.1625
  C  C113  1  0.624000  0.589000  0.407500  1.0  0.6814
  C  C114  1  0.855000  0.622500  0.644300  1.0  0.684
  C  C115  1  0.915800  0.575200  0.396100  1.0  -0.038
  C  C116  1  0.929600  0.597900  0.337400  1.0  -0.1043
  C  C117  1  0.938000  0.708600  0.319800  1.0  -0.024
  C  C118  1  0.930700  0.797700  0.359400  1.0  -0.1433
  C  C119  1  0.917300  0.774400  0.418500  1.0  -0.0271
  C  C120  1  0.909800  0.664200  0.436500  1.0  -0.0779
  C  C121  1  0.940800  0.917600  0.341100  1.0  0.6946
  C  C122  1  0.856400  0.206800  0.484500  1.0  -0.4363
  C  C123  1  0.411800  0.954700  0.413000  1.0  0.2553
  C  C124  1  0.386600  0.793000  0.450600  1.0  0.3785
  C  C125  1  0.326400  0.966900  0.478300  1.0  0.1633
  C  C126  1  0.251100  0.993800  0.432800  1.0  -0.0852
  C  C127  1  0.207100  0.060700  0.457200  1.0  -0.1377
  C  C128  1  0.240100  0.100500  0.526100  1.0  0.0064
  C  C129  1  0.316400  0.071200  0.571400  1.0  -0.1233
  C  C130  1  0.359800  0.002600  0.547300  1.0  -0.1625
  C  C131  1  0.124000  0.089000  0.407500  1.0  0.6814
  C  C132  1  0.355000  0.122500  0.644300  1.0  0.684
  C  C133  1  0.415800  0.075200  0.396100  1.0  -0.038
  C  C134  1  0.429600  0.097900  0.337400  1.0  -0.1043
  C  C135  1  0.438000  0.208600  0.319800  1.0  -0.024
  C  C136  1  0.430700  0.297700  0.359400  1.0  -0.1433
  C  C137  1  0.417300  0.274400  0.418500  1.0  -0.0271
  C  C138  1  0.409800  0.164200  0.436500  1.0  -0.0779
  C  C139  1  0.440800  0.417600  0.341100  1.0  0.6946
  C  C140  1  0.356400  0.706800  0.484500  1.0  -0.4363
  C  C141  1  0.088200  0.454700  0.087000  1.0  0.2562
  C  C142  1  0.113400  0.293000  0.049400  1.0  0.3786
  C  C143  1  0.173600  0.466900  0.021700  1.0  0.1632
  C  C144  1  0.248900  0.493800  0.067200  1.0  -0.087
  C  C145  1  0.292900  0.560700  0.042800  1.0  -0.1372
  C  C146  1  0.259900  0.600500  0.973900  1.0  0.0056
  C  C147  1  0.183600  0.571200  0.928600  1.0  -0.1224
  C  C148  1  0.140200  0.502600  0.952700  1.0  -0.1614
  C  C149  1  0.376000  0.589000  0.092500  1.0  0.6818
  C  C150  1  0.145000  0.622500  0.855700  1.0  0.6829
  C  C151  1  0.084200  0.575200  0.103900  1.0  -0.0372
  C  C152  1  0.070400  0.597900  0.162600  1.0  -0.1051
  C  C153  1  0.062000  0.708600  0.180200  1.0  -0.0237
  C  C154  1  0.069300  0.797700  0.140600  1.0  -0.1456
  C  C155  1  0.082700  0.774400  0.081500  1.0  -0.0277
  C  C156  1  0.090200  0.664200  0.063500  1.0  -0.0768
  C  C157  1  0.059200  0.917600  0.158900  1.0  0.6956
  C  C158  1  0.143600  0.206800  0.015500  1.0  -0.4368
  C  C159  1  0.588200  0.954700  0.087000  1.0  0.2562
  C  C160  1  0.613400  0.793000  0.049400  1.0  0.3786
  C  C161  1  0.673600  0.966900  0.021700  1.0  0.1632
  C  C162  1  0.748900  0.993800  0.067200  1.0  -0.087
  C  C163  1  0.792900  0.060700  0.042800  1.0  -0.1372
  C  C164  1  0.759900  0.100500  0.973900  1.0  0.0056
  C  C165  1  0.683600  0.071200  0.928600  1.0  -0.1224
  C  C166  1  0.640200  0.002600  0.952700  1.0  -0.1614
  C  C167  1  0.876000  0.089000  0.092500  1.0  0.6818
  C  C168  1  0.645000  0.122500  0.855700  1.0  0.6829
  C  C169  1  0.584200  0.075200  0.103900  1.0  -0.0372
  C  C170  1  0.570400  0.097900  0.162600  1.0  -0.1051
  C  C171  1  0.562000  0.208600  0.180200  1.0  -0.0237
  C  C172  1  0.569300  0.297700  0.140600  1.0  -0.1456
  C  C173  1  0.582700  0.274400  0.081500  1.0  -0.0277
  C  C174  1  0.590200  0.164200  0.063500  1.0  -0.0768
  C  C175  1  0.559200  0.417600  0.158900  1.0  0.6956
  C  C176  1  0.643600  0.706800  0.015500  1.0  -0.4368
  C  C177  1  0.088200  0.545300  0.587000  1.0  0.2568
  C  C178  1  0.113400  0.707000  0.549400  1.0  0.378
  C  C179  1  0.173600  0.533100  0.521700  1.0  0.1626
  C  C180  1  0.248900  0.506200  0.567200  1.0  -0.0871
  C  C181  1  0.292900  0.439300  0.542800  1.0  -0.1374
  C  C182  1  0.259900  0.399500  0.473900  1.0  0.0053
  C  C183  1  0.183600  0.428800  0.428600  1.0  -0.1227
  C  C184  1  0.140200  0.497400  0.452700  1.0  -0.1631
  C  C185  1  0.376000  0.411000  0.592500  1.0  0.6814
  C  C186  1  0.145000  0.377500  0.355700  1.0  0.6832
  C  C187  1  0.084200  0.424800  0.603900  1.0  -0.0375
  C  C188  1  0.070400  0.402100  0.662600  1.0  -0.1044
  C  C189  1  0.062000  0.291400  0.680200  1.0  -0.0241
  C  C190  1  0.069300  0.202300  0.640600  1.0  -0.145
  C  C191  1  0.082700  0.225600  0.581500  1.0  -0.0275
  C  C192  1  0.090200  0.335800  0.563500  1.0  -0.0768
  C  C193  1  0.059200  0.082400  0.658900  1.0  0.6956
  C  C194  1  0.143600  0.793200  0.515500  1.0  -0.4358
  C  C195  1  0.588200  0.045300  0.587000  1.0  0.2568
  C  C196  1  0.613400  0.207000  0.549400  1.0  0.378
  C  C197  1  0.673600  0.033100  0.521700  1.0  0.1626
  C  C198  1  0.748900  0.006200  0.567200  1.0  -0.0871
  C  C199  1  0.792900  0.939300  0.542800  1.0  -0.1374
  C  C200  1  0.759900  0.899500  0.473900  1.0  0.0053
  C  C201  1  0.683600  0.928800  0.428600  1.0  -0.1227
  C  C202  1  0.640200  0.997400  0.452700  1.0  -0.1631
  C  C203  1  0.876000  0.911000  0.592500  1.0  0.6814
  C  C204  1  0.645000  0.877500  0.355700  1.0  0.6832
  C  C205  1  0.584200  0.924800  0.603900  1.0  -0.0375
  C  C206  1  0.570400  0.902100  0.662600  1.0  -0.1044
  C  C207  1  0.562000  0.791400  0.680200  1.0  -0.0241
  C  C208  1  0.569300  0.702300  0.640600  1.0  -0.145
  C  C209  1  0.582700  0.725600  0.581500  1.0  -0.0275
  C  C210  1  0.590200  0.835800  0.563500  1.0  -0.0768
  C  C211  1  0.559200  0.582400  0.658900  1.0  0.6956
  C  C212  1  0.643600  0.293200  0.515500  1.0  -0.4358
  C  C213  1  0.911800  0.545300  0.913000  1.0  0.2559
  C  C214  1  0.886600  0.707000  0.950600  1.0  0.379
  C  C215  1  0.826400  0.533100  0.978300  1.0  0.1627
  C  C216  1  0.751100  0.506200  0.932800  1.0  -0.0852
  C  C217  1  0.707100  0.439300  0.957200  1.0  -0.1375
  C  C218  1  0.740100  0.399500  0.026100  1.0  0.0059
  C  C219  1  0.816400  0.428800  0.071400  1.0  -0.1229
  C  C220  1  0.859800  0.497400  0.047300  1.0  -0.1632
  C  C221  1  0.624000  0.411000  0.907500  1.0  0.6811
  C  C222  1  0.855000  0.377500  0.144300  1.0  0.6832
  C  C223  1  0.915800  0.424800  0.896100  1.0  -0.0373
  C  C224  1  0.929600  0.402100  0.837400  1.0  -0.1035
  C  C225  1  0.938000  0.291400  0.819800  1.0  -0.0229
  C  C226  1  0.930700  0.202300  0.859400  1.0  -0.1444
  C  C227  1  0.917300  0.225600  0.918500  1.0  -0.0267
  C  C228  1  0.909800  0.335800  0.936500  1.0  -0.0779
  C  C229  1  0.940800  0.082400  0.841100  1.0  0.6934
  C  C230  1  0.856400  0.793200  0.984500  1.0  -0.4352
  C  C231  1  0.411800  0.045300  0.913000  1.0  0.2559
  C  C232  1  0.386600  0.207000  0.950600  1.0  0.379
  C  C233  1  0.326400  0.033100  0.978300  1.0  0.1627
  C  C234  1  0.251100  0.006200  0.932800  1.0  -0.0852
  C  C235  1  0.207100  0.939300  0.957200  1.0  -0.1375
  C  C236  1  0.240100  0.899500  0.026100  1.0  0.0059
  C  C237  1  0.316400  0.928800  0.071400  1.0  -0.1229
  C  C238  1  0.359800  0.997400  0.047300  1.0  -0.1632
  C  C239  1  0.124000  0.911000  0.907500  1.0  0.6811
  C  C240  1  0.355000  0.877500  0.144300  1.0  0.6832
  C  C241  1  0.415800  0.924800  0.896100  1.0  -0.0373
  C  C242  1  0.429600  0.902100  0.837400  1.0  -0.1035
  C  C243  1  0.438000  0.791400  0.819800  1.0  -0.0229
  C  C244  1  0.430700  0.702300  0.859400  1.0  -0.1444
  C  C245  1  0.417300  0.725600  0.918500  1.0  -0.0267
  C  C246  1  0.409800  0.835800  0.936500  1.0  -0.0779
  C  C247  1  0.440800  0.582400  0.841100  1.0  0.6934
  C  C248  1  0.356400  0.293200  0.984500  1.0  -0.4352
  N  N249  1  0.874700  0.406900  0.450800  1.0  -0.1096
  N  N250  1  0.944900  0.374700  0.391800  1.0  -0.2823
  N  N251  1  0.928800  0.273000  0.415600  1.0  -0.3298
  N  N252  1  0.374700  0.906900  0.450800  1.0  -0.1096
  N  N253  1  0.444900  0.874700  0.391800  1.0  -0.2823
  N  N254  1  0.428800  0.773000  0.415600  1.0  -0.3298
  N  N255  1  0.125300  0.406900  0.049200  1.0  -0.1099
  N  N256  1  0.055100  0.374700  0.108200  1.0  -0.2814
  N  N257  1  0.071200  0.273000  0.084400  1.0  -0.331
  N  N258  1  0.625300  0.906900  0.049200  1.0  -0.1099
  N  N259  1  0.555100  0.874700  0.108200  1.0  -0.2814
  N  N260  1  0.571200  0.773000  0.084400  1.0  -0.331
  N  N261  1  0.125300  0.593100  0.549200  1.0  -0.1098
  N  N262  1  0.055100  0.625300  0.608200  1.0  -0.282
  N  N263  1  0.071200  0.727000  0.584400  1.0  -0.331
  N  N264  1  0.625300  0.093100  0.549200  1.0  -0.1098
  N  N265  1  0.555100  0.125300  0.608200  1.0  -0.282
  N  N266  1  0.571200  0.227000  0.584400  1.0  -0.331
  N  N267  1  0.874700  0.593100  0.950800  1.0  -0.1097
  N  N268  1  0.944900  0.625300  0.891800  1.0  -0.283
  N  N269  1  0.928800  0.727000  0.915600  1.0  -0.3303
  N  N270  1  0.374700  0.093100  0.950800  1.0  -0.1097
  N  N271  1  0.444900  0.125300  0.891800  1.0  -0.283
  N  N272  1  0.428800  0.227000  0.915600  1.0  -0.3303
  O  O273  1  0.598600  0.548600  0.347500  1.0  -0.5897
  O  O274  1  0.585900  0.651000  0.431400  1.0  -0.5837
  O  O275  1  0.925100  0.592000  0.680100  1.0  -0.583
  O  O276  1  0.818800  0.691200  0.663300  1.0  -0.537
  O  O277  1  0.947100  0.932900  0.285200  1.0  -0.591
  O  O278  1  0.942900  0.993200  0.384900  1.0  -0.5918
  O  O279  1  0.449300  0.690900  0.281500  1.0  -0.987
  O  O280  1  0.098600  0.048600  0.347500  1.0  -0.5897
  O  O281  1  0.085900  0.151000  0.431400  1.0  -0.5837
  O  O282  1  0.425100  0.092000  0.680100  1.0  -0.583
  O  O283  1  0.318800  0.191200  0.663300  1.0  -0.537
  O  O284  1  0.447100  0.432900  0.285200  1.0  -0.591
  O  O285  1  0.442900  0.493200  0.384900  1.0  -0.5918
  O  O286  1  0.949300  0.190900  0.281500  1.0  -0.987
  O  O287  1  0.401400  0.548600  0.152500  1.0  -0.5907
  O  O288  1  0.414100  0.651000  0.068600  1.0  -0.5829
  O  O289  1  0.074900  0.592000  0.819900  1.0  -0.5834
  O  O290  1  0.181200  0.691200  0.836700  1.0  -0.5359
  O  O291  1  0.052900  0.932900  0.214800  1.0  -0.5887
  O  O292  1  0.057100  0.993200  0.115100  1.0  -0.5924
  O  O293  1  0.550700  0.690900  0.218500  1.0  -0.9859
  O  O294  1  0.901400  0.048600  0.152500  1.0  -0.5907
  O  O295  1  0.914100  0.151000  0.068600  1.0  -0.5829
  O  O296  1  0.574900  0.092000  0.819900  1.0  -0.5834
  O  O297  1  0.681200  0.191200  0.836700  1.0  -0.5359
  O  O298  1  0.552900  0.432900  0.214800  1.0  -0.5887
  O  O299  1  0.557100  0.493200  0.115100  1.0  -0.5924
  O  O300  1  0.050700  0.190900  0.218500  1.0  -0.9859
  O  O301  1  0.401400  0.451400  0.652500  1.0  -0.5906
  O  O302  1  0.414100  0.349000  0.568600  1.0  -0.583
  O  O303  1  0.074900  0.408000  0.319900  1.0  -0.5833
  O  O304  1  0.181200  0.308800  0.336700  1.0  -0.5343
  O  O305  1  0.052900  0.067100  0.714800  1.0  -0.5889
  O  O306  1  0.057100  0.006800  0.615100  1.0  -0.5922
  O  O307  1  0.550700  0.309100  0.718500  1.0  -0.9856
  O  O308  1  0.901400  0.951400  0.652500  1.0  -0.5906
  O  O309  1  0.914100  0.849000  0.568600  1.0  -0.583
  O  O310  1  0.574900  0.908000  0.319900  1.0  -0.5833
  O  O311  1  0.681200  0.808800  0.336700  1.0  -0.5343
  O  O312  1  0.552900  0.567100  0.714800  1.0  -0.5889
  O  O313  1  0.557100  0.506800  0.615100  1.0  -0.5922
  O  O314  1  0.050700  0.809100  0.718500  1.0  -0.9856
  O  O315  1  0.598600  0.451400  0.847500  1.0  -0.5897
  O  O316  1  0.585900  0.349000  0.931400  1.0  -0.5839
  O  O317  1  0.925100  0.408000  0.180100  1.0  -0.5839
  O  O318  1  0.818800  0.308800  0.163300  1.0  -0.5356
  O  O319  1  0.947100  0.067100  0.785200  1.0  -0.5909
  O  O320  1  0.942900  0.006800  0.884900  1.0  -0.5917
  O  O321  1  0.449300  0.309100  0.781500  1.0  -0.9868
  O  O322  1  0.098600  0.951400  0.847500  1.0  -0.5897
  O  O323  1  0.085900  0.849000  0.931400  1.0  -0.5839
  O  O324  1  0.425100  0.908000  0.180100  1.0  -0.5839
  O  O325  1  0.318800  0.808800  0.163300  1.0  -0.5356
  O  O326  1  0.447100  0.567100  0.785200  1.0  -0.5909
  O  O327  1  0.442900  0.506800  0.884900  1.0  -0.5917
  O  O328  1  0.949300  0.809100  0.781500  1.0  -0.9868
