# generated using pymatgen
data_LuH3(C3O2)3
_symmetry_space_group_name_H-M   'P 1'
_cell_length_a   10.22450000
_cell_length_b   10.22450000
_cell_length_c   14.36900000
_cell_angle_alpha   90.00000000
_cell_angle_beta   90.00000000
_cell_angle_gamma   90.00000000
_symmetry_Int_Tables_number   1
_chemical_formula_structural   LuH3(C3O2)3
_chemical_formula_sum   'Lu4 H12 C36 O24'
_cell_volume   1502.14101119
_cell_formula_units_Z   4
loop_
 _symmetry_equiv_pos_site_id
 _symmetry_equiv_pos_as_xyz
  1  'x, y, z'
loop_
 _atom_site_type_symbol
 _atom_site_label
 _atom_site_symmetry_multiplicity
 _atom_site_fract_x
 _atom_site_fract_y
 _atom_site_fract_z
 _atom_site_occupancy
 _atom_site_charge
  Lu  Lu1  1  0.851810  0.148190  0.875000  1.0  1.9715
  Lu  Lu2  1  0.148190  0.851810  0.375000  1.0  1.972
  Lu  Lu3  1  0.851810  0.851810  0.625000  1.0  1.9726
  Lu  Lu4  1  0.148190  0.148190  0.125000  1.0  1.9709
  H  H5  1  0.921000  0.558500  0.871000  1.0  0.1069
  H  H6  1  0.079000  0.441500  0.371000  1.0  0.1072
  H  H7  1  0.441500  0.921000  0.621000  1.0  0.1071
  H  H8  1  0.558500  0.079000  0.121000  1.0  0.1072
  H  H9  1  0.079000  0.558500  0.129000  1.0  0.1073
  H  H10  1  0.921000  0.441500  0.629000  1.0  0.1072
  H  H11  1  0.558500  0.921000  0.379000  1.0  0.1072
  H  H12  1  0.441500  0.079000  0.879000  1.0  0.1073
  H  H13  1  0.000000  0.900000  0.000000  1.0  0.0758
  H  H14  1  0.000000  0.100000  0.500000  1.0  0.0756
  H  H15  1  0.100000  0.000000  0.750000  1.0  0.0768
  H  H16  1  0.900000  0.000000  0.250000  1.0  0.0771
  C  C17  1  0.953400  0.604100  0.922100  1.0  0.0347
  C  C18  1  0.955900  0.740700  0.921900  1.0  -0.1901
  C  C19  1  0.911400  0.819100  0.838700  1.0  0.7647
  C  C20  1  0.046600  0.395900  0.422100  1.0  0.0351
  C  C21  1  0.044100  0.259300  0.421900  1.0  -0.1893
  C  C22  1  0.088600  0.180900  0.338700  1.0  0.765
  C  C23  1  0.395900  0.953400  0.672100  1.0  0.0348
  C  C24  1  0.259300  0.955900  0.671900  1.0  -0.1888
  C  C25  1  0.180900  0.911400  0.588700  1.0  0.7659
  C  C26  1  0.604100  0.046600  0.172100  1.0  0.0342
  C  C27  1  0.740700  0.044100  0.171900  1.0  -0.1894
  C  C28  1  0.819100  0.088600  0.088700  1.0  0.7655
  C  C29  1  0.046600  0.604100  0.077900  1.0  0.035
  C  C30  1  0.044100  0.740700  0.078100  1.0  -0.19
  C  C31  1  0.088600  0.819100  0.161300  1.0  0.7653
  C  C32  1  0.953400  0.395900  0.577900  1.0  0.0345
  C  C33  1  0.955900  0.259300  0.578100  1.0  -0.1889
  C  C34  1  0.911400  0.180900  0.661300  1.0  0.7654
  C  C35  1  0.604100  0.953400  0.327900  1.0  0.0346
  C  C36  1  0.740700  0.955900  0.328100  1.0  -0.1891
  C  C37  1  0.819100  0.911400  0.411300  1.0  0.7658
  C  C38  1  0.395900  0.046600  0.827900  1.0  0.0342
  C  C39  1  0.259300  0.044100  0.828100  1.0  -0.1883
  C  C40  1  0.180900  0.088600  0.911300  1.0  0.7658
  C  C41  1  0.000000  0.387200  0.000000  1.0  0.7964
  C  C42  1  0.000000  0.536800  0.000000  1.0  -0.1893
  C  C43  1  0.000000  0.809100  0.000000  1.0  0.0338
  C  C44  1  0.000000  0.612800  0.500000  1.0  0.7975
  C  C45  1  0.000000  0.463200  0.500000  1.0  -0.1897
  C  C46  1  0.000000  0.190900  0.500000  1.0  0.0339
  C  C47  1  0.612800  0.000000  0.750000  1.0  0.7976
  C  C48  1  0.463200  0.000000  0.750000  1.0  -0.1907
  C  C49  1  0.190900  0.000000  0.750000  1.0  0.0319
  C  C50  1  0.387200  0.000000  0.250000  1.0  0.7979
  C  C51  1  0.536800  0.000000  0.250000  1.0  -0.1914
  C  C52  1  0.809100  0.000000  0.250000  1.0  0.0344
  O  O53  1  0.926800  0.333500  0.941900  1.0  -0.6952
  O  O54  1  0.886100  0.935800  0.850200  1.0  -0.6872
  O  O55  1  0.904100  0.760100  0.762100  1.0  -0.6801
  O  O56  1  0.073200  0.666500  0.441900  1.0  -0.695
  O  O57  1  0.113900  0.064200  0.350200  1.0  -0.6862
  O  O58  1  0.095900  0.239900  0.262100  1.0  -0.6798
  O  O59  1  0.666500  0.926800  0.691900  1.0  -0.6968
  O  O60  1  0.064200  0.886100  0.600200  1.0  -0.6863
  O  O61  1  0.239900  0.904100  0.512100  1.0  -0.6797
  O  O62  1  0.333500  0.073200  0.191900  1.0  -0.6966
  O  O63  1  0.935800  0.113900  0.100200  1.0  -0.6853
  O  O64  1  0.760100  0.095900  0.012100  1.0  -0.6805
  O  O65  1  0.073200  0.333500  0.058100  1.0  -0.6962
  O  O66  1  0.113900  0.935800  0.149800  1.0  -0.6861
  O  O67  1  0.095900  0.760100  0.237900  1.0  -0.6804
  O  O68  1  0.926800  0.666500  0.558100  1.0  -0.6947
  O  O69  1  0.886100  0.064200  0.649800  1.0  -0.6871
  O  O70  1  0.904100  0.239900  0.737900  1.0  -0.6807
  O  O71  1  0.333500  0.926800  0.308100  1.0  -0.6969
  O  O72  1  0.935800  0.886100  0.399800  1.0  -0.6862
  O  O73  1  0.760100  0.904100  0.487900  1.0  -0.6795
  O  O74  1  0.666500  0.073200  0.808100  1.0  -0.6976
  O  O75  1  0.064200  0.113900  0.899800  1.0  -0.6846
  O  O76  1  0.239900  0.095900  0.987900  1.0  -0.6801
