# generated using pymatgen
data_CuH8C11N3
_symmetry_space_group_name_H-M   'P 1'
_cell_length_a   9.48900000
_cell_length_b   12.76000000
_cell_length_c   13.11700000
_cell_angle_alpha   75.88000000
_cell_angle_beta   72.93000000
_cell_angle_gamma   69.65000000
_symmetry_Int_Tables_number   1
_chemical_formula_structural   CuH8C11N3
_chemical_formula_sum   'Cu2 H16 C22 N6'
_cell_volume   1405.53026095
_cell_formula_units_Z   2
loop_
 _symmetry_equiv_pos_site_id
 _symmetry_equiv_pos_as_xyz
  1  'x, y, z'
loop_
 _atom_site_type_symbol
 _atom_site_label
 _atom_site_symmetry_multiplicity
 _atom_site_fract_x
 _atom_site_fract_y
 _atom_site_fract_z
 _atom_site_occupancy
 _atom_site_charge
  Cu  Cu1  1  0.746260  0.462850  0.054260  1.0  0.5025
  Cu  Cu2  1  0.253740  0.537150  0.945740  1.0  0.5037
  H  H3  1  0.149100  0.597600  0.729600  1.0  0.0735
  H  H4  1  0.245800  0.582100  0.549800  1.0  0.1062
  H  H5  1  0.661000  0.429900  0.609700  1.0  0.101
  H  H6  1  0.553000  0.446300  0.787100  1.0  0.0656
  H  H7  1  0.869400  0.935300  0.923600  1.0  0.1108
  H  H8  1  0.983000  0.752200  0.891600  1.0  0.0697
  H  H9  1  0.334600  0.724400  0.999300  1.0  0.07
  H  H10  1  0.227100  0.903900  0.040800  1.0  0.1029
  H  H11  1  0.850900  0.402400  0.270400  1.0  0.0741
  H  H12  1  0.754200  0.417900  0.450200  1.0  0.1056
  H  H13  1  0.339000  0.570100  0.390300  1.0  0.1028
  H  H14  1  0.447000  0.553700  0.212900  1.0  0.0665
  H  H15  1  0.130600  0.064700  0.076400  1.0  0.1098
  H  H16  1  0.017000  0.247800  0.108400  1.0  0.0698
  H  H17  1  0.665400  0.275600  0.000700  1.0  0.0673
  H  H18  1  0.772900  0.096100  0.959200  1.0  0.1032
  C  C19  1  0.254100  0.562800  0.705700  1.0  0.1423
  C  C20  1  0.311900  0.553900  0.596900  1.0  -0.2087
  C  C21  1  0.465500  0.503900  0.558900  1.0  0.0797
  C  C22  1  0.555400  0.464300  0.631700  1.0  -0.2149
  C  C23  1  0.489000  0.475400  0.738700  1.0  0.1613
  C  C24  1  0.964500  0.057300  0.014800  1.0  0.0494
  C  C25  1  0.035900  0.105800  0.059400  1.0  -0.2333
  C  C26  1  0.965800  0.216600  0.078800  1.0  0.1482
  C  C27  1  0.238700  0.766600  0.984800  1.0  0.1591
  C  C28  1  0.175400  0.875700  0.008800  1.0  -0.2035
  C  C29  1  0.556500  0.496900  0.009100  1.0  0.0436
  C  C30  1  0.745900  0.437200  0.294300  1.0  0.142
  C  C31  1  0.688100  0.446100  0.403100  1.0  -0.2089
  C  C32  1  0.534500  0.496100  0.441100  1.0  0.0818
  C  C33  1  0.444600  0.535700  0.368300  1.0  -0.2112
  C  C34  1  0.511000  0.524600  0.261300  1.0  0.1622
  C  C35  1  0.035500  0.942700  0.985200  1.0  0.0497
  C  C36  1  0.964100  0.894200  0.940600  1.0  -0.2328
  C  C37  1  0.034200  0.783400  0.921200  1.0  0.1487
  C  C38  1  0.761300  0.233400  0.015200  1.0  0.158
  C  C39  1  0.824600  0.124300  0.991200  1.0  -0.2041
  C  C40  1  0.443500  0.503100  0.990900  1.0  0.0415
  N  N41  1  0.341600  0.524100  0.777300  1.0  -0.3802
  N  N42  1  0.830000  0.281000  0.057900  1.0  -0.3739
  N  N43  1  0.061200  0.503700  0.987600  1.0  -0.3755
  N  N44  1  0.658400  0.475900  0.222700  1.0  -0.3783
  N  N45  1  0.170000  0.719000  0.942100  1.0  -0.3721
  N  N46  1  0.938800  0.496300  0.012400  1.0  -0.3752
