# generated using pymatgen
data_Cu3MoH20C25S3IN5
_symmetry_space_group_name_H-M   'P 1'
_cell_length_a   15.03730000
_cell_length_b   15.03730000
_cell_length_c   18.10260000
_cell_angle_alpha   94.47230000
_cell_angle_beta   94.47230000
_cell_angle_gamma   90.08590000
_symmetry_Int_Tables_number   1
_chemical_formula_structural   Cu3MoH20C25S3IN5
_chemical_formula_sum   'Cu12 Mo4 H80 C100 S12 I4 N20'
_cell_volume   4068.35925250
_cell_formula_units_Z   4
loop_
 _symmetry_equiv_pos_site_id
 _symmetry_equiv_pos_as_xyz
  1  'x, y, z'
loop_
 _atom_site_type_symbol
 _atom_site_label
 _atom_site_symmetry_multiplicity
 _atom_site_fract_x
 _atom_site_fract_y
 _atom_site_fract_z
 _atom_site_occupancy
 _atom_site_charge
  Cu  Cu1  1  0.406230  0.230470  0.474260  1.0  0.3432
  Cu  Cu2  1  0.196310  0.374570  0.510480  1.0  0.3158
  Cu  Cu3  1  0.281000  0.195100  0.641250  1.0  0.3564
  Cu  Cu4  1  0.769530  0.593770  0.025740  1.0  0.3435
  Cu  Cu5  1  0.625430  0.803690  0.989520  1.0  0.3144
  Cu  Cu6  1  0.804900  0.719000  0.858750  1.0  0.3589
  Cu  Cu7  1  0.593770  0.769530  0.525740  1.0  0.3425
  Cu  Cu8  1  0.803690  0.625430  0.489520  1.0  0.3148
  Cu  Cu9  1  0.719000  0.804900  0.358750  1.0  0.3585
  Cu  Cu10  1  0.230470  0.406230  0.974260  1.0  0.3437
  Cu  Cu11  1  0.374570  0.196310  0.010480  1.0  0.3154
  Cu  Cu12  1  0.195100  0.281000  0.141250  1.0  0.3575
  Mo  Mo13  1  0.232810  0.197690  0.495900  1.0  0.4926
  Mo  Mo14  1  0.802310  0.767190  0.004100  1.0  0.4931
  Mo  Mo15  1  0.767190  0.802310  0.504100  1.0  0.4933
  Mo  Mo16  1  0.197690  0.232810  0.995900  1.0  0.4933
  H  H17  1  0.566400  0.111800  0.432300  1.0  0.0806
  H  H18  1  0.615500  0.033500  0.330100  1.0  0.1155
  H  H19  1  0.420700  0.145300  0.206300  1.0  0.1192
  H  H20  1  0.375100  0.216500  0.312300  1.0  0.0643
  H  H21  1  0.716700  0.945900  0.105300  1.0  0.0578
  H  H22  1  0.683600  0.034000  0.208100  1.0  0.1189
  H  H23  1  0.426300  0.004500  0.139500  1.0  0.125
  H  H24  1  0.465400  0.913800  0.041100  1.0  0.0761
  H  H25  1  0.620000  0.670000  0.807400  1.0  0.0671
  H  H26  1  0.539300  0.572700  0.725300  1.0  0.1246
  H  H27  1  0.767800  0.478400  0.653800  1.0  0.1248
  H  H28  1  0.841800  0.581800  0.735500  1.0  0.0622
  H  H29  1  0.405300  0.415500  0.532500  1.0  0.0572
  H  H30  1  0.482900  0.520300  0.608700  1.0  0.124
  H  H31  1  0.684100  0.350500  0.621700  1.0  0.1199
  H  H32  1  0.602300  0.252700  0.542000  1.0  0.0815
  H  H33  1  0.842700  0.801700  0.711400  1.0  0.0604
  H  H34  1  0.937100  0.899900  0.669000  1.0  0.1192
  H  H35  1  0.080100  0.904500  0.864800  1.0  0.1233
  H  H36  1  0.984400  0.801200  0.899800  1.0  0.0705
  H  H37  1  0.888200  0.433600  0.067700  1.0  0.0803
  H  H38  1  0.966500  0.384500  0.169900  1.0  0.1151
  H  H39  1  0.854700  0.579300  0.293700  1.0  0.1197
  H  H40  1  0.783500  0.624900  0.187700  1.0  0.0648
  H  H41  1  0.054100  0.283300  0.394700  1.0  0.0605
  H  H42  1  0.966000  0.316400  0.291900  1.0  0.1188
  H  H43  1  0.995500  0.573700  0.360500  1.0  0.1223
  H  H44  1  0.086200  0.534600  0.458900  1.0  0.0743
  H  H45  1  0.330000  0.380000  0.692600  1.0  0.0673
  H  H46  1  0.427300  0.460700  0.774700  1.0  0.1237
  H  H47  1  0.521600  0.232200  0.846200  1.0  0.1238
  H  H48  1  0.418200  0.158200  0.764500  1.0  0.0607
  H  H49  1  0.584500  0.594700  0.967500  1.0  0.0568
  H  H50  1  0.479700  0.517100  0.891300  1.0  0.1255
  H  H51  1  0.649500  0.315900  0.878300  1.0  0.1198
  H  H52  1  0.747300  0.397700  0.958000  1.0  0.0813
  H  H53  1  0.198300  0.157300  0.788600  1.0  0.0618
  H  H54  1  0.100100  0.062900  0.831000  1.0  0.1193
  H  H55  1  0.095500  0.919900  0.635200  1.0  0.1221
  H  H56  1  0.198800  0.015600  0.600200  1.0  0.0713
  H  H57  1  0.433600  0.888200  0.567700  1.0  0.0804
  H  H58  1  0.384500  0.966500  0.669900  1.0  0.1155
  H  H59  1  0.579300  0.854700  0.793700  1.0  0.1192
  H  H60  1  0.624900  0.783500  0.687700  1.0  0.0637
  H  H61  1  0.283300  0.054100  0.894700  1.0  0.0565
  H  H62  1  0.316400  0.966000  0.791900  1.0  0.1185
  H  H63  1  0.573700  0.995500  0.860500  1.0  0.1238
  H  H64  1  0.534600  0.086200  0.958900  1.0  0.0763
  H  H65  1  0.380000  0.330000  0.192600  1.0  0.0674
  H  H66  1  0.460700  0.427300  0.274700  1.0  0.1245
  H  H67  1  0.232200  0.521600  0.346200  1.0  0.1243
  H  H68  1  0.158200  0.418200  0.264500  1.0  0.0616
  H  H69  1  0.594700  0.584500  0.467500  1.0  0.0576
  H  H70  1  0.517100  0.479700  0.391300  1.0  0.1248
  H  H71  1  0.315900  0.649500  0.378300  1.0  0.1201
  H  H72  1  0.397700  0.747300  0.458000  1.0  0.0812
  H  H73  1  0.157300  0.198300  0.288600  1.0  0.0614
  H  H74  1  0.062900  0.100100  0.331000  1.0  0.1192
  H  H75  1  0.919900  0.095500  0.135200  1.0  0.1227
  H  H76  1  0.015600  0.198800  0.100200  1.0  0.0708
  H  H77  1  0.111800  0.566400  0.932300  1.0  0.0799
  H  H78  1  0.033500  0.615500  0.830100  1.0  0.1157
  H  H79  1  0.145300  0.420700  0.706300  1.0  0.1181
  H  H80  1  0.216500  0.375100  0.812300  1.0  0.064
  H  H81  1  0.945900  0.716700  0.605300  1.0  0.0595
  H  H82  1  0.034000  0.683600  0.708100  1.0  0.1198
  H  H83  1  0.004500  0.426300  0.639500  1.0  0.1223
  H  H84  1  0.913800  0.465400  0.541100  1.0  0.0757
  H  H85  1  0.670000  0.620000  0.307400  1.0  0.0675
  H  H86  1  0.572700  0.539300  0.225300  1.0  0.1232
  H  H87  1  0.478400  0.767800  0.153800  1.0  0.1245
  H  H88  1  0.581800  0.841800  0.235500  1.0  0.0596
  H  H89  1  0.415500  0.405300  0.032500  1.0  0.0568
  H  H90  1  0.520300  0.482900  0.108700  1.0  0.1253
  H  H91  1  0.350500  0.684100  0.121700  1.0  0.1203
  H  H92  1  0.252700  0.602300  0.042000  1.0  0.0819
  H  H93  1  0.801700  0.842700  0.211400  1.0  0.0622
  H  H94  1  0.899900  0.937100  0.169000  1.0  0.1187
  H  H95  1  0.904500  0.080100  0.364800  1.0  0.1225
  H  H96  1  0.801200  0.984400  0.399800  1.0  0.0705
  C  C97  1  0.536100  0.117700  0.386200  1.0  0.158
  C  C98  1  0.566700  0.070900  0.324700  1.0  -0.1967
  C  C99  1  0.524500  0.079700  0.255000  1.0  0.0942
  C  C100  1  0.451300  0.136500  0.251800  1.0  -0.1928
  C  C101  1  0.424500  0.179500  0.315800  1.0  0.1661
  C  C102  1  0.657100  0.956300  0.113200  1.0  0.1697
  C  C103  1  0.637700  0.009900  0.175100  1.0  -0.2106
  C  C104  1  0.550900  0.027500  0.187800  1.0  0.1081
  C  C105  1  0.486100  0.991700  0.134600  1.0  -0.1924
  C  C106  1  0.510100  0.937900  0.075300  1.0  0.1647
  C  C107  1  0.650600  0.631200  0.775900  1.0  0.1646
  C  C108  1  0.601200  0.572200  0.726900  1.0  -0.2022
  C  C109  1  0.643900  0.511900  0.680100  1.0  0.0949
  C  C110  1  0.735800  0.516800  0.684400  1.0  -0.1914
  C  C111  1  0.779900  0.579300  0.734200  1.0  0.1608
  C  C112  1  0.462500  0.401300  0.551300  1.0  0.1703
  C  C113  1  0.508500  0.465100  0.597600  1.0  -0.1963
  C  C114  1  0.593000  0.446600  0.627600  1.0  0.0928
  C  C115  1  0.626500  0.365700  0.604700  1.0  -0.2073
  C  C116  1  0.576300  0.306500  0.557100  1.0  0.1552
  C  C117  1  0.891700  0.822100  0.742600  1.0  0.1654
  C  C118  1  0.947600  0.881600  0.716800  1.0  -0.2066
  C  C119  1  0.021000  0.915000  0.762800  1.0  0.1062
  C  C120  1  0.032500  0.883900  0.832000  1.0  -0.209
  C  C121  1  0.974000  0.822400  0.853100  1.0  0.1504
  C  C122  1  0.882300  0.463900  0.113800  1.0  0.1586
  C  C123  1  0.929100  0.433300  0.175300  1.0  -0.197
  C  C124  1  0.920300  0.475500  0.245000  1.0  0.0925
  C  C125  1  0.863500  0.548700  0.248200  1.0  -0.1919
  C  C126  1  0.820500  0.575500  0.184200  1.0  0.1639
  C  C127  1  0.043700  0.342900  0.386800  1.0  0.1684
  C  C128  1  0.990100  0.362300  0.324900  1.0  -0.209
  C  C129  1  0.972500  0.449100  0.312200  1.0  0.1074
  C  C130  1  0.008300  0.513900  0.365400  1.0  -0.1929
  C  C131  1  0.062100  0.489900  0.424700  1.0  0.1635
  C  C132  1  0.368800  0.349400  0.724100  1.0  0.1658
  C  C133  1  0.427800  0.398800  0.773100  1.0  -0.2017
  C  C134  1  0.488100  0.356100  0.819900  1.0  0.0948
  C  C135  1  0.483200  0.264200  0.815600  1.0  -0.193
  C  C136  1  0.420700  0.220100  0.765800  1.0  0.161
  C  C137  1  0.598700  0.537500  0.948700  1.0  0.1704
  C  C138  1  0.534900  0.491500  0.902400  1.0  -0.1974
  C  C139  1  0.553400  0.407000  0.872400  1.0  0.0923
  C  C140  1  0.634300  0.373500  0.895300  1.0  -0.2111
  C  C141  1  0.693500  0.423700  0.942900  1.0  0.1557
  C  C142  1  0.177900  0.108300  0.757400  1.0  0.1664
  C  C143  1  0.118400  0.052400  0.783200  1.0  -0.2032
  C  C144  1  0.085000  0.979000  0.737200  1.0  0.1065
  C  C145  1  0.116100  0.967500  0.668000  1.0  -0.2084
  C  C146  1  0.177600  0.026000  0.646900  1.0  0.1516
  C  C147  1  0.463900  0.882300  0.613800  1.0  0.1581
  C  C148  1  0.433300  0.929100  0.675300  1.0  -0.1961
  C  C149  1  0.475500  0.920300  0.745000  1.0  0.0938
  C  C150  1  0.548700  0.863500  0.748200  1.0  -0.1925
  C  C151  1  0.575500  0.820500  0.684200  1.0  0.1644
  C  C152  1  0.342900  0.043700  0.886800  1.0  0.1685
  C  C153  1  0.362300  0.990100  0.824900  1.0  -0.2092
  C  C154  1  0.449100  0.972500  0.812200  1.0  0.1075
  C  C155  1  0.513900  0.008300  0.865400  1.0  -0.1921
  C  C156  1  0.489900  0.062100  0.924700  1.0  0.1649
  C  C157  1  0.349400  0.368800  0.224100  1.0  0.1655
  C  C158  1  0.398800  0.427800  0.273100  1.0  -0.2036
  C  C159  1  0.356100  0.488100  0.319900  1.0  0.0943
  C  C160  1  0.264200  0.483200  0.315600  1.0  -0.1925
  C  C161  1  0.220100  0.420700  0.265800  1.0  0.1586
  C  C162  1  0.537500  0.598700  0.448700  1.0  0.1703
  C  C163  1  0.491500  0.534900  0.402400  1.0  -0.1975
  C  C164  1  0.407000  0.553400  0.372400  1.0  0.0932
  C  C165  1  0.373500  0.634300  0.395300  1.0  -0.2082
  C  C166  1  0.423700  0.693500  0.442900  1.0  0.1546
  C  C167  1  0.108300  0.177900  0.257400  1.0  0.1674
  C  C168  1  0.052400  0.118400  0.283200  1.0  -0.2056
  C  C169  1  0.979000  0.085000  0.237200  1.0  0.1053
  C  C170  1  0.967500  0.116100  0.168000  1.0  -0.2079
  C  C171  1  0.026000  0.177600  0.146900  1.0  0.1516
  C  C172  1  0.117700  0.536100  0.886200  1.0  0.1582
  C  C173  1  0.070900  0.566700  0.824700  1.0  -0.1969
  C  C174  1  0.079700  0.524500  0.755000  1.0  0.0922
  C  C175  1  0.136500  0.451300  0.751800  1.0  -0.1922
  C  C176  1  0.179500  0.424500  0.815800  1.0  0.1635
  C  C177  1  0.956300  0.657100  0.613200  1.0  0.1672
  C  C178  1  0.009900  0.637700  0.675100  1.0  -0.2106
  C  C179  1  0.027500  0.550900  0.687800  1.0  0.1084
  C  C180  1  0.991700  0.486100  0.634600  1.0  -0.1917
  C  C181  1  0.937900  0.510100  0.575300  1.0  0.1617
  C  C182  1  0.631200  0.650600  0.275900  1.0  0.1641
  C  C183  1  0.572200  0.601200  0.226900  1.0  -0.2017
  C  C184  1  0.511900  0.643900  0.180100  1.0  0.0954
  C  C185  1  0.516800  0.735800  0.184400  1.0  -0.192
  C  C186  1  0.579300  0.779900  0.234200  1.0  0.163
  C  C187  1  0.401300  0.462500  0.051300  1.0  0.1696
  C  C188  1  0.465100  0.508500  0.097600  1.0  -0.1974
  C  C189  1  0.446600  0.593000  0.127600  1.0  0.0926
  C  C190  1  0.365700  0.626500  0.104700  1.0  -0.2124
  C  C191  1  0.306500  0.576300  0.057100  1.0  0.156
  C  C192  1  0.822100  0.891700  0.242600  1.0  0.1696
  C  C193  1  0.881600  0.947600  0.216800  1.0  -0.2039
  C  C194  1  0.915000  0.021000  0.262800  1.0  0.106
  C  C195  1  0.883900  0.032500  0.332000  1.0  -0.21
  C  C196  1  0.822400  0.974000  0.353100  1.0  0.1491
  S  S197  1  0.281910  0.301250  0.425050  1.0  -0.47
  S  S198  1  0.353750  0.127190  0.546420  1.0  -0.5428
  S  S199  1  0.162830  0.270390  0.589040  1.0  -0.4998
  S  S200  1  0.698750  0.718090  0.074950  1.0  -0.4716
  S  S201  1  0.872810  0.646250  0.953580  1.0  -0.5433
  S  S202  1  0.729610  0.837170  0.910960  1.0  -0.4946
  S  S203  1  0.718090  0.698750  0.574950  1.0  -0.4695
  S  S204  1  0.646250  0.872810  0.453580  1.0  -0.5421
  S  S205  1  0.837170  0.729610  0.410960  1.0  -0.498
  S  S206  1  0.301250  0.281910  0.925050  1.0  -0.4733
  S  S207  1  0.127190  0.353750  0.046420  1.0  -0.5435
  S  S208  1  0.270390  0.162830  0.089040  1.0  -0.4998
  I  I209  1  0.246690  0.527590  0.570140  1.0  -0.5335
  I  I210  1  0.472410  0.753310  0.929860  1.0  -0.5343
  I  I211  1  0.753310  0.472410  0.429860  1.0  -0.5325
  I  I212  1  0.527590  0.246690  0.070140  1.0  -0.5337
  N  N213  1  0.465600  0.170800  0.383000  1.0  -0.2896
  N  N214  1  0.595200  0.918400  0.064000  1.0  -0.3
  N  N215  1  0.739000  0.636200  0.780800  1.0  -0.2841
  N  N216  1  0.492900  0.321100  0.531300  1.0  -0.284
  N  N217  1  0.902400  0.791200  0.809700  1.0  -0.3131
  N  N218  1  0.829200  0.534400  0.117000  1.0  -0.2874
  N  N219  1  0.081600  0.404800  0.436000  1.0  -0.2966
  N  N220  1  0.363800  0.261000  0.719200  1.0  -0.2872
  N  N221  1  0.678900  0.507100  0.968700  1.0  -0.2799
  N  N222  1  0.208800  0.097600  0.690300  1.0  -0.3105
  N  N223  1  0.534400  0.829200  0.617000  1.0  -0.29
  N  N224  1  0.404800  0.081600  0.936000  1.0  -0.2981
  N  N225  1  0.261000  0.363800  0.219200  1.0  -0.2875
  N  N226  1  0.507100  0.678900  0.468700  1.0  -0.2818
  N  N227  1  0.097600  0.208800  0.190300  1.0  -0.312
  N  N228  1  0.170800  0.465600  0.883000  1.0  -0.2852
  N  N229  1  0.918400  0.595200  0.564000  1.0  -0.2986
  N  N230  1  0.636200  0.739000  0.280800  1.0  -0.2836
  N  N231  1  0.321100  0.492900  0.031300  1.0  -0.2813
  N  N232  1  0.791200  0.902400  0.309700  1.0  -0.3125
