# generated using pymatgen
data_Cu3MoH20C25S3IN5
_symmetry_space_group_name_H-M   'P 1'
_cell_length_a   15.01860000
_cell_length_b   15.01860000
_cell_length_c   17.94700000
_cell_angle_alpha   94.55080000
_cell_angle_beta   94.55080000
_cell_angle_gamma   90.28860000
_symmetry_Int_Tables_number   1
_chemical_formula_structural   Cu3MoH20C25S3IN5
_chemical_formula_sum   'Cu12 Mo4 H80 C100 S12 I4 N20'
_cell_volume   4022.35005208
_cell_formula_units_Z   4
loop_
 _symmetry_equiv_pos_site_id
 _symmetry_equiv_pos_as_xyz
  1  'x, y, z'
loop_
 _atom_site_type_symbol
 _atom_site_label
 _atom_site_symmetry_multiplicity
 _atom_site_fract_x
 _atom_site_fract_y
 _atom_site_fract_z
 _atom_site_occupancy
 _atom_site_charge
  Cu  Cu1  1  0.627680  0.802140  0.487500  1.0  0.3208
  Cu  Cu2  1  0.807910  0.717070  0.359190  1.0  0.3414
  Cu  Cu3  1  0.770350  0.594210  0.527470  1.0  0.3322
  Cu  Cu4  1  0.197860  0.372320  0.012500  1.0  0.3255
  Cu  Cu5  1  0.282930  0.192090  0.140810  1.0  0.3388
  Cu  Cu6  1  0.405790  0.229650  0.972530  1.0  0.3336
  Cu  Cu7  1  0.372320  0.197860  0.512500  1.0  0.3219
  Cu  Cu8  1  0.192090  0.282930  0.640810  1.0  0.3388
  Cu  Cu9  1  0.229650  0.405790  0.472530  1.0  0.3342
  Cu  Cu10  1  0.802140  0.627680  0.987500  1.0  0.3229
  Cu  Cu11  1  0.717070  0.807910  0.859190  1.0  0.3412
  Cu  Cu12  1  0.594210  0.770350  0.027470  1.0  0.3331
  Mo  Mo13  1  0.804600  0.766980  0.504700  1.0  0.4811
  Mo  Mo14  1  0.233020  0.195400  0.995300  1.0  0.4802
  Mo  Mo15  1  0.195400  0.233020  0.495300  1.0  0.4815
  Mo  Mo16  1  0.766980  0.804600  0.004700  1.0  0.4825
  H  H17  1  0.717100  0.945300  0.601700  1.0  0.0595
  H  H18  1  0.686400  0.037800  0.703600  1.0  0.1223
  H  H19  1  0.424400  0.000200  0.635800  1.0  0.1214
  H  H20  1  0.467600  0.909000  0.537400  1.0  0.0867
  H  H21  1  0.566900  0.111900  0.930200  1.0  0.0777
  H  H22  1  0.615000  0.033600  0.825000  1.0  0.1051
  H  H23  1  0.422300  0.148900  0.703600  1.0  0.1013
  H  H24  1  0.377800  0.220600  0.808500  1.0  0.0709
  H  H25  1  0.991200  0.799000  0.400800  1.0  0.0873
  H  H26  1  0.083300  0.897100  0.365400  1.0  0.1027
  H  H27  1  0.939300  0.900500  0.169100  1.0  0.1133
  H  H28  1  0.841700  0.801100  0.213000  1.0  0.0675
  H  H29  1  0.844200  0.577800  0.235900  1.0  0.0815
  H  H30  1  0.767500  0.480300  0.150100  1.0  0.104
  H  H31  1  0.541900  0.577100  0.223000  1.0  0.0966
  H  H32  1  0.619800  0.661800  0.313200  1.0  0.0824
  H  H33  1  0.403800  0.417000  0.032900  1.0  0.0799
  H  H34  1  0.480400  0.516000  0.112900  1.0  0.0983
  H  H35  1  0.687300  0.350300  0.116100  1.0  0.1284
  H  H36  1  0.600600  0.252400  0.036400  1.0  0.0769
  H  H37  1  0.054700  0.282900  0.898300  1.0  0.06
  H  H38  1  0.962200  0.313600  0.796400  1.0  0.122
  H  H39  1  0.999800  0.575600  0.864200  1.0  0.1186
  H  H40  1  0.091000  0.532400  0.962600  1.0  0.0857
  H  H41  1  0.888100  0.433100  0.569800  1.0  0.0775
  H  H42  1  0.966400  0.385000  0.675000  1.0  0.1049
  H  H43  1  0.851100  0.577700  0.796400  1.0  0.1014
  H  H44  1  0.779400  0.622200  0.691500  1.0  0.0707
  H  H45  1  0.201000  0.008800  0.099200  1.0  0.0885
  H  H46  1  0.102900  0.916700  0.134600  1.0  0.102
  H  H47  1  0.099500  0.060700  0.330900  1.0  0.1134
  H  H48  1  0.198900  0.158300  0.287000  1.0  0.0691
  H  H49  1  0.422200  0.155800  0.264100  1.0  0.0788
  H  H50  1  0.519700  0.232500  0.349900  1.0  0.1038
  H  H51  1  0.422900  0.458100  0.277000  1.0  0.0957
  H  H52  1  0.338200  0.380200  0.186800  1.0  0.0824
  H  H53  1  0.583000  0.596200  0.467100  1.0  0.0793
  H  H54  1  0.484000  0.519600  0.387100  1.0  0.099
  H  H55  1  0.649700  0.312700  0.383900  1.0  0.1284
  H  H56  1  0.747600  0.399400  0.463600  1.0  0.0764
  H  H57  1  0.282900  0.054700  0.398300  1.0  0.0586
  H  H58  1  0.313600  0.962200  0.296400  1.0  0.1228
  H  H59  1  0.575600  0.999800  0.364200  1.0  0.1201
  H  H60  1  0.532400  0.091000  0.462600  1.0  0.0865
  H  H61  1  0.433100  0.888100  0.069800  1.0  0.0775
  H  H62  1  0.385000  0.966400  0.175000  1.0  0.1046
  H  H63  1  0.577700  0.851100  0.296400  1.0  0.1019
  H  H64  1  0.622200  0.779400  0.191500  1.0  0.0709
  H  H65  1  0.008800  0.201000  0.599200  1.0  0.0883
  H  H66  1  0.916700  0.102900  0.634600  1.0  0.1021
  H  H67  1  0.060700  0.099500  0.830900  1.0  0.1133
  H  H68  1  0.158300  0.198900  0.787000  1.0  0.0683
  H  H69  1  0.155800  0.422200  0.764100  1.0  0.081
  H  H70  1  0.232500  0.519700  0.849900  1.0  0.1037
  H  H71  1  0.458100  0.422900  0.777000  1.0  0.096
  H  H72  1  0.380200  0.338200  0.686800  1.0  0.0827
  H  H73  1  0.596200  0.583000  0.967100  1.0  0.0796
  H  H74  1  0.519600  0.484000  0.887100  1.0  0.0984
  H  H75  1  0.312700  0.649700  0.883900  1.0  0.1282
  H  H76  1  0.399400  0.747600  0.963600  1.0  0.0765
  H  H77  1  0.945300  0.717100  0.101700  1.0  0.0606
  H  H78  1  0.037800  0.686400  0.203600  1.0  0.1241
  H  H79  1  0.000200  0.424400  0.135800  1.0  0.1185
  H  H80  1  0.909000  0.467600  0.037400  1.0  0.0869
  H  H81  1  0.111900  0.566900  0.430200  1.0  0.0773
  H  H82  1  0.033600  0.615000  0.325000  1.0  0.1044
  H  H83  1  0.148900  0.422300  0.203600  1.0  0.1009
  H  H84  1  0.220600  0.377800  0.308500  1.0  0.0707
  H  H85  1  0.799000  0.991200  0.900800  1.0  0.0873
  H  H86  1  0.897100  0.083300  0.865400  1.0  0.1023
  H  H87  1  0.900500  0.939300  0.669100  1.0  0.113
  H  H88  1  0.801100  0.841700  0.713000  1.0  0.0695
  H  H89  1  0.577800  0.844200  0.735900  1.0  0.0791
  H  H90  1  0.480300  0.767500  0.650100  1.0  0.1038
  H  H91  1  0.577100  0.541900  0.723000  1.0  0.0957
  H  H92  1  0.661800  0.619800  0.813200  1.0  0.0834
  H  H93  1  0.417000  0.403800  0.532900  1.0  0.0791
  H  H94  1  0.516000  0.480400  0.612900  1.0  0.0987
  H  H95  1  0.350300  0.687300  0.616100  1.0  0.1282
  H  H96  1  0.252400  0.600600  0.536400  1.0  0.0764
  C  C97  1  0.657500  0.956700  0.609100  1.0  0.1928
  C  C98  1  0.640200  0.012600  0.671100  1.0  -0.1982
  C  C99  1  0.550100  0.030300  0.683800  1.0  0.0872
  C  C100  1  0.484800  0.990000  0.630700  1.0  -0.2062
  C  C101  1  0.511300  0.935700  0.571600  1.0  0.1615
  C  C102  1  0.536400  0.118400  0.883800  1.0  0.1589
  C  C103  1  0.566900  0.072100  0.820300  1.0  -0.1889
  C  C104  1  0.526000  0.083600  0.751900  1.0  0.1042
  C  C105  1  0.453000  0.140200  0.749500  1.0  -0.1988
  C  C106  1  0.426100  0.182300  0.812500  1.0  0.1735
  C  C107  1  0.979800  0.820000  0.353600  1.0  0.1574
  C  C108  1  0.034500  0.877900  0.332800  1.0  -0.1974
  C  C109  1  0.022500  0.912700  0.262300  1.0  0.1054
  C  C110  1  0.950100  0.881300  0.217000  1.0  -0.1862
  C  C111  1  0.892200  0.820200  0.243500  1.0  0.1554
  C  C112  1  0.782100  0.577100  0.233600  1.0  0.1589
  C  C113  1  0.736300  0.517300  0.182700  1.0  -0.1671
  C  C114  1  0.645400  0.512000  0.179500  1.0  0.0848
  C  C115  1  0.603900  0.573700  0.227100  1.0  -0.1564
  C  C116  1  0.650300  0.627700  0.278000  1.0  0.1631
  C  C117  1  0.461300  0.402500  0.050900  1.0  0.1491
  C  C118  1  0.507600  0.462800  0.097700  1.0  -0.2201
  C  C119  1  0.593900  0.448100  0.124000  1.0  0.0695
  C  C120  1  0.629300  0.365300  0.100200  1.0  -0.2304
  C  C121  1  0.576000  0.306600  0.052400  1.0  0.1672
  C  C122  1  0.043300  0.342500  0.890900  1.0  0.1921
  C  C123  1  0.987400  0.359800  0.828900  1.0  -0.1987
  C  C124  1  0.969700  0.449900  0.816200  1.0  0.0857
  C  C125  1  0.010000  0.515200  0.869300  1.0  -0.2056
  C  C126  1  0.064300  0.488700  0.928400  1.0  0.1592
  C  C127  1  0.881600  0.463600  0.616200  1.0  0.1591
  C  C128  1  0.927900  0.433100  0.679700  1.0  -0.189
  C  C129  1  0.916400  0.474000  0.748100  1.0  0.1022
  C  C130  1  0.859800  0.547000  0.750500  1.0  -0.1978
  C  C131  1  0.817700  0.573900  0.687500  1.0  0.1713
  C  C132  1  0.180000  0.020200  0.146400  1.0  0.1583
  C  C133  1  0.122100  0.965500  0.167200  1.0  -0.2019
  C  C134  1  0.087300  0.977500  0.237700  1.0  0.1061
  C  C135  1  0.118700  0.049900  0.283000  1.0  -0.1864
  C  C136  1  0.179800  0.107800  0.256500  1.0  0.1557
  C  C137  1  0.422900  0.217900  0.266400  1.0  0.1609
  C  C138  1  0.482700  0.263700  0.317300  1.0  -0.1694
  C  C139  1  0.488000  0.354600  0.320500  1.0  0.085
  C  C140  1  0.426300  0.396100  0.272900  1.0  -0.1587
  C  C141  1  0.372300  0.349700  0.222000  1.0  0.163
  C  C142  1  0.597500  0.538700  0.449100  1.0  0.1519
  C  C143  1  0.537200  0.492400  0.402300  1.0  -0.2211
  C  C144  1  0.551900  0.406100  0.376000  1.0  0.0702
  C  C145  1  0.634700  0.370700  0.399800  1.0  -0.2327
  C  C146  1  0.693400  0.424000  0.447600  1.0  0.1696
  C  C147  1  0.342500  0.043300  0.390900  1.0  0.1925
  C  C148  1  0.359800  0.987400  0.328900  1.0  -0.198
  C  C149  1  0.449900  0.969700  0.316200  1.0  0.0873
  C  C150  1  0.515200  0.010000  0.369300  1.0  -0.2056
  C  C151  1  0.488700  0.064300  0.428400  1.0  0.1603
  C  C152  1  0.463600  0.881600  0.116200  1.0  0.1579
  C  C153  1  0.433100  0.927900  0.179700  1.0  -0.1891
  C  C154  1  0.474000  0.916400  0.248100  1.0  0.1038
  C  C155  1  0.547000  0.859800  0.250500  1.0  -0.1976
  C  C156  1  0.573900  0.817700  0.187500  1.0  0.1716
  C  C157  1  0.020200  0.180000  0.646400  1.0  0.1578
  C  C158  1  0.965500  0.122100  0.667200  1.0  -0.1985
  C  C159  1  0.977500  0.087300  0.737700  1.0  0.1051
  C  C160  1  0.049900  0.118700  0.783000  1.0  -0.1876
  C  C161  1  0.107800  0.179800  0.756500  1.0  0.1564
  C  C162  1  0.217900  0.422900  0.766400  1.0  0.1582
  C  C163  1  0.263700  0.482700  0.817300  1.0  -0.167
  C  C164  1  0.354600  0.488000  0.820500  1.0  0.0844
  C  C165  1  0.396100  0.426300  0.772900  1.0  -0.157
  C  C166  1  0.349700  0.372300  0.722000  1.0  0.1631
  C  C167  1  0.538700  0.597500  0.949100  1.0  0.1514
  C  C168  1  0.492400  0.537200  0.902300  1.0  -0.2209
  C  C169  1  0.406100  0.551900  0.876000  1.0  0.0693
  C  C170  1  0.370700  0.634700  0.899800  1.0  -0.2319
  C  C171  1  0.424000  0.693400  0.947600  1.0  0.1691
  C  C172  1  0.956700  0.657500  0.109100  1.0  0.1917
  C  C173  1  0.012600  0.640200  0.171100  1.0  -0.1991
  C  C174  1  0.030300  0.550100  0.183800  1.0  0.0868
  C  C175  1  0.990000  0.484800  0.130700  1.0  -0.2042
  C  C176  1  0.935700  0.511300  0.071600  1.0  0.1592
  C  C177  1  0.118400  0.536400  0.383800  1.0  0.1587
  C  C178  1  0.072100  0.566900  0.320300  1.0  -0.1886
  C  C179  1  0.083600  0.526000  0.251900  1.0  0.1026
  C  C180  1  0.140200  0.453000  0.249500  1.0  -0.1981
  C  C181  1  0.182300  0.426100  0.312500  1.0  0.1715
  C  C182  1  0.820000  0.979800  0.853600  1.0  0.1563
  C  C183  1  0.877900  0.034500  0.832800  1.0  -0.2002
  C  C184  1  0.912700  0.022500  0.762300  1.0  0.1051
  C  C185  1  0.881300  0.950100  0.717000  1.0  -0.1841
  C  C186  1  0.820200  0.892200  0.743500  1.0  0.1567
  C  C187  1  0.577100  0.782100  0.733600  1.0  0.1616
  C  C188  1  0.517300  0.736300  0.682700  1.0  -0.1675
  C  C189  1  0.512000  0.645400  0.679500  1.0  0.0858
  C  C190  1  0.573700  0.603900  0.727100  1.0  -0.1581
  C  C191  1  0.627700  0.650300  0.778000  1.0  0.1609
  C  C192  1  0.402500  0.461300  0.550900  1.0  0.1517
  C  C193  1  0.462800  0.507600  0.597700  1.0  -0.2193
  C  C194  1  0.448100  0.593900  0.624000  1.0  0.0701
  C  C195  1  0.365300  0.629300  0.600200  1.0  -0.2344
  C  C196  1  0.306600  0.576000  0.552400  1.0  0.1688
  S  S197  1  0.732790  0.836530  0.410510  1.0  -0.4342
  S  S198  1  0.874750  0.644630  0.455100  1.0  -0.5366
  S  S199  1  0.699960  0.719620  0.576180  1.0  -0.4025
  S  S200  1  0.163470  0.267210  0.089490  1.0  -0.4381
  S  S201  1  0.355370  0.125250  0.044900  1.0  -0.5359
  S  S202  1  0.280380  0.300040  0.923820  1.0  -0.401
  S  S203  1  0.267210  0.163470  0.589490  1.0  -0.4359
  S  S204  1  0.125250  0.355370  0.544900  1.0  -0.5368
  S  S205  1  0.300040  0.280380  0.423820  1.0  -0.4054
  S  S206  1  0.836530  0.732790  0.910510  1.0  -0.4347
  S  S207  1  0.644630  0.874750  0.955100  1.0  -0.535
  S  S208  1  0.719620  0.699960  0.076180  1.0  -0.4009
  I  I209  1  0.482180  0.753660  0.429610  1.0  -0.4806
  I  I210  1  0.246340  0.517820  0.070390  1.0  -0.4794
  I  I211  1  0.517820  0.246340  0.570390  1.0  -0.4796
  I  I212  1  0.753660  0.482180  0.929610  1.0  -0.4793
  N  N213  1  0.598500  0.919100  0.560600  1.0  -0.3352
  N  N214  1  0.465500  0.171700  0.880800  1.0  -0.3181
  N  N215  1  0.906000  0.788000  0.310000  1.0  -0.335
  N  N216  1  0.740300  0.635100  0.280700  1.0  -0.3307
  N  N217  1  0.493200  0.322000  0.028300  1.0  -0.3003
  N  N218  1  0.080900  0.401500  0.939400  1.0  -0.3314
  N  N219  1  0.828300  0.534500  0.619200  1.0  -0.3176
  N  N220  1  0.212000  0.094000  0.190000  1.0  -0.3337
  N  N221  1  0.364900  0.259700  0.219300  1.0  -0.3337
  N  N222  1  0.678000  0.506800  0.471700  1.0  -0.2992
  N  N223  1  0.401500  0.080900  0.439400  1.0  -0.3342
  N  N224  1  0.534500  0.828300  0.119200  1.0  -0.3205
  N  N225  1  0.094000  0.212000  0.690000  1.0  -0.3348
  N  N226  1  0.259700  0.364900  0.719300  1.0  -0.3331
  N  N227  1  0.506800  0.678000  0.971700  1.0  -0.2993
  N  N228  1  0.919100  0.598500  0.060600  1.0  -0.3349
  N  N229  1  0.171700  0.465500  0.380800  1.0  -0.3159
  N  N230  1  0.788000  0.906000  0.810000  1.0  -0.3343
  N  N231  1  0.635100  0.740300  0.780700  1.0  -0.3316
  N  N232  1  0.322000  0.493200  0.528300  1.0  -0.2995
