# generated using pymatgen
data_Cu3MoH20C25S3BrN5
_symmetry_space_group_name_H-M   'P 1'
_cell_length_a   21.26300000
_cell_length_b   21.28700000
_cell_length_c   18.02870000
_cell_angle_alpha   90.00000000
_cell_angle_beta   96.21300000
_cell_angle_gamma   90.00000000
_symmetry_Int_Tables_number   1
_chemical_formula_structural   Cu3MoH20C25S3BrN5
_chemical_formula_sum   'Cu24 Mo8 H160 C200 S24 Br8 N40'
_cell_volume   8112.31924904
_cell_formula_units_Z   8
loop_
 _symmetry_equiv_pos_site_id
 _symmetry_equiv_pos_as_xyz
  1  'x, y, z'
loop_
 _atom_site_type_symbol
 _atom_site_label
 _atom_site_symmetry_multiplicity
 _atom_site_fract_x
 _atom_site_fract_y
 _atom_site_fract_z
 _atom_site_occupancy
 _atom_site_charge
  Cu  Cu1  1  0.737440  0.545610  0.140950  1.0  0.3418
  Cu  Cu2  1  0.817560  0.588080  0.972310  1.0  0.3347
  Cu  Cu3  1  0.784970  0.413050  0.012490  1.0  0.3277
  Cu  Cu4  1  0.237440  0.045610  0.140950  1.0  0.3418
  Cu  Cu5  1  0.317560  0.088080  0.972310  1.0  0.3347
  Cu  Cu6  1  0.284970  0.913050  0.012490  1.0  0.3277
  Cu  Cu7  1  0.262560  0.545610  0.359050  1.0  0.3439
  Cu  Cu8  1  0.182440  0.588080  0.527690  1.0  0.3337
  Cu  Cu9  1  0.215030  0.413050  0.487510  1.0  0.326
  Cu  Cu10  1  0.762560  0.045610  0.359050  1.0  0.3439
  Cu  Cu11  1  0.682440  0.088080  0.527690  1.0  0.3337
  Cu  Cu12  1  0.715030  0.913050  0.487510  1.0  0.326
  Cu  Cu13  1  0.262560  0.454390  0.859050  1.0  0.3439
  Cu  Cu14  1  0.182440  0.411920  0.027690  1.0  0.3334
  Cu  Cu15  1  0.215030  0.586950  0.987510  1.0  0.3256
  Cu  Cu16  1  0.762560  0.954390  0.859050  1.0  0.3439
  Cu  Cu17  1  0.682440  0.911920  0.027690  1.0  0.3334
  Cu  Cu18  1  0.715030  0.086950  0.987510  1.0  0.3256
  Cu  Cu19  1  0.737440  0.454390  0.640950  1.0  0.3415
  Cu  Cu20  1  0.817560  0.411920  0.472310  1.0  0.3346
  Cu  Cu21  1  0.784970  0.586950  0.512490  1.0  0.3275
  Cu  Cu22  1  0.237440  0.954390  0.640950  1.0  0.3415
  Cu  Cu23  1  0.317560  0.911920  0.472310  1.0  0.3346
  Cu  Cu24  1  0.284970  0.086950  0.512490  1.0  0.3275
  Mo  Mo25  1  0.714000  0.518900  0.995290  1.0  0.5011
  Mo  Mo26  1  0.214000  0.018900  0.995290  1.0  0.5011
  Mo  Mo27  1  0.286000  0.518900  0.504710  1.0  0.5
  Mo  Mo28  1  0.786000  0.018900  0.504710  1.0  0.5
  Mo  Mo29  1  0.286000  0.481100  0.004710  1.0  0.5003
  Mo  Mo30  1  0.786000  0.981100  0.004710  1.0  0.5003
  Mo  Mo31  1  0.714000  0.481100  0.495290  1.0  0.5008
  Mo  Mo32  1  0.214000  0.981100  0.495290  1.0  0.5008
  H  H33  1  0.855400  0.477700  0.192000  1.0  0.0641
  H  H34  1  0.944700  0.486100  0.272500  1.0  0.1143
  H  H35  1  0.874800  0.644300  0.351500  1.0  0.1253
  H  H36  1  0.787700  0.631200  0.266600  1.0  0.0624
  H  H37  1  0.091800  0.493500  0.466000  1.0  0.0685
  H  H38  1  0.000200  0.481400  0.388000  1.0  0.1219
  H  H39  1  0.980400  0.666800  0.386900  1.0  0.1165
  H  H40  1  0.072500  0.674000  0.462700  1.0  0.0854
  H  H41  1  0.678100  0.521200  0.288200  1.0  0.076
  H  H42  1  0.579800  0.518700  0.329300  1.0  0.108
  H  H43  1  0.507500  0.590500  0.134400  1.0  0.1241
  H  H44  1  0.607900  0.596200  0.100500  1.0  0.0724
  H  H45  1  0.658300  0.227100  0.570300  1.0  0.0834
  H  H46  1  0.674300  0.290400  0.674100  1.0  0.0977
  H  H47  1  0.713700  0.136500  0.797100  1.0  0.1179
  H  H48  1  0.702000  0.079300  0.690800  1.0  0.0624
  H  H49  1  0.668100  0.386100  0.899000  1.0  0.0683
  H  H50  1  0.638200  0.323600  0.796200  1.0  0.1324
  H  H51  1  0.784800  0.211700  0.863800  1.0  0.1219
  H  H52  1  0.810700  0.278200  0.962300  1.0  0.0746
  H  H53  1  0.355400  0.977700  0.192000  1.0  0.0641
  H  H54  1  0.444700  0.986100  0.272500  1.0  0.1143
  H  H55  1  0.374800  0.144300  0.351500  1.0  0.1253
  H  H56  1  0.287700  0.131200  0.266600  1.0  0.0624
  H  H57  1  0.591800  0.993500  0.466000  1.0  0.0685
  H  H58  1  0.500200  0.981400  0.388000  1.0  0.1219
  H  H59  1  0.480400  0.166800  0.386900  1.0  0.1165
  H  H60  1  0.572500  0.174000  0.462700  1.0  0.0854
  H  H61  1  0.178100  0.021200  0.288200  1.0  0.076
  H  H62  1  0.079800  0.018700  0.329300  1.0  0.108
  H  H63  1  0.007500  0.090500  0.134400  1.0  0.1241
  H  H64  1  0.107900  0.096200  0.100500  1.0  0.0724
  H  H65  1  0.158300  0.727100  0.570300  1.0  0.0834
  H  H66  1  0.174300  0.790400  0.674100  1.0  0.0977
  H  H67  1  0.213700  0.636500  0.797100  1.0  0.1179
  H  H68  1  0.202000  0.579300  0.690800  1.0  0.0624
  H  H69  1  0.168100  0.886100  0.899000  1.0  0.0683
  H  H70  1  0.138200  0.823600  0.796200  1.0  0.1324
  H  H71  1  0.284800  0.711700  0.863800  1.0  0.1219
  H  H72  1  0.310700  0.778200  0.962300  1.0  0.0746
  H  H73  1  0.144600  0.477700  0.308000  1.0  0.0642
  H  H74  1  0.055300  0.486100  0.227500  1.0  0.1132
  H  H75  1  0.125200  0.644300  0.148500  1.0  0.1257
  H  H76  1  0.212300  0.631200  0.233400  1.0  0.0622
  H  H77  1  0.908200  0.493500  0.034000  1.0  0.0685
  H  H78  1  0.999800  0.481400  0.112000  1.0  0.1215
  H  H79  1  0.019600  0.666800  0.113100  1.0  0.1164
  H  H80  1  0.927500  0.674000  0.037300  1.0  0.0859
  H  H81  1  0.321900  0.521200  0.211800  1.0  0.0754
  H  H82  1  0.420200  0.518700  0.170700  1.0  0.1075
  H  H83  1  0.492500  0.590500  0.365600  1.0  0.1241
  H  H84  1  0.392100  0.596200  0.399500  1.0  0.0723
  H  H85  1  0.341700  0.227100  0.929700  1.0  0.0835
  H  H86  1  0.325700  0.290400  0.825900  1.0  0.0977
  H  H87  1  0.286300  0.136500  0.702900  1.0  0.1166
  H  H88  1  0.298000  0.079300  0.809200  1.0  0.0627
  H  H89  1  0.331900  0.386100  0.601000  1.0  0.0681
  H  H90  1  0.361800  0.323600  0.703800  1.0  0.1332
  H  H91  1  0.215200  0.211700  0.636200  1.0  0.1213
  H  H92  1  0.189300  0.278200  0.537700  1.0  0.0747
  H  H93  1  0.644600  0.977700  0.308000  1.0  0.0642
  H  H94  1  0.555300  0.986100  0.227500  1.0  0.1132
  H  H95  1  0.625200  0.144300  0.148500  1.0  0.1257
  H  H96  1  0.712300  0.131200  0.233400  1.0  0.0622
  H  H97  1  0.408200  0.993500  0.034000  1.0  0.0685
  H  H98  1  0.499800  0.981400  0.112000  1.0  0.1215
  H  H99  1  0.519600  0.166800  0.113100  1.0  0.1164
  H  H100  1  0.427500  0.174000  0.037300  1.0  0.0859
  H  H101  1  0.821900  0.021200  0.211800  1.0  0.0754
  H  H102  1  0.920200  0.018700  0.170700  1.0  0.1075
  H  H103  1  0.992500  0.090500  0.365600  1.0  0.1241
  H  H104  1  0.892100  0.096200  0.399500  1.0  0.0723
  H  H105  1  0.841700  0.727100  0.929700  1.0  0.0835
  H  H106  1  0.825700  0.790400  0.825900  1.0  0.0977
  H  H107  1  0.786300  0.636500  0.702900  1.0  0.1166
  H  H108  1  0.798000  0.579300  0.809200  1.0  0.0627
  H  H109  1  0.831900  0.886100  0.601000  1.0  0.0681
  H  H110  1  0.861800  0.823600  0.703800  1.0  0.1332
  H  H111  1  0.715200  0.711700  0.636200  1.0  0.1213
  H  H112  1  0.689300  0.778200  0.537700  1.0  0.0747
  H  H113  1  0.144600  0.522300  0.808000  1.0  0.0642
  H  H114  1  0.055300  0.513900  0.727500  1.0  0.1141
  H  H115  1  0.125200  0.355700  0.648500  1.0  0.1254
  H  H116  1  0.212300  0.368800  0.733400  1.0  0.0623
  H  H117  1  0.908200  0.506500  0.534000  1.0  0.0685
  H  H118  1  0.999800  0.518600  0.612000  1.0  0.1205
  H  H119  1  0.019600  0.333200  0.613100  1.0  0.117
  H  H120  1  0.927500  0.326000  0.537300  1.0  0.0866
  H  H121  1  0.321900  0.478800  0.711800  1.0  0.0757
  H  H122  1  0.420200  0.481300  0.670700  1.0  0.1074
  H  H123  1  0.492500  0.409500  0.865600  1.0  0.1241
  H  H124  1  0.392100  0.403800  0.899500  1.0  0.0714
  H  H125  1  0.341700  0.772900  0.429700  1.0  0.0837
  H  H126  1  0.325700  0.709600  0.325900  1.0  0.0978
  H  H127  1  0.286300  0.863500  0.202900  1.0  0.1162
  H  H128  1  0.298000  0.920700  0.309200  1.0  0.061
  H  H129  1  0.331900  0.613900  0.101000  1.0  0.0677
  H  H130  1  0.361800  0.676400  0.203800  1.0  0.1332
  H  H131  1  0.215200  0.788300  0.136200  1.0  0.1219
  H  H132  1  0.189300  0.721800  0.037700  1.0  0.075
  H  H133  1  0.644600  0.022300  0.808000  1.0  0.0642
  H  H134  1  0.555300  0.013900  0.727500  1.0  0.1141
  H  H135  1  0.625200  0.855700  0.648500  1.0  0.1254
  H  H136  1  0.712300  0.868800  0.733400  1.0  0.0623
  H  H137  1  0.408200  0.006500  0.534000  1.0  0.0685
  H  H138  1  0.499800  0.018600  0.612000  1.0  0.1205
  H  H139  1  0.519600  0.833200  0.613100  1.0  0.117
  H  H140  1  0.427500  0.826000  0.537300  1.0  0.0866
  H  H141  1  0.821900  0.978800  0.711800  1.0  0.0757
  H  H142  1  0.920200  0.981300  0.670700  1.0  0.1074
  H  H143  1  0.992500  0.909500  0.865600  1.0  0.1241
  H  H144  1  0.892100  0.903800  0.899500  1.0  0.0714
  H  H145  1  0.841700  0.272900  0.429700  1.0  0.0837
  H  H146  1  0.825700  0.209600  0.325900  1.0  0.0978
  H  H147  1  0.786300  0.363500  0.202900  1.0  0.1162
  H  H148  1  0.798000  0.420700  0.309200  1.0  0.061
  H  H149  1  0.831900  0.113900  0.101000  1.0  0.0677
  H  H150  1  0.861800  0.176400  0.203800  1.0  0.1332
  H  H151  1  0.715200  0.288300  0.136200  1.0  0.1219
  H  H152  1  0.689300  0.221800  0.037700  1.0  0.075
  H  H153  1  0.855400  0.522300  0.692000  1.0  0.0643
  H  H154  1  0.944700  0.513900  0.772500  1.0  0.114
  H  H155  1  0.874800  0.355700  0.851500  1.0  0.1251
  H  H156  1  0.787700  0.368800  0.766600  1.0  0.0619
  H  H157  1  0.091800  0.506500  0.966000  1.0  0.0681
  H  H158  1  0.000200  0.518600  0.888000  1.0  0.1209
  H  H159  1  0.980400  0.333200  0.886900  1.0  0.1168
  H  H160  1  0.072500  0.326000  0.962700  1.0  0.0866
  H  H161  1  0.678100  0.478800  0.788200  1.0  0.0761
  H  H162  1  0.579800  0.481300  0.829300  1.0  0.1078
  H  H163  1  0.507500  0.409500  0.634400  1.0  0.1239
  H  H164  1  0.607900  0.403800  0.600500  1.0  0.0718
  H  H165  1  0.658300  0.772900  0.070300  1.0  0.0834
  H  H166  1  0.674300  0.709600  0.174100  1.0  0.0977
  H  H167  1  0.713700  0.863500  0.297100  1.0  0.117
  H  H168  1  0.702000  0.920700  0.190800  1.0  0.0611
  H  H169  1  0.668100  0.613900  0.399000  1.0  0.0679
  H  H170  1  0.638200  0.676400  0.296200  1.0  0.1325
  H  H171  1  0.784800  0.788300  0.363800  1.0  0.1222
  H  H172  1  0.810700  0.721800  0.462300  1.0  0.0742
  H  H173  1  0.355400  0.022300  0.692000  1.0  0.0643
  H  H174  1  0.444700  0.013900  0.772500  1.0  0.114
  H  H175  1  0.374800  0.855700  0.851500  1.0  0.1251
  H  H176  1  0.287700  0.868800  0.766600  1.0  0.0619
  H  H177  1  0.591800  0.006500  0.966000  1.0  0.0681
  H  H178  1  0.500200  0.018600  0.888000  1.0  0.1209
  H  H179  1  0.480400  0.833200  0.886900  1.0  0.1168
  H  H180  1  0.572500  0.826000  0.962700  1.0  0.0866
  H  H181  1  0.178100  0.978800  0.788200  1.0  0.0761
  H  H182  1  0.079800  0.981300  0.829300  1.0  0.1078
  H  H183  1  0.007500  0.909500  0.634400  1.0  0.1239
  H  H184  1  0.107900  0.903800  0.600500  1.0  0.0718
  H  H185  1  0.158300  0.272900  0.070300  1.0  0.0834
  H  H186  1  0.174300  0.209600  0.174100  1.0  0.0977
  H  H187  1  0.213700  0.363500  0.297100  1.0  0.117
  H  H188  1  0.202000  0.420700  0.190800  1.0  0.0611
  H  H189  1  0.168100  0.113900  0.399000  1.0  0.0679
  H  H190  1  0.138200  0.176400  0.296200  1.0  0.1325
  H  H191  1  0.284800  0.288300  0.363800  1.0  0.1222
  H  H192  1  0.310700  0.221800  0.462300  1.0  0.0742
  C  C193  1  0.859300  0.512000  0.224000  1.0  0.1718
  C  C194  1  0.913500  0.516700  0.272500  1.0  -0.2155
  C  C195  1  0.921700  0.566700  0.321300  1.0  0.0907
  C  C196  1  0.872400  0.610200  0.319100  1.0  -0.2079
  C  C197  1  0.819900  0.601500  0.267800  1.0  0.1699
  C  C198  1  0.069600  0.529300  0.449000  1.0  0.1599
  C  C199  1  0.014200  0.521600  0.401800  1.0  -0.2047
  C  C200  1  0.979800  0.573300  0.375300  1.0  0.0813
  C  C201  1  0.002700  0.630400  0.401000  1.0  -0.2217
  C  C202  1  0.058100  0.634300  0.447200  1.0  0.1682
  C  C203  1  0.643600  0.536200  0.257300  1.0  0.148
  C  C204  1  0.584300  0.534400  0.282000  1.0  -0.1515
  C  C205  1  0.532100  0.555500  0.237600  1.0  0.109
  C  C206  1  0.541600  0.577400  0.167400  1.0  -0.2205
  C  C207  1  0.602100  0.579500  0.147000  1.0  0.1567
  C  C208  1  0.671300  0.208900  0.616400  1.0  0.1472
  C  C209  1  0.679700  0.247200  0.679200  1.0  -0.1765
  C  C210  1  0.695900  0.222000  0.748700  1.0  0.081
  C  C211  1  0.703600  0.156500  0.751500  1.0  -0.2018
  C  C212  1  0.696200  0.122500  0.687400  1.0  0.1803
  C  C213  1  0.692300  0.350800  0.891100  1.0  0.1815
  C  C214  1  0.673700  0.313400  0.828800  1.0  -0.2259
  C  C215  1  0.709400  0.261000  0.817100  1.0  0.0903
  C  C216  1  0.760700  0.247500  0.869000  1.0  -0.2026
  C  C217  1  0.775700  0.287600  0.928500  1.0  0.1587
  C  C218  1  0.359300  0.012000  0.224000  1.0  0.1718
  C  C219  1  0.413500  0.016700  0.272500  1.0  -0.2155
  C  C220  1  0.421700  0.066700  0.321300  1.0  0.0907
  C  C221  1  0.372400  0.110200  0.319100  1.0  -0.2079
  C  C222  1  0.319900  0.101500  0.267800  1.0  0.1699
  C  C223  1  0.569600  0.029300  0.449000  1.0  0.1599
  C  C224  1  0.514200  0.021600  0.401800  1.0  -0.2047
  C  C225  1  0.479800  0.073300  0.375300  1.0  0.0813
  C  C226  1  0.502700  0.130400  0.401000  1.0  -0.2217
  C  C227  1  0.558100  0.134300  0.447200  1.0  0.1682
  C  C228  1  0.143600  0.036200  0.257300  1.0  0.148
  C  C229  1  0.084300  0.034400  0.282000  1.0  -0.1515
  C  C230  1  0.032100  0.055500  0.237600  1.0  0.109
  C  C231  1  0.041600  0.077400  0.167400  1.0  -0.2205
  C  C232  1  0.102100  0.079500  0.147000  1.0  0.1567
  C  C233  1  0.171300  0.708900  0.616400  1.0  0.1472
  C  C234  1  0.179700  0.747200  0.679200  1.0  -0.1765
  C  C235  1  0.195900  0.722000  0.748700  1.0  0.081
  C  C236  1  0.203600  0.656500  0.751500  1.0  -0.2018
  C  C237  1  0.196200  0.622500  0.687400  1.0  0.1803
  C  C238  1  0.192300  0.850800  0.891100  1.0  0.1815
  C  C239  1  0.173700  0.813400  0.828800  1.0  -0.2259
  C  C240  1  0.209400  0.761000  0.817100  1.0  0.0903
  C  C241  1  0.260700  0.747500  0.869000  1.0  -0.2026
  C  C242  1  0.275700  0.787600  0.928500  1.0  0.1587
  C  C243  1  0.140700  0.512000  0.276000  1.0  0.1721
  C  C244  1  0.086500  0.516700  0.227500  1.0  -0.2154
  C  C245  1  0.078300  0.566700  0.178700  1.0  0.0908
  C  C246  1  0.127600  0.610200  0.180900  1.0  -0.2083
  C  C247  1  0.180100  0.601500  0.232200  1.0  0.1706
  C  C248  1  0.930400  0.529300  0.051000  1.0  0.16
  C  C249  1  0.985800  0.521600  0.098200  1.0  -0.2036
  C  C250  1  0.020200  0.573300  0.124700  1.0  0.0804
  C  C251  1  0.997300  0.630400  0.099000  1.0  -0.2219
  C  C252  1  0.941900  0.634300  0.052800  1.0  0.1678
  C  C253  1  0.356400  0.536200  0.242700  1.0  0.1485
  C  C254  1  0.415700  0.534400  0.218000  1.0  -0.1505
  C  C255  1  0.467900  0.555500  0.262400  1.0  0.11
  C  C256  1  0.458400  0.577400  0.332600  1.0  -0.2222
  C  C257  1  0.397900  0.579500  0.353000  1.0  0.153
  C  C258  1  0.328700  0.208900  0.883600  1.0  0.1467
  C  C259  1  0.320300  0.247200  0.820800  1.0  -0.1759
  C  C260  1  0.304100  0.222000  0.751300  1.0  0.0804
  C  C261  1  0.296400  0.156500  0.748500  1.0  -0.2019
  C  C262  1  0.303800  0.122500  0.812600  1.0  0.1819
  C  C263  1  0.307700  0.350800  0.608900  1.0  0.1808
  C  C264  1  0.326300  0.313400  0.671200  1.0  -0.2235
  C  C265  1  0.290600  0.261000  0.682900  1.0  0.0906
  C  C266  1  0.239300  0.247500  0.631000  1.0  -0.2017
  C  C267  1  0.224300  0.287600  0.571500  1.0  0.158
  C  C268  1  0.640700  0.012000  0.276000  1.0  0.1721
  C  C269  1  0.586500  0.016700  0.227500  1.0  -0.2154
  C  C270  1  0.578300  0.066700  0.178700  1.0  0.0908
  C  C271  1  0.627600  0.110200  0.180900  1.0  -0.2083
  C  C272  1  0.680100  0.101500  0.232200  1.0  0.1706
  C  C273  1  0.430400  0.029300  0.051000  1.0  0.16
  C  C274  1  0.485800  0.021600  0.098200  1.0  -0.2036
  C  C275  1  0.520200  0.073300  0.124700  1.0  0.0804
  C  C276  1  0.497300  0.130400  0.099000  1.0  -0.2219
  C  C277  1  0.441900  0.134300  0.052800  1.0  0.1678
  C  C278  1  0.856400  0.036200  0.242700  1.0  0.1485
  C  C279  1  0.915700  0.034400  0.218000  1.0  -0.1505
  C  C280  1  0.967900  0.055500  0.262400  1.0  0.11
  C  C281  1  0.958400  0.077400  0.332600  1.0  -0.2222
  C  C282  1  0.897900  0.079500  0.353000  1.0  0.153
  C  C283  1  0.828700  0.708900  0.883600  1.0  0.1467
  C  C284  1  0.820300  0.747200  0.820800  1.0  -0.1759
  C  C285  1  0.804100  0.722000  0.751300  1.0  0.0804
  C  C286  1  0.796400  0.656500  0.748500  1.0  -0.2019
  C  C287  1  0.803800  0.622500  0.812600  1.0  0.1819
  C  C288  1  0.807700  0.850800  0.608900  1.0  0.1808
  C  C289  1  0.826300  0.813400  0.671200  1.0  -0.2235
  C  C290  1  0.790600  0.761000  0.682900  1.0  0.0906
  C  C291  1  0.739300  0.747500  0.631000  1.0  -0.2017
  C  C292  1  0.724300  0.787600  0.571500  1.0  0.158
  C  C293  1  0.140700  0.488000  0.776000  1.0  0.1724
  C  C294  1  0.086500  0.483300  0.727500  1.0  -0.2158
  C  C295  1  0.078300  0.433300  0.678700  1.0  0.0913
  C  C296  1  0.127600  0.389800  0.680900  1.0  -0.2077
  C  C297  1  0.180100  0.398500  0.732200  1.0  0.171
  C  C298  1  0.930400  0.470700  0.551000  1.0  0.1602
  C  C299  1  0.985800  0.478400  0.598200  1.0  -0.2049
  C  C300  1  0.020200  0.426700  0.624700  1.0  0.0804
  C  C301  1  0.997300  0.369600  0.599000  1.0  -0.2216
  C  C302  1  0.941900  0.365700  0.552800  1.0  0.1679
  C  C303  1  0.356400  0.463800  0.742700  1.0  0.1495
  C  C304  1  0.415700  0.465600  0.718000  1.0  -0.1514
  C  C305  1  0.467900  0.444500  0.762400  1.0  0.1108
  C  C306  1  0.458400  0.422600  0.832600  1.0  -0.2217
  C  C307  1  0.397900  0.420500  0.853000  1.0  0.1534
  C  C308  1  0.328700  0.791100  0.383600  1.0  0.147
  C  C309  1  0.320300  0.752800  0.320800  1.0  -0.176
  C  C310  1  0.304100  0.778000  0.251300  1.0  0.0802
  C  C311  1  0.296400  0.843500  0.248500  1.0  -0.202
  C  C312  1  0.303800  0.877500  0.312600  1.0  0.1825
  C  C313  1  0.307700  0.649200  0.108900  1.0  0.1821
  C  C314  1  0.326300  0.686600  0.171200  1.0  -0.2235
  C  C315  1  0.290600  0.739000  0.182900  1.0  0.0911
  C  C316  1  0.239300  0.752500  0.131000  1.0  -0.2023
  C  C317  1  0.224300  0.712400  0.071500  1.0  0.1576
  C  C318  1  0.640700  0.988000  0.776000  1.0  0.1724
  C  C319  1  0.586500  0.983300  0.727500  1.0  -0.2158
  C  C320  1  0.578300  0.933300  0.678700  1.0  0.0913
  C  C321  1  0.627600  0.889800  0.680900  1.0  -0.2077
  C  C322  1  0.680100  0.898500  0.732200  1.0  0.171
  C  C323  1  0.430400  0.970700  0.551000  1.0  0.1602
  C  C324  1  0.485800  0.978400  0.598200  1.0  -0.2049
  C  C325  1  0.520200  0.926700  0.624700  1.0  0.0804
  C  C326  1  0.497300  0.869600  0.599000  1.0  -0.2216
  C  C327  1  0.441900  0.865700  0.552800  1.0  0.1679
  C  C328  1  0.856400  0.963800  0.742700  1.0  0.1495
  C  C329  1  0.915700  0.965600  0.718000  1.0  -0.1514
  C  C330  1  0.967900  0.944500  0.762400  1.0  0.1108
  C  C331  1  0.958400  0.922600  0.832600  1.0  -0.2217
  C  C332  1  0.897900  0.920500  0.853000  1.0  0.1534
  C  C333  1  0.828700  0.291100  0.383600  1.0  0.147
  C  C334  1  0.820300  0.252800  0.320800  1.0  -0.176
  C  C335  1  0.804100  0.278000  0.251300  1.0  0.0802
  C  C336  1  0.796400  0.343500  0.248500  1.0  -0.202
  C  C337  1  0.803800  0.377500  0.312600  1.0  0.1825
  C  C338  1  0.807700  0.149200  0.108900  1.0  0.1821
  C  C339  1  0.826300  0.186600  0.171200  1.0  -0.2235
  C  C340  1  0.790600  0.239000  0.182900  1.0  0.0911
  C  C341  1  0.739300  0.252500  0.131000  1.0  -0.2023
  C  C342  1  0.724300  0.212400  0.071500  1.0  0.1576
  C  C343  1  0.859300  0.488000  0.724000  1.0  0.1723
  C  C344  1  0.913500  0.483300  0.772500  1.0  -0.2158
  C  C345  1  0.921700  0.433300  0.821300  1.0  0.0911
  C  C346  1  0.872400  0.389800  0.819100  1.0  -0.2072
  C  C347  1  0.819900  0.398500  0.767800  1.0  0.169
  C  C348  1  0.069600  0.470700  0.949000  1.0  0.1596
  C  C349  1  0.014200  0.478400  0.901800  1.0  -0.2058
  C  C350  1  0.979800  0.426700  0.875300  1.0  0.0813
  C  C351  1  0.002700  0.369600  0.901000  1.0  -0.2207
  C  C352  1  0.058100  0.365700  0.947200  1.0  0.1669
  C  C353  1  0.643600  0.463800  0.757300  1.0  0.1493
  C  C354  1  0.584300  0.465600  0.782000  1.0  -0.1523
  C  C355  1  0.532100  0.444500  0.737600  1.0  0.1102
  C  C356  1  0.541600  0.422600  0.667400  1.0  -0.2208
  C  C357  1  0.602100  0.420500  0.647000  1.0  0.1568
  C  C358  1  0.671300  0.791100  0.116400  1.0  0.1472
  C  C359  1  0.679700  0.752800  0.179200  1.0  -0.1757
  C  C360  1  0.695900  0.778000  0.248700  1.0  0.0807
  C  C361  1  0.703600  0.843500  0.251500  1.0  -0.2021
  C  C362  1  0.696200  0.877500  0.187400  1.0  0.1808
  C  C363  1  0.692300  0.649200  0.391100  1.0  0.1818
  C  C364  1  0.673700  0.686600  0.328800  1.0  -0.2258
  C  C365  1  0.709400  0.739000  0.317100  1.0  0.0913
  C  C366  1  0.760700  0.752500  0.369000  1.0  -0.2028
  C  C367  1  0.775700  0.712400  0.428500  1.0  0.1579
  C  C368  1  0.359300  0.988000  0.724000  1.0  0.1723
  C  C369  1  0.413500  0.983300  0.772500  1.0  -0.2158
  C  C370  1  0.421700  0.933300  0.821300  1.0  0.0911
  C  C371  1  0.372400  0.889800  0.819100  1.0  -0.2072
  C  C372  1  0.319900  0.898500  0.767800  1.0  0.169
  C  C373  1  0.569600  0.970700  0.949000  1.0  0.1596
  C  C374  1  0.514200  0.978400  0.901800  1.0  -0.2058
  C  C375  1  0.479800  0.926700  0.875300  1.0  0.0813
  C  C376  1  0.502700  0.869600  0.901000  1.0  -0.2207
  C  C377  1  0.558100  0.865700  0.947200  1.0  0.1669
  C  C378  1  0.143600  0.963800  0.757300  1.0  0.1493
  C  C379  1  0.084300  0.965600  0.782000  1.0  -0.1523
  C  C380  1  0.032100  0.944500  0.737600  1.0  0.1102
  C  C381  1  0.041600  0.922600  0.667400  1.0  -0.2208
  C  C382  1  0.102100  0.920500  0.647000  1.0  0.1568
  C  C383  1  0.171300  0.291100  0.116400  1.0  0.1472
  C  C384  1  0.179700  0.252800  0.179200  1.0  -0.1757
  C  C385  1  0.195900  0.278000  0.248700  1.0  0.0807
  C  C386  1  0.203600  0.343500  0.251500  1.0  -0.2021
  C  C387  1  0.196200  0.377500  0.187400  1.0  0.1808
  C  C388  1  0.192300  0.149200  0.391100  1.0  0.1818
  C  C389  1  0.173700  0.186600  0.328800  1.0  -0.2258
  C  C390  1  0.209400  0.239000  0.317100  1.0  0.0913
  C  C391  1  0.260700  0.252500  0.369000  1.0  -0.2028
  C  C392  1  0.275700  0.212400  0.428500  1.0  0.1579
  S  S393  1  0.715500  0.448410  0.089810  1.0  -0.4341
  S  S394  1  0.740220  0.615100  0.045080  1.0  -0.5157
  S  S395  1  0.789940  0.490480  0.924190  1.0  -0.4546
  S  S396  1  0.215500  0.948410  0.089810  1.0  -0.4341
  S  S397  1  0.240220  0.115100  0.045080  1.0  -0.5157
  S  S398  1  0.289940  0.990480  0.924190  1.0  -0.4546
  S  S399  1  0.284500  0.448410  0.410190  1.0  -0.4319
  S  S400  1  0.259780  0.615100  0.454920  1.0  -0.5147
  S  S401  1  0.210060  0.490480  0.575810  1.0  -0.453
  S  S402  1  0.784500  0.948410  0.410190  1.0  -0.4319
  S  S403  1  0.759780  0.115100  0.454920  1.0  -0.5147
  S  S404  1  0.710060  0.990480  0.575810  1.0  -0.453
  S  S405  1  0.284500  0.551590  0.910190  1.0  -0.4318
  S  S406  1  0.259780  0.384900  0.954920  1.0  -0.515
  S  S407  1  0.210060  0.509520  0.075810  1.0  -0.4525
  S  S408  1  0.784500  0.051590  0.910190  1.0  -0.4318
  S  S409  1  0.759780  0.884900  0.954920  1.0  -0.515
  S  S410  1  0.710060  0.009520  0.075810  1.0  -0.4525
  S  S411  1  0.715500  0.551590  0.589810  1.0  -0.4344
  S  S412  1  0.740220  0.384900  0.545080  1.0  -0.5155
  S  S413  1  0.789940  0.509520  0.424190  1.0  -0.4544
  S  S414  1  0.215500  0.051590  0.589810  1.0  -0.4344
  S  S415  1  0.240220  0.884900  0.545080  1.0  -0.5155
  S  S416  1  0.289940  0.009520  0.424190  1.0  -0.4544
  Br  Br417  1  0.881510  0.364400  0.069870  1.0  -0.4817
  Br  Br418  1  0.381510  0.864400  0.069870  1.0  -0.4817
  Br  Br419  1  0.118490  0.364400  0.430130  1.0  -0.4835
  Br  Br420  1  0.618490  0.864400  0.430130  1.0  -0.4835
  Br  Br421  1  0.118490  0.635600  0.930130  1.0  -0.4847
  Br  Br422  1  0.618490  0.135600  0.930130  1.0  -0.4847
  Br  Br423  1  0.881510  0.635600  0.569870  1.0  -0.4829
  Br  Br424  1  0.381510  0.135600  0.569870  1.0  -0.4829
  N  N425  1  0.811800  0.553400  0.219700  1.0  -0.3151
  N  N426  1  0.092600  0.584800  0.471200  1.0  -0.2977
  N  N427  1  0.652700  0.559000  0.190000  1.0  -0.3304
  N  N428  1  0.681100  0.147200  0.619700  1.0  -0.3105
  N  N429  1  0.742800  0.339000  0.939900  1.0  -0.3292
  N  N430  1  0.311800  0.053400  0.219700  1.0  -0.3151
  N  N431  1  0.592600  0.084800  0.471200  1.0  -0.2977
  N  N432  1  0.152700  0.059000  0.190000  1.0  -0.3304
  N  N433  1  0.181100  0.647200  0.619700  1.0  -0.3105
  N  N434  1  0.242800  0.839000  0.939900  1.0  -0.3292
  N  N435  1  0.188200  0.553400  0.280300  1.0  -0.3114
  N  N436  1  0.907400  0.584800  0.028800  1.0  -0.2974
  N  N437  1  0.347300  0.559000  0.310000  1.0  -0.3304
  N  N438  1  0.318900  0.147200  0.880300  1.0  -0.3072
  N  N439  1  0.257200  0.339000  0.560100  1.0  -0.331
  N  N440  1  0.688200  0.053400  0.280300  1.0  -0.3114
  N  N441  1  0.407400  0.084800  0.028800  1.0  -0.2974
  N  N442  1  0.847300  0.059000  0.310000  1.0  -0.3304
  N  N443  1  0.818900  0.647200  0.880300  1.0  -0.3072
  N  N444  1  0.757200  0.839000  0.560100  1.0  -0.331
  N  N445  1  0.188200  0.446600  0.780300  1.0  -0.3115
  N  N446  1  0.907400  0.415200  0.528800  1.0  -0.2999
  N  N447  1  0.347300  0.441000  0.810000  1.0  -0.33
  N  N448  1  0.318900  0.852800  0.380300  1.0  -0.3074
  N  N449  1  0.257200  0.661000  0.060100  1.0  -0.3331
  N  N450  1  0.688200  0.946600  0.780300  1.0  -0.3115
  N  N451  1  0.407400  0.915200  0.528800  1.0  -0.2999
  N  N452  1  0.847300  0.941000  0.810000  1.0  -0.33
  N  N453  1  0.818900  0.352800  0.380300  1.0  -0.3074
  N  N454  1  0.757200  0.161000  0.060100  1.0  -0.3331
  N  N455  1  0.811800  0.446600  0.719700  1.0  -0.315
  N  N456  1  0.092600  0.415200  0.971200  1.0  -0.2988
  N  N457  1  0.652700  0.441000  0.690000  1.0  -0.3309
  N  N458  1  0.681100  0.852800  0.119700  1.0  -0.3085
  N  N459  1  0.742800  0.661000  0.439900  1.0  -0.3297
  N  N460  1  0.311800  0.946600  0.719700  1.0  -0.315
  N  N461  1  0.592600  0.915200  0.971200  1.0  -0.2988
  N  N462  1  0.152700  0.941000  0.690000  1.0  -0.3309
  N  N463  1  0.181100  0.352800  0.119700  1.0  -0.3085
  N  N464  1  0.242800  0.161000  0.439900  1.0  -0.3297
