# generated using pymatgen
data_Cu3MoH20C26(S2N3)2
_symmetry_space_group_name_H-M   'P 1'
_cell_length_a   9.70080000
_cell_length_b   20.86750000
_cell_length_c   24.75000000
_cell_angle_alpha   104.53100000
_cell_angle_beta   90.00000000
_cell_angle_gamma   103.44100000
_symmetry_Int_Tables_number   1
_chemical_formula_structural   Cu3MoH20C26(S2N3)2
_chemical_formula_sum   'Cu12 Mo4 H80 C104 S16 N24'
_cell_volume   4708.01387040
_cell_formula_units_Z   4
loop_
 _symmetry_equiv_pos_site_id
 _symmetry_equiv_pos_as_xyz
  1  'x, y, z'
loop_
 _atom_site_type_symbol
 _atom_site_label
 _atom_site_symmetry_multiplicity
 _atom_site_fract_x
 _atom_site_fract_y
 _atom_site_fract_z
 _atom_site_occupancy
 _atom_site_charge
  Cu  Cu1  1  0.252050  0.785480  0.010490  1.0  0.3449
  Cu  Cu2  1  0.564500  0.710340  0.961810  1.0  0.3443
  Cu  Cu3  1  0.474270  0.738520  0.108280  1.0  0.3356
  Cu  Cu4  1  0.466570  0.214520  0.489510  1.0  0.3445
  Cu  Cu5  1  0.854160  0.289660  0.538190  1.0  0.3435
  Cu  Cu6  1  0.735750  0.261480  0.391720  1.0  0.3356
  Cu  Cu7  1  0.747950  0.214520  0.989510  1.0  0.3441
  Cu  Cu8  1  0.435500  0.289660  0.038190  1.0  0.3435
  Cu  Cu9  1  0.525730  0.261480  0.891720  1.0  0.3355
  Cu  Cu10  1  0.533430  0.785480  0.510490  1.0  0.3447
  Cu  Cu11  1  0.145840  0.710340  0.461810  1.0  0.3439
  Cu  Cu12  1  0.264250  0.738520  0.608280  1.0  0.3354
  Mo  Mo13  1  0.530970  0.821100  0.040040  1.0  0.506
  Mo  Mo14  1  0.709870  0.178900  0.459960  1.0  0.5063
  Mo  Mo15  1  0.469030  0.178900  0.959960  1.0  0.5061
  Mo  Mo16  1  0.290130  0.821100  0.540040  1.0  0.5056
  H  H17  1  0.959300  0.714600  0.039100  1.0  0.0773
  H  H18  1  0.806500  0.609600  0.018700  1.0  0.1188
  H  H19  1  0.064600  0.547800  0.901800  1.0  0.1106
  H  H20  1  0.212500  0.652800  0.928200  1.0  0.0804
  H  H21  1  0.512500  0.406600  0.950900  1.0  0.0771
  H  H22  1  0.643200  0.515600  0.972300  1.0  0.1182
  H  H23  1  0.977200  0.443000  0.910500  1.0  0.1275
  H  H24  1  0.828900  0.336200  0.890700  1.0  0.0744
  H  H25  1  0.985100  0.837800  0.043700  1.0  0.0719
  H  H26  1  0.890500  0.926200  0.045900  1.0  0.12
  H  H27  1  0.179500  0.986400  0.946900  1.0  0.1189
  H  H28  1  0.282000  0.899200  0.952900  1.0  0.078
  H  H29  1  0.764600  0.820000  0.916000  1.0  0.0704
  H  H30  1  0.927000  0.831000  0.849900  1.0  0.1268
  H  H31  1  0.905900  0.632000  0.822400  1.0  0.1258
  H  H32  1  0.739700  0.627800  0.887700  1.0  0.0717
  H  H33  1  0.263800  0.830800  0.726200  1.0  0.0846
  H  H34  1  0.144600  0.831600  0.804400  1.0  0.1129
  H  H35  1  0.948700  0.637800  0.736700  1.0  0.1117
  H  H36  1  0.095100  0.640400  0.662500  1.0  0.0783
  H  H37  1  0.244700  0.285400  0.460900  1.0  0.0767
  H  H38  1  0.196900  0.390400  0.481300  1.0  0.1183
  H  H39  1  0.516800  0.452200  0.598200  1.0  0.1109
  H  H40  1  0.559700  0.347200  0.571800  1.0  0.0804
  H  H41  1  0.105900  0.593400  0.549100  1.0  0.077
  H  H42  1  0.127600  0.484400  0.527700  1.0  0.1177
  H  H43  1  0.534200  0.557000  0.589500  1.0  0.1269
  H  H44  1  0.492700  0.663800  0.609300  1.0  0.0737
  H  H45  1  0.147300  0.162200  0.456300  1.0  0.0713
  H  H46  1  0.964300  0.073800  0.454100  1.0  0.1196
  H  H47  1  0.193100  0.013600  0.553100  1.0  0.118
  H  H48  1  0.382800  0.100800  0.547100  1.0  0.0786
  H  H49  1  0.944600  0.180000  0.584000  1.0  0.0703
  H  H50  1  0.096000  0.169000  0.650100  1.0  0.1275
  H  H51  1  0.273900  0.368000  0.677600  1.0  0.1264
  H  H52  1  0.111900  0.372200  0.612300  1.0  0.0727
  H  H53  1  0.433000  0.169200  0.773800  1.0  0.084
  H  H54  1  0.313000  0.168400  0.695600  1.0  0.1133
  H  H55  1  0.310900  0.362200  0.763300  1.0  0.1123
  H  H56  1  0.454700  0.359600  0.837500  1.0  0.0787
  H  H57  1  0.040700  0.285400  0.960900  1.0  0.0767
  H  H58  1  0.193500  0.390400  0.981300  1.0  0.1186
  H  H59  1  0.935400  0.452200  0.098200  1.0  0.1109
  H  H60  1  0.787500  0.347200  0.071800  1.0  0.0803
  H  H61  1  0.487500  0.593400  0.049100  1.0  0.0761
  H  H62  1  0.356800  0.484400  0.027700  1.0  0.118
  H  H63  1  0.022800  0.557000  0.089500  1.0  0.1287
  H  H64  1  0.171100  0.663800  0.109300  1.0  0.0739
  H  H65  1  0.014900  0.162200  0.956300  1.0  0.0712
  H  H66  1  0.109500  0.073800  0.954100  1.0  0.1189
  H  H67  1  0.820500  0.013600  0.053100  1.0  0.1188
  H  H68  1  0.718000  0.100800  0.047100  1.0  0.0788
  H  H69  1  0.235400  0.180000  0.084000  1.0  0.0704
  H  H70  1  0.073000  0.169000  0.150100  1.0  0.1273
  H  H71  1  0.094100  0.368000  0.177600  1.0  0.1264
  H  H72  1  0.260300  0.372200  0.112300  1.0  0.0724
  H  H73  1  0.736200  0.169200  0.273800  1.0  0.0843
  H  H74  1  0.855400  0.168400  0.195600  1.0  0.1132
  H  H75  1  0.051300  0.362200  0.263300  1.0  0.1123
  H  H76  1  0.904900  0.359600  0.337500  1.0  0.0784
  H  H77  1  0.755300  0.714600  0.539100  1.0  0.0774
  H  H78  1  0.803100  0.609600  0.518700  1.0  0.1191
  H  H79  1  0.483200  0.547800  0.401800  1.0  0.1097
  H  H80  1  0.440300  0.652800  0.428200  1.0  0.0804
  H  H81  1  0.894100  0.406600  0.450900  1.0  0.0767
  H  H82  1  0.872400  0.515600  0.472300  1.0  0.1181
  H  H83  1  0.465800  0.443000  0.410500  1.0  0.1276
  H  H84  1  0.507300  0.336200  0.390700  1.0  0.0745
  H  H85  1  0.852700  0.837800  0.543700  1.0  0.0715
  H  H86  1  0.035700  0.926200  0.545900  1.0  0.1211
  H  H87  1  0.806900  0.986400  0.446900  1.0  0.1184
  H  H88  1  0.617200  0.899200  0.452900  1.0  0.0781
  H  H89  1  0.055400  0.820000  0.416000  1.0  0.0702
  H  H90  1  0.904000  0.831000  0.349900  1.0  0.127
  H  H91  1  0.726100  0.632000  0.322400  1.0  0.1254
  H  H92  1  0.888100  0.627800  0.387700  1.0  0.0716
  H  H93  1  0.567000  0.830800  0.226200  1.0  0.0846
  H  H94  1  0.687000  0.831600  0.304400  1.0  0.1128
  H  H95  1  0.689100  0.637800  0.236700  1.0  0.1118
  H  H96  1  0.545300  0.640400  0.162500  1.0  0.0787
  C  C97  1  0.982860  0.679720  0.012000  1.0  0.1591
  C  C98  1  0.889540  0.616480  0.999900  1.0  -0.2144
  C  C99  1  0.920400  0.563400  0.959600  1.0  0.1102
  C  C100  1  0.042620  0.580440  0.931500  1.0  -0.1946
  C  C101  1  0.129930  0.643860  0.946900  1.0  0.1645
  C  C102  1  0.607100  0.414600  0.942000  1.0  0.1732
  C  C103  1  0.684970  0.480340  0.955500  1.0  -0.2059
  C  C104  1  0.827560  0.494120  0.944000  1.0  0.0912
  C  C105  1  0.882240  0.437280  0.918900  1.0  -0.1879
  C  C106  1  0.791660  0.373320  0.907000  1.0  0.1762
  C  C107  1  0.031220  0.870040  0.025500  1.0  0.1914
  C  C108  1  0.971520  0.922440  0.026500  1.0  -0.2154
  C  C109  1  0.029560  0.968720  0.999400  1.0  0.0334
  C  C110  1  0.141900  0.958000  0.969500  1.0  -0.1796
  C  C111  1  0.201500  0.904200  0.972300  1.0  0.1284
  C  C112  1  0.792700  0.781400  0.896500  1.0  0.179
  C  C113  1  0.890550  0.788700  0.856700  1.0  -0.2219
  C  C114  1  0.933520  0.731440  0.826900  1.0  0.1215
  C  C115  1  0.877700  0.671400  0.840200  1.0  -0.2569
  C  C116  1  0.779000  0.669600  0.880200  1.0  0.1811
  C  C117  1  0.200000  0.790800  0.728100  1.0  0.1644
  C  C118  1  0.127130  0.792060  0.775300  1.0  -0.2244
  C  C119  1  0.025880  0.733960  0.780300  1.0  0.0404
  C  C120  1  0.014200  0.678200  0.736400  1.0  -0.1548
  C  C121  1  0.100200  0.680600  0.690200  1.0  0.1552
  C  C122  1  0.411400  0.556200  0.913400  1.0  0.2772
  C  C123  1  0.303140  0.320280  0.488000  1.0  0.1594
  C  C124  1  0.273060  0.383520  0.500100  1.0  -0.2144
  C  C125  1  0.357000  0.436600  0.540400  1.0  0.1112
  C  C126  1  0.462180  0.419560  0.568500  1.0  -0.192
  C  C127  1  0.486070  0.356140  0.553100  1.0  0.1647
  C  C128  1  0.192500  0.585400  0.558000  1.0  0.1727
  C  C129  1  0.204630  0.519660  0.544500  1.0  -0.2066
  C  C130  1  0.333440  0.505880  0.556000  1.0  0.0902
  C  C131  1  0.444960  0.562720  0.581100  1.0  -0.189
  C  C132  1  0.418340  0.626680  0.593000  1.0  0.1777
  C  C133  1  0.161180  0.129960  0.474500  1.0  0.1908
  C  C134  1  0.049080  0.077560  0.473500  1.0  -0.2161
  C  C135  1  0.060840  0.031280  0.500600  1.0  0.0333
  C  C136  1  0.183900  0.042000  0.530500  1.0  -0.1793
  C  C137  1  0.297300  0.095800  0.527700  1.0  0.1287
  C  C138  1  0.011300  0.218600  0.603500  1.0  0.1791
  C  C139  1  0.101850  0.211300  0.643300  1.0  -0.2225
  C  C140  1  0.202080  0.268560  0.673100  1.0  0.1221
  C  C141  1  0.206300  0.328600  0.659800  1.0  -0.2575
  C  C142  1  0.109400  0.330400  0.619800  1.0  0.1802
  C  C143  1  0.409200  0.209200  0.771900  1.0  0.1639
  C  C144  1  0.335070  0.207940  0.724700  1.0  -0.2238
  C  C145  1  0.291920  0.266040  0.719700  1.0  0.0394
  C  C146  1  0.336000  0.321800  0.763600  1.0  -0.1558
  C  C147  1  0.419600  0.319400  0.809800  1.0  0.1546
  C  C148  1  0.855200  0.443800  0.586600  1.0  0.273
  C  C149  1  0.017140  0.320280  0.988000  1.0  0.159
  C  C150  1  0.110460  0.383520  0.000100  1.0  -0.2162
  C  C151  1  0.079600  0.436600  0.040400  1.0  0.1113
  C  C152  1  0.957380  0.419560  0.068500  1.0  -0.1915
  C  C153  1  0.870070  0.356140  0.053100  1.0  0.1657
  C  C154  1  0.392900  0.585400  0.058000  1.0  0.1724
  C  C155  1  0.315030  0.519660  0.044500  1.0  -0.2067
  C  C156  1  0.172440  0.505880  0.056000  1.0  0.0907
  C  C157  1  0.117760  0.562720  0.081100  1.0  -0.1915
  C  C158  1  0.208340  0.626680  0.093000  1.0  0.1765
  C  C159  1  0.968780  0.129960  0.974500  1.0  0.19
  C  C160  1  0.028480  0.077560  0.973500  1.0  -0.2167
  C  C161  1  0.970440  0.031280  0.000600  1.0  0.0338
  C  C162  1  0.858100  0.042000  0.030500  1.0  -0.182
  C  C163  1  0.798500  0.095800  0.027700  1.0  0.1307
  C  C164  1  0.207300  0.218600  0.103500  1.0  0.1791
  C  C165  1  0.109450  0.211300  0.143300  1.0  -0.2219
  C  C166  1  0.066480  0.268560  0.173100  1.0  0.1225
  C  C167  1  0.122300  0.328600  0.159800  1.0  -0.2573
  C  C168  1  0.221000  0.330400  0.119800  1.0  0.1808
  C  C169  1  0.800000  0.209200  0.271900  1.0  0.1629
  C  C170  1  0.872870  0.207940  0.224700  1.0  -0.2233
  C  C171  1  0.974120  0.266040  0.219700  1.0  0.0393
  C  C172  1  0.985800  0.321800  0.263600  1.0  -0.1559
  C  C173  1  0.899800  0.319400  0.309800  1.0  0.1538
  C  C174  1  0.588600  0.443800  0.086600  1.0  0.2732
  C  C175  1  0.696860  0.679720  0.512000  1.0  0.1597
  C  C176  1  0.726940  0.616480  0.499900  1.0  -0.2165
  C  C177  1  0.643000  0.563400  0.459600  1.0  0.1104
  C  C178  1  0.537820  0.580440  0.431500  1.0  -0.1927
  C  C179  1  0.513930  0.643860  0.446900  1.0  0.1655
  C  C180  1  0.807500  0.414600  0.442000  1.0  0.1726
  C  C181  1  0.795370  0.480340  0.455500  1.0  -0.2061
  C  C182  1  0.666560  0.494120  0.444000  1.0  0.0918
  C  C183  1  0.555040  0.437280  0.418900  1.0  -0.1876
  C  C184  1  0.581660  0.373320  0.407000  1.0  0.1769
  C  C185  1  0.838820  0.870040  0.525500  1.0  0.1908
  C  C186  1  0.950920  0.922440  0.526500  1.0  -0.2147
  C  C187  1  0.939160  0.968720  0.499400  1.0  0.034
  C  C188  1  0.816100  0.958000  0.469500  1.0  -0.1822
  C  C189  1  0.702700  0.904200  0.472300  1.0  0.1294
  C  C190  1  0.988700  0.781400  0.396500  1.0  0.1798
  C  C191  1  0.898150  0.788700  0.356700  1.0  -0.2217
  C  C192  1  0.797920  0.731440  0.326900  1.0  0.1215
  C  C193  1  0.793700  0.671400  0.340200  1.0  -0.2571
  C  C194  1  0.890600  0.669600  0.380200  1.0  0.1812
  C  C195  1  0.590800  0.790800  0.228100  1.0  0.1642
  C  C196  1  0.664930  0.792060  0.275300  1.0  -0.2239
  C  C197  1  0.708080  0.733960  0.280300  1.0  0.0402
  C  C198  1  0.664000  0.678200  0.236400  1.0  -0.1545
  C  C199  1  0.580400  0.680600  0.190200  1.0  0.1542
  C  C200  1  0.144800  0.556200  0.413400  1.0  0.2771
  S  S201  1  0.433040  0.785340  0.951460  1.0  -0.4029
  S  S202  1  0.659940  0.747400  0.051450  1.0  -0.4299
  S  S203  1  0.352300  0.815720  0.099390  1.0  -0.5054
  S  S204  1  0.319090  0.478180  0.888750  1.0  -0.3083
  S  S205  1  0.647700  0.214660  0.548540  1.0  -0.405
  S  S206  1  0.912540  0.252600  0.448550  1.0  -0.4303
  S  S207  1  0.536580  0.184280  0.400610  1.0  -0.5058
  S  S208  1  0.840910  0.521820  0.611250  1.0  -0.3079
  S  S209  1  0.566960  0.214660  0.048540  1.0  -0.4061
  S  S210  1  0.340060  0.252600  0.948550  1.0  -0.431
  S  S211  1  0.647700  0.184280  0.900610  1.0  -0.5056
  S  S212  1  0.680910  0.521820  0.111250  1.0  -0.3072
  S  S213  1  0.352300  0.785340  0.451460  1.0  -0.4035
  S  S214  1  0.087460  0.747400  0.551450  1.0  -0.4307
  S  S215  1  0.463420  0.815720  0.599390  1.0  -0.5045
  S  S216  1  0.159090  0.478180  0.388750  1.0  -0.3079
  N  N217  1  0.103170  0.694540  0.987900  1.0  -0.2962
  N  N218  1  0.656080  0.361160  0.917000  1.0  -0.3277
  N  N219  1  0.148500  0.859600  0.001500  1.0  -0.3216
  N  N220  1  0.736710  0.723620  0.908800  1.0  -0.3073
  N  N221  1  0.187250  0.737500  0.685000  1.0  -0.3351
  N  N222  1  0.478910  0.610220  0.930500  1.0  -0.5367
  N  N223  1  0.408630  0.305460  0.512100  1.0  -0.2953
  N  N224  1  0.294920  0.638840  0.583000  1.0  -0.3252
  N  N225  1  0.288900  0.140400  0.498500  1.0  -0.3229
  N  N226  1  0.013090  0.276380  0.591200  1.0  -0.308
  N  N227  1  0.449750  0.262500  0.815000  1.0  -0.3339
  N  N228  1  0.868690  0.389780  0.569500  1.0  -0.5344
  N  N229  1  0.896830  0.305460  0.012100  1.0  -0.2985
  N  N230  1  0.343920  0.638840  0.083000  1.0  -0.3258
  N  N231  1  0.851500  0.140400  0.998500  1.0  -0.3219
  N  N232  1  0.263290  0.276380  0.091200  1.0  -0.3094
  N  N233  1  0.812750  0.262500  0.315000  1.0  -0.3351
  N  N234  1  0.521090  0.389780  0.069500  1.0  -0.5349
  N  N235  1  0.591370  0.694540  0.487900  1.0  -0.2966
  N  N236  1  0.705080  0.361160  0.417000  1.0  -0.3263
  N  N237  1  0.711100  0.859600  0.501500  1.0  -0.3219
  N  N238  1  0.986910  0.723620  0.408800  1.0  -0.3066
  N  N239  1  0.550250  0.737500  0.185000  1.0  -0.3354
  N  N240  1  0.131310  0.610220  0.430500  1.0  -0.5363
