# generated using pymatgen
data_Ag7H20(C6N5)5
_symmetry_space_group_name_H-M   'P 1'
_cell_length_a   12.06800000
_cell_length_b   13.90900000
_cell_length_c   22.74200000
_cell_angle_alpha   95.90200000
_cell_angle_beta   104.96400000
_cell_angle_gamma   103.97000000
_symmetry_Int_Tables_number   1
_chemical_formula_structural   Ag7H20(C6N5)5
_chemical_formula_sum   'Ag14 H40 C60 N50'
_cell_volume   3522.82561560
_cell_formula_units_Z   2
loop_
 _symmetry_equiv_pos_site_id
 _symmetry_equiv_pos_as_xyz
  1  'x, y, z'
loop_
 _atom_site_type_symbol
 _atom_site_label
 _atom_site_symmetry_multiplicity
 _atom_site_fract_x
 _atom_site_fract_y
 _atom_site_fract_z
 _atom_site_occupancy
 _atom_site_charge
  Ag  Ag1  1  0.311300  0.832250  0.933530  1.0  0.1803
  Ag  Ag2  1  0.512640  0.942780  0.079470  1.0  0.2513
  Ag  Ag3  1  0.817360  0.575720  0.440310  1.0  0.2517
  Ag  Ag4  1  0.143280  0.016340  0.854130  1.0  0.1225
  Ag  Ag5  1  0.970150  0.157060  0.300070  1.0  0.298
  Ag  Ag6  1  0.397420  0.121210  0.172980  1.0  0.3587
  Ag  Ag7  1  0.846070  0.339040  0.003320  1.0  0.1955
  Ag  Ag8  1  0.688700  0.167750  0.066470  1.0  0.179
  Ag  Ag9  1  0.487360  0.057220  0.920530  1.0  0.2485
  Ag  Ag10  1  0.182640  0.424280  0.559690  1.0  0.2517
  Ag  Ag11  1  0.856720  0.983660  0.145870  1.0  0.1182
  Ag  Ag12  1  0.029850  0.842940  0.699930  1.0  0.2987
  Ag  Ag13  1  0.602580  0.878790  0.827020  1.0  0.3589
  Ag  Ag14  1  0.153930  0.660960  0.996680  1.0  0.1955
  H  H15  1  0.290900  0.068900  0.495700  1.0  0.0922
  H  H16  1  0.801600  0.219100  0.361200  1.0  0.0925
  H  H17  1  0.058900  0.017500  0.631400  1.0  0.1185
  H  H18  1  0.604000  0.331700  0.235800  1.0  0.0945
  H  H19  1  0.087600  0.331500  0.081200  1.0  0.0584
  H  H20  1  0.430500  0.768700  0.603100  1.0  0.1025
  H  H21  1  0.653300  0.626300  0.564600  1.0  0.0868
  H  H22  1  0.654700  0.479500  0.303500  1.0  0.113
  H  H23  1  0.557400  0.837300  0.696600  1.0  0.0912
  H  H24  1  0.799600  0.710200  0.656200  1.0  0.1127
  H  H25  1  0.227300  0.247900  0.091000  1.0  0.1148
  H  H26  1  0.862600  0.140500  0.944300  1.0  0.0721
  H  H27  1  0.859100  0.367100  0.427100  1.0  0.0871
  H  H28  1  0.995500  0.049200  0.940300  1.0  0.1197
  H  H29  1  0.150300  0.913600  0.486500  1.0  0.0994
  H  H30  1  0.201500  0.177500  0.636600  1.0  0.0943
  H  H31  1  0.538600  0.520300  0.911600  1.0  0.0811
  H  H32  1  0.744200  0.646600  0.080600  1.0  0.1287
  H  H33  1  0.615500  0.386600  0.913900  1.0  0.1158
  H  H34  1  0.836700  0.522300  0.073500  1.0  0.0934
  H  H35  1  0.709100  0.931100  0.504300  1.0  0.0932
  H  H36  1  0.198400  0.780900  0.638800  1.0  0.0931
  H  H37  1  0.941100  0.982500  0.368600  1.0  0.1174
  H  H38  1  0.396000  0.668300  0.764200  1.0  0.0948
  H  H39  1  0.912400  0.668500  0.918800  1.0  0.0581
  H  H40  1  0.569500  0.231300  0.396900  1.0  0.1028
  H  H41  1  0.346700  0.373700  0.435400  1.0  0.0877
  H  H42  1  0.345300  0.520500  0.696500  1.0  0.1138
  H  H43  1  0.442600  0.162700  0.303400  1.0  0.0911
  H  H44  1  0.200400  0.289800  0.343800  1.0  0.1141
  H  H45  1  0.772700  0.752100  0.909000  1.0  0.1145
  H  H46  1  0.137400  0.859500  0.055700  1.0  0.0726
  H  H47  1  0.140900  0.632900  0.572900  1.0  0.0874
  H  H48  1  0.004500  0.950800  0.059700  1.0  0.119
  H  H49  1  0.849700  0.086400  0.513500  1.0  0.0999
  H  H50  1  0.798500  0.822500  0.363400  1.0  0.095
  H  H51  1  0.461400  0.479700  0.088400  1.0  0.0803
  H  H52  1  0.255800  0.353400  0.919400  1.0  0.1281
  H  H53  1  0.384500  0.613400  0.086100  1.0  0.1191
  H  H54  1  0.163300  0.477700  0.926500  1.0  0.0947
  C  C55  1  0.244000  0.059000  0.522600  1.0  0.166
  C  C56  1  0.773400  0.272100  0.348000  1.0  -0.1542
  C  C57  1  0.215200  0.080300  0.010100  1.0  0.2696
  C  C58  1  0.683100  0.173600  0.243100  1.0  0.2984
  C  C59  1  0.105000  0.027300  0.604100  1.0  -0.1137
  C  C60  1  0.657000  0.338000  0.274800  1.0  -0.0452
  C  C61  1  0.130900  0.139500  0.015500  1.0  -0.0824
  C  C62  1  0.070000  0.273000  0.052600  1.0  0.1647
  C  C63  1  0.504000  0.755000  0.614700  1.0  0.136
  C  C64  1  0.637000  0.672800  0.591200  1.0  0.1723
  C  C65  1  0.686000  0.427000  0.315600  1.0  0.0934
  C  C66  1  0.581900  0.799700  0.668700  1.0  -0.0535
  C  C67  1  0.725500  0.723100  0.646200  1.0  -0.1719
  C  C68  1  0.156000  0.225100  0.059200  1.0  -0.1698
  C  C69  1  0.938900  0.163100  0.972100  1.0  0.1442
  C  C70  1  0.700900  0.258700  0.288400  1.0  0.0517
  C  C71  1  0.805300  0.360400  0.388400  1.0  0.1323
  C  C72  1  0.098200  0.953000  0.557200  1.0  -0.0294
  C  C73  1  0.015800  0.848900  0.552100  1.0  0.314
  C  C74  1  0.016300  0.106700  0.970100  1.0  -0.1365
  C  C75  1  0.161000  0.966400  0.517900  1.0  -0.0573
  C  C76  1  0.190000  0.122000  0.606700  1.0  0.1276
  C  C77  1  0.700300  0.793200  0.686000  1.0  -0.0413
  C  C78  1  0.783500  0.841900  0.743800  1.0  0.3409
  C  C79  1  0.571000  0.677000  0.996400  1.0  0.397
  C  C80  1  0.628000  0.598000  0.994300  1.0  0.0135
  C  C81  1  0.597000  0.519700  0.947100  1.0  -0.0704
  C  C82  1  0.719000  0.597000  0.045400  1.0  -0.1947
  C  C83  1  0.645000  0.440100  0.947000  1.0  0.0769
  C  C84  1  0.770000  0.518000  0.040700  1.0  0.1628
  C  C85  1  0.756000  0.941000  0.477400  1.0  0.1706
  C  C86  1  0.226600  0.727900  0.652000  1.0  -0.1539
  C  C87  1  0.784800  0.919700  0.989900  1.0  0.2691
  C  C88  1  0.316900  0.826400  0.756900  1.0  0.2969
  C  C89  1  0.895000  0.972700  0.395900  1.0  -0.1139
  C  C90  1  0.343000  0.662000  0.725200  1.0  -0.0463
  C  C91  1  0.869100  0.860500  0.984500  1.0  -0.0837
  C  C92  1  0.930000  0.727000  0.947400  1.0  0.163
  C  C93  1  0.496000  0.245000  0.385300  1.0  0.1355
  C  C94  1  0.363000  0.327200  0.408800  1.0  0.1729
  C  C95  1  0.314000  0.573000  0.684400  1.0  0.0935
  C  C96  1  0.418100  0.200300  0.331300  1.0  -0.0528
  C  C97  1  0.274500  0.276900  0.353800  1.0  -0.1727
  C  C98  1  0.844000  0.774900  0.940800  1.0  -0.1706
  C  C99  1  0.061100  0.836900  0.027900  1.0  0.1456
  C  C100  1  0.299100  0.741300  0.711600  1.0  0.052
  C  C101  1  0.194700  0.639600  0.611600  1.0  0.1324
  C  C102  1  0.901800  0.047000  0.442800  1.0  -0.031
  C  C103  1  0.984200  0.151100  0.447900  1.0  0.3148
  C  C104  1  0.983700  0.893300  0.029900  1.0  -0.1353
  C  C105  1  0.839000  0.033600  0.482100  1.0  -0.0586
  C  C106  1  0.810000  0.878000  0.393300  1.0  0.1243
  C  C107  1  0.299700  0.206800  0.314000  1.0  -0.0426
  C  C108  1  0.216500  0.158100  0.256200  1.0  0.3412
  C  C109  1  0.429000  0.323000  0.003600  1.0  0.3973
  C  C110  1  0.372000  0.402000  0.005700  1.0  0.0127
  C  C111  1  0.403000  0.480300  0.052900  1.0  -0.0764
  C  C112  1  0.281000  0.403000  0.954600  1.0  -0.1943
  C  C113  1  0.355000  0.559900  0.053000  1.0  0.0794
  C  C114  1  0.230000  0.482000  0.959300  1.0  0.1604
  N  N115  1  0.531200  0.689900  0.576400  1.0  -0.4355
  N  N116  1  0.975900  0.789900  0.498000  1.0  -0.3477
  N  N117  1  0.904200  0.716400  0.569000  1.0  -0.349
  N  N118  1  0.253000  0.130000  0.565300  1.0  -0.4133
  N  N119  1  0.966000  0.248700  0.011800  1.0  -0.2857
  N  N120  1  0.525500  0.805000  0.027200  1.0  -0.0648
  N  N121  1  0.459000  0.767400  0.968300  1.0  0.002
  N  N122  1  0.727500  0.059400  0.189800  1.0  0.0007
  N  N123  1  0.619500  0.059100  0.164000  1.0  0.0003
  N  N124  1  0.775200  0.128200  0.241800  1.0  -0.3326
  N  N125  1  0.863100  0.928900  0.836100  1.0  -0.1515
  N  N126  1  0.307800  0.078900  0.057500  1.0  -0.2309
  N  N127  1  0.356500  0.010700  0.037600  1.0  -0.0933
  N  N128  1  0.948200  0.918500  0.811600  1.0  -0.0153
  N  N129  1  0.761400  0.438800  0.374200  1.0  -0.3394
  N  N130  1  0.589300  0.131200  0.195000  1.0  -0.2559
  N  N131  1  0.759700  0.883400  0.793600  1.0  -0.211
  N  N132  1  0.907300  0.709900  0.509500  1.0  -0.0934
  N  N133  1  0.301600  0.977700  0.979400  1.0  -0.0263
  N  N134  1  0.900900  0.862900  0.754000  1.0  -0.2966
  N  N135  1  0.207200  0.017500  0.961600  1.0  -0.2926
  N  N136  1  0.978100  0.807400  0.595500  1.0  -0.1827
  N  N137  1  0.602200  0.749800  0.045500  1.0  -0.3584
  N  N138  1  0.488200  0.688000  0.949300  1.0  -0.2833
  N  N139  1  0.740000  0.441100  0.997700  1.0  -0.3018
  N  N140  1  0.468800  0.310100  0.423600  1.0  -0.4359
  N  N141  1  0.024100  0.210100  0.502000  1.0  -0.3516
  N  N142  1  0.095800  0.283600  0.431000  1.0  -0.3516
  N  N143  1  0.747000  0.870000  0.434700  1.0  -0.4151
  N  N144  1  0.034000  0.751300  0.988200  1.0  -0.2848
  N  N145  1  0.474500  0.195000  0.972800  1.0  -0.0615
  N  N146  1  0.541000  0.232600  0.031700  1.0  -0.0008
  N  N147  1  0.272500  0.940600  0.810200  1.0  0.0022
  N  N148  1  0.380500  0.940900  0.836000  1.0  -0.0032
  N  N149  1  0.224800  0.871800  0.758200  1.0  -0.3305
  N  N150  1  0.136900  0.071100  0.163900  1.0  -0.1473
  N  N151  1  0.692200  0.921100  0.942500  1.0  -0.233
  N  N152  1  0.643500  0.989300  0.962400  1.0  -0.0934
  N  N153  1  0.051800  0.081500  0.188400  1.0  -0.0136
  N  N154  1  0.238600  0.561200  0.625800  1.0  -0.3371
  N  N155  1  0.410700  0.868800  0.805000  1.0  -0.2538
  N  N156  1  0.240300  0.116600  0.206400  1.0  -0.2117
  N  N157  1  0.092700  0.290100  0.490500  1.0  -0.0941
  N  N158  1  0.698400  0.022300  0.020600  1.0  -0.0289
  N  N159  1  0.099100  0.137100  0.246000  1.0  -0.2934
  N  N160  1  0.792800  0.982500  0.038400  1.0  -0.2939
  N  N161  1  0.021900  0.192600  0.404500  1.0  -0.1811
  N  N162  1  0.397800  0.250200  0.954500  1.0  -0.3605
  N  N163  1  0.511800  0.312000  0.050700  1.0  -0.2849
  N  N164  1  0.260000  0.558900  0.002300  1.0  -0.3066
