# generated using pymatgen
data_Co2PH(CO3)3
_symmetry_space_group_name_H-M   'P 1'
_cell_length_a   7.61460000
_cell_length_b   7.51440000
_cell_length_c   17.75000000
_cell_angle_alpha   90.00000000
_cell_angle_beta   97.35100000
_cell_angle_gamma   90.00000000
_symmetry_Int_Tables_number   1
_chemical_formula_structural   Co2PH(CO3)3
_chemical_formula_sum   'Co8 P4 H4 C12 O36'
_cell_volume   1007.29231863
_cell_formula_units_Z   4
loop_
 _symmetry_equiv_pos_site_id
 _symmetry_equiv_pos_as_xyz
  1  'x, y, z'
loop_
 _atom_site_type_symbol
 _atom_site_label
 _atom_site_symmetry_multiplicity
 _atom_site_fract_x
 _atom_site_fract_y
 _atom_site_fract_z
 _atom_site_occupancy
 _atom_site_charge
  Co  Co1  1  0.379270  0.442640  0.138090  1.0  1.0741
  Co  Co2  1  0.725320  0.680160  0.193380  1.0  1.0804
  Co  Co3  1  0.620730  0.942640  0.361910  1.0  1.0732
  Co  Co4  1  0.274680  0.180160  0.306620  1.0  1.0816
  Co  Co5  1  0.620730  0.557360  0.861910  1.0  1.0725
  Co  Co6  1  0.274680  0.319840  0.806620  1.0  1.0812
  Co  Co7  1  0.379270  0.057360  0.638090  1.0  1.074
  Co  Co8  1  0.725320  0.819840  0.693380  1.0  1.0804
  P  P9  1  0.550990  0.067590  0.188330  1.0  1.5246
  P  P10  1  0.449010  0.567590  0.311670  1.0  1.5201
  P  P11  1  0.449010  0.932410  0.811670  1.0  1.526
  P  P12  1  0.550990  0.432410  0.688330  1.0  1.5312
  H  H13  1  0.662800  0.132900  0.199100  1.0  0.1348
  H  H14  1  0.337200  0.632900  0.300900  1.0  0.1345
  H  H15  1  0.337200  0.867100  0.800900  1.0  0.135
  H  H16  1  0.662800  0.367100  0.699100  1.0  0.1352
  C  C17  1  0.588600  0.536800  0.021280  1.0  0.6187
  C  C18  1  0.040100  0.471100  0.197150  1.0  0.6662
  C  C19  1  0.066700  0.638300  0.149280  1.0  0.6919
  C  C20  1  0.411400  0.036800  0.478720  1.0  0.6166
  C  C21  1  0.959900  0.971100  0.302850  1.0  0.6662
  C  C22  1  0.933300  0.138300  0.350720  1.0  0.6902
  C  C23  1  0.411400  0.463200  0.978720  1.0  0.6155
  C  C24  1  0.959900  0.528900  0.802850  1.0  0.666
  C  C25  1  0.933300  0.361700  0.850720  1.0  0.6915
  C  C26  1  0.588600  0.963200  0.521280  1.0  0.6173
  C  C27  1  0.040100  0.028900  0.697150  1.0  0.6659
  C  C28  1  0.066700  0.861700  0.649280  1.0  0.6916
  O  O29  1  0.428200  0.180300  0.133650  1.0  -0.7804
  O  O30  1  0.208800  0.653900  0.122220  1.0  -0.5336
  O  O31  1  0.598800  0.534200  0.093150  1.0  -0.6233
  O  O32  1  0.476000  0.044900  0.264350  1.0  -0.7998
  O  O33  1  0.702500  0.590100  0.983240  1.0  -0.56
  O  O34  1  0.162800  0.356600  0.202230  1.0  -0.6324
  O  O35  1  0.592600  0.892900  0.153360  1.0  -0.779
  O  O36  1  0.943000  0.748300  0.141100  1.0  -0.5493
  O  O37  1  0.899300  0.465100  0.226070  1.0  -0.5332
  O  O38  1  0.571800  0.680300  0.366350  1.0  -0.7806
  O  O39  1  0.791200  0.153900  0.377780  1.0  -0.5327
  O  O40  1  0.401200  0.034200  0.406850  1.0  -0.6219
  O  O41  1  0.524000  0.544900  0.235650  1.0  -0.8007
  O  O42  1  0.297500  0.090100  0.516760  1.0  -0.5605
  O  O43  1  0.837200  0.856600  0.297770  1.0  -0.632
  O  O44  1  0.407400  0.392900  0.346640  1.0  -0.7784
  O  O45  1  0.057000  0.248300  0.358900  1.0  -0.5472
  O  O46  1  0.100700  0.965100  0.273930  1.0  -0.5339
  O  O47  1  0.571800  0.819700  0.866350  1.0  -0.7813
  O  O48  1  0.791200  0.346100  0.877780  1.0  -0.5335
  O  O49  1  0.401200  0.465800  0.906850  1.0  -0.6222
  O  O50  1  0.524000  0.955100  0.735650  1.0  -0.7989
  O  O51  1  0.297500  0.409900  0.016760  1.0  -0.5598
  O  O52  1  0.837200  0.643400  0.797770  1.0  -0.633
  O  O53  1  0.407400  0.107100  0.846640  1.0  -0.7786
  O  O54  1  0.057000  0.251700  0.858900  1.0  -0.5473
  O  O55  1  0.100700  0.534900  0.773930  1.0  -0.5336
  O  O56  1  0.428200  0.319700  0.633650  1.0  -0.7809
  O  O57  1  0.208800  0.846100  0.622220  1.0  -0.533
  O  O58  1  0.598800  0.965800  0.593150  1.0  -0.624
  O  O59  1  0.476000  0.455100  0.764350  1.0  -0.8008
  O  O60  1  0.702500  0.909900  0.483240  1.0  -0.5593
  O  O61  1  0.162800  0.143400  0.702230  1.0  -0.6328
  O  O62  1  0.592600  0.607100  0.653360  1.0  -0.7786
  O  O63  1  0.943000  0.751700  0.641100  1.0  -0.5474
  O  O64  1  0.899300  0.034900  0.726070  1.0  -0.5327
