# generated using pymatgen
data_TbZnH14C24N4ClO9
_symmetry_space_group_name_H-M   'P 1'
_cell_length_a   27.99270000
_cell_length_b   13.97550000
_cell_length_c   22.61840000
_cell_angle_alpha   90.00000000
_cell_angle_beta   99.52720000
_cell_angle_gamma   90.00000000
_symmetry_Int_Tables_number   1
_chemical_formula_structural   TbZnH14C24N4ClO9
_chemical_formula_sum   'Tb8 Zn8 H112 C192 N32 Cl8 O72'
_cell_volume   8726.54165005
_cell_formula_units_Z   8
loop_
 _symmetry_equiv_pos_site_id
 _symmetry_equiv_pos_as_xyz
  1  'x, y, z'
loop_
 _atom_site_type_symbol
 _atom_site_label
 _atom_site_symmetry_multiplicity
 _atom_site_fract_x
 _atom_site_fract_y
 _atom_site_fract_z
 _atom_site_occupancy
 _atom_site_charge
  Tb  Tb1  1  0.032930  0.876570  0.043000  1.0  2.2427
  Tb  Tb2  1  0.532930  0.376570  0.043000  1.0  2.2427
  Tb  Tb3  1  0.967070  0.876570  0.457000  1.0  2.242
  Tb  Tb4  1  0.467070  0.376570  0.457000  1.0  2.242
  Tb  Tb5  1  0.967070  0.123430  0.957000  1.0  2.243
  Tb  Tb6  1  0.467070  0.623430  0.957000  1.0  2.243
  Tb  Tb7  1  0.032930  0.123430  0.543000  1.0  2.2442
  Tb  Tb8  1  0.532930  0.623430  0.543000  1.0  2.2442
  Zn  Zn9  1  0.262910  0.879430  0.351970  1.0  0.8633
  Zn  Zn10  1  0.762910  0.379430  0.351970  1.0  0.8633
  Zn  Zn11  1  0.737090  0.879430  0.148030  1.0  0.8629
  Zn  Zn12  1  0.237090  0.379430  0.148030  1.0  0.8629
  Zn  Zn13  1  0.737090  0.120570  0.648030  1.0  0.8628
  Zn  Zn14  1  0.237090  0.620570  0.648030  1.0  0.8628
  Zn  Zn15  1  0.262910  0.120570  0.851970  1.0  0.8639
  Zn  Zn16  1  0.762910  0.620570  0.851970  1.0  0.8639
  H  H17  1  0.199900  0.159000  0.226000  1.0  0.1373
  H  H18  1  0.133900  0.093000  0.168100  1.0  0.0959
  H  H19  1  0.170000  0.972700  0.561900  1.0  0.0957
  H  H20  1  0.383500  0.734500  0.562600  1.0  0.1763
  H  H21  1  0.340900  0.024000  0.416700  1.0  0.1918
  H  H22  1  0.168000  0.974100  0.383100  1.0  0.074
  H  H23  1  0.165600  0.853000  0.268200  1.0  0.0795
  H  H24  1  0.362100  0.769700  0.392200  1.0  0.0933
  H  H25  1  0.246100  0.887400  0.571600  1.0  0.1128
  H  H26  1  0.314000  0.813300  0.569600  1.0  0.1681
  H  H27  1  0.266200  0.224000  0.291500  1.0  0.1326
  H  H28  1  0.330800  0.271000  0.350000  1.0  0.1244
  H  H29  1  0.978600  0.042000  0.077600  1.0  0.3908
  H  H30  1  0.022800  0.077000  0.074700  1.0  0.3798
  H  H31  1  0.699900  0.659000  0.226000  1.0  0.1373
  H  H32  1  0.633900  0.593000  0.168100  1.0  0.0959
  H  H33  1  0.670000  0.472700  0.561900  1.0  0.0957
  H  H34  1  0.883500  0.234500  0.562600  1.0  0.1763
  H  H35  1  0.840900  0.524000  0.416700  1.0  0.1918
  H  H36  1  0.668000  0.474100  0.383100  1.0  0.074
  H  H37  1  0.665600  0.353000  0.268200  1.0  0.0795
  H  H38  1  0.862100  0.269700  0.392200  1.0  0.0933
  H  H39  1  0.746100  0.387400  0.571600  1.0  0.1128
  H  H40  1  0.814000  0.313300  0.569600  1.0  0.1681
  H  H41  1  0.766200  0.724000  0.291500  1.0  0.1326
  H  H42  1  0.830800  0.771000  0.350000  1.0  0.1244
  H  H43  1  0.478600  0.542000  0.077600  1.0  0.3908
  H  H44  1  0.522800  0.577000  0.074700  1.0  0.3798
  H  H45  1  0.800100  0.159000  0.274000  1.0  0.1372
  H  H46  1  0.866100  0.093000  0.331900  1.0  0.0949
  H  H47  1  0.830000  0.972700  0.938100  1.0  0.0956
  H  H48  1  0.616500  0.734500  0.937400  1.0  0.1751
  H  H49  1  0.659100  0.024000  0.083300  1.0  0.1928
  H  H50  1  0.832000  0.974100  0.116900  1.0  0.0739
  H  H51  1  0.834400  0.853000  0.231800  1.0  0.0792
  H  H52  1  0.637900  0.769700  0.107800  1.0  0.0934
  H  H53  1  0.753900  0.887400  0.928400  1.0  0.1123
  H  H54  1  0.686000  0.813300  0.930400  1.0  0.1683
  H  H55  1  0.733800  0.224000  0.208500  1.0  0.1325
  H  H56  1  0.669200  0.271000  0.150000  1.0  0.125
  H  H57  1  0.021400  0.042000  0.422400  1.0  0.3902
  H  H58  1  0.977200  0.077000  0.425300  1.0  0.3795
  H  H59  1  0.300100  0.659000  0.274000  1.0  0.1372
  H  H60  1  0.366100  0.593000  0.331900  1.0  0.0949
  H  H61  1  0.330000  0.472700  0.938100  1.0  0.0956
  H  H62  1  0.116500  0.234500  0.937400  1.0  0.1751
  H  H63  1  0.159100  0.524000  0.083300  1.0  0.1928
  H  H64  1  0.332000  0.474100  0.116900  1.0  0.0739
  H  H65  1  0.334400  0.353000  0.231800  1.0  0.0792
  H  H66  1  0.137900  0.269700  0.107800  1.0  0.0934
  H  H67  1  0.253900  0.387400  0.928400  1.0  0.1123
  H  H68  1  0.186000  0.313300  0.930400  1.0  0.1683
  H  H69  1  0.233800  0.724000  0.208500  1.0  0.1325
  H  H70  1  0.169200  0.771000  0.150000  1.0  0.125
  H  H71  1  0.521400  0.542000  0.422400  1.0  0.3902
  H  H72  1  0.477200  0.577000  0.425300  1.0  0.3795
  H  H73  1  0.800100  0.841000  0.774000  1.0  0.1378
  H  H74  1  0.866100  0.907000  0.831900  1.0  0.0955
  H  H75  1  0.830000  0.027300  0.438100  1.0  0.0953
  H  H76  1  0.616500  0.265500  0.437400  1.0  0.1754
  H  H77  1  0.659100  0.976000  0.583300  1.0  0.1938
  H  H78  1  0.832000  0.025900  0.616900  1.0  0.074
  H  H79  1  0.834400  0.147000  0.731800  1.0  0.0801
  H  H80  1  0.637900  0.230300  0.607800  1.0  0.0938
  H  H81  1  0.753900  0.112600  0.428400  1.0  0.1128
  H  H82  1  0.686000  0.186700  0.430400  1.0  0.1687
  H  H83  1  0.733800  0.776000  0.708500  1.0  0.1331
  H  H84  1  0.669200  0.729000  0.650000  1.0  0.1242
  H  H85  1  0.021400  0.958000  0.922400  1.0  0.3909
  H  H86  1  0.977200  0.923000  0.925300  1.0  0.3796
  H  H87  1  0.300100  0.341000  0.774000  1.0  0.1378
  H  H88  1  0.366100  0.407000  0.831900  1.0  0.0955
  H  H89  1  0.330000  0.527300  0.438100  1.0  0.0953
  H  H90  1  0.116500  0.765500  0.437400  1.0  0.1754
  H  H91  1  0.159100  0.476000  0.583300  1.0  0.1938
  H  H92  1  0.332000  0.525900  0.616900  1.0  0.074
  H  H93  1  0.334400  0.647000  0.731800  1.0  0.0801
  H  H94  1  0.137900  0.730300  0.607800  1.0  0.0938
  H  H95  1  0.253900  0.612600  0.428400  1.0  0.1128
  H  H96  1  0.186000  0.686700  0.430400  1.0  0.1687
  H  H97  1  0.233800  0.276000  0.708500  1.0  0.1331
  H  H98  1  0.169200  0.229000  0.650000  1.0  0.1242
  H  H99  1  0.521400  0.458000  0.922400  1.0  0.3909
  H  H100  1  0.477200  0.423000  0.925300  1.0  0.3796
  H  H101  1  0.199900  0.841000  0.726000  1.0  0.1376
  H  H102  1  0.133900  0.907000  0.668100  1.0  0.0965
  H  H103  1  0.170000  0.027300  0.061900  1.0  0.0954
  H  H104  1  0.383500  0.265500  0.062600  1.0  0.1767
  H  H105  1  0.340900  0.976000  0.916700  1.0  0.1927
  H  H106  1  0.168000  0.025900  0.883100  1.0  0.074
  H  H107  1  0.165600  0.147000  0.768200  1.0  0.0801
  H  H108  1  0.362100  0.230300  0.892200  1.0  0.0939
  H  H109  1  0.246100  0.112600  0.071600  1.0  0.1136
  H  H110  1  0.314000  0.186700  0.069600  1.0  0.1675
  H  H111  1  0.266200  0.776000  0.791500  1.0  0.1324
  H  H112  1  0.330800  0.729000  0.850000  1.0  0.1236
  H  H113  1  0.978600  0.958000  0.577600  1.0  0.3906
  H  H114  1  0.022800  0.923000  0.574700  1.0  0.3806
  H  H115  1  0.699900  0.341000  0.726000  1.0  0.1376
  H  H116  1  0.633900  0.407000  0.668100  1.0  0.0965
  H  H117  1  0.670000  0.527300  0.061900  1.0  0.0954
  H  H118  1  0.883500  0.765500  0.062600  1.0  0.1767
  H  H119  1  0.840900  0.476000  0.916700  1.0  0.1927
  H  H120  1  0.668000  0.525900  0.883100  1.0  0.074
  H  H121  1  0.665600  0.647000  0.768200  1.0  0.0801
  H  H122  1  0.862100  0.730300  0.892200  1.0  0.0939
  H  H123  1  0.746100  0.612600  0.071600  1.0  0.1136
  H  H124  1  0.814000  0.686700  0.069600  1.0  0.1675
  H  H125  1  0.766200  0.276000  0.791500  1.0  0.1324
  H  H126  1  0.830800  0.229000  0.850000  1.0  0.1236
  H  H127  1  0.478600  0.458000  0.577600  1.0  0.3906
  H  H128  1  0.522800  0.423000  0.574700  1.0  0.3806
  C  C129  1  0.194230  0.100600  0.232990  1.0  -0.1742
  C  C130  1  0.153760  0.058800  0.200120  1.0  -0.0746
  C  C131  1  0.160090  0.977150  0.469420  1.0  -0.1914
  C  C132  1  0.249510  0.891190  0.481420  1.0  0.1109
  C  C133  1  0.296980  0.843020  0.482740  1.0  0.1587
  C  C134  1  0.184320  0.952760  0.526590  1.0  -0.1183
  C  C135  1  0.367180  0.760480  0.531930  1.0  -0.1007
  C  C136  1  0.110710  0.022780  0.460990  1.0  0.6946
  C  C137  1  0.424130  0.684040  0.469340  1.0  0.6606
  C  C138  1  0.388940  0.187000  0.437600  1.0  0.6773
  C  C139  1  0.328610  0.060700  0.394600  1.0  0.1711
  C  C140  1  0.380540  0.743740  0.476580  1.0  -0.246
  C  C141  1  0.182500  0.956520  0.421430  1.0  0.1488
  C  C142  1  0.172290  0.917430  0.257430  1.0  0.1374
  C  C143  1  0.351760  0.781530  0.426590  1.0  0.2092
  C  C144  1  0.228980  0.908420  0.532280  1.0  -0.1106
  C  C145  1  0.095680  0.918830  0.182570  1.0  0.727
  C  C146  1  0.266220  0.088700  0.317040  1.0  0.0832
  C  C147  1  0.141240  0.966060  0.213600  1.0  -0.1079
  C  C148  1  0.324940  0.809750  0.535120  1.0  -0.1089
  C  C149  1  0.222880  0.048100  0.277530  1.0  0.1286
  C  C150  1  0.345400  0.153200  0.394210  1.0  -0.1863
  C  C151  1  0.280540  0.182200  0.313490  1.0  -0.1076
  C  C152  1  0.320780  0.214200  0.351710  1.0  -0.0946
  C  C153  1  0.694230  0.600600  0.232990  1.0  -0.1742
  C  C154  1  0.653760  0.558800  0.200120  1.0  -0.0746
  C  C155  1  0.660090  0.477150  0.469420  1.0  -0.1914
  C  C156  1  0.749510  0.391190  0.481420  1.0  0.1109
  C  C157  1  0.796980  0.343020  0.482740  1.0  0.1587
  C  C158  1  0.684320  0.452760  0.526590  1.0  -0.1183
  C  C159  1  0.867180  0.260480  0.531930  1.0  -0.1007
  C  C160  1  0.610710  0.522780  0.460990  1.0  0.6946
  C  C161  1  0.924130  0.184040  0.469340  1.0  0.6606
  C  C162  1  0.888940  0.687000  0.437600  1.0  0.6773
  C  C163  1  0.828610  0.560700  0.394600  1.0  0.1711
  C  C164  1  0.880540  0.243740  0.476580  1.0  -0.246
  C  C165  1  0.682500  0.456520  0.421430  1.0  0.1488
  C  C166  1  0.672290  0.417430  0.257430  1.0  0.1374
  C  C167  1  0.851760  0.281530  0.426590  1.0  0.2092
  C  C168  1  0.728980  0.408420  0.532280  1.0  -0.1106
  C  C169  1  0.595680  0.418830  0.182570  1.0  0.727
  C  C170  1  0.766220  0.588700  0.317040  1.0  0.0832
  C  C171  1  0.641240  0.466060  0.213600  1.0  -0.1079
  C  C172  1  0.824940  0.309750  0.535120  1.0  -0.1089
  C  C173  1  0.722880  0.548100  0.277530  1.0  0.1286
  C  C174  1  0.845400  0.653200  0.394210  1.0  -0.1863
  C  C175  1  0.780540  0.682200  0.313490  1.0  -0.1076
  C  C176  1  0.820780  0.714200  0.351710  1.0  -0.0946
  C  C177  1  0.805770  0.100600  0.267010  1.0  -0.1751
  C  C178  1  0.846240  0.058800  0.299880  1.0  -0.0719
  C  C179  1  0.839910  0.977150  0.030580  1.0  -0.1909
  C  C180  1  0.750490  0.891190  0.018580  1.0  0.1102
  C  C181  1  0.703020  0.843020  0.017260  1.0  0.1579
  C  C182  1  0.815680  0.952760  0.973410  1.0  -0.117
  C  C183  1  0.632820  0.760480  0.968070  1.0  -0.1041
  C  C184  1  0.889290  0.022780  0.039010  1.0  0.6903
  C  C185  1  0.575870  0.684040  0.030660  1.0  0.6635
  C  C186  1  0.611060  0.187000  0.062400  1.0  0.6773
  C  C187  1  0.671390  0.060700  0.105400  1.0  0.1709
  C  C188  1  0.619460  0.743740  0.023420  1.0  -0.2452
  C  C189  1  0.817500  0.956520  0.078570  1.0  0.1479
  C  C190  1  0.827710  0.917430  0.242570  1.0  0.1373
  C  C191  1  0.648240  0.781530  0.073410  1.0  0.2081
  C  C192  1  0.771020  0.908420  0.967720  1.0  -0.1115
  C  C193  1  0.904320  0.918830  0.317430  1.0  0.7278
  C  C194  1  0.733780  0.088700  0.182960  1.0  0.0817
  C  C195  1  0.858760  0.966060  0.286400  1.0  -0.1092
  C  C196  1  0.675060  0.809750  0.964880  1.0  -0.111
  C  C197  1  0.777120  0.048100  0.222470  1.0  0.1292
  C  C198  1  0.654600  0.153200  0.105790  1.0  -0.1875
  C  C199  1  0.719460  0.182200  0.186510  1.0  -0.1082
  C  C200  1  0.679220  0.214200  0.148290  1.0  -0.0956
  C  C201  1  0.305770  0.600600  0.267010  1.0  -0.1751
  C  C202  1  0.346240  0.558800  0.299880  1.0  -0.0719
  C  C203  1  0.339910  0.477150  0.030580  1.0  -0.1909
  C  C204  1  0.250490  0.391190  0.018580  1.0  0.1102
  C  C205  1  0.203020  0.343020  0.017260  1.0  0.1579
  C  C206  1  0.315680  0.452760  0.973410  1.0  -0.117
  C  C207  1  0.132820  0.260480  0.968070  1.0  -0.1041
  C  C208  1  0.389290  0.522780  0.039010  1.0  0.6903
  C  C209  1  0.075870  0.184040  0.030660  1.0  0.6635
  C  C210  1  0.111060  0.687000  0.062400  1.0  0.6773
  C  C211  1  0.171390  0.560700  0.105400  1.0  0.1709
  C  C212  1  0.119460  0.243740  0.023420  1.0  -0.2452
  C  C213  1  0.317500  0.456520  0.078570  1.0  0.1479
  C  C214  1  0.327710  0.417430  0.242570  1.0  0.1373
  C  C215  1  0.148240  0.281530  0.073410  1.0  0.2081
  C  C216  1  0.271020  0.408420  0.967720  1.0  -0.1115
  C  C217  1  0.404320  0.418830  0.317430  1.0  0.7278
  C  C218  1  0.233780  0.588700  0.182960  1.0  0.0817
  C  C219  1  0.358760  0.466060  0.286400  1.0  -0.1092
  C  C220  1  0.175060  0.309750  0.964880  1.0  -0.111
  C  C221  1  0.277120  0.548100  0.222470  1.0  0.1292
  C  C222  1  0.154600  0.653200  0.105790  1.0  -0.1875
  C  C223  1  0.219460  0.682200  0.186510  1.0  -0.1082
  C  C224  1  0.179220  0.714200  0.148290  1.0  -0.0956
  C  C225  1  0.805770  0.899400  0.767010  1.0  -0.1754
  C  C226  1  0.846240  0.941200  0.799880  1.0  -0.0715
  C  C227  1  0.839910  0.022850  0.530580  1.0  -0.1916
  C  C228  1  0.750490  0.108810  0.518580  1.0  0.1098
  C  C229  1  0.703020  0.156980  0.517260  1.0  0.1572
  C  C230  1  0.815680  0.047240  0.473410  1.0  -0.1164
  C  C231  1  0.632820  0.239520  0.468070  1.0  -0.1043
  C  C232  1  0.889290  0.977220  0.539010  1.0  0.6917
  C  C233  1  0.575870  0.315960  0.530660  1.0  0.6635
  C  C234  1  0.611060  0.813000  0.562400  1.0  0.6772
  C  C235  1  0.671390  0.939300  0.605400  1.0  0.1707
  C  C236  1  0.619460  0.256260  0.523420  1.0  -0.2464
  C  C237  1  0.817500  0.043480  0.578570  1.0  0.1485
  C  C238  1  0.827710  0.082570  0.742570  1.0  0.1374
  C  C239  1  0.648240  0.218470  0.573410  1.0  0.2078
  C  C240  1  0.771020  0.091580  0.467720  1.0  -0.1122
  C  C241  1  0.904320  0.081170  0.817430  1.0  0.7276
  C  C242  1  0.733780  0.911300  0.682960  1.0  0.0818
  C  C243  1  0.858760  0.033940  0.786400  1.0  -0.1091
  C  C244  1  0.675060  0.190250  0.464880  1.0  -0.1104
  C  C245  1  0.777120  0.951900  0.722470  1.0  0.1294
  C  C246  1  0.654600  0.846800  0.605790  1.0  -0.1882
  C  C247  1  0.719460  0.817800  0.686510  1.0  -0.1098
  C  C248  1  0.679220  0.785800  0.648290  1.0  -0.0959
  C  C249  1  0.305770  0.399400  0.767010  1.0  -0.1754
  C  C250  1  0.346240  0.441200  0.799880  1.0  -0.0715
  C  C251  1  0.339910  0.522850  0.530580  1.0  -0.1916
  C  C252  1  0.250490  0.608810  0.518580  1.0  0.1098
  C  C253  1  0.203020  0.656980  0.517260  1.0  0.1572
  C  C254  1  0.315680  0.547240  0.473410  1.0  -0.1164
  C  C255  1  0.132820  0.739520  0.468070  1.0  -0.1043
  C  C256  1  0.389290  0.477220  0.539010  1.0  0.6917
  C  C257  1  0.075870  0.815960  0.530660  1.0  0.6635
  C  C258  1  0.111060  0.313000  0.562400  1.0  0.6772
  C  C259  1  0.171390  0.439300  0.605400  1.0  0.1707
  C  C260  1  0.119460  0.756260  0.523420  1.0  -0.2464
  C  C261  1  0.317500  0.543480  0.578570  1.0  0.1485
  C  C262  1  0.327710  0.582570  0.742570  1.0  0.1374
  C  C263  1  0.148240  0.718470  0.573410  1.0  0.2078
  C  C264  1  0.271020  0.591580  0.467720  1.0  -0.1122
  C  C265  1  0.404320  0.581170  0.817430  1.0  0.7276
  C  C266  1  0.233780  0.411300  0.682960  1.0  0.0818
  C  C267  1  0.358760  0.533940  0.786400  1.0  -0.1091
  C  C268  1  0.175060  0.690250  0.464880  1.0  -0.1104
  C  C269  1  0.277120  0.451900  0.722470  1.0  0.1294
  C  C270  1  0.154600  0.346800  0.605790  1.0  -0.1882
  C  C271  1  0.219460  0.317800  0.686510  1.0  -0.1098
  C  C272  1  0.179220  0.285800  0.648290  1.0  -0.0959
  C  C273  1  0.194230  0.899400  0.732990  1.0  -0.1745
  C  C274  1  0.153760  0.941200  0.700120  1.0  -0.0744
  C  C275  1  0.160090  0.022850  0.969420  1.0  -0.1915
  C  C276  1  0.249510  0.108810  0.981420  1.0  0.1105
  C  C277  1  0.296980  0.156980  0.982740  1.0  0.1584
  C  C278  1  0.184320  0.047240  0.026590  1.0  -0.1172
  C  C279  1  0.367180  0.239520  0.031930  1.0  -0.1016
  C  C280  1  0.110710  0.977220  0.960990  1.0  0.6909
  C  C281  1  0.424130  0.315960  0.969340  1.0  0.661
  C  C282  1  0.388940  0.813000  0.937600  1.0  0.6773
  C  C283  1  0.328610  0.939300  0.894600  1.0  0.1709
  C  C284  1  0.380540  0.256260  0.976580  1.0  -0.2457
  C  C285  1  0.182500  0.043480  0.921430  1.0  0.1486
  C  C286  1  0.172290  0.082570  0.757430  1.0  0.137
  C  C287  1  0.351760  0.218470  0.926590  1.0  0.2088
  C  C288  1  0.228980  0.091580  0.032280  1.0  -0.1121
  C  C289  1  0.095680  0.081170  0.682570  1.0  0.7276
  C  C290  1  0.266220  0.911300  0.817040  1.0  0.0837
  C  C291  1  0.141240  0.033940  0.713600  1.0  -0.1079
  C  C292  1  0.324940  0.190250  0.035120  1.0  -0.1107
  C  C293  1  0.222880  0.951900  0.777530  1.0  0.1288
  C  C294  1  0.345400  0.846800  0.894210  1.0  -0.1864
  C  C295  1  0.280540  0.817800  0.813490  1.0  -0.1093
  C  C296  1  0.320780  0.785800  0.851710  1.0  -0.0954
  C  C297  1  0.694230  0.399400  0.732990  1.0  -0.1745
  C  C298  1  0.653760  0.441200  0.700120  1.0  -0.0744
  C  C299  1  0.660090  0.522850  0.969420  1.0  -0.1915
  C  C300  1  0.749510  0.608810  0.981420  1.0  0.1105
  C  C301  1  0.796980  0.656980  0.982740  1.0  0.1584
  C  C302  1  0.684320  0.547240  0.026590  1.0  -0.1172
  C  C303  1  0.867180  0.739520  0.031930  1.0  -0.1016
  C  C304  1  0.610710  0.477220  0.960990  1.0  0.6909
  C  C305  1  0.924130  0.815960  0.969340  1.0  0.661
  C  C306  1  0.888940  0.313000  0.937600  1.0  0.6773
  C  C307  1  0.828610  0.439300  0.894600  1.0  0.1709
  C  C308  1  0.880540  0.756260  0.976580  1.0  -0.2457
  C  C309  1  0.682500  0.543480  0.921430  1.0  0.1486
  C  C310  1  0.672290  0.582570  0.757430  1.0  0.137
  C  C311  1  0.851760  0.718470  0.926590  1.0  0.2088
  C  C312  1  0.728980  0.591580  0.032280  1.0  -0.1121
  C  C313  1  0.595680  0.581170  0.682570  1.0  0.7276
  C  C314  1  0.766220  0.411300  0.817040  1.0  0.0837
  C  C315  1  0.641240  0.533940  0.713600  1.0  -0.1079
  C  C316  1  0.824940  0.690250  0.035120  1.0  -0.1107
  C  C317  1  0.722880  0.451900  0.777530  1.0  0.1288
  C  C318  1  0.845400  0.346800  0.894210  1.0  -0.1864
  C  C319  1  0.780540  0.317800  0.813490  1.0  -0.1093
  C  C320  1  0.820780  0.285800  0.851710  1.0  -0.0954
  N  N321  1  0.226130  0.915570  0.426440  1.0  -0.2913
  N  N322  1  0.212480  0.956000  0.288050  1.0  -0.2621
  N  N323  1  0.311200  0.830900  0.428890  1.0  -0.3637
  N  N324  1  0.290450  0.027690  0.357220  1.0  -0.3224
  N  N325  1  0.726130  0.415570  0.426440  1.0  -0.2913
  N  N326  1  0.712480  0.456000  0.288050  1.0  -0.2621
  N  N327  1  0.811200  0.330900  0.428890  1.0  -0.3637
  N  N328  1  0.790450  0.527690  0.357220  1.0  -0.3224
  N  N329  1  0.773870  0.915570  0.073560  1.0  -0.2911
  N  N330  1  0.787520  0.956000  0.211950  1.0  -0.2627
  N  N331  1  0.688800  0.830900  0.071110  1.0  -0.3622
  N  N332  1  0.709550  0.027690  0.142780  1.0  -0.3206
  N  N333  1  0.273870  0.415570  0.073560  1.0  -0.2911
  N  N334  1  0.287520  0.456000  0.211950  1.0  -0.2627
  N  N335  1  0.188800  0.330900  0.071110  1.0  -0.3622
  N  N336  1  0.209550  0.527690  0.142780  1.0  -0.3206
  N  N337  1  0.773870  0.084430  0.573560  1.0  -0.291
  N  N338  1  0.787520  0.044000  0.711950  1.0  -0.2633
  N  N339  1  0.688800  0.169100  0.571110  1.0  -0.3604
  N  N340  1  0.709550  0.972310  0.642780  1.0  -0.3223
  N  N341  1  0.273870  0.584430  0.573560  1.0  -0.291
  N  N342  1  0.287520  0.544000  0.711950  1.0  -0.2633
  N  N343  1  0.188800  0.669100  0.571110  1.0  -0.3604
  N  N344  1  0.209550  0.472310  0.642780  1.0  -0.3223
  N  N345  1  0.226130  0.084430  0.926440  1.0  -0.2909
  N  N346  1  0.212480  0.044000  0.788050  1.0  -0.2629
  N  N347  1  0.311200  0.169100  0.928890  1.0  -0.3638
  N  N348  1  0.290450  0.972310  0.857220  1.0  -0.3233
  N  N349  1  0.726130  0.584430  0.926440  1.0  -0.2909
  N  N350  1  0.712480  0.544000  0.788050  1.0  -0.2629
  N  N351  1  0.811200  0.669100  0.928890  1.0  -0.3638
  N  N352  1  0.790450  0.472310  0.857220  1.0  -0.3233
  Cl  Cl353  1  0.224530  0.728850  0.334200  1.0  -0.5722
  Cl  Cl354  1  0.724530  0.228850  0.334200  1.0  -0.5722
  Cl  Cl355  1  0.775470  0.728850  0.165800  1.0  -0.5734
  Cl  Cl356  1  0.275470  0.228850  0.165800  1.0  -0.5734
  Cl  Cl357  1  0.775470  0.271150  0.665800  1.0  -0.5729
  Cl  Cl358  1  0.275470  0.771150  0.665800  1.0  -0.5729
  Cl  Cl359  1  0.224530  0.271150  0.834200  1.0  -0.572
  Cl  Cl360  1  0.724530  0.771150  0.834200  1.0  -0.572
  O  O361  1  0.079870  0.945620  0.130000  1.0  -0.7127
  O  O362  1  0.086770  0.025480  0.408920  1.0  -0.5758
  O  O363  1  0.999790  0.037160  0.056900  1.0  -0.8966
  O  O364  1  0.430060  0.663540  0.417530  1.0  -0.5853
  O  O365  1  0.077250  0.856210  0.211700  1.0  -0.491
  O  O366  1  0.401600  0.138850  0.483660  1.0  -0.4796
  O  O367  1  0.450850  0.657970  0.517650  1.0  -0.686
  O  O368  1  0.408440  0.262760  0.423270  1.0  -0.7448
  O  O369  1  0.097370  0.054550  0.507370  1.0  -0.6499
  O  O370  1  0.579870  0.445620  0.130000  1.0  -0.7127
  O  O371  1  0.586770  0.525480  0.408920  1.0  -0.5758
  O  O372  1  0.499790  0.537160  0.056900  1.0  -0.8966
  O  O373  1  0.930060  0.163540  0.417530  1.0  -0.5853
  O  O374  1  0.577250  0.356210  0.211700  1.0  -0.491
  O  O375  1  0.901600  0.638850  0.483660  1.0  -0.4796
  O  O376  1  0.950850  0.157970  0.517650  1.0  -0.686
  O  O377  1  0.908440  0.762760  0.423270  1.0  -0.7448
  O  O378  1  0.597370  0.554550  0.507370  1.0  -0.6499
  O  O379  1  0.920130  0.945620  0.370000  1.0  -0.7116
  O  O380  1  0.913230  0.025480  0.091080  1.0  -0.5734
  O  O381  1  0.000210  0.037160  0.443100  1.0  -0.8968
  O  O382  1  0.569940  0.663540  0.082470  1.0  -0.5881
  O  O383  1  0.922750  0.856210  0.288300  1.0  -0.4916
  O  O384  1  0.598400  0.138850  0.016340  1.0  -0.4804
  O  O385  1  0.549150  0.657970  0.982350  1.0  -0.6861
  O  O386  1  0.591560  0.262760  0.076730  1.0  -0.7466
  O  O387  1  0.902630  0.054550  0.992630  1.0  -0.6528
  O  O388  1  0.420130  0.445620  0.370000  1.0  -0.7116
  O  O389  1  0.413230  0.525480  0.091080  1.0  -0.5734
  O  O390  1  0.500210  0.537160  0.443100  1.0  -0.8968
  O  O391  1  0.069940  0.163540  0.082470  1.0  -0.5881
  O  O392  1  0.422750  0.356210  0.288300  1.0  -0.4916
  O  O393  1  0.098400  0.638850  0.016340  1.0  -0.4804
  O  O394  1  0.049150  0.157970  0.982350  1.0  -0.6861
  O  O395  1  0.091560  0.762760  0.076730  1.0  -0.7466
  O  O396  1  0.402630  0.554550  0.992630  1.0  -0.6528
  O  O397  1  0.920130  0.054380  0.870000  1.0  -0.712
  O  O398  1  0.913230  0.974520  0.591080  1.0  -0.5747
  O  O399  1  0.000210  0.962840  0.943100  1.0  -0.8973
  O  O400  1  0.569940  0.336460  0.582470  1.0  -0.5904
  O  O401  1  0.922750  0.143790  0.788300  1.0  -0.4911
  O  O402  1  0.598400  0.861150  0.516340  1.0  -0.4797
  O  O403  1  0.549150  0.342030  0.482350  1.0  -0.6856
  O  O404  1  0.591560  0.737240  0.576730  1.0  -0.7479
  O  O405  1  0.902630  0.945450  0.492630  1.0  -0.6504
  O  O406  1  0.420130  0.554380  0.870000  1.0  -0.712
  O  O407  1  0.413230  0.474520  0.591080  1.0  -0.5747
  O  O408  1  0.500210  0.462840  0.943100  1.0  -0.8973
  O  O409  1  0.069940  0.836460  0.582470  1.0  -0.5904
  O  O410  1  0.422750  0.643790  0.788300  1.0  -0.4911
  O  O411  1  0.098400  0.361150  0.516340  1.0  -0.4797
  O  O412  1  0.049150  0.842030  0.482350  1.0  -0.6856
  O  O413  1  0.091560  0.237240  0.576730  1.0  -0.7479
  O  O414  1  0.402630  0.445450  0.492630  1.0  -0.6504
  O  O415  1  0.079870  0.054380  0.630000  1.0  -0.7129
  O  O416  1  0.086770  0.974520  0.908920  1.0  -0.5757
  O  O417  1  0.999790  0.962840  0.556900  1.0  -0.8964
  O  O418  1  0.430060  0.336460  0.917530  1.0  -0.586
  O  O419  1  0.077250  0.143790  0.711700  1.0  -0.4934
  O  O420  1  0.401600  0.861150  0.983660  1.0  -0.4796
  O  O421  1  0.450850  0.342030  0.017650  1.0  -0.6849
  O  O422  1  0.408440  0.737240  0.923270  1.0  -0.7459
  O  O423  1  0.097370  0.945450  0.007370  1.0  -0.6487
  O  O424  1  0.579870  0.554380  0.630000  1.0  -0.7129
  O  O425  1  0.586770  0.474520  0.908920  1.0  -0.5757
  O  O426  1  0.499790  0.462840  0.556900  1.0  -0.8964
  O  O427  1  0.930060  0.836460  0.917530  1.0  -0.586
  O  O428  1  0.577250  0.643790  0.711700  1.0  -0.4934
  O  O429  1  0.901600  0.361150  0.983660  1.0  -0.4796
  O  O430  1  0.950850  0.842030  0.017650  1.0  -0.6849
  O  O431  1  0.908440  0.237240  0.923270  1.0  -0.7459
  O  O432  1  0.597370  0.445450  0.007370  1.0  -0.6487
