# generated using pymatgen
data_TbCoH14C24N4ClO9
_symmetry_space_group_name_H-M   'P 1'
_cell_length_a   28.09960000
_cell_length_b   13.81220000
_cell_length_c   22.46190000
_cell_angle_alpha   90.00000000
_cell_angle_beta   99.35660000
_cell_angle_gamma   90.00000000
_symmetry_Int_Tables_number   1
_chemical_formula_structural   TbCoH14C24N4ClO9
_chemical_formula_sum   'Tb8 Co8 H112 C192 N32 Cl8 O72'
_cell_volume   8601.86602663
_cell_formula_units_Z   8
loop_
 _symmetry_equiv_pos_site_id
 _symmetry_equiv_pos_as_xyz
  1  'x, y, z'
loop_
 _atom_site_type_symbol
 _atom_site_label
 _atom_site_symmetry_multiplicity
 _atom_site_fract_x
 _atom_site_fract_y
 _atom_site_fract_z
 _atom_site_occupancy
 _atom_site_charge
  Tb  Tb1  1  0.033200  0.375570  0.042440  1.0  2.2351
  Tb  Tb2  1  0.533200  0.875570  0.042440  1.0  2.2351
  Tb  Tb3  1  0.966800  0.375570  0.457560  1.0  2.2346
  Tb  Tb4  1  0.466800  0.875570  0.457560  1.0  2.2346
  Tb  Tb5  1  0.966800  0.624430  0.957560  1.0  2.2369
  Tb  Tb6  1  0.466800  0.124430  0.957560  1.0  2.2369
  Tb  Tb7  1  0.033200  0.624430  0.542440  1.0  2.2377
  Tb  Tb8  1  0.533200  0.124430  0.542440  1.0  2.2377
  Co  Co9  1  0.262610  0.616820  0.851870  1.0  0.8338
  Co  Co10  1  0.762610  0.116820  0.851870  1.0  0.8338
  Co  Co11  1  0.737390  0.616820  0.648130  1.0  0.835
  Co  Co12  1  0.237390  0.116820  0.648130  1.0  0.835
  Co  Co13  1  0.737390  0.383180  0.148130  1.0  0.8355
  Co  Co14  1  0.237390  0.883180  0.148130  1.0  0.8355
  Co  Co15  1  0.262610  0.383180  0.351870  1.0  0.8331
  Co  Co16  1  0.762610  0.883180  0.351870  1.0  0.8331
  H  H17  1  0.166200  0.531200  0.882000  1.0  0.0591
  H  H18  1  0.170800  0.534100  0.060300  1.0  0.0968
  H  H19  1  0.388200  0.758300  0.065800  1.0  0.1028
  H  H20  1  0.341500  0.479500  0.925000  1.0  0.0635
  H  H21  1  0.316100  0.677000  0.071800  1.0  0.117
  H  H22  1  0.165500  0.648900  0.764100  1.0  0.0858
  H  H23  1  0.360500  0.729200  0.887000  1.0  0.0646
  H  H24  1  0.245800  0.609000  0.069900  1.0  0.1208
  H  H25  1  0.326800  0.215800  0.852900  1.0  0.0865
  H  H26  1  0.259300  0.268200  0.788600  1.0  0.1137
  H  H27  1  0.131300  0.405300  0.670400  1.0  0.0957
  H  H28  1  0.197700  0.330000  0.728800  1.0  0.1179
  H  H29  1  0.019900  0.575000  0.072800  1.0  0.4366
  H  H30  1  0.979500  0.542000  0.082000  1.0  0.4273
  H  H31  1  0.666200  0.031200  0.882000  1.0  0.0591
  H  H32  1  0.670800  0.034100  0.060300  1.0  0.0968
  H  H33  1  0.888200  0.258300  0.065800  1.0  0.1028
  H  H34  1  0.841500  0.979500  0.925000  1.0  0.0635
  H  H35  1  0.816100  0.177000  0.071800  1.0  0.117
  H  H36  1  0.665500  0.148900  0.764100  1.0  0.0858
  H  H37  1  0.860500  0.229200  0.887000  1.0  0.0646
  H  H38  1  0.745800  0.109000  0.069900  1.0  0.1208
  H  H39  1  0.826800  0.715800  0.852900  1.0  0.0865
  H  H40  1  0.759300  0.768200  0.788600  1.0  0.1137
  H  H41  1  0.631300  0.905300  0.670400  1.0  0.0957
  H  H42  1  0.697700  0.830000  0.728800  1.0  0.1179
  H  H43  1  0.519900  0.075000  0.072800  1.0  0.4366
  H  H44  1  0.479500  0.042000  0.082000  1.0  0.4273
  H  H45  1  0.833800  0.531200  0.618000  1.0  0.0591
  H  H46  1  0.829200  0.534100  0.439700  1.0  0.0971
  H  H47  1  0.611800  0.758300  0.434200  1.0  0.1026
  H  H48  1  0.658500  0.479500  0.575000  1.0  0.0639
  H  H49  1  0.683900  0.677000  0.428200  1.0  0.1179
  H  H50  1  0.834500  0.648900  0.735900  1.0  0.0857
  H  H51  1  0.639500  0.729200  0.613000  1.0  0.0651
  H  H52  1  0.754200  0.609000  0.430100  1.0  0.1214
  H  H53  1  0.673200  0.215800  0.647100  1.0  0.0867
  H  H54  1  0.740700  0.268200  0.711400  1.0  0.114
  H  H55  1  0.868700  0.405300  0.829600  1.0  0.096
  H  H56  1  0.802300  0.330000  0.771200  1.0  0.1171
  H  H57  1  0.980100  0.575000  0.427200  1.0  0.4374
  H  H58  1  0.020500  0.542000  0.418000  1.0  0.428
  H  H59  1  0.333800  0.031200  0.618000  1.0  0.0591
  H  H60  1  0.329200  0.034100  0.439700  1.0  0.0971
  H  H61  1  0.111800  0.258300  0.434200  1.0  0.1026
  H  H62  1  0.158500  0.979500  0.575000  1.0  0.0639
  H  H63  1  0.183900  0.177000  0.428200  1.0  0.1179
  H  H64  1  0.334500  0.148900  0.735900  1.0  0.0857
  H  H65  1  0.139500  0.229200  0.613000  1.0  0.0652
  H  H66  1  0.254200  0.109000  0.430100  1.0  0.1214
  H  H67  1  0.173200  0.715800  0.647100  1.0  0.0867
  H  H68  1  0.240700  0.768200  0.711400  1.0  0.114
  H  H69  1  0.368700  0.905300  0.829600  1.0  0.096
  H  H70  1  0.302300  0.830000  0.771200  1.0  0.1171
  H  H71  1  0.480100  0.075000  0.427200  1.0  0.4374
  H  H72  1  0.520500  0.042000  0.418000  1.0  0.428
  H  H73  1  0.833800  0.468800  0.118000  1.0  0.0594
  H  H74  1  0.829200  0.465900  0.939700  1.0  0.097
  H  H75  1  0.611800  0.241700  0.934200  1.0  0.102
  H  H76  1  0.658500  0.520500  0.075000  1.0  0.0638
  H  H77  1  0.683900  0.323000  0.928200  1.0  0.118
  H  H78  1  0.834500  0.351100  0.235900  1.0  0.0859
  H  H79  1  0.639500  0.270800  0.113000  1.0  0.0648
  H  H80  1  0.754200  0.391000  0.930100  1.0  0.1211
  H  H81  1  0.673200  0.784200  0.147100  1.0  0.0872
  H  H82  1  0.740700  0.731800  0.211400  1.0  0.114
  H  H83  1  0.868700  0.594700  0.329600  1.0  0.096
  H  H84  1  0.802300  0.670000  0.271200  1.0  0.1173
  H  H85  1  0.980100  0.425000  0.927200  1.0  0.4372
  H  H86  1  0.020500  0.458000  0.918000  1.0  0.4288
  H  H87  1  0.333800  0.968800  0.118000  1.0  0.0594
  H  H88  1  0.329200  0.965900  0.939700  1.0  0.097
  H  H89  1  0.111800  0.741700  0.934200  1.0  0.102
  H  H90  1  0.158500  0.020500  0.075000  1.0  0.0638
  H  H91  1  0.183900  0.823000  0.928200  1.0  0.118
  H  H92  1  0.334500  0.851100  0.235900  1.0  0.0859
  H  H93  1  0.139500  0.770800  0.113000  1.0  0.0648
  H  H94  1  0.254200  0.891000  0.930100  1.0  0.1211
  H  H95  1  0.173200  0.284200  0.147100  1.0  0.0872
  H  H96  1  0.240700  0.231800  0.211400  1.0  0.114
  H  H97  1  0.368700  0.094700  0.329600  1.0  0.096
  H  H98  1  0.302300  0.170000  0.271200  1.0  0.1173
  H  H99  1  0.480100  0.925000  0.927200  1.0  0.4372
  H  H100  1  0.520500  0.958000  0.918000  1.0  0.4288
  H  H101  1  0.166200  0.468800  0.382000  1.0  0.0595
  H  H102  1  0.170800  0.465900  0.560300  1.0  0.0969
  H  H103  1  0.388200  0.241700  0.565800  1.0  0.103
  H  H104  1  0.341500  0.520500  0.425000  1.0  0.0637
  H  H105  1  0.316100  0.323000  0.571800  1.0  0.117
  H  H106  1  0.165500  0.351100  0.264100  1.0  0.0861
  H  H107  1  0.360500  0.270800  0.387000  1.0  0.0646
  H  H108  1  0.245800  0.391000  0.569900  1.0  0.1208
  H  H109  1  0.326800  0.784200  0.352900  1.0  0.0865
  H  H110  1  0.259300  0.731800  0.288600  1.0  0.1141
  H  H111  1  0.131300  0.594700  0.170400  1.0  0.0961
  H  H112  1  0.197700  0.670000  0.228800  1.0  0.1178
  H  H113  1  0.019900  0.425000  0.572800  1.0  0.4371
  H  H114  1  0.979500  0.458000  0.582000  1.0  0.4275
  H  H115  1  0.666200  0.968800  0.382000  1.0  0.0595
  H  H116  1  0.670800  0.965900  0.560300  1.0  0.0969
  H  H117  1  0.888200  0.741700  0.565800  1.0  0.103
  H  H118  1  0.841500  0.020500  0.425000  1.0  0.0637
  H  H119  1  0.816100  0.823000  0.571800  1.0  0.117
  H  H120  1  0.665500  0.851100  0.264100  1.0  0.0861
  H  H121  1  0.860500  0.770800  0.387000  1.0  0.0649
  H  H122  1  0.745800  0.891000  0.569900  1.0  0.1208
  H  H123  1  0.826800  0.284200  0.352900  1.0  0.0865
  H  H124  1  0.759300  0.231800  0.288600  1.0  0.1141
  H  H125  1  0.631300  0.094700  0.170400  1.0  0.0961
  H  H126  1  0.697700  0.170000  0.228800  1.0  0.1178
  H  H127  1  0.519900  0.925000  0.572800  1.0  0.4371
  H  H128  1  0.479500  0.958000  0.582000  1.0  0.4275
  C  C129  1  0.182510  0.545600  0.920380  1.0  0.1595
  C  C130  1  0.160200  0.524300  0.968970  1.0  -0.2038
  C  C131  1  0.297310  0.656800  0.981700  1.0  0.1616
  C  C132  1  0.249700  0.608900  0.980720  1.0  0.1631
  C  C133  1  0.184530  0.547700  0.026250  1.0  -0.0053
  C  C134  1  0.368360  0.737300  0.030930  1.0  -0.0326
  C  C135  1  0.425150  0.813900  0.967960  1.0  0.6644
  C  C136  1  0.325550  0.437100  0.896340  1.0  0.1647
  C  C137  1  0.325560  0.688300  0.034600  1.0  -0.1173
  C  C138  1  0.110560  0.479600  0.959900  1.0  0.6914
  C  C139  1  0.381010  0.754400  0.974740  1.0  -0.1944
  C  C140  1  0.172120  0.584600  0.756290  1.0  0.1658
  C  C141  1  0.351640  0.718700  0.924590  1.0  0.1639
  C  C142  1  0.095150  0.584100  0.682300  1.0  0.7215
  C  C143  1  0.229450  0.591500  0.032040  1.0  -0.1173
  C  C144  1  0.385930  0.311600  0.939210  1.0  0.6717
  C  C145  1  0.316790  0.279700  0.854400  1.0  -0.0084
  C  C146  1  0.263140  0.407400  0.817740  1.0  0.1352
  C  C147  1  0.276900  0.310900  0.815720  1.0  -0.1639
  C  C148  1  0.342180  0.342900  0.895580  1.0  -0.2091
  C  C149  1  0.140230  0.534500  0.713290  1.0  -0.1511
  C  C150  1  0.220740  0.449300  0.777540  1.0  0.1777
  C  C151  1  0.150750  0.439200  0.700860  1.0  -0.0406
  C  C152  1  0.190960  0.394900  0.734810  1.0  -0.1246
  C  C153  1  0.682510  0.045600  0.920380  1.0  0.1595
  C  C154  1  0.660200  0.024300  0.968970  1.0  -0.2038
  C  C155  1  0.797310  0.156800  0.981700  1.0  0.1616
  C  C156  1  0.749700  0.108900  0.980720  1.0  0.1631
  C  C157  1  0.684530  0.047700  0.026250  1.0  -0.0053
  C  C158  1  0.868360  0.237300  0.030930  1.0  -0.0326
  C  C159  1  0.925150  0.313900  0.967960  1.0  0.6644
  C  C160  1  0.825550  0.937100  0.896340  1.0  0.1647
  C  C161  1  0.825560  0.188300  0.034600  1.0  -0.1173
  C  C162  1  0.610560  0.979600  0.959900  1.0  0.6914
  C  C163  1  0.881010  0.254400  0.974740  1.0  -0.1944
  C  C164  1  0.672120  0.084600  0.756290  1.0  0.1658
  C  C165  1  0.851640  0.218700  0.924590  1.0  0.1639
  C  C166  1  0.595150  0.084100  0.682300  1.0  0.7215
  C  C167  1  0.729450  0.091500  0.032040  1.0  -0.1173
  C  C168  1  0.885930  0.811600  0.939210  1.0  0.6717
  C  C169  1  0.816790  0.779700  0.854400  1.0  -0.0084
  C  C170  1  0.763140  0.907400  0.817740  1.0  0.1352
  C  C171  1  0.776900  0.810900  0.815720  1.0  -0.1639
  C  C172  1  0.842180  0.842900  0.895580  1.0  -0.2091
  C  C173  1  0.640230  0.034500  0.713290  1.0  -0.1511
  C  C174  1  0.720740  0.949300  0.777540  1.0  0.1777
  C  C175  1  0.650750  0.939200  0.700860  1.0  -0.0406
  C  C176  1  0.690960  0.894900  0.734810  1.0  -0.1246
  C  C177  1  0.817490  0.545600  0.579620  1.0  0.1591
  C  C178  1  0.839800  0.524300  0.531030  1.0  -0.2036
  C  C179  1  0.702690  0.656800  0.518300  1.0  0.161
  C  C180  1  0.750300  0.608900  0.519280  1.0  0.1627
  C  C181  1  0.815470  0.547700  0.473750  1.0  -0.0046
  C  C182  1  0.631640  0.737300  0.469070  1.0  -0.0342
  C  C183  1  0.574850  0.813900  0.532040  1.0  0.6658
  C  C184  1  0.674450  0.437100  0.603660  1.0  0.1632
  C  C185  1  0.674440  0.688300  0.465400  1.0  -0.1185
  C  C186  1  0.889440  0.479600  0.540100  1.0  0.6903
  C  C187  1  0.618990  0.754400  0.525260  1.0  -0.1937
  C  C188  1  0.827880  0.584600  0.743710  1.0  0.1656
  C  C189  1  0.648360  0.718700  0.575410  1.0  0.1648
  C  C190  1  0.904850  0.584100  0.817700  1.0  0.7213
  C  C191  1  0.770550  0.591500  0.467960  1.0  -0.1151
  C  C192  1  0.614070  0.311600  0.560790  1.0  0.6712
  C  C193  1  0.683210  0.279700  0.645600  1.0  -0.0089
  C  C194  1  0.736860  0.407400  0.682260  1.0  0.1354
  C  C195  1  0.723100  0.310900  0.684280  1.0  -0.1636
  C  C196  1  0.657820  0.342900  0.604420  1.0  -0.2091
  C  C197  1  0.859770  0.534500  0.786710  1.0  -0.1524
  C  C198  1  0.779260  0.449300  0.722460  1.0  0.178
  C  C199  1  0.849250  0.439200  0.799140  1.0  -0.0412
  C  C200  1  0.809040  0.394900  0.765190  1.0  -0.1258
  C  C201  1  0.317490  0.045600  0.579620  1.0  0.1591
  C  C202  1  0.339800  0.024300  0.531030  1.0  -0.2036
  C  C203  1  0.202690  0.156800  0.518300  1.0  0.161
  C  C204  1  0.250300  0.108900  0.519280  1.0  0.1627
  C  C205  1  0.315470  0.047700  0.473750  1.0  -0.0046
  C  C206  1  0.131640  0.237300  0.469070  1.0  -0.0342
  C  C207  1  0.074850  0.313900  0.532040  1.0  0.6658
  C  C208  1  0.174450  0.937100  0.603660  1.0  0.1632
  C  C209  1  0.174440  0.188300  0.465400  1.0  -0.1185
  C  C210  1  0.389440  0.979600  0.540100  1.0  0.6903
  C  C211  1  0.118990  0.254400  0.525260  1.0  -0.1937
  C  C212  1  0.327880  0.084600  0.743710  1.0  0.1656
  C  C213  1  0.148360  0.218700  0.575410  1.0  0.1648
  C  C214  1  0.404850  0.084100  0.817700  1.0  0.7213
  C  C215  1  0.270550  0.091500  0.467960  1.0  -0.1151
  C  C216  1  0.114070  0.811600  0.560790  1.0  0.6712
  C  C217  1  0.183210  0.779700  0.645600  1.0  -0.0089
  C  C218  1  0.236860  0.907400  0.682260  1.0  0.1354
  C  C219  1  0.223100  0.810900  0.684280  1.0  -0.1636
  C  C220  1  0.157820  0.842900  0.604420  1.0  -0.2091
  C  C221  1  0.359770  0.034500  0.786710  1.0  -0.1524
  C  C222  1  0.279260  0.949300  0.722460  1.0  0.178
  C  C223  1  0.349250  0.939200  0.799140  1.0  -0.0412
  C  C224  1  0.309040  0.894900  0.765190  1.0  -0.1258
  C  C225  1  0.817490  0.454400  0.079620  1.0  0.1581
  C  C226  1  0.839800  0.475700  0.031030  1.0  -0.202
  C  C227  1  0.702690  0.343200  0.018300  1.0  0.1616
  C  C228  1  0.750300  0.391100  0.019280  1.0  0.1635
  C  C229  1  0.815470  0.452300  0.973750  1.0  -0.0032
  C  C230  1  0.631640  0.262700  0.969070  1.0  -0.0339
  C  C231  1  0.574850  0.186100  0.032040  1.0  0.6639
  C  C232  1  0.674450  0.562900  0.103660  1.0  0.1634
  C  C233  1  0.674440  0.311700  0.965400  1.0  -0.1205
  C  C234  1  0.889440  0.520400  0.040100  1.0  0.6898
  C  C235  1  0.618990  0.245600  0.025260  1.0  -0.1922
  C  C236  1  0.827880  0.415400  0.243710  1.0  0.1658
  C  C237  1  0.648360  0.281300  0.075410  1.0  0.1639
  C  C238  1  0.904850  0.415900  0.317700  1.0  0.7216
  C  C239  1  0.770550  0.408500  0.967960  1.0  -0.1152
  C  C240  1  0.614070  0.688400  0.060790  1.0  0.6717
  C  C241  1  0.683210  0.720300  0.145600  1.0  -0.0091
  C  C242  1  0.736860  0.592600  0.182260  1.0  0.1354
  C  C243  1  0.723100  0.689100  0.184280  1.0  -0.1642
  C  C244  1  0.657820  0.657100  0.104420  1.0  -0.2088
  C  C245  1  0.859770  0.465500  0.286710  1.0  -0.1521
  C  C246  1  0.779260  0.550700  0.222460  1.0  0.1782
  C  C247  1  0.849250  0.560800  0.299140  1.0  -0.0421
  C  C248  1  0.809040  0.605100  0.265190  1.0  -0.1268
  C  C249  1  0.317490  0.954400  0.079620  1.0  0.1581
  C  C250  1  0.339800  0.975700  0.031030  1.0  -0.202
  C  C251  1  0.202690  0.843200  0.018300  1.0  0.1616
  C  C252  1  0.250300  0.891100  0.019280  1.0  0.1635
  C  C253  1  0.315470  0.952300  0.973750  1.0  -0.0032
  C  C254  1  0.131640  0.762700  0.969070  1.0  -0.0339
  C  C255  1  0.074850  0.686100  0.032040  1.0  0.6639
  C  C256  1  0.174450  0.062900  0.103660  1.0  0.1634
  C  C257  1  0.174440  0.811700  0.965400  1.0  -0.1205
  C  C258  1  0.389440  0.020400  0.040100  1.0  0.6898
  C  C259  1  0.118990  0.745600  0.025260  1.0  -0.1922
  C  C260  1  0.327880  0.915400  0.243710  1.0  0.1658
  C  C261  1  0.148360  0.781300  0.075410  1.0  0.1639
  C  C262  1  0.404850  0.915900  0.317700  1.0  0.7216
  C  C263  1  0.270550  0.908500  0.967960  1.0  -0.1152
  C  C264  1  0.114070  0.188400  0.060790  1.0  0.6717
  C  C265  1  0.183210  0.220300  0.145600  1.0  -0.0091
  C  C266  1  0.236860  0.092600  0.182260  1.0  0.1354
  C  C267  1  0.223100  0.189100  0.184280  1.0  -0.1642
  C  C268  1  0.157820  0.157100  0.104420  1.0  -0.2088
  C  C269  1  0.359770  0.965500  0.286710  1.0  -0.1521
  C  C270  1  0.279260  0.050700  0.222460  1.0  0.1782
  C  C271  1  0.349250  0.060800  0.299140  1.0  -0.0421
  C  C272  1  0.309040  0.105100  0.265190  1.0  -0.1268
  C  C273  1  0.182510  0.454400  0.420380  1.0  0.159
  C  C274  1  0.160200  0.475700  0.468970  1.0  -0.202
  C  C275  1  0.297310  0.343200  0.481700  1.0  0.1613
  C  C276  1  0.249700  0.391100  0.480720  1.0  0.1643
  C  C277  1  0.184530  0.452300  0.526250  1.0  -0.0045
  C  C278  1  0.368360  0.262700  0.530930  1.0  -0.0321
  C  C279  1  0.425150  0.186100  0.467960  1.0  0.6631
  C  C280  1  0.325550  0.562900  0.396340  1.0  0.1649
  C  C281  1  0.325560  0.311700  0.534600  1.0  -0.1168
  C  C282  1  0.110560  0.520400  0.459900  1.0  0.6929
  C  C283  1  0.381010  0.245600  0.474740  1.0  -0.1944
  C  C284  1  0.172120  0.415400  0.256290  1.0  0.166
  C  C285  1  0.351640  0.281300  0.424590  1.0  0.164
  C  C286  1  0.095150  0.415900  0.182300  1.0  0.7211
  C  C287  1  0.229450  0.408500  0.532040  1.0  -0.1161
  C  C288  1  0.385930  0.688400  0.439210  1.0  0.6717
  C  C289  1  0.316790  0.720300  0.354400  1.0  -0.0083
  C  C290  1  0.263140  0.592600  0.317740  1.0  0.135
  C  C291  1  0.276900  0.689100  0.315720  1.0  -0.164
  C  C292  1  0.342180  0.657100  0.395580  1.0  -0.2089
  C  C293  1  0.140230  0.465500  0.213290  1.0  -0.151
  C  C294  1  0.220740  0.550700  0.277540  1.0  0.1778
  C  C295  1  0.150750  0.560800  0.200860  1.0  -0.0414
  C  C296  1  0.190960  0.605100  0.234810  1.0  -0.1253
  C  C297  1  0.682510  0.954400  0.420380  1.0  0.159
  C  C298  1  0.660200  0.975700  0.468970  1.0  -0.202
  C  C299  1  0.797310  0.843200  0.481700  1.0  0.1613
  C  C300  1  0.749700  0.891100  0.480720  1.0  0.1643
  C  C301  1  0.684530  0.952300  0.526250  1.0  -0.0045
  C  C302  1  0.868360  0.762700  0.530930  1.0  -0.0321
  C  C303  1  0.925150  0.686100  0.467960  1.0  0.6631
  C  C304  1  0.825550  0.062900  0.396340  1.0  0.1649
  C  C305  1  0.825560  0.811700  0.534600  1.0  -0.1168
  C  C306  1  0.610560  0.020400  0.459900  1.0  0.6929
  C  C307  1  0.881010  0.745600  0.474740  1.0  -0.1944
  C  C308  1  0.672120  0.915400  0.256290  1.0  0.166
  C  C309  1  0.851640  0.781300  0.424590  1.0  0.164
  C  C310  1  0.595150  0.915900  0.182300  1.0  0.7211
  C  C311  1  0.729450  0.908500  0.532040  1.0  -0.1161
  C  C312  1  0.885930  0.188400  0.439210  1.0  0.6717
  C  C313  1  0.816790  0.220300  0.354400  1.0  -0.0083
  C  C314  1  0.763140  0.092600  0.317740  1.0  0.135
  C  C315  1  0.776900  0.189100  0.315720  1.0  -0.164
  C  C316  1  0.842180  0.157100  0.395580  1.0  -0.2089
  C  C317  1  0.640230  0.965500  0.213290  1.0  -0.151
  C  C318  1  0.720740  0.050700  0.277540  1.0  0.1778
  C  C319  1  0.650750  0.060800  0.200860  1.0  -0.0414
  C  C320  1  0.690960  0.105100  0.234810  1.0  -0.1253
  N  N321  1  0.226260  0.585700  0.925250  1.0  -0.3207
  N  N322  1  0.212210  0.543800  0.787040  1.0  -0.2659
  N  N323  1  0.310740  0.669600  0.927120  1.0  -0.3582
  N  N324  1  0.287640  0.470200  0.857770  1.0  -0.3453
  N  N325  1  0.726260  0.085700  0.925250  1.0  -0.3207
  N  N326  1  0.712210  0.043800  0.787040  1.0  -0.2659
  N  N327  1  0.810740  0.169600  0.927120  1.0  -0.3582
  N  N328  1  0.787640  0.970200  0.857770  1.0  -0.3453
  N  N329  1  0.773740  0.585700  0.574750  1.0  -0.3212
  N  N330  1  0.787790  0.543800  0.712960  1.0  -0.2678
  N  N331  1  0.689260  0.669600  0.572880  1.0  -0.357
  N  N332  1  0.712360  0.470200  0.642230  1.0  -0.3451
  N  N333  1  0.273740  0.085700  0.574750  1.0  -0.3212
  N  N334  1  0.287790  0.043800  0.712960  1.0  -0.2678
  N  N335  1  0.189260  0.169600  0.572880  1.0  -0.357
  N  N336  1  0.212360  0.970200  0.642230  1.0  -0.3451
  N  N337  1  0.773740  0.414300  0.074750  1.0  -0.3212
  N  N338  1  0.787790  0.456200  0.212960  1.0  -0.2674
  N  N339  1  0.689260  0.330400  0.072880  1.0  -0.3587
  N  N340  1  0.712360  0.529800  0.142230  1.0  -0.3451
  N  N341  1  0.273740  0.914300  0.074750  1.0  -0.3212
  N  N342  1  0.287790  0.956200  0.212960  1.0  -0.2674
  N  N343  1  0.189260  0.830400  0.072880  1.0  -0.3587
  N  N344  1  0.212360  0.029800  0.142230  1.0  -0.3451
  N  N345  1  0.226260  0.414300  0.425250  1.0  -0.3208
  N  N346  1  0.212210  0.456200  0.287040  1.0  -0.2652
  N  N347  1  0.310740  0.330400  0.427120  1.0  -0.3579
  N  N348  1  0.287640  0.529800  0.357770  1.0  -0.3445
  N  N349  1  0.726260  0.914300  0.425250  1.0  -0.3208
  N  N350  1  0.712210  0.956200  0.287040  1.0  -0.2652
  N  N351  1  0.810740  0.830400  0.427120  1.0  -0.3579
  N  N352  1  0.787640  0.029800  0.357770  1.0  -0.3445
  Cl  Cl353  1  0.225670  0.772130  0.834150  1.0  -0.5787
  Cl  Cl354  1  0.725670  0.272130  0.834150  1.0  -0.5787
  Cl  Cl355  1  0.774330  0.772130  0.665850  1.0  -0.5793
  Cl  Cl356  1  0.274330  0.272130  0.665850  1.0  -0.5793
  Cl  Cl357  1  0.774330  0.227870  0.165850  1.0  -0.5798
  Cl  Cl358  1  0.274330  0.727870  0.165850  1.0  -0.5798
  Cl  Cl359  1  0.225670  0.227870  0.334150  1.0  -0.5786
  Cl  Cl360  1  0.725670  0.727870  0.334150  1.0  -0.5786
  O  O361  1  0.998970  0.536840  0.057410  1.0  -0.8876
  O  O362  1  0.086850  0.477490  0.907990  1.0  -0.5725
  O  O363  1  0.078140  0.554800  0.630370  1.0  -0.7118
  O  O364  1  0.078070  0.648980  0.711140  1.0  -0.5141
  O  O365  1  0.097230  0.447200  0.007130  1.0  -0.6769
  O  O366  1  0.451700  0.839260  0.016420  1.0  -0.6595
  O  O367  1  0.398440  0.360500  0.985550  1.0  -0.4977
  O  O368  1  0.406500  0.236010  0.924220  1.0  -0.7371
  O  O369  1  0.431530  0.833660  0.915770  1.0  -0.6044
  O  O370  1  0.498970  0.036840  0.057410  1.0  -0.8879
  O  O371  1  0.586850  0.977490  0.907990  1.0  -0.5725
  O  O372  1  0.578140  0.054800  0.630370  1.0  -0.7118
  O  O373  1  0.578070  0.148980  0.711140  1.0  -0.5141
  O  O374  1  0.597230  0.947200  0.007130  1.0  -0.6769
  O  O375  1  0.951700  0.339260  0.016420  1.0  -0.6595
  O  O376  1  0.898440  0.860500  0.985550  1.0  -0.4977
  O  O377  1  0.906500  0.736010  0.924220  1.0  -0.7371
  O  O378  1  0.931530  0.333660  0.915770  1.0  -0.6044
  O  O379  1  0.001030  0.536840  0.442590  1.0  -0.8866
  O  O380  1  0.913150  0.477490  0.592010  1.0  -0.5737
  O  O381  1  0.921860  0.554800  0.869630  1.0  -0.7112
  O  O382  1  0.921930  0.648980  0.788860  1.0  -0.5121
  O  O383  1  0.902770  0.447200  0.492870  1.0  -0.6776
  O  O384  1  0.548300  0.839260  0.483580  1.0  -0.6597
  O  O385  1  0.601560  0.360500  0.514450  1.0  -0.4971
  O  O386  1  0.593500  0.236010  0.575780  1.0  -0.7376
  O  O387  1  0.568470  0.833660  0.584230  1.0  -0.6128
  O  O388  1  0.501030  0.036840  0.442590  1.0  -0.8869
  O  O389  1  0.413150  0.977490  0.592010  1.0  -0.5737
  O  O390  1  0.421860  0.054800  0.869630  1.0  -0.7112
  O  O391  1  0.421930  0.148980  0.788860  1.0  -0.5121
  O  O392  1  0.402770  0.947200  0.492870  1.0  -0.6776
  O  O393  1  0.048300  0.339260  0.483580  1.0  -0.6597
  O  O394  1  0.101560  0.860500  0.514450  1.0  -0.4971
  O  O395  1  0.093500  0.736010  0.575780  1.0  -0.7376
  O  O396  1  0.068470  0.333660  0.584230  1.0  -0.6119
  O  O397  1  0.001030  0.463160  0.942590  1.0  -0.8867
  O  O398  1  0.913150  0.522510  0.092010  1.0  -0.5722
  O  O399  1  0.921860  0.445200  0.369630  1.0  -0.7107
  O  O400  1  0.921930  0.351020  0.288860  1.0  -0.5123
  O  O401  1  0.902770  0.552800  0.992870  1.0  -0.6784
  O  O402  1  0.548300  0.160740  0.983580  1.0  -0.6603
  O  O403  1  0.601560  0.639500  0.014450  1.0  -0.497
  O  O404  1  0.593500  0.763990  0.075780  1.0  -0.7362
  O  O405  1  0.568470  0.166340  0.084230  1.0  -0.6078
  O  O406  1  0.501030  0.963160  0.942590  1.0  -0.8871
  O  O407  1  0.413150  0.022510  0.092010  1.0  -0.5722
  O  O408  1  0.421860  0.945200  0.369630  1.0  -0.7107
  O  O409  1  0.421930  0.851020  0.288860  1.0  -0.5123
  O  O410  1  0.402770  0.052800  0.992870  1.0  -0.6784
  O  O411  1  0.048300  0.660740  0.983580  1.0  -0.6603
  O  O412  1  0.101560  0.139500  0.014450  1.0  -0.497
  O  O413  1  0.093500  0.263990  0.075780  1.0  -0.7362
  O  O414  1  0.068470  0.666340  0.084230  1.0  -0.6078
  O  O415  1  0.998970  0.463160  0.557410  1.0  -0.8867
  O  O416  1  0.086850  0.522510  0.407990  1.0  -0.5732
  O  O417  1  0.078140  0.445200  0.130370  1.0  -0.7114
  O  O418  1  0.078070  0.351020  0.211140  1.0  -0.5126
  O  O419  1  0.097230  0.552800  0.507130  1.0  -0.6769
  O  O420  1  0.451700  0.160740  0.516420  1.0  -0.6597
  O  O421  1  0.398440  0.639500  0.485550  1.0  -0.4976
  O  O422  1  0.406500  0.763990  0.424220  1.0  -0.736
  O  O423  1  0.431530  0.166340  0.415770  1.0  -0.6037
  O  O424  1  0.498970  0.963160  0.557410  1.0  -0.8879
  O  O425  1  0.586850  0.022510  0.407990  1.0  -0.5732
  O  O426  1  0.578140  0.945200  0.130370  1.0  -0.7114
  O  O427  1  0.578070  0.851020  0.211140  1.0  -0.5126
  O  O428  1  0.597230  0.052800  0.507130  1.0  -0.6769
  O  O429  1  0.951700  0.660740  0.516420  1.0  -0.6597
  O  O430  1  0.898440  0.139500  0.485550  1.0  -0.4976
  O  O431  1  0.906500  0.263990  0.424220  1.0  -0.736
  O  O432  1  0.931530  0.666340  0.415770  1.0  -0.6032
