# generated using pymatgen
data_ZnH8C13NO4
_symmetry_space_group_name_H-M   'P 1'
_cell_length_a   10.88600000
_cell_length_b   10.91900000
_cell_length_c   14.09100000
_cell_angle_alpha   89.29400000
_cell_angle_beta   89.08100000
_cell_angle_gamma   79.69100000
_symmetry_Int_Tables_number   1
_chemical_formula_structural   ZnH8C13NO4
_chemical_formula_sum   'Zn4 H32 C52 N4 O16'
_cell_volume   1647.58963490
_cell_formula_units_Z   4
loop_
 _symmetry_equiv_pos_site_id
 _symmetry_equiv_pos_as_xyz
  1  'x, y, z'
loop_
 _atom_site_type_symbol
 _atom_site_label
 _atom_site_symmetry_multiplicity
 _atom_site_fract_x
 _atom_site_fract_y
 _atom_site_fract_z
 _atom_site_occupancy
 _atom_site_charge
  Zn  Zn1  1  0.723480  0.835910  0.800740  1.0  0.9191
  Zn  Zn2  1  0.727720  0.839200  0.591230  1.0  0.9288
  Zn  Zn3  1  0.276520  0.164090  0.199260  1.0  0.9187
  Zn  Zn4  1  0.272280  0.160800  0.408770  1.0  0.9289
  H  H5  1  0.629700  0.254800  0.572700  1.0  0.1013
  H  H6  1  0.628000  0.474700  0.579900  1.0  0.1318
  H  H7  1  0.824100  0.416600  0.821800  1.0  0.0905
  H  H8  1  0.794000  0.212900  0.829600  1.0  0.105
  H  H9  1  0.330900  0.873900  0.549700  1.0  0.1086
  H  H10  1  0.114400  0.876500  0.552600  1.0  0.0988
  H  H11  1  0.122000  0.796500  0.832200  1.0  0.1032
  H  H12  1  0.336600  0.810700  0.836800  1.0  0.1172
  H  H13  1  0.911700  0.808300  0.428700  1.0  0.0871
  H  H14  1  0.920600  0.807000  0.266100  1.0  0.1292
  H  H15  1  0.542700  0.857300  0.268700  1.0  0.1143
  H  H16  1  0.547700  0.862400  0.433700  1.0  0.09
  H  H17  1  0.883400  0.703400  0.119100  1.0  0.1262
  H  H18  1  0.858300  0.690700  0.957300  1.0  0.0934
  H  H19  1  0.592400  0.978000  0.963100  1.0  0.0792
  H  H20  1  0.579500  0.972200  0.125900  1.0  0.1169
  H  H21  1  0.370300  0.745200  0.427300  1.0  0.1018
  H  H22  1  0.372000  0.525300  0.420100  1.0  0.1333
  H  H23  1  0.175900  0.583400  0.178200  1.0  0.0907
  H  H24  1  0.206000  0.787100  0.170400  1.0  0.1049
  H  H25  1  0.669100  0.126100  0.450300  1.0  0.109
  H  H26  1  0.885600  0.123500  0.447400  1.0  0.0988
  H  H27  1  0.878000  0.203500  0.167800  1.0  0.1033
  H  H28  1  0.663400  0.189300  0.163200  1.0  0.1174
  H  H29  1  0.088300  0.191700  0.571300  1.0  0.0872
  H  H30  1  0.079400  0.193000  0.733900  1.0  0.1292
  H  H31  1  0.457300  0.142700  0.731300  1.0  0.1139
  H  H32  1  0.452300  0.137600  0.566300  1.0  0.0891
  H  H33  1  0.116600  0.296600  0.880900  1.0  0.1265
  H  H34  1  0.141700  0.309300  0.042700  1.0  0.0927
  H  H35  1  0.407600  0.022000  0.036900  1.0  0.0797
  H  H36  1  0.420500  0.027800  0.874100  1.0  0.1153
  C  C37  1  0.710000  0.076900  0.699800  1.0  0.6929
  C  C38  1  0.722000  0.209600  0.700600  1.0  -0.0981
  C  C39  1  0.667200  0.289000  0.624100  1.0  -0.0769
  C  C40  1  0.669700  0.419000  0.626200  1.0  -0.0924
  C  C41  1  0.739400  0.462500  0.703100  1.0  -0.0893
  C  C42  1  0.781900  0.385800  0.771300  1.0  -0.0842
  C  C43  1  0.769200  0.261700  0.774600  1.0  -0.0856
  C  C44  1  0.743000  0.600300  0.702000  1.0  0.7152
  C  C45  1  0.487700  0.847300  0.692900  1.0  0.6708
  C  C46  1  0.352800  0.842500  0.693100  1.0  -0.1301
  C  C47  1  0.288700  0.860900  0.607500  1.0  -0.0947
  C  C48  1  0.160300  0.859400  0.609410  1.0  -0.0361
  C  C49  1  0.098400  0.833600  0.692100  1.0  -0.0964
  C  C50  1  0.164100  0.814400  0.775500  1.0  -0.0551
  C  C51  1  0.292600  0.820800  0.778700  1.0  -0.0863
  C  C52  1  0.961800  0.829300  0.691700  1.0  0.6764
  C  C53  1  0.835700  0.818600  0.394900  1.0  0.1743
  C  C54  1  0.842500  0.817400  0.298700  1.0  -0.2068
  C  C55  1  0.727700  0.832600  0.248200  1.0  0.0888
  C  C56  1  0.620600  0.847700  0.299800  1.0  -0.1737
  C  C57  1  0.624000  0.849300  0.398400  1.0  0.1673
  C  C58  1  0.727000  0.833400  0.142300  1.0  0.1293
  C  C59  1  0.815700  0.755400  0.088800  1.0  -0.1988
  C  C60  1  0.805200  0.753600  0.992100  1.0  0.1524
  C  C61  1  0.648100  0.915300  0.995800  1.0  0.1676
  C  C62  1  0.642000  0.915600  0.093300  1.0  -0.2111
  C  C63  1  0.290000  0.923100  0.300200  1.0  0.6931
  C  C64  1  0.278000  0.790400  0.299400  1.0  -0.0982
  C  C65  1  0.332800  0.711000  0.375900  1.0  -0.0777
  C  C66  1  0.330300  0.581000  0.373800  1.0  -0.0922
  C  C67  1  0.260600  0.537500  0.296900  1.0  -0.0894
  C  C68  1  0.218100  0.614200  0.228700  1.0  -0.0828
  C  C69  1  0.230800  0.738300  0.225400  1.0  -0.0851
  C  C70  1  0.257000  0.399700  0.298000  1.0  0.7142
  C  C71  1  0.512300  0.152700  0.307100  1.0  0.6708
  C  C72  1  0.647200  0.157500  0.306900  1.0  -0.1297
  C  C73  1  0.711300  0.139100  0.392500  1.0  -0.0958
  C  C74  1  0.839700  0.140600  0.390590  1.0  -0.0345
  C  C75  1  0.901600  0.166400  0.307900  1.0  -0.1001
  C  C76  1  0.835900  0.185600  0.224500  1.0  -0.0523
  C  C77  1  0.707400  0.179200  0.221300  1.0  -0.0889
  C  C78  1  0.038200  0.170700  0.308300  1.0  0.6765
  C  C79  1  0.164300  0.181400  0.605100  1.0  0.1747
  C  C80  1  0.157500  0.182600  0.701300  1.0  -0.2056
  C  C81  1  0.272300  0.167400  0.751800  1.0  0.0882
  C  C82  1  0.379400  0.152300  0.700200  1.0  -0.1736
  C  C83  1  0.376000  0.150700  0.601600  1.0  0.1654
  C  C84  1  0.273000  0.166600  0.857700  1.0  0.1289
  C  C85  1  0.184300  0.244600  0.911200  1.0  -0.198
  C  C86  1  0.194800  0.246400  0.007900  1.0  0.1527
  C  C87  1  0.351900  0.084700  0.004200  1.0  0.1662
  C  C88  1  0.358000  0.084400  0.906700  1.0  -0.2121
  N  N89  1  0.730600  0.833000  0.444300  1.0  -0.3029
  N  N90  1  0.723600  0.836600  0.945270  1.0  -0.2954
  N  N91  1  0.269400  0.167000  0.555700  1.0  -0.3047
  N  N92  1  0.276400  0.163400  0.054730  1.0  -0.2954
  O  O93  1  0.706700  0.025000  0.621120  1.0  -0.5877
  O  O94  1  0.705100  0.022100  0.777510  1.0  -0.6026
  O  O95  1  0.745200  0.654000  0.624830  1.0  -0.5933
  O  O96  1  0.742800  0.649980  0.781350  1.0  -0.6091
  O  O97  1  0.544700  0.852300  0.613010  1.0  -0.5935
  O  O98  1  0.541000  0.846800  0.770960  1.0  -0.594
  O  O99  1  0.913130  0.828300  0.609880  1.0  -0.5835
  O  O100  1  0.907700  0.824800  0.770180  1.0  -0.5944
  O  O101  1  0.293300  0.975000  0.378880  1.0  -0.5875
  O  O102  1  0.294900  0.977900  0.222490  1.0  -0.6032
  O  O103  1  0.254800  0.346000  0.375170  1.0  -0.5939
  O  O104  1  0.257200  0.350020  0.218650  1.0  -0.6108
  O  O105  1  0.455300  0.147700  0.386990  1.0  -0.5937
  O  O106  1  0.459000  0.153200  0.229040  1.0  -0.594
  O  O107  1  0.086870  0.171700  0.390120  1.0  -0.583
  O  O108  1  0.092300  0.175200  0.229820  1.0  -0.5931
