# generated using pymatgen
data_ZnH10C17NO4
_symmetry_space_group_name_H-M   'P 1'
_cell_length_a   12.97580000
_cell_length_b   13.10950000
_cell_length_c   13.92580000
_cell_angle_alpha   85.31000000
_cell_angle_beta   70.71000000
_cell_angle_gamma   84.19300000
_symmetry_Int_Tables_number   1
_chemical_formula_structural   ZnH10C17NO4
_chemical_formula_sum   'Zn4 H40 C68 N4 O16'
_cell_volume   2221.45102907
_cell_formula_units_Z   4
loop_
 _symmetry_equiv_pos_site_id
 _symmetry_equiv_pos_as_xyz
  1  'x, y, z'
loop_
 _atom_site_type_symbol
 _atom_site_label
 _atom_site_symmetry_multiplicity
 _atom_site_fract_x
 _atom_site_fract_y
 _atom_site_fract_z
 _atom_site_occupancy
 _atom_site_charge
  Zn  Zn1  1  0.192480  0.318910  0.663230  1.0  0.9185
  Zn  Zn2  1  0.128930  0.325620  0.886450  1.0  0.9298
  Zn  Zn3  1  0.807520  0.681090  0.336770  1.0  0.9183
  Zn  Zn4  1  0.871070  0.674380  0.113550  1.0  0.9306
  H  H5  1  0.760000  0.347400  0.970700  1.0  0.1105
  H  H6  1  0.582000  0.349800  0.972100  1.0  0.1089
  H  H7  1  0.872100  0.305100  0.668300  1.0  0.102
  H  H8  1  0.449000  0.329400  0.880500  1.0  0.1051
  H  H9  1  0.560600  0.286400  0.578500  1.0  0.1127
  H  H10  1  0.737200  0.287900  0.576500  1.0  0.0946
  H  H11  1  0.201000  0.988600  0.650800  1.0  0.108
  H  H12  1  0.105600  0.823400  0.976500  1.0  0.1201
  H  H13  1  0.117100  0.998900  0.957200  1.0  0.0997
  H  H14  1  0.124700  0.655500  0.898400  1.0  0.1011
  H  H15  1  0.170400  0.649700  0.601000  1.0  0.0859
  H  H16  1  0.184100  0.820000  0.573400  1.0  0.1196
  H  H17  1  0.119600  0.174900  0.058300  1.0  0.0985
  H  H18  1  0.135300  0.167200  0.217500  1.0  0.1081
  H  H19  1  0.099000  0.467600  0.216300  1.0  0.1111
  H  H20  1  0.081600  0.466300  0.060400  1.0  0.0765
  H  H21  1  0.196200  0.168000  0.342600  1.0  0.1296
  H  H22  1  0.209000  0.170600  0.504100  1.0  0.0867
  H  H23  1  0.090900  0.448300  0.528600  1.0  0.0719
  H  H24  1  0.065200  0.450200  0.373100  1.0  0.1302
  H  H25  1  0.240000  0.652600  0.029300  1.0  0.1102
  H  H26  1  0.418000  0.650200  0.027900  1.0  0.109
  H  H27  1  0.127900  0.694900  0.331700  1.0  0.1021
  H  H28  1  0.551000  0.670600  0.119500  1.0  0.1048
  H  H29  1  0.439400  0.713600  0.421500  1.0  0.1128
  H  H30  1  0.262800  0.712100  0.423500  1.0  0.0945
  H  H31  1  0.799000  0.011400  0.349200  1.0  0.1081
  H  H32  1  0.894400  0.176600  0.023500  1.0  0.1202
  H  H33  1  0.882900  0.001100  0.042800  1.0  0.1
  H  H34  1  0.875300  0.344500  0.101600  1.0  0.1014
  H  H35  1  0.829600  0.350300  0.399000  1.0  0.0865
  H  H36  1  0.815900  0.180000  0.426600  1.0  0.12
  H  H37  1  0.880400  0.825100  0.941700  1.0  0.0991
  H  H38  1  0.864700  0.832800  0.782500  1.0  0.1079
  H  H39  1  0.901000  0.532400  0.783700  1.0  0.1107
  H  H40  1  0.918400  0.533700  0.939600  1.0  0.0765
  H  H41  1  0.803800  0.832000  0.657400  1.0  0.1291
  H  H42  1  0.791000  0.829400  0.495900  1.0  0.0881
  H  H43  1  0.909100  0.551700  0.471400  1.0  0.0721
  H  H44  1  0.934800  0.549800  0.626900  1.0  0.1293
  C  C45  1  0.948390  0.328320  0.815270  1.0  0.6671
  C  C46  1  0.832980  0.326940  0.817090  1.0  -0.1245
  C  C47  1  0.745390  0.339220  0.909340  1.0  -0.0595
  C  C48  1  0.640240  0.339280  0.910160  1.0  -0.1347
  C  C49  1  0.615710  0.324080  0.821330  1.0  0.0405
  C  C50  1  0.704350  0.310940  0.728310  1.0  0.0412
  C  C51  1  0.812520  0.313270  0.729710  1.0  -0.0912
  C  C52  1  0.508660  0.321750  0.818990  1.0  -0.0673
  C  C53  1  0.487390  0.308860  0.731000  1.0  -0.1228
  C  C54  1  0.574880  0.295860  0.639690  1.0  -0.0409
  C  C55  1  0.679070  0.296860  0.638790  1.0  -0.1417
  C  C56  1  0.370240  0.311860  0.733140  1.0  0.691
  C  C57  1  0.162800  0.125640  0.790670  1.0  0.6888
  C  C58  1  0.159910  0.011210  0.801090  1.0  -0.1193
  C  C59  1  0.181660  0.954840  0.716650  1.0  -0.0481
  C  C60  1  0.175580  0.847510  0.726620  1.0  0.0228
  C  C61  1  0.147660  0.797460  0.824170  1.0  0.0354
  C  C62  1  0.125250  0.856210  0.910270  1.0  -0.1278
  C  C63  1  0.131740  0.960210  0.898720  1.0  -0.039
  C  C64  1  0.142180  0.689760  0.832840  1.0  -0.0846
  C  C65  1  0.161330  0.634100  0.749720  1.0  -0.1287
  C  C66  1  0.170000  0.688250  0.656040  1.0  -0.0414
  C  C67  1  0.177600  0.787690  0.638480  1.0  -0.1326
  C  C68  1  0.157460  0.519220  0.760330  1.0  0.6629
  C  C69  1  0.129500  0.235950  0.085450  1.0  0.1465
  C  C70  1  0.138600  0.231200  0.179750  1.0  -0.2
  C  C71  1  0.153260  0.322220  0.223500  1.0  0.0946
  C  C72  1  0.163990  0.320670  0.325880  1.0  0.1245
  C  C73  1  0.117980  0.405910  0.180940  1.0  -0.1924
  C  C74  1  0.108620  0.404400  0.087290  1.0  0.1778
  C  C75  1  0.186600  0.231330  0.374230  1.0  -0.2154
  C  C76  1  0.195400  0.234000  0.470460  1.0  0.1552
  C  C77  1  0.125800  0.393990  0.485130  1.0  0.1675
  C  C78  1  0.111100  0.396800  0.391980  1.0  -0.2072
  C  C79  1  0.051610  0.671680  0.184730  1.0  0.6667
  C  C80  1  0.167020  0.673060  0.182910  1.0  -0.1248
  C  C81  1  0.254610  0.660780  0.090660  1.0  -0.0577
  C  C82  1  0.359760  0.660720  0.089840  1.0  -0.1337
  C  C83  1  0.384290  0.675920  0.178670  1.0  0.0415
  C  C84  1  0.295650  0.689060  0.271690  1.0  0.0407
  C  C85  1  0.187480  0.686730  0.270290  1.0  -0.0919
  C  C86  1  0.491340  0.678250  0.181010  1.0  -0.0654
  C  C87  1  0.512610  0.691140  0.269000  1.0  -0.1226
  C  C88  1  0.425120  0.704140  0.360310  1.0  -0.0415
  C  C89  1  0.320930  0.703140  0.361210  1.0  -0.1415
  C  C90  1  0.629760  0.688140  0.266860  1.0  0.6928
  C  C91  1  0.837200  0.874360  0.209330  1.0  0.6888
  C  C92  1  0.840090  0.988790  0.198910  1.0  -0.1195
  C  C93  1  0.818340  0.045160  0.283350  1.0  -0.0561
  C  C94  1  0.824420  0.152490  0.273380  1.0  0.0236
  C  C95  1  0.852340  0.202540  0.175830  1.0  0.0371
  C  C96  1  0.874750  0.143790  0.089730  1.0  -0.127
  C  C97  1  0.868260  0.039790  0.101280  1.0  -0.0385
  C  C98  1  0.857820  0.310240  0.167160  1.0  -0.0874
  C  C99  1  0.838670  0.365900  0.250280  1.0  -0.1287
  C  C100  1  0.830000  0.311750  0.343960  1.0  -0.0403
  C  C101  1  0.822400  0.212310  0.361520  1.0  -0.1348
  C  C102  1  0.842540  0.480780  0.239670  1.0  0.663
  C  C103  1  0.870500  0.764050  0.914550  1.0  0.1493
  C  C104  1  0.861400  0.768800  0.820250  1.0  -0.1974
  C  C105  1  0.846740  0.677780  0.776500  1.0  0.0932
  C  C106  1  0.836010  0.679330  0.674120  1.0  0.1244
  C  C107  1  0.882020  0.594090  0.819060  1.0  -0.1925
  C  C108  1  0.891380  0.595600  0.912710  1.0  0.1743
  C  C109  1  0.813400  0.768670  0.625770  1.0  -0.2169
  C  C110  1  0.804600  0.766000  0.529540  1.0  0.1545
  C  C111  1  0.874200  0.606010  0.514870  1.0  0.166
  C  C112  1  0.888900  0.603200  0.608020  1.0  -0.2079
  N  N113  1  0.133990  0.323780  0.029640  1.0  -0.2868
  N  N114  1  0.186010  0.320080  0.519200  1.0  -0.27
  N  N115  1  0.866010  0.676220  0.970360  1.0  -0.2865
  N  N116  1  0.813990  0.679920  0.480800  1.0  -0.2704
  O  O117  1  0.966100  0.334850  0.898230  1.0  -0.5673
  O  O118  1  0.022600  0.326300  0.728780  1.0  -0.6231
  O  O119  1  0.296850  0.314560  0.817600  1.0  -0.6162
  O  O120  1  0.354380  0.311950  0.648600  1.0  -0.5873
  O  O121  1  0.191990  0.166320  0.700960  1.0  -0.5976
  O  O122  1  0.133470  0.172740  0.871440  1.0  -0.6
  O  O123  1  0.181000  0.472800  0.678590  1.0  -0.5989
  O  O124  1  0.131210  0.478040  0.848950  1.0  -0.5787
  O  O125  1  0.033900  0.665150  0.101770  1.0  -0.5664
  O  O126  1  0.977400  0.673700  0.271220  1.0  -0.623
  O  O127  1  0.703150  0.685440  0.182400  1.0  -0.6147
  O  O128  1  0.645620  0.688050  0.351400  1.0  -0.5863
  O  O129  1  0.808010  0.833680  0.299040  1.0  -0.5981
  O  O130  1  0.866530  0.827260  0.128560  1.0  -0.5988
  O  O131  1  0.819000  0.527200  0.321410  1.0  -0.5983
  O  O132  1  0.868790  0.521960  0.151050  1.0  -0.5787
