# generated using pymatgen
data_ZnH6C9NO4
_symmetry_space_group_name_H-M   'P 1'
_cell_length_a   8.87370000
_cell_length_b   8.87370000
_cell_length_c   14.04040000
_cell_angle_alpha   78.38820000
_cell_angle_beta   78.38820000
_cell_angle_gamma   81.49050000
_symmetry_Int_Tables_number   1
_chemical_formula_structural   ZnH6C9NO4
_chemical_formula_sum   'Zn4 H24 C36 N4 O16'
_cell_volume   1054.11220697
_cell_formula_units_Z   4
loop_
 _symmetry_equiv_pos_site_id
 _symmetry_equiv_pos_as_xyz
  1  'x, y, z'
loop_
 _atom_site_type_symbol
 _atom_site_label
 _atom_site_symmetry_multiplicity
 _atom_site_fract_x
 _atom_site_fract_y
 _atom_site_fract_z
 _atom_site_occupancy
 _atom_site_charge
  Zn  Zn1  1  0.761540  0.761540  0.582640  1.0  0.9246
  Zn  Zn2  1  0.731080  0.731080  0.799250  1.0  0.9125
  Zn  Zn3  1  0.238460  0.238460  0.417360  1.0  0.9239
  Zn  Zn4  1  0.268920  0.268920  0.200750  1.0  0.9121
  H  H5  1  0.221400  0.734400  0.793200  1.0  0.1108
  H  H6  1  0.268300  0.768100  0.589800  1.0  0.0996
  H  H7  1  0.925500  0.586700  0.424600  1.0  0.0811
  H  H8  1  0.920000  0.574400  0.261700  1.0  0.1191
  H  H9  1  0.899100  0.568100  0.122600  1.0  0.1262
  H  H10  1  0.882800  0.568000  0.961100  1.0  0.0612
  H  H11  1  0.734400  0.221400  0.793200  1.0  0.1109
  H  H12  1  0.768100  0.268300  0.589800  1.0  0.0994
  H  H13  1  0.586700  0.925500  0.424600  1.0  0.0805
  H  H14  1  0.574400  0.920000  0.261700  1.0  0.1205
  H  H15  1  0.568100  0.899100  0.122600  1.0  0.1278
  H  H16  1  0.568000  0.882800  0.961100  1.0  0.06
  H  H17  1  0.265600  0.778600  0.206800  1.0  0.1108
  H  H18  1  0.231900  0.731700  0.410200  1.0  0.1009
  H  H19  1  0.413300  0.074500  0.575400  1.0  0.0808
  H  H20  1  0.425600  0.080000  0.738300  1.0  0.1193
  H  H21  1  0.431900  0.100900  0.877400  1.0  0.1267
  H  H22  1  0.432000  0.117200  0.038900  1.0  0.0605
  H  H23  1  0.778600  0.265600  0.206800  1.0  0.1111
  H  H24  1  0.731700  0.231900  0.410200  1.0  0.1007
  H  H25  1  0.074500  0.413300  0.575400  1.0  0.0801
  H  H26  1  0.080000  0.425600  0.738300  1.0  0.1189
  H  H27  1  0.100900  0.431900  0.877400  1.0  0.1267
  H  H28  1  0.117200  0.432000  0.038900  1.0  0.0598
  C  C29  1  0.449600  0.756200  0.716400  1.0  0.6919
  C  C30  1  0.280600  0.746400  0.728300  1.0  -0.2036
  C  C31  1  0.209400  0.753400  0.654700  1.0  -0.1762
  C  C32  1  0.040600  0.739800  0.666300  1.0  0.6918
  C  C33  1  0.853300  0.656300  0.391100  1.0  0.1753
  C  C34  1  0.849200  0.647000  0.294300  1.0  -0.1809
  C  C35  1  0.824300  0.639500  0.092300  1.0  -0.196
  C  C36  1  0.812800  0.641200  0.993700  1.0  0.1718
  C  C37  1  0.756200  0.449600  0.716400  1.0  0.6938
  C  C38  1  0.746400  0.280600  0.728300  1.0  -0.2054
  C  C39  1  0.753400  0.209400  0.654700  1.0  -0.1774
  C  C40  1  0.739800  0.040600  0.666300  1.0  0.6929
  C  C41  1  0.656300  0.853300  0.391100  1.0  0.1801
  C  C42  1  0.647000  0.849200  0.294300  1.0  -0.1828
  C  C43  1  0.639500  0.824300  0.092300  1.0  -0.194
  C  C44  1  0.641200  0.812800  0.993700  1.0  0.1719
  C  C45  1  0.743000  0.743000  0.246000  1.0  0.0831
  C  C46  1  0.734300  0.734300  0.141100  1.0  0.1695
  C  C47  1  0.243800  0.550400  0.283600  1.0  0.6935
  C  C48  1  0.253600  0.719400  0.271700  1.0  -0.2044
  C  C49  1  0.246600  0.790600  0.345300  1.0  -0.1771
  C  C50  1  0.260200  0.959400  0.333700  1.0  0.6933
  C  C51  1  0.343700  0.146700  0.608900  1.0  0.1755
  C  C52  1  0.353000  0.150800  0.705700  1.0  -0.1823
  C  C53  1  0.360500  0.175700  0.907700  1.0  -0.194
  C  C54  1  0.358800  0.187200  0.006300  1.0  0.1715
  C  C55  1  0.550400  0.243800  0.283600  1.0  0.691
  C  C56  1  0.719400  0.253600  0.271700  1.0  -0.2031
  C  C57  1  0.790600  0.246600  0.345300  1.0  -0.1763
  C  C58  1  0.959400  0.260200  0.333700  1.0  0.694
  C  C59  1  0.146700  0.343700  0.608900  1.0  0.1802
  C  C60  1  0.150800  0.353000  0.705700  1.0  -0.1839
  C  C61  1  0.175700  0.360500  0.907700  1.0  -0.1942
  C  C62  1  0.187200  0.358800  0.006300  1.0  0.1716
  C  C63  1  0.257000  0.257000  0.754000  1.0  0.0813
  C  C64  1  0.265700  0.265700  0.858900  1.0  0.1704
  N  N65  1  0.759400  0.759400  0.438800  1.0  -0.3008
  N  N66  1  0.724500  0.724500  0.945400  1.0  -0.2141
  N  N67  1  0.240600  0.240600  0.561200  1.0  -0.3019
  N  N68  1  0.275500  0.275500  0.054600  1.0  -0.206
  O  O69  1  0.527900  0.772100  0.632200  1.0  -0.5903
  O  O70  1  0.501900  0.744300  0.795800  1.0  -0.6047
  O  O71  1  0.964600  0.721800  0.752600  1.0  -0.5941
  O  O72  1  0.990000  0.747000  0.588400  1.0  -0.5743
  O  O73  1  0.772100  0.527900  0.632200  1.0  -0.5913
  O  O74  1  0.744300  0.501900  0.795800  1.0  -0.6044
  O  O75  1  0.721800  0.964600  0.752600  1.0  -0.5959
  O  O76  1  0.747000  0.990000  0.588400  1.0  -0.5758
  O  O77  1  0.227900  0.472100  0.367800  1.0  -0.5908
  O  O78  1  0.255700  0.498100  0.204200  1.0  -0.605
  O  O79  1  0.278200  0.035400  0.247400  1.0  -0.5947
  O  O80  1  0.253000  0.010000  0.411600  1.0  -0.5739
  O  O81  1  0.472100  0.227900  0.367800  1.0  -0.5886
  O  O82  1  0.498100  0.255700  0.204200  1.0  -0.6064
  O  O83  1  0.035400  0.278200  0.247400  1.0  -0.5935
  O  O84  1  0.010000  0.253000  0.411600  1.0  -0.573
