# generated using pymatgen
data_ZnH5C13N3O5
_symmetry_space_group_name_H-M   'P 1'
_cell_length_a   18.89840000
_cell_length_b   17.70310000
_cell_length_c   14.47540000
_cell_angle_alpha   90.00000000
_cell_angle_beta   96.60200000
_cell_angle_gamma   90.00000000
_symmetry_Int_Tables_number   1
_chemical_formula_structural   ZnH5C13N3O5
_chemical_formula_sum   'Zn8 H40 C104 N24 O40'
_cell_volume   4810.77923617
_cell_formula_units_Z   8
loop_
 _symmetry_equiv_pos_site_id
 _symmetry_equiv_pos_as_xyz
  1  'x, y, z'
loop_
 _atom_site_type_symbol
 _atom_site_label
 _atom_site_symmetry_multiplicity
 _atom_site_fract_x
 _atom_site_fract_y
 _atom_site_fract_z
 _atom_site_occupancy
 _atom_site_charge
  Zn  Zn1  1  0.290210  0.247160  0.073970  1.0  1.1283
  Zn  Zn2  1  0.165590  0.311710  0.883140  1.0  1.0549
  Zn  Zn3  1  0.790210  0.747160  0.073970  1.0  1.1283
  Zn  Zn4  1  0.665590  0.811710  0.883140  1.0  1.0549
  Zn  Zn5  1  0.709790  0.247160  0.926030  1.0  1.13
  Zn  Zn6  1  0.834410  0.311710  0.116860  1.0  1.0558
  Zn  Zn7  1  0.209790  0.747160  0.926030  1.0  1.1299
  Zn  Zn8  1  0.334410  0.811710  0.116860  1.0  1.0558
  H  H9  1  0.198300  0.350600  0.278400  1.0  0.1257
  H  H10  1  0.097800  0.349000  0.176100  1.0  0.1025
  H  H11  1  0.977300  0.361900  0.385200  1.0  0.1428
  H  H12  1  0.080100  0.363100  0.484800  1.0  0.1072
  H  H13  1  0.334800  0.356500  0.698800  1.0  0.128
  H  H14  1  0.442000  0.250300  0.918000  1.0  0.1231
  H  H15  1  0.542500  0.313400  0.699000  1.0  0.1299
  H  H16  1  0.294500  0.382700  0.203900  1.0  0.1389
  H  H17  1  0.226000  0.531500  0.003300  1.0  0.1365
  H  H18  1  0.367000  0.595300  0.220100  1.0  0.1402
  H  H19  1  0.698300  0.850600  0.278400  1.0  0.1257
  H  H20  1  0.597800  0.849000  0.176100  1.0  0.1025
  H  H21  1  0.477300  0.861900  0.385200  1.0  0.1428
  H  H22  1  0.580100  0.863100  0.484800  1.0  0.1072
  H  H23  1  0.834800  0.856500  0.698800  1.0  0.128
  H  H24  1  0.942000  0.750300  0.918000  1.0  0.1231
  H  H25  1  0.042500  0.813400  0.699000  1.0  0.1299
  H  H26  1  0.794500  0.882700  0.203900  1.0  0.1389
  H  H27  1  0.726000  0.031500  0.003300  1.0  0.1365
  H  H28  1  0.867000  0.095300  0.220100  1.0  0.1402
  H  H29  1  0.801700  0.350600  0.721600  1.0  0.1261
  H  H30  1  0.902200  0.349000  0.823900  1.0  0.1013
  H  H31  1  0.022700  0.361900  0.614800  1.0  0.1445
  H  H32  1  0.919900  0.363100  0.515200  1.0  0.1083
  H  H33  1  0.665200  0.356500  0.301200  1.0  0.128
  H  H34  1  0.558000  0.250300  0.082000  1.0  0.1233
  H  H35  1  0.457500  0.313400  0.301000  1.0  0.1303
  H  H36  1  0.705500  0.382700  0.796100  1.0  0.1384
  H  H37  1  0.774000  0.531500  0.996700  1.0  0.1367
  H  H38  1  0.633000  0.595300  0.779900  1.0  0.1407
  H  H39  1  0.301700  0.850600  0.721600  1.0  0.1261
  H  H40  1  0.402200  0.849000  0.823900  1.0  0.1013
  H  H41  1  0.522700  0.861900  0.614800  1.0  0.1445
  H  H42  1  0.419900  0.863100  0.515200  1.0  0.1083
  H  H43  1  0.165200  0.856500  0.301200  1.0  0.128
  H  H44  1  0.058000  0.750300  0.082000  1.0  0.1233
  H  H45  1  0.957500  0.813400  0.301000  1.0  0.1303
  H  H46  1  0.205500  0.882700  0.796100  1.0  0.1384
  H  H47  1  0.274000  0.031500  0.996700  1.0  0.1367
  H  H48  1  0.133000  0.095300  0.779900  1.0  0.1407
  C  C49  1  0.149900  0.352500  0.394300  1.0  0.331
  C  C50  1  0.154100  0.350200  0.300600  1.0  -0.1674
  C  C51  1  0.093300  0.347400  0.239300  1.0  -0.0291
  C  C52  1  0.027600  0.342500  0.265300  1.0  -0.1024
  C  C53  1  0.021300  0.355500  0.363400  1.0  -0.1207
  C  C54  1  0.083400  0.357700  0.421500  1.0  -0.1209
  C  C55  1  0.962100  0.333600  0.200300  1.0  0.6743
  C  C56  1  0.437800  0.338200  0.683400  1.0  0.2345
  C  C57  1  0.377200  0.336900  0.728200  1.0  -0.0825
  C  C58  1  0.379200  0.305900  0.819000  1.0  -0.0992
  C  C59  1  0.441200  0.273800  0.860400  1.0  0.0196
  C  C60  1  0.501700  0.276400  0.816800  1.0  -0.0784
  C  C61  1  0.500900  0.310200  0.727400  1.0  -0.0754
  C  C62  1  0.314000  0.306300  0.868400  1.0  0.7443
  C  C63  1  0.571000  0.246600  0.863700  1.0  0.7152
  C  C64  1  0.336900  0.487900  0.224300  1.0  0.1879
  C  C65  1  0.295100  0.431100  0.178800  1.0  -0.1381
  C  C66  1  0.254300  0.448200  0.095400  1.0  -0.1233
  C  C67  1  0.254200  0.520200  0.058500  1.0  0.0083
  C  C68  1  0.297300  0.576200  0.105800  1.0  -0.1589
  C  C69  1  0.338400  0.558500  0.188800  1.0  -0.0905
  C  C70  1  0.213000  0.387400  0.044100  1.0  0.7043
  C  C71  1  0.294300  0.653800  0.066500  1.0  0.7811
  C  C72  1  0.278000  0.376600  0.455100  1.0  0.3624
  C  C73  1  0.388100  0.385700  0.524900  1.0  0.4535
  C  C74  1  0.359700  0.431500  0.380700  1.0  0.5307
  C  C75  1  0.649900  0.852500  0.394300  1.0  0.331
  C  C76  1  0.654100  0.850200  0.300600  1.0  -0.1674
  C  C77  1  0.593300  0.847400  0.239300  1.0  -0.0291
  C  C78  1  0.527600  0.842500  0.265300  1.0  -0.1024
  C  C79  1  0.521300  0.855500  0.363400  1.0  -0.1207
  C  C80  1  0.583400  0.857700  0.421500  1.0  -0.1209
  C  C81  1  0.462100  0.833600  0.200300  1.0  0.6743
  C  C82  1  0.937800  0.838200  0.683400  1.0  0.2345
  C  C83  1  0.877200  0.836900  0.728200  1.0  -0.0825
  C  C84  1  0.879200  0.805900  0.819000  1.0  -0.0992
  C  C85  1  0.941200  0.773800  0.860400  1.0  0.0196
  C  C86  1  0.001700  0.776400  0.816800  1.0  -0.0784
  C  C87  1  0.000900  0.810200  0.727400  1.0  -0.0754
  C  C88  1  0.814000  0.806300  0.868400  1.0  0.7443
  C  C89  1  0.071000  0.746600  0.863700  1.0  0.7152
  C  C90  1  0.836900  0.987900  0.224300  1.0  0.1879
  C  C91  1  0.795100  0.931100  0.178800  1.0  -0.1381
  C  C92  1  0.754300  0.948200  0.095400  1.0  -0.1233
  C  C93  1  0.754200  0.020200  0.058500  1.0  0.0083
  C  C94  1  0.797300  0.076200  0.105800  1.0  -0.1589
  C  C95  1  0.838400  0.058500  0.188800  1.0  -0.0905
  C  C96  1  0.713000  0.887400  0.044100  1.0  0.7043
  C  C97  1  0.794300  0.153800  0.066500  1.0  0.7811
  C  C98  1  0.778000  0.876600  0.455100  1.0  0.3624
  C  C99  1  0.888100  0.885700  0.524900  1.0  0.4535
  C  C100  1  0.859700  0.931500  0.380700  1.0  0.5307
  C  C101  1  0.850100  0.352500  0.605700  1.0  0.3271
  C  C102  1  0.845900  0.350200  0.699400  1.0  -0.1693
  C  C103  1  0.906700  0.347400  0.760700  1.0  -0.0274
  C  C104  1  0.972400  0.342500  0.734700  1.0  -0.1016
  C  C105  1  0.978700  0.355500  0.636600  1.0  -0.1214
  C  C106  1  0.916600  0.357700  0.578500  1.0  -0.125
  C  C107  1  0.037900  0.333600  0.799700  1.0  0.6748
  C  C108  1  0.562200  0.338200  0.316600  1.0  0.2313
  C  C109  1  0.622800  0.336900  0.271800  1.0  -0.0828
  C  C110  1  0.620800  0.305900  0.181000  1.0  -0.0998
  C  C111  1  0.558800  0.273800  0.139600  1.0  0.0199
  C  C112  1  0.498300  0.276400  0.183200  1.0  -0.0787
  C  C113  1  0.499100  0.310200  0.272600  1.0  -0.076
  C  C114  1  0.686000  0.306300  0.131600  1.0  0.7436
  C  C115  1  0.429000  0.246600  0.136300  1.0  0.7161
  C  C116  1  0.663100  0.487900  0.775700  1.0  0.1892
  C  C117  1  0.704900  0.431100  0.821200  1.0  -0.1384
  C  C118  1  0.745700  0.448200  0.904600  1.0  -0.1219
  C  C119  1  0.745800  0.520200  0.941500  1.0  0.0078
  C  C120  1  0.702700  0.576200  0.894200  1.0  -0.1586
  C  C121  1  0.661600  0.558500  0.811200  1.0  -0.0898
  C  C122  1  0.787000  0.387400  0.955900  1.0  0.7042
  C  C123  1  0.705700  0.653800  0.933500  1.0  0.7784
  C  C124  1  0.722000  0.376600  0.544900  1.0  0.3615
  C  C125  1  0.611900  0.385700  0.475100  1.0  0.4532
  C  C126  1  0.640300  0.431500  0.619300  1.0  0.5315
  C  C127  1  0.350100  0.852500  0.605700  1.0  0.3271
  C  C128  1  0.345900  0.850200  0.699400  1.0  -0.1693
  C  C129  1  0.406700  0.847400  0.760700  1.0  -0.0274
  C  C130  1  0.472400  0.842500  0.734700  1.0  -0.1016
  C  C131  1  0.478700  0.855500  0.636600  1.0  -0.1214
  C  C132  1  0.416600  0.857700  0.578500  1.0  -0.125
  C  C133  1  0.537900  0.833600  0.799700  1.0  0.6748
  C  C134  1  0.062200  0.838200  0.316600  1.0  0.2313
  C  C135  1  0.122800  0.836900  0.271800  1.0  -0.0828
  C  C136  1  0.120800  0.805900  0.181000  1.0  -0.0998
  C  C137  1  0.058800  0.773800  0.139600  1.0  0.0199
  C  C138  1  0.998300  0.776400  0.183200  1.0  -0.0787
  C  C139  1  0.999100  0.810200  0.272600  1.0  -0.076
  C  C140  1  0.186000  0.806300  0.131600  1.0  0.7436
  C  C141  1  0.929000  0.746600  0.136300  1.0  0.7161
  C  C142  1  0.163100  0.987900  0.775700  1.0  0.1892
  C  C143  1  0.204900  0.931100  0.821200  1.0  -0.1384
  C  C144  1  0.245700  0.948200  0.904600  1.0  -0.1219
  C  C145  1  0.245800  0.020200  0.941500  1.0  0.0078
  C  C146  1  0.202700  0.076200  0.894200  1.0  -0.1586
  C  C147  1  0.161600  0.058500  0.811200  1.0  -0.0898
  C  C148  1  0.287000  0.887400  0.955900  1.0  0.7042
  C  C149  1  0.205700  0.153800  0.933500  1.0  0.7784
  C  C150  1  0.222000  0.876600  0.544900  1.0  0.3615
  C  C151  1  0.111900  0.885700  0.475100  1.0  0.4532
  C  C152  1  0.140300  0.931500  0.619300  1.0  0.5315
  N  N153  1  0.412600  0.417400  0.450300  1.0  -0.3312
  N  N154  1  0.322500  0.362300  0.532600  1.0  -0.2611
  N  N155  1  0.292700  0.412800  0.378400  1.0  -0.2408
  N  N156  1  0.441400  0.372000  0.596000  1.0  -0.3762
  N  N157  1  0.380900  0.469700  0.309900  1.0  -0.3783
  N  N158  1  0.208400  0.353400  0.463500  1.0  -0.4006
  N  N159  1  0.912600  0.917400  0.450300  1.0  -0.3312
  N  N160  1  0.822500  0.862300  0.532600  1.0  -0.2611
  N  N161  1  0.792700  0.912800  0.378400  1.0  -0.2408
  N  N162  1  0.941400  0.872000  0.596000  1.0  -0.3762
  N  N163  1  0.880900  0.969700  0.309900  1.0  -0.3783
  N  N164  1  0.708400  0.853400  0.463500  1.0  -0.4006
  N  N165  1  0.587400  0.417400  0.549700  1.0  -0.3305
  N  N166  1  0.677500  0.362300  0.467400  1.0  -0.2634
  N  N167  1  0.707300  0.412800  0.621600  1.0  -0.2415
  N  N168  1  0.558600  0.372000  0.404000  1.0  -0.3765
  N  N169  1  0.619100  0.469700  0.690100  1.0  -0.3763
  N  N170  1  0.791600  0.353400  0.536500  1.0  -0.4027
  N  N171  1  0.087400  0.917400  0.549700  1.0  -0.3305
  N  N172  1  0.177500  0.862300  0.467400  1.0  -0.2634
  N  N173  1  0.207300  0.912800  0.621600  1.0  -0.2415
  N  N174  1  0.058600  0.872000  0.404000  1.0  -0.3765
  N  N175  1  0.119100  0.969700  0.690100  1.0  -0.3763
  N  N176  1  0.291600  0.853400  0.536500  1.0  -0.4027
  O  O177  1  0.901500  0.334400  0.229700  1.0  -0.569
  O  O178  1  0.965300  0.323000  0.115700  1.0  -0.5962
  O  O179  1  0.253920  0.311400  0.819700  1.0  -0.567
  O  O180  1  0.323500  0.306400  0.955600  1.0  -0.6176
  O  O181  1  0.626900  0.277000  0.843600  1.0  -0.5788
  O  O182  1  0.570600  0.192900  0.920800  1.0  -0.5157
  O  O183  1  0.182200  0.402400  0.963000  1.0  -0.5915
  O  O184  1  0.212280  0.322100  0.078700  1.0  -0.5953
  O  O185  1  0.243500  0.666200  0.008600  1.0  -0.5862
  O  O186  1  0.341200  0.700200  0.097300  1.0  -0.6056
  O  O187  1  0.401500  0.834400  0.229700  1.0  -0.569
  O  O188  1  0.465300  0.823000  0.115700  1.0  -0.5962
  O  O189  1  0.753920  0.811400  0.819700  1.0  -0.567
  O  O190  1  0.823500  0.806400  0.955600  1.0  -0.6176
  O  O191  1  0.126900  0.777000  0.843600  1.0  -0.5788
  O  O192  1  0.070600  0.692900  0.920800  1.0  -0.5157
  O  O193  1  0.682200  0.902400  0.963000  1.0  -0.5915
  O  O194  1  0.712280  0.822100  0.078700  1.0  -0.5953
  O  O195  1  0.743500  0.166200  0.008600  1.0  -0.5862
  O  O196  1  0.841200  0.200200  0.097300  1.0  -0.6056
  O  O197  1  0.098500  0.334400  0.770300  1.0  -0.5704
  O  O198  1  0.034700  0.323000  0.884300  1.0  -0.5977
  O  O199  1  0.746080  0.311400  0.180300  1.0  -0.5675
  O  O200  1  0.676500  0.306400  0.044400  1.0  -0.6172
  O  O201  1  0.373100  0.277000  0.156400  1.0  -0.578
  O  O202  1  0.429400  0.192900  0.079200  1.0  -0.5169
  O  O203  1  0.817800  0.402400  0.037000  1.0  -0.5902
  O  O204  1  0.787720  0.322100  0.921300  1.0  -0.5957
  O  O205  1  0.756500  0.666200  0.991400  1.0  -0.586
  O  O206  1  0.658800  0.700200  0.902700  1.0  -0.6079
  O  O207  1  0.598500  0.834400  0.770300  1.0  -0.5705
  O  O208  1  0.534700  0.823000  0.884300  1.0  -0.5977
  O  O209  1  0.246080  0.811400  0.180300  1.0  -0.5675
  O  O210  1  0.176500  0.806400  0.044400  1.0  -0.6172
  O  O211  1  0.873100  0.777000  0.156400  1.0  -0.578
  O  O212  1  0.929400  0.692900  0.079200  1.0  -0.5169
  O  O213  1  0.317800  0.902400  0.037000  1.0  -0.5902
  O  O214  1  0.287720  0.822100  0.921300  1.0  -0.5957
  O  O215  1  0.256500  0.166200  0.991400  1.0  -0.586
  O  O216  1  0.158800  0.200200  0.902700  1.0  -0.6079
