# generated using pymatgen
data_Zn2H13C26(N3O5)2
_symmetry_space_group_name_H-M   'P 1'
_cell_length_a   31.85500000
_cell_length_b   17.26800000
_cell_length_c   30.29300000
_cell_angle_alpha   90.00000000
_cell_angle_beta   116.25000000
_cell_angle_gamma   90.00000000
_symmetry_Int_Tables_number   1
_chemical_formula_structural   Zn2H13C26(N3O5)2
_chemical_formula_sum   'Zn16 H104 C208 N48 O80'
_cell_volume   14944.89124679
_cell_formula_units_Z   8
loop_
 _symmetry_equiv_pos_site_id
 _symmetry_equiv_pos_as_xyz
  1  'x, y, z'
loop_
 _atom_site_type_symbol
 _atom_site_label
 _atom_site_symmetry_multiplicity
 _atom_site_fract_x
 _atom_site_fract_y
 _atom_site_fract_z
 _atom_site_occupancy
 _atom_site_charge
  Zn  Zn1  1  0.896420  0.498960  0.017220  1.0  1.0825
  Zn  Zn2  1  0.866150  0.343630  0.069060  1.0  1.0527
  Zn  Zn3  1  0.396420  0.998960  0.017220  1.0  1.0825
  Zn  Zn4  1  0.366150  0.843630  0.069060  1.0  1.0526
  Zn  Zn5  1  0.103580  0.498960  0.482780  1.0  1.082
  Zn  Zn6  1  0.133850  0.343630  0.430940  1.0  1.052
  Zn  Zn7  1  0.603580  0.998960  0.482780  1.0  1.082
  Zn  Zn8  1  0.633850  0.843630  0.430940  1.0  1.052
  Zn  Zn9  1  0.103580  0.501040  0.982780  1.0  1.0811
  Zn  Zn10  1  0.133850  0.656370  0.930940  1.0  1.0525
  Zn  Zn11  1  0.603580  0.001040  0.982780  1.0  1.0811
  Zn  Zn12  1  0.633850  0.156370  0.930940  1.0  1.0522
  Zn  Zn13  1  0.896420  0.501040  0.517220  1.0  1.0832
  Zn  Zn14  1  0.866150  0.656370  0.569060  1.0  1.0531
  Zn  Zn15  1  0.396420  0.001040  0.517220  1.0  1.0832
  Zn  Zn16  1  0.366150  0.156370  0.569060  1.0  1.0529
  H  H17  1  0.597500  0.270300  0.695900  1.0  0.2831
  H  H18  1  0.761200  0.413400  0.783000  1.0  0.2581
  H  H19  1  0.697800  0.300800  0.595900  1.0  0.2931
  H  H20  1  0.521200  0.229000  0.647700  1.0  0.124
  H  H21  1  0.497800  0.082800  0.535800  1.0  0.1101
  H  H22  1  0.623700  0.181900  0.609000  1.0  0.1249
  H  H23  1  0.677900  0.300700  0.801000  1.0  0.1094
  H  H24  1  0.744400  0.309900  0.948100  1.0  0.1261
  H  H25  1  0.801500  0.410700  0.867300  1.0  0.1338
  H  H26  1  0.769700  0.449200  0.670900  1.0  0.1289
  H  H27  1  0.822500  0.510500  0.652100  1.0  0.1151
  H  H28  1  0.796300  0.367700  0.540300  1.0  0.1023
  H  H29  1  0.745000  0.301600  0.558400  1.0  0.1203
  H  H30  1  0.097500  0.770300  0.695900  1.0  0.2832
  H  H31  1  0.261200  0.913400  0.783000  1.0  0.2581
  H  H32  1  0.197800  0.800800  0.595900  1.0  0.2969
  H  H33  1  0.021200  0.729000  0.647700  1.0  0.1206
  H  H34  1  0.997800  0.582800  0.535800  1.0  0.1101
  H  H35  1  0.123700  0.681900  0.609000  1.0  0.1249
  H  H36  1  0.177900  0.800700  0.801000  1.0  0.1094
  H  H37  1  0.244400  0.809900  0.948100  1.0  0.1261
  H  H38  1  0.301500  0.910700  0.867300  1.0  0.1338
  H  H39  1  0.269700  0.949200  0.670900  1.0  0.1283
  H  H40  1  0.322500  0.010500  0.652100  1.0  0.1151
  H  H41  1  0.296300  0.867700  0.540300  1.0  0.1018
  H  H42  1  0.245000  0.801600  0.558400  1.0  0.1205
  H  H43  1  0.402500  0.270300  0.804100  1.0  0.2834
  H  H44  1  0.238800  0.413400  0.717000  1.0  0.2585
  H  H45  1  0.302200  0.300800  0.904100  1.0  0.2935
  H  H46  1  0.478800  0.229000  0.852300  1.0  0.1237
  H  H47  1  0.502200  0.082800  0.964200  1.0  0.1111
  H  H48  1  0.376300  0.181900  0.891000  1.0  0.1251
  H  H49  1  0.322100  0.300700  0.699000  1.0  0.1101
  H  H50  1  0.255600  0.309900  0.551900  1.0  0.1263
  H  H51  1  0.198500  0.410700  0.632700  1.0  0.1341
  H  H52  1  0.230300  0.449200  0.829100  1.0  0.1293
  H  H53  1  0.177500  0.510500  0.847900  1.0  0.1155
  H  H54  1  0.203700  0.367700  0.959700  1.0  0.1016
  H  H55  1  0.255000  0.301600  0.941600  1.0  0.1202
  H  H56  1  0.902500  0.770300  0.804100  1.0  0.283
  H  H57  1  0.738800  0.913400  0.717000  1.0  0.2585
  H  H58  1  0.802200  0.800800  0.904100  1.0  0.2976
  H  H59  1  0.978800  0.729000  0.852300  1.0  0.1206
  H  H60  1  0.002200  0.582800  0.964200  1.0  0.111
  H  H61  1  0.876300  0.681900  0.891000  1.0  0.1251
  H  H62  1  0.822100  0.800700  0.699000  1.0  0.1101
  H  H63  1  0.755600  0.809900  0.551900  1.0  0.1263
  H  H64  1  0.698500  0.910700  0.632700  1.0  0.1341
  H  H65  1  0.730300  0.949200  0.829100  1.0  0.1288
  H  H66  1  0.677500  0.010500  0.847900  1.0  0.1155
  H  H67  1  0.703700  0.867700  0.959700  1.0  0.1015
  H  H68  1  0.755000  0.801600  0.941600  1.0  0.1207
  H  H69  1  0.402500  0.729700  0.304100  1.0  0.2839
  H  H70  1  0.238800  0.586600  0.217000  1.0  0.2574
  H  H71  1  0.302200  0.699200  0.404100  1.0  0.2927
  H  H72  1  0.478800  0.771000  0.352300  1.0  0.1237
  H  H73  1  0.502200  0.917200  0.464200  1.0  0.1113
  H  H74  1  0.376300  0.818100  0.391000  1.0  0.1249
  H  H75  1  0.322100  0.699300  0.199000  1.0  0.1097
  H  H76  1  0.255600  0.690100  0.051900  1.0  0.1264
  H  H77  1  0.198500  0.589300  0.132700  1.0  0.1343
  H  H78  1  0.230300  0.550800  0.329100  1.0  0.1293
  H  H79  1  0.177500  0.489500  0.347900  1.0  0.1151
  H  H80  1  0.203700  0.632300  0.459700  1.0  0.1027
  H  H81  1  0.255000  0.698400  0.441600  1.0  0.1205
  H  H82  1  0.902500  0.229700  0.304100  1.0  0.2835
  H  H83  1  0.738800  0.086600  0.217000  1.0  0.2574
  H  H84  1  0.802200  0.199200  0.404100  1.0  0.2968
  H  H85  1  0.978800  0.271000  0.352300  1.0  0.1208
  H  H86  1  0.002200  0.417200  0.464200  1.0  0.1113
  H  H87  1  0.876300  0.318100  0.391000  1.0  0.1249
  H  H88  1  0.822100  0.199300  0.199000  1.0  0.1097
  H  H89  1  0.755600  0.190100  0.051900  1.0  0.1264
  H  H90  1  0.698500  0.089300  0.132700  1.0  0.1343
  H  H91  1  0.730300  0.050800  0.329100  1.0  0.1287
  H  H92  1  0.677500  0.989500  0.347900  1.0  0.1151
  H  H93  1  0.703700  0.132300  0.459700  1.0  0.1016
  H  H94  1  0.755000  0.198400  0.441600  1.0  0.1207
  H  H95  1  0.597500  0.729700  0.195900  1.0  0.2837
  H  H96  1  0.761200  0.586600  0.283000  1.0  0.2572
  H  H97  1  0.697800  0.699200  0.095900  1.0  0.293
  H  H98  1  0.521200  0.771000  0.147700  1.0  0.1239
  H  H99  1  0.497800  0.917200  0.035800  1.0  0.1108
  H  H100  1  0.623700  0.818100  0.109000  1.0  0.1246
  H  H101  1  0.677900  0.699300  0.301000  1.0  0.1095
  H  H102  1  0.744400  0.690100  0.448100  1.0  0.1261
  H  H103  1  0.801500  0.589300  0.367300  1.0  0.1337
  H  H104  1  0.769700  0.550800  0.170900  1.0  0.1289
  H  H105  1  0.822500  0.489500  0.152100  1.0  0.1151
  H  H106  1  0.796300  0.632300  0.040300  1.0  0.102
  H  H107  1  0.745000  0.698400  0.058400  1.0  0.1207
  H  H108  1  0.097500  0.229700  0.195900  1.0  0.2838
  H  H109  1  0.261200  0.086600  0.283000  1.0  0.2572
  H  H110  1  0.197800  0.199200  0.095900  1.0  0.2967
  H  H111  1  0.021200  0.271000  0.147700  1.0  0.1206
  H  H112  1  0.997800  0.417200  0.035800  1.0  0.111
  H  H113  1  0.123700  0.318100  0.109000  1.0  0.1246
  H  H114  1  0.177900  0.199300  0.301000  1.0  0.1095
  H  H115  1  0.244400  0.190100  0.448100  1.0  0.1261
  H  H116  1  0.301500  0.089300  0.367300  1.0  0.1337
  H  H117  1  0.269700  0.050800  0.170900  1.0  0.1282
  H  H118  1  0.322500  0.989500  0.152100  1.0  0.1151
  H  H119  1  0.296300  0.132300  0.040300  1.0  0.1018
  H  H120  1  0.245000  0.198400  0.058400  1.0  0.1206
  C  C121  1  0.647100  0.289500  0.681800  1.0  0.3572
  C  C122  1  0.701500  0.324900  0.658100  1.0  0.5073
  C  C123  1  0.710300  0.352500  0.734900  1.0  0.3817
  C  C124  1  0.576000  0.212300  0.634200  1.0  0.2126
  C  C125  1  0.531500  0.202600  0.627500  1.0  -0.0943
  C  C126  1  0.500400  0.153100  0.590500  1.0  -0.121
  C  C127  1  0.517500  0.115200  0.561000  1.0  0.0197
  C  C128  1  0.560900  0.124900  0.568400  1.0  0.0011
  C  C129  1  0.593200  0.174900  0.605000  1.0  -0.0945
  C  C130  1  0.579200  0.075200  0.537600  1.0  0.6619
  C  C131  1  0.450200  0.139400  0.580600  1.0  0.4677
  C  C132  1  0.738800  0.357500  0.825400  1.0  0.1856
  C  C133  1  0.703700  0.316100  0.829500  1.0  -0.0219
  C  C134  1  0.705700  0.296700  0.875000  1.0  -0.1278
  C  C135  1  0.669700  0.247100  0.878200  1.0  0.684
  C  C136  1  0.742800  0.321900  0.917500  1.0  -0.0022
  C  C137  1  0.778100  0.366100  0.913800  1.0  -0.1221
  C  C138  1  0.820600  0.391500  0.960700  1.0  0.7141
  C  C139  1  0.777200  0.382900  0.868900  1.0  -0.1131
  C  C140  1  0.748500  0.369400  0.615500  1.0  0.1648
  C  C141  1  0.774200  0.432800  0.644000  1.0  -0.16
  C  C142  1  0.805200  0.469800  0.632300  1.0  -0.0232
  C  C143  1  0.812200  0.448700  0.591200  1.0  -0.1162
  C  C144  1  0.790100  0.384900  0.565900  1.0  0.0709
  C  C145  1  0.759500  0.345400  0.576600  1.0  -0.1888
  C  C146  1  0.843400  0.502300  0.576700  1.0  0.7237
  C  C147  1  0.147100  0.789500  0.681800  1.0  0.3576
  C  C148  1  0.201500  0.824900  0.658100  1.0  0.5158
  C  C149  1  0.210300  0.852500  0.734900  1.0  0.3817
  C  C150  1  0.076000  0.712300  0.634200  1.0  0.2118
  C  C151  1  0.031500  0.702600  0.627500  1.0  -0.0966
  C  C152  1  0.000400  0.653100  0.590500  1.0  -0.1193
  C  C153  1  0.017500  0.615200  0.561000  1.0  0.0112
  C  C154  1  0.060900  0.624900  0.568400  1.0  0.0088
  C  C155  1  0.093200  0.674900  0.605000  1.0  -0.1005
  C  C156  1  0.079200  0.575200  0.537600  1.0  0.6619
  C  C157  1  0.950200  0.639400  0.580600  1.0  0.4677
  C  C158  1  0.238800  0.857500  0.825400  1.0  0.1856
  C  C159  1  0.203700  0.816100  0.829500  1.0  -0.0219
  C  C160  1  0.205700  0.796700  0.875000  1.0  -0.1278
  C  C161  1  0.169700  0.747100  0.878200  1.0  0.684
  C  C162  1  0.242800  0.821900  0.917500  1.0  -0.0022
  C  C163  1  0.278100  0.866100  0.913800  1.0  -0.1221
  C  C164  1  0.320600  0.891500  0.960700  1.0  0.7141
  C  C165  1  0.277200  0.882900  0.868900  1.0  -0.1131
  C  C166  1  0.248500  0.869400  0.615500  1.0  0.1648
  C  C167  1  0.274200  0.932800  0.644000  1.0  -0.16
  C  C168  1  0.305200  0.969800  0.632300  1.0  -0.0232
  C  C169  1  0.312200  0.948700  0.591200  1.0  -0.1162
  C  C170  1  0.290100  0.884900  0.565900  1.0  0.0702
  C  C171  1  0.259500  0.845400  0.576600  1.0  -0.1888
  C  C172  1  0.343400  0.002300  0.576700  1.0  0.7237
  C  C173  1  0.352900  0.289500  0.818200  1.0  0.3564
  C  C174  1  0.298500  0.324900  0.841900  1.0  0.5055
  C  C175  1  0.289700  0.352500  0.765100  1.0  0.3825
  C  C176  1  0.424000  0.212300  0.865800  1.0  0.2142
  C  C177  1  0.468500  0.202600  0.872500  1.0  -0.0943
  C  C178  1  0.499600  0.153100  0.909500  1.0  -0.1187
  C  C179  1  0.482500  0.115200  0.939000  1.0  0.0197
  C  C180  1  0.439100  0.124900  0.931600  1.0  -0.0003
  C  C181  1  0.406800  0.174900  0.895000  1.0  -0.0939
  C  C182  1  0.420800  0.075200  0.962400  1.0  0.6614
  C  C183  1  0.549800  0.139400  0.919400  1.0  0.4651
  C  C184  1  0.261200  0.357500  0.674600  1.0  0.1854
  C  C185  1  0.296300  0.316100  0.670500  1.0  -0.0217
  C  C186  1  0.294300  0.296700  0.625000  1.0  -0.1254
  C  C187  1  0.330300  0.247100  0.621800  1.0  0.6849
  C  C188  1  0.257200  0.321900  0.582500  1.0  -0.002
  C  C189  1  0.221900  0.366100  0.586200  1.0  -0.1219
  C  C190  1  0.179400  0.391500  0.539300  1.0  0.7137
  C  C191  1  0.222800  0.382900  0.631100  1.0  -0.1143
  C  C192  1  0.251500  0.369400  0.884500  1.0  0.1645
  C  C193  1  0.225800  0.432800  0.856000  1.0  -0.1598
  C  C194  1  0.194800  0.469800  0.867700  1.0  -0.0237
  C  C195  1  0.187800  0.448700  0.908800  1.0  -0.1162
  C  C196  1  0.209900  0.384900  0.934100  1.0  0.072
  C  C197  1  0.240500  0.345400  0.923400  1.0  -0.1891
  C  C198  1  0.156600  0.502300  0.923300  1.0  0.7236
  C  C199  1  0.852900  0.789500  0.818200  1.0  0.3574
  C  C200  1  0.798500  0.824900  0.841900  1.0  0.514
  C  C201  1  0.789700  0.852500  0.765100  1.0  0.3825
  C  C202  1  0.924000  0.712300  0.865800  1.0  0.2128
  C  C203  1  0.968500  0.702600  0.872500  1.0  -0.0964
  C  C204  1  0.999600  0.653100  0.909500  1.0  -0.1174
  C  C205  1  0.982500  0.615200  0.939000  1.0  0.0114
  C  C206  1  0.939100  0.624900  0.931600  1.0  0.0064
  C  C207  1  0.906800  0.674900  0.895000  1.0  -0.0996
  C  C208  1  0.920800  0.575200  0.962400  1.0  0.6614
  C  C209  1  0.049800  0.639400  0.919400  1.0  0.4651
  C  C210  1  0.761200  0.857500  0.674600  1.0  0.1854
  C  C211  1  0.796300  0.816100  0.670500  1.0  -0.0217
  C  C212  1  0.794300  0.796700  0.625000  1.0  -0.1254
  C  C213  1  0.830300  0.747100  0.621800  1.0  0.6849
  C  C214  1  0.757200  0.821900  0.582500  1.0  -0.002
  C  C215  1  0.721900  0.866100  0.586200  1.0  -0.1219
  C  C216  1  0.679400  0.891500  0.539300  1.0  0.7137
  C  C217  1  0.722800  0.882900  0.631100  1.0  -0.1143
  C  C218  1  0.751500  0.869400  0.884500  1.0  0.1645
  C  C219  1  0.725800  0.932800  0.856000  1.0  -0.1598
  C  C220  1  0.694800  0.969800  0.867700  1.0  -0.0237
  C  C221  1  0.687800  0.948700  0.908800  1.0  -0.1162
  C  C222  1  0.709900  0.884900  0.934100  1.0  0.0701
  C  C223  1  0.740500  0.845400  0.923400  1.0  -0.1891
  C  C224  1  0.656600  0.002300  0.923300  1.0  0.7236
  C  C225  1  0.352900  0.710500  0.318200  1.0  0.3567
  C  C226  1  0.298500  0.675100  0.341900  1.0  0.5059
  C  C227  1  0.289700  0.647500  0.265100  1.0  0.3822
  C  C228  1  0.424000  0.787700  0.365800  1.0  0.2137
  C  C229  1  0.468500  0.797400  0.372500  1.0  -0.094
  C  C230  1  0.499600  0.846900  0.409500  1.0  -0.1187
  C  C231  1  0.482500  0.884800  0.439000  1.0  0.0198
  C  C232  1  0.439100  0.875100  0.431600  1.0  -0.0004
  C  C233  1  0.406800  0.825100  0.395000  1.0  -0.0938
  C  C234  1  0.420800  0.924800  0.462400  1.0  0.6612
  C  C235  1  0.549800  0.860600  0.419400  1.0  0.4659
  C  C236  1  0.261200  0.642500  0.174600  1.0  0.1856
  C  C237  1  0.296300  0.683900  0.170500  1.0  -0.0221
  C  C238  1  0.294300  0.703300  0.125000  1.0  -0.1254
  C  C239  1  0.330300  0.752900  0.121800  1.0  0.6851
  C  C240  1  0.257200  0.678100  0.082500  1.0  -0.0025
  C  C241  1  0.221900  0.633900  0.086200  1.0  -0.1223
  C  C242  1  0.179400  0.608500  0.039300  1.0  0.7133
  C  C243  1  0.222800  0.617100  0.131100  1.0  -0.114
  C  C244  1  0.251500  0.630600  0.384500  1.0  0.1637
  C  C245  1  0.225800  0.567200  0.356000  1.0  -0.1599
  C  C246  1  0.194800  0.530200  0.367700  1.0  -0.0224
  C  C247  1  0.187800  0.551300  0.408800  1.0  -0.116
  C  C248  1  0.209900  0.615100  0.434100  1.0  0.0709
  C  C249  1  0.240500  0.654600  0.423400  1.0  -0.1898
  C  C250  1  0.156600  0.497700  0.423300  1.0  0.7228
  C  C251  1  0.852900  0.210500  0.318200  1.0  0.3579
  C  C252  1  0.798500  0.175100  0.341900  1.0  0.5142
  C  C253  1  0.789700  0.147500  0.265100  1.0  0.3822
  C  C254  1  0.924000  0.287700  0.365800  1.0  0.2124
  C  C255  1  0.968500  0.297400  0.372500  1.0  -0.0965
  C  C256  1  0.999600  0.346900  0.409500  1.0  -0.1171
  C  C257  1  0.982500  0.384800  0.439000  1.0  0.0117
  C  C258  1  0.939100  0.375100  0.431600  1.0  0.0064
  C  C259  1  0.906800  0.325100  0.395000  1.0  -0.0995
  C  C260  1  0.920800  0.424800  0.462400  1.0  0.6612
  C  C261  1  0.049800  0.360600  0.419400  1.0  0.4659
  C  C262  1  0.761200  0.142500  0.174600  1.0  0.1856
  C  C263  1  0.796300  0.183900  0.170500  1.0  -0.0221
  C  C264  1  0.794300  0.203300  0.125000  1.0  -0.1254
  C  C265  1  0.830300  0.252900  0.121800  1.0  0.6851
  C  C266  1  0.757200  0.178100  0.082500  1.0  -0.0025
  C  C267  1  0.721900  0.133900  0.086200  1.0  -0.1223
  C  C268  1  0.679400  0.108500  0.039300  1.0  0.7133
  C  C269  1  0.722800  0.117100  0.131100  1.0  -0.114
  C  C270  1  0.751500  0.130600  0.384500  1.0  0.1637
  C  C271  1  0.725800  0.067200  0.356000  1.0  -0.1599
  C  C272  1  0.694800  0.030200  0.367700  1.0  -0.0224
  C  C273  1  0.687800  0.051300  0.408800  1.0  -0.116
  C  C274  1  0.709900  0.115100  0.434100  1.0  0.0688
  C  C275  1  0.740500  0.154600  0.423400  1.0  -0.1898
  C  C276  1  0.656600  0.997700  0.423300  1.0  0.7228
  C  C277  1  0.647100  0.710500  0.181800  1.0  0.3575
  C  C278  1  0.701500  0.675100  0.158100  1.0  0.5075
  C  C279  1  0.710300  0.647500  0.234900  1.0  0.3814
  C  C280  1  0.576000  0.787700  0.134200  1.0  0.212
  C  C281  1  0.531500  0.797400  0.127500  1.0  -0.0939
  C  C282  1  0.500400  0.846900  0.090500  1.0  -0.1209
  C  C283  1  0.517500  0.884800  0.061000  1.0  0.0199
  C  C284  1  0.560900  0.875100  0.068400  1.0  0.0011
  C  C285  1  0.593200  0.825100  0.105000  1.0  -0.0939
  C  C286  1  0.579200  0.924800  0.037600  1.0  0.6616
  C  C287  1  0.450200  0.860600  0.080600  1.0  0.4681
  C  C288  1  0.738800  0.642500  0.325400  1.0  0.1857
  C  C289  1  0.703700  0.683900  0.329500  1.0  -0.0221
  C  C290  1  0.705700  0.703300  0.375000  1.0  -0.1275
  C  C291  1  0.669700  0.752900  0.378200  1.0  0.6841
  C  C292  1  0.742800  0.678100  0.417500  1.0  -0.0023
  C  C293  1  0.778100  0.633900  0.413800  1.0  -0.1222
  C  C294  1  0.820600  0.608500  0.460700  1.0  0.7137
  C  C295  1  0.777200  0.617100  0.368900  1.0  -0.1132
  C  C296  1  0.748500  0.630600  0.115500  1.0  0.164
  C  C297  1  0.774200  0.567200  0.144000  1.0  -0.1611
  C  C298  1  0.805200  0.530200  0.132300  1.0  -0.023
  C  C299  1  0.812200  0.551300  0.091200  1.0  -0.1156
  C  C300  1  0.790100  0.615100  0.065900  1.0  0.0705
  C  C301  1  0.759500  0.654600  0.076600  1.0  -0.1909
  C  C302  1  0.843400  0.497700  0.076700  1.0  0.7228
  C  C303  1  0.147100  0.210500  0.181800  1.0  0.3579
  C  C304  1  0.201500  0.175100  0.158100  1.0  0.516
  C  C305  1  0.210300  0.147500  0.234900  1.0  0.3814
  C  C306  1  0.076000  0.287700  0.134200  1.0  0.2112
  C  C307  1  0.031500  0.297400  0.127500  1.0  -0.0957
  C  C308  1  0.000400  0.346900  0.090500  1.0  -0.119
  C  C309  1  0.017500  0.384800  0.061000  1.0  0.0118
  C  C310  1  0.060900  0.375100  0.068400  1.0  0.0088
  C  C311  1  0.093200  0.325100  0.105000  1.0  -0.0999
  C  C312  1  0.079200  0.424800  0.037600  1.0  0.6616
  C  C313  1  0.950200  0.360600  0.080600  1.0  0.4681
  C  C314  1  0.238800  0.142500  0.325400  1.0  0.1857
  C  C315  1  0.203700  0.183900  0.329500  1.0  -0.0221
  C  C316  1  0.205700  0.203300  0.375000  1.0  -0.1275
  C  C317  1  0.169700  0.252900  0.378200  1.0  0.6841
  C  C318  1  0.242800  0.178100  0.417500  1.0  -0.0023
  C  C319  1  0.278100  0.133900  0.413800  1.0  -0.1222
  C  C320  1  0.320600  0.108500  0.460700  1.0  0.7137
  C  C321  1  0.277200  0.117100  0.368900  1.0  -0.1132
  C  C322  1  0.248500  0.130600  0.115500  1.0  0.164
  C  C323  1  0.274200  0.067200  0.144000  1.0  -0.1611
  C  C324  1  0.305200  0.030200  0.132300  1.0  -0.023
  C  C325  1  0.312200  0.051300  0.091200  1.0  -0.1156
  C  C326  1  0.290100  0.115100  0.065900  1.0  0.0697
  C  C327  1  0.259500  0.154600  0.076600  1.0  -0.1909
  C  C328  1  0.343400  0.997700  0.076700  1.0  0.7228
  N  N329  1  0.662000  0.290000  0.646700  1.0  -0.4184
  N  N330  1  0.671600  0.322900  0.726820  1.0  -0.4566
  N  N331  1  0.728700  0.361600  0.702060  1.0  -0.4185
  N  N332  1  0.606900  0.259900  0.673990  1.0  -0.377
  N  N333  1  0.740300  0.380200  0.781070  1.0  -0.3702
  N  N334  1  0.714500  0.329200  0.620900  1.0  -0.3309
  N  N335  1  0.162000  0.790000  0.646700  1.0  -0.4256
  N  N336  1  0.171600  0.822900  0.726820  1.0  -0.4589
  N  N337  1  0.228700  0.861600  0.702060  1.0  -0.4185
  N  N338  1  0.106900  0.759900  0.673990  1.0  -0.3866
  N  N339  1  0.240300  0.880200  0.781070  1.0  -0.3702
  N  N340  1  0.214500  0.829200  0.620900  1.0  -0.3329
  N  N341  1  0.338000  0.290000  0.853300  1.0  -0.419
  N  N342  1  0.328400  0.322900  0.773180  1.0  -0.4551
  N  N343  1  0.271300  0.361600  0.797940  1.0  -0.4125
  N  N344  1  0.393100  0.259900  0.826010  1.0  -0.3776
  N  N345  1  0.259700  0.380200  0.718930  1.0  -0.3708
  N  N346  1  0.285500  0.329200  0.879100  1.0  -0.3318
  N  N347  1  0.838000  0.790000  0.853300  1.0  -0.4279
  N  N348  1  0.828400  0.822900  0.773180  1.0  -0.458
  N  N349  1  0.771300  0.861600  0.797940  1.0  -0.4125
  N  N350  1  0.893100  0.759900  0.826010  1.0  -0.3872
  N  N351  1  0.759700  0.880200  0.718930  1.0  -0.3708
  N  N352  1  0.785500  0.829200  0.879100  1.0  -0.3339
  N  N353  1  0.338000  0.710000  0.353300  1.0  -0.4191
  N  N354  1  0.328400  0.677100  0.273180  1.0  -0.4556
  N  N355  1  0.271300  0.638400  0.297940  1.0  -0.4116
  N  N356  1  0.393100  0.740100  0.326010  1.0  -0.3774
  N  N357  1  0.259700  0.619800  0.218930  1.0  -0.3705
  N  N358  1  0.285500  0.670800  0.379100  1.0  -0.3315
  N  N359  1  0.838000  0.210000  0.353300  1.0  -0.4277
  N  N360  1  0.828400  0.177100  0.273180  1.0  -0.4584
  N  N361  1  0.771300  0.138400  0.297940  1.0  -0.4116
  N  N362  1  0.893100  0.240100  0.326010  1.0  -0.3872
  N  N363  1  0.759700  0.119800  0.218930  1.0  -0.3705
  N  N364  1  0.785500  0.170800  0.379100  1.0  -0.3334
  N  N365  1  0.662000  0.710000  0.146700  1.0  -0.4179
  N  N366  1  0.671600  0.677100  0.226820  1.0  -0.4569
  N  N367  1  0.728700  0.638400  0.202060  1.0  -0.418
  N  N368  1  0.606900  0.740100  0.173990  1.0  -0.3768
  N  N369  1  0.740300  0.619800  0.281070  1.0  -0.3703
  N  N370  1  0.714500  0.670800  0.120900  1.0  -0.3315
  N  N371  1  0.162000  0.210000  0.146700  1.0  -0.4252
  N  N372  1  0.171600  0.177100  0.226820  1.0  -0.4587
  N  N373  1  0.228700  0.138400  0.202060  1.0  -0.418
  N  N374  1  0.106900  0.240100  0.173990  1.0  -0.3866
  N  N375  1  0.240300  0.119800  0.281070  1.0  -0.3703
  N  N376  1  0.214500  0.170800  0.120900  1.0  -0.3333
  O  O377  1  0.423900  0.109800  0.546200  1.0  -0.6474
  O  O378  1  0.434680  0.189800  0.602820  1.0  -0.559
  O  O379  1  0.612800  0.101500  0.530000  1.0  -0.5729
  O  O380  1  0.559600  0.013800  0.519100  1.0  -0.5696
  O  O381  1  0.635200  0.221300  0.839530  1.0  -0.4738
  O  O382  1  0.673400  0.231500  0.921600  1.0  -0.6051
  O  O383  1  0.822300  0.358300  0.999820  1.0  -0.6139
  O  O384  1  0.847100  0.442500  0.958720  1.0  -0.5376
  O  O385  1  0.860200  0.559600  0.600510  1.0  -0.5596
  O  O386  1  0.850400  0.472500  0.543100  1.0  -0.6104
  O  O387  1  0.923900  0.609800  0.546200  1.0  -0.6474
  O  O388  1  0.934680  0.689800  0.602820  1.0  -0.5593
  O  O389  1  0.112800  0.601500  0.530000  1.0  -0.5727
  O  O390  1  0.059600  0.513800  0.519100  1.0  -0.5696
  O  O391  1  0.135200  0.721300  0.839530  1.0  -0.4738
  O  O392  1  0.173400  0.731500  0.921600  1.0  -0.6051
  O  O393  1  0.322300  0.858300  0.999820  1.0  -0.6139
  O  O394  1  0.347100  0.942500  0.958720  1.0  -0.5376
  O  O395  1  0.360200  0.059600  0.600510  1.0  -0.5596
  O  O396  1  0.350400  0.972500  0.543100  1.0  -0.6104
  O  O397  1  0.576100  0.109800  0.953800  1.0  -0.6468
  O  O398  1  0.565320  0.189800  0.897180  1.0  -0.5622
  O  O399  1  0.387200  0.101500  0.970000  1.0  -0.5702
  O  O400  1  0.440400  0.013800  0.980900  1.0  -0.5694
  O  O401  1  0.364800  0.221300  0.660470  1.0  -0.4741
  O  O402  1  0.326600  0.231500  0.578400  1.0  -0.6022
  O  O403  1  0.177700  0.358300  0.500180  1.0  -0.6123
  O  O404  1  0.152900  0.442500  0.541280  1.0  -0.5378
  O  O405  1  0.139800  0.559600  0.899490  1.0  -0.5594
  O  O406  1  0.149600  0.472500  0.956900  1.0  -0.6103
  O  O407  1  0.076100  0.609800  0.953800  1.0  -0.6458
  O  O408  1  0.065320  0.689800  0.897180  1.0  -0.5643
  O  O409  1  0.887200  0.601500  0.970000  1.0  -0.5771
  O  O410  1  0.940400  0.513800  0.980900  1.0  -0.5694
  O  O411  1  0.864800  0.721300  0.660470  1.0  -0.4741
  O  O412  1  0.826600  0.731500  0.578400  1.0  -0.6022
  O  O413  1  0.677700  0.858300  0.500180  1.0  -0.6123
  O  O414  1  0.652900  0.942500  0.541280  1.0  -0.5378
  O  O415  1  0.639800  0.059600  0.899490  1.0  -0.5594
  O  O416  1  0.649600  0.972500  0.956900  1.0  -0.6103
  O  O417  1  0.576100  0.890200  0.453800  1.0  -0.6476
  O  O418  1  0.565320  0.810200  0.397180  1.0  -0.5611
  O  O419  1  0.387200  0.898500  0.470000  1.0  -0.5726
  O  O420  1  0.440400  0.986200  0.480900  1.0  -0.571
  O  O421  1  0.364800  0.778700  0.160470  1.0  -0.4747
  O  O422  1  0.326600  0.768500  0.078400  1.0  -0.6031
  O  O423  1  0.177700  0.641700  0.000180  1.0  -0.6133
  O  O424  1  0.152900  0.557500  0.041280  1.0  -0.5374
  O  O425  1  0.139800  0.440400  0.399490  1.0  -0.5594
  O  O426  1  0.149600  0.527500  0.456900  1.0  -0.6098
  O  O427  1  0.076100  0.390200  0.453800  1.0  -0.6476
  O  O428  1  0.065320  0.310200  0.397180  1.0  -0.5614
  O  O429  1  0.887200  0.398500  0.470000  1.0  -0.5731
  O  O430  1  0.940400  0.486200  0.480900  1.0  -0.571
  O  O431  1  0.864800  0.278700  0.160470  1.0  -0.4747
  O  O432  1  0.826600  0.268500  0.078400  1.0  -0.6031
  O  O433  1  0.677700  0.141700  0.000180  1.0  -0.6133
  O  O434  1  0.652900  0.057500  0.041280  1.0  -0.5375
  O  O435  1  0.639800  0.940400  0.399490  1.0  -0.5594
  O  O436  1  0.649600  0.027500  0.456900  1.0  -0.6098
  O  O437  1  0.423900  0.890200  0.046200  1.0  -0.6481
  O  O438  1  0.434680  0.810200  0.102820  1.0  -0.5618
  O  O439  1  0.612800  0.898500  0.030000  1.0  -0.57
  O  O440  1  0.559600  0.986200  0.019100  1.0  -0.5711
  O  O441  1  0.635200  0.778700  0.339530  1.0  -0.4742
  O  O442  1  0.673400  0.768500  0.421600  1.0  -0.605
  O  O443  1  0.822300  0.641700  0.499820  1.0  -0.614
  O  O444  1  0.847100  0.557500  0.458720  1.0  -0.5369
  O  O445  1  0.860200  0.440400  0.100510  1.0  -0.5595
  O  O446  1  0.850400  0.527500  0.043100  1.0  -0.6116
  O  O447  1  0.923900  0.390200  0.046200  1.0  -0.6465
  O  O448  1  0.934680  0.310200  0.102820  1.0  -0.5636
  O  O449  1  0.112800  0.398500  0.030000  1.0  -0.5764
  O  O450  1  0.059600  0.486200  0.019100  1.0  -0.5711
  O  O451  1  0.135200  0.278700  0.339530  1.0  -0.4742
  O  O452  1  0.173400  0.268500  0.421600  1.0  -0.605
  O  O453  1  0.322300  0.141700  0.499820  1.0  -0.614
  O  O454  1  0.347100  0.057500  0.458720  1.0  -0.5371
  O  O455  1  0.360200  0.940400  0.100510  1.0  -0.5595
  O  O456  1  0.350400  0.027500  0.043100  1.0  -0.6116
