# generated using pymatgen
data_Eu(CO2)4
_symmetry_space_group_name_H-M   'P 1'
_cell_length_a   9.67400000
_cell_length_b   11.76100000
_cell_length_c   12.31500000
_cell_angle_alpha   90.00000000
_cell_angle_beta   99.28500000
_cell_angle_gamma   90.00000000
_symmetry_Int_Tables_number   1
_chemical_formula_structural   Eu(CO2)4
_chemical_formula_sum   'Eu4 C16 O32'
_cell_volume   1382.79249512
_cell_formula_units_Z   4
loop_
 _symmetry_equiv_pos_site_id
 _symmetry_equiv_pos_as_xyz
  1  'x, y, z'
loop_
 _atom_site_type_symbol
 _atom_site_label
 _atom_site_symmetry_multiplicity
 _atom_site_fract_x
 _atom_site_fract_y
 _atom_site_fract_z
 _atom_site_occupancy
 _atom_site_charge
  Eu  Eu1  1  0.713680  0.515520  0.330810  1.0  2.0181
  Eu  Eu2  1  0.786320  0.015520  0.169190  1.0  2.0183
  Eu  Eu3  1  0.286320  0.484480  0.669190  1.0  2.0182
  Eu  Eu4  1  0.213680  0.984480  0.830810  1.0  2.0179
  C  C5  1  0.800200  0.745500  0.217500  1.0  0.5907
  C  C6  1  0.699000  0.789700  0.294600  1.0  0.5686
  C  C7  1  0.562500  0.499200  0.547400  1.0  0.5861
  C  C8  1  0.004600  0.565700  0.499700  1.0  0.5655
  C  C9  1  0.699800  0.245500  0.282500  1.0  0.5916
  C  C10  1  0.801000  0.289700  0.205400  1.0  0.5687
  C  C11  1  0.937500  0.999200  0.952600  1.0  0.5847
  C  C12  1  0.495400  0.065700  0.000300  1.0  0.5655
  C  C13  1  0.199800  0.254500  0.782500  1.0  0.5911
  C  C14  1  0.301000  0.210300  0.705400  1.0  0.5685
  C  C15  1  0.437500  0.500800  0.452600  1.0  0.587
  C  C16  1  0.995400  0.434300  0.500300  1.0  0.566
  C  C17  1  0.300200  0.754500  0.717500  1.0  0.591
  C  C18  1  0.199000  0.710300  0.794600  1.0  0.5691
  C  C19  1  0.062500  0.000800  0.047400  1.0  0.5837
  C  C20  1  0.504600  0.934300  0.999700  1.0  0.5661
  O  O21  1  0.807000  0.640900  0.205500  1.0  -0.5288
  O  O22  1  0.866000  0.819400  0.172600  1.0  -0.5395
  O  O23  1  0.639600  0.715900  0.343500  1.0  -0.5306
  O  O24  1  0.685100  0.895000  0.300600  1.0  -0.5258
  O  O25  1  0.681300  0.511500  0.522400  1.0  -0.5479
  O  O26  1  0.533500  0.485400  0.642800  1.0  -0.5414
  O  O27  1  0.916000  0.618200  0.434100  1.0  -0.5519
  O  O28  1  0.100600  0.608800  0.567300  1.0  -0.5635
  O  O29  1  0.693000  0.140900  0.294500  1.0  -0.5293
  O  O30  1  0.634000  0.319400  0.327400  1.0  -0.5402
  O  O31  1  0.860400  0.215900  0.156500  1.0  -0.5308
  O  O32  1  0.814900  0.395000  0.199400  1.0  -0.5254
  O  O33  1  0.818700  0.011500  0.977600  1.0  -0.5478
  O  O34  1  0.966500  0.985400  0.857200  1.0  -0.5416
  O  O35  1  0.584000  0.118200  0.065900  1.0  -0.553
  O  O36  1  0.399400  0.108800  0.932700  1.0  -0.5633
  O  O37  1  0.193000  0.359100  0.794500  1.0  -0.5287
  O  O38  1  0.134000  0.180600  0.827400  1.0  -0.5393
  O  O39  1  0.360400  0.284100  0.656500  1.0  -0.5308
  O  O40  1  0.314900  0.105000  0.699400  1.0  -0.5257
  O  O41  1  0.318700  0.488500  0.477600  1.0  -0.5481
  O  O42  1  0.466500  0.514600  0.357200  1.0  -0.542
  O  O43  1  0.084000  0.381800  0.565900  1.0  -0.5514
  O  O44  1  0.899400  0.391200  0.432700  1.0  -0.5618
  O  O45  1  0.307000  0.859100  0.705500  1.0  -0.5301
  O  O46  1  0.366000  0.680600  0.672600  1.0  -0.5392
  O  O47  1  0.139600  0.784100  0.843500  1.0  -0.5301
  O  O48  1  0.185100  0.605000  0.800600  1.0  -0.527
  O  O49  1  0.181300  0.988500  0.022400  1.0  -0.548
  O  O50  1  0.033500  0.014600  0.142800  1.0  -0.5406
  O  O51  1  0.416000  0.881800  0.934100  1.0  -0.5511
  O  O52  1  0.600600  0.891200  0.067300  1.0  -0.5617
