# generated using pymatgen
data_Eu(CO2)4
_symmetry_space_group_name_H-M   'P 1'
_cell_length_a   9.67060000
_cell_length_b   11.75510000
_cell_length_c   12.31150000
_cell_angle_alpha   90.00000000
_cell_angle_beta   99.26900000
_cell_angle_gamma   90.00000000
_symmetry_Int_Tables_number   1
_chemical_formula_structural   Eu(CO2)4
_chemical_formula_sum   'Eu4 C16 O32'
_cell_volume   1381.28339891
_cell_formula_units_Z   4
loop_
 _symmetry_equiv_pos_site_id
 _symmetry_equiv_pos_as_xyz
  1  'x, y, z'
loop_
 _atom_site_type_symbol
 _atom_site_label
 _atom_site_symmetry_multiplicity
 _atom_site_fract_x
 _atom_site_fract_y
 _atom_site_fract_z
 _atom_site_occupancy
 _atom_site_charge
  Eu  Eu1  1  0.286170  0.015540  0.169090  1.0  2.0141
  Eu  Eu2  1  0.213830  0.515540  0.330910  1.0  2.0142
  Eu  Eu3  1  0.713830  0.984460  0.830910  1.0  2.0138
  Eu  Eu4  1  0.786170  0.484460  0.669090  1.0  2.0139
  C  C5  1  0.301200  0.289000  0.206100  1.0  0.579
  C  C6  1  0.199800  0.245200  0.282200  1.0  0.5923
  C  C7  1  0.437900  0.999000  0.953100  1.0  0.5878
  C  C8  1  0.005900  0.934100  0.000800  1.0  0.5636
  C  C9  1  0.198800  0.789000  0.293900  1.0  0.5799
  C  C10  1  0.300200  0.745200  0.217800  1.0  0.5922
  C  C11  1  0.062100  0.499000  0.546900  1.0  0.5881
  C  C12  1  0.494100  0.434100  0.499200  1.0  0.5633
  C  C13  1  0.698800  0.711000  0.793900  1.0  0.5804
  C  C14  1  0.800200  0.754800  0.717800  1.0  0.5922
  C  C15  1  0.562100  0.001000  0.046900  1.0  0.5881
  C  C16  1  0.994100  0.065900  0.999200  1.0  0.5627
  C  C17  1  0.801200  0.211000  0.706100  1.0  0.5788
  C  C18  1  0.699800  0.254800  0.782200  1.0  0.5916
  C  C19  1  0.937900  0.501000  0.453100  1.0  0.5843
  C  C20  1  0.505900  0.565900  0.500800  1.0  0.5628
  O  O21  1  0.360500  0.215400  0.156300  1.0  -0.5332
  O  O22  1  0.192100  0.140800  0.294300  1.0  -0.5386
  O  O23  1  0.316000  0.394800  0.200100  1.0  -0.5305
  O  O24  1  0.133900  0.319710  0.327800  1.0  -0.5431
  O  O25  1  0.318600  0.011800  0.977300  1.0  -0.5712
  O  O26  1  0.466400  0.986300  0.857700  1.0  -0.5487
  O  O27  1  0.102300  0.891100  0.067100  1.0  -0.5251
  O  O28  1  0.916100  0.881900  0.933400  1.0  -0.5447
  O  O29  1  0.139500  0.715400  0.343700  1.0  -0.533
  O  O30  1  0.307900  0.640800  0.205700  1.0  -0.5381
  O  O31  1  0.184000  0.894800  0.299900  1.0  -0.5342
  O  O32  1  0.366100  0.819710  0.172200  1.0  -0.5435
  O  O33  1  0.181400  0.511800  0.522700  1.0  -0.5715
  O  O34  1  0.033600  0.486300  0.642300  1.0  -0.5465
  O  O35  1  0.397700  0.391100  0.432900  1.0  -0.5235
  O  O36  1  0.583900  0.381900  0.566600  1.0  -0.5458
  O  O37  1  0.639500  0.784600  0.843700  1.0  -0.5329
  O  O38  1  0.807900  0.859200  0.705700  1.0  -0.5396
  O  O39  1  0.684000  0.605200  0.799900  1.0  -0.5309
  O  O40  1  0.866100  0.680290  0.672200  1.0  -0.5431
  O  O41  1  0.681400  0.988200  0.022700  1.0  -0.5715
  O  O42  1  0.533600  0.013700  0.142300  1.0  -0.5464
  O  O43  1  0.897700  0.108900  0.932900  1.0  -0.5235
  O  O44  1  0.083900  0.118100  0.066600  1.0  -0.5456
  O  O45  1  0.860500  0.284600  0.656300  1.0  -0.5334
  O  O46  1  0.692100  0.359200  0.794300  1.0  -0.5389
  O  O47  1  0.816000  0.105200  0.700100  1.0  -0.5333
  O  O48  1  0.633900  0.180290  0.827800  1.0  -0.5444
  O  O49  1  0.818600  0.488200  0.477300  1.0  -0.5714
  O  O50  1  0.966400  0.513700  0.357700  1.0  -0.5481
  O  O51  1  0.602300  0.608900  0.567100  1.0  -0.5253
  O  O52  1  0.416100  0.618100  0.433400  1.0  -0.5437
