# generated using pymatgen
data_Zn2H31C53O8
_symmetry_space_group_name_H-M   'P 1'
_cell_length_a   7.23090000
_cell_length_b   26.98420000
_cell_length_c   31.26260000
_cell_angle_alpha   90.00000000
_cell_angle_beta   90.00000000
_cell_angle_gamma   90.00000000
_symmetry_Int_Tables_number   1
_chemical_formula_structural   Zn2H31C53O8
_chemical_formula_sum   'Zn8 H124 C212 O32'
_cell_volume   6099.96013078
_cell_formula_units_Z   4
loop_
 _symmetry_equiv_pos_site_id
 _symmetry_equiv_pos_as_xyz
  1  'x, y, z'
loop_
 _atom_site_type_symbol
 _atom_site_label
 _atom_site_symmetry_multiplicity
 _atom_site_fract_x
 _atom_site_fract_y
 _atom_site_fract_z
 _atom_site_occupancy
 _atom_site_charge
  Zn  Zn1  1  0.000200  0.032000  0.762140  1.0  0.9926
  Zn  Zn2  1  0.692700  0.453260  0.730940  1.0  0.9155
  Zn  Zn3  1  0.000200  0.968000  0.237860  1.0  0.9926
  Zn  Zn4  1  0.692700  0.546740  0.269060  1.0  0.9141
  Zn  Zn5  1  0.999800  0.468000  0.262140  1.0  0.9929
  Zn  Zn6  1  0.307300  0.046740  0.230940  1.0  0.9139
  Zn  Zn7  1  0.999800  0.532000  0.737860  1.0  0.9925
  Zn  Zn8  1  0.307300  0.953260  0.769060  1.0  0.9164
  H  H9  1  0.404470  0.016490  0.325150  1.0  0.1202
  H  H10  1  0.946160  0.115900  0.357310  1.0  0.1181
  H  H11  1  0.150950  0.160530  0.410460  1.0  0.1231
  H  H12  1  0.608530  0.060790  0.378630  1.0  0.1243
  H  H13  1  0.171890  0.170880  0.480780  1.0  0.116
  H  H14  1  0.391200  0.121560  0.527400  1.0  0.1199
  H  H15  1  0.115540  0.178510  0.642020  1.0  0.1215
  H  H16  1  0.894860  0.227530  0.595570  1.0  0.1083
  H  H17  1  0.644430  0.133590  0.576160  1.0  0.1129
  H  H18  1  0.866690  0.100730  0.631660  1.0  0.1148
  H  H19  1  0.403930  0.075670  0.719620  1.0  0.1182
  H  H20  1  0.181710  0.108920  0.664110  1.0  0.1104
  H  H21  1  0.874840  0.243680  0.413240  1.0  0.1039
  H  H22  1  0.083600  0.296740  0.367250  1.0  0.123
  H  H23  1  0.408960  0.336450  0.480580  1.0  0.1164
  H  H24  1  0.200330  0.283300  0.526450  1.0  0.1013
  H  H25  1  0.900190  0.126400  0.490810  1.0  0.1209
  H  H26  1  0.677500  0.077020  0.445080  1.0  0.1181
  H  H27  1  0.381210  0.213510  0.412430  1.0  0.122
  H  H28  1  0.602960  0.262850  0.458450  1.0  0.1165
  H  H29  1  0.909600  0.334730  0.510070  1.0  0.1075
  H  H30  1  0.692160  0.390100  0.551930  1.0  0.1342
  H  H31  1  0.385270  0.259470  0.595420  1.0  0.1212
  H  H32  1  0.602940  0.204100  0.553580  1.0  0.1285
  H  H33  1  0.937680  0.363730  0.635720  1.0  0.1203
  H  H34  1  0.149650  0.309440  0.591570  1.0  0.1176
  H  H35  1  0.602760  0.414850  0.611630  1.0  0.1319
  H  H36  1  0.389980  0.469120  0.655700  1.0  0.121
  H  H37  1  0.342970  0.441130  0.315360  1.0  0.1135
  H  H38  1  0.148060  0.390400  0.366350  1.0  0.1077
  H  H39  1  0.648710  0.320410  0.417060  1.0  0.1033
  H  H40  1  0.844280  0.371510  0.366400  1.0  0.1127
  H  H41  1  0.404470  0.983510  0.674850  1.0  0.1176
  H  H42  1  0.946160  0.884100  0.642690  1.0  0.1194
  H  H43  1  0.150950  0.839470  0.589540  1.0  0.1249
  H  H44  1  0.608540  0.939190  0.621360  1.0  0.1233
  H  H45  1  0.171890  0.829120  0.519220  1.0  0.1174
  H  H46  1  0.391200  0.878440  0.472600  1.0  0.121
  H  H47  1  0.115540  0.821490  0.357980  1.0  0.1213
  H  H48  1  0.894930  0.772490  0.404380  1.0  0.111
  H  H49  1  0.644430  0.866410  0.423840  1.0  0.1135
  H  H50  1  0.866690  0.899270  0.368340  1.0  0.114
  H  H51  1  0.403930  0.924330  0.280380  1.0  0.1178
  H  H52  1  0.181710  0.891080  0.335890  1.0  0.1107
  H  H53  1  0.874840  0.756320  0.586760  1.0  0.1024
  H  H54  1  0.083600  0.703260  0.632750  1.0  0.1248
  H  H55  1  0.408960  0.663550  0.519420  1.0  0.1126
  H  H56  1  0.200330  0.716700  0.473550  1.0  0.1006
  H  H57  1  0.900190  0.873600  0.509190  1.0  0.1217
  H  H58  1  0.677500  0.922980  0.554920  1.0  0.1197
  H  H59  1  0.381210  0.786490  0.587570  1.0  0.1159
  H  H60  1  0.603020  0.737150  0.541540  1.0  0.1161
  H  H61  1  0.909600  0.665270  0.489930  1.0  0.1062
  H  H62  1  0.692160  0.609900  0.448070  1.0  0.1349
  H  H63  1  0.385270  0.740530  0.404580  1.0  0.1225
  H  H64  1  0.602920  0.795900  0.446420  1.0  0.1259
  H  H65  1  0.937680  0.636270  0.364280  1.0  0.1204
  H  H66  1  0.149650  0.690560  0.408430  1.0  0.1174
  H  H67  1  0.602760  0.585150  0.388370  1.0  0.1318
  H  H68  1  0.389980  0.530880  0.344300  1.0  0.12
  H  H69  1  0.342970  0.558870  0.684640  1.0  0.1138
  H  H70  1  0.148060  0.609600  0.633650  1.0  0.1082
  H  H71  1  0.648710  0.679590  0.582940  1.0  0.1052
  H  H72  1  0.844280  0.628490  0.633600  1.0  0.1063
  H  H73  1  0.595530  0.483510  0.825150  1.0  0.1195
  H  H74  1  0.053840  0.384100  0.857310  1.0  0.1185
  H  H75  1  0.849050  0.339470  0.910460  1.0  0.1239
  H  H76  1  0.391460  0.439190  0.878640  1.0  0.1223
  H  H77  1  0.828110  0.329120  0.980780  1.0  0.1163
  H  H78  1  0.608800  0.378440  0.027400  1.0  0.1225
  H  H79  1  0.884460  0.321490  0.142020  1.0  0.1209
  H  H80  1  0.105140  0.272470  0.095570  1.0  0.1089
  H  H81  1  0.355570  0.366410  0.076160  1.0  0.1133
  H  H82  1  0.133310  0.399270  0.131660  1.0  0.1156
  H  H83  1  0.596070  0.424330  0.219620  1.0  0.1176
  H  H84  1  0.818270  0.391090  0.164130  1.0  0.1118
  H  H85  1  0.125160  0.256320  0.913240  1.0  0.1035
  H  H86  1  0.916400  0.203260  0.867250  1.0  0.1215
  H  H87  1  0.591040  0.163550  0.980580  1.0  0.1126
  H  H88  1  0.799670  0.216700  0.026450  1.0  0.1017
  H  H89  1  0.099810  0.373600  0.990810  1.0  0.1217
  H  H90  1  0.322500  0.422980  0.945080  1.0  0.1188
  H  H91  1  0.618790  0.286490  0.912430  1.0  0.122
  H  H92  1  0.397040  0.237150  0.958450  1.0  0.1156
  H  H93  1  0.090400  0.165270  0.010070  1.0  0.1052
  H  H94  1  0.307840  0.109900  0.051930  1.0  0.134
  H  H95  1  0.614730  0.240530  0.095420  1.0  0.1215
  H  H96  1  0.397080  0.295900  0.053580  1.0  0.1277
  H  H97  1  0.062320  0.136270  0.135720  1.0  0.1217
  H  H98  1  0.850350  0.190560  0.091570  1.0  0.1174
  H  H99  1  0.397240  0.085150  0.111630  1.0  0.1311
  H  H100  1  0.610020  0.030880  0.155700  1.0  0.1215
  H  H101  1  0.657030  0.058870  0.815360  1.0  0.1132
  H  H102  1  0.851940  0.109600  0.866350  1.0  0.1091
  H  H103  1  0.351290  0.179590  0.917060  1.0  0.1039
  H  H104  1  0.155720  0.128490  0.866400  1.0  0.1118
  H  H105  1  0.595530  0.516490  0.174850  1.0  0.1184
  H  H106  1  0.053840  0.615900  0.142690  1.0  0.1215
  H  H107  1  0.849050  0.660530  0.089540  1.0  0.1223
  H  H108  1  0.391460  0.560810  0.121360  1.0  0.1242
  H  H109  1  0.355570  0.633590  0.923840  1.0  0.1243
  H  H110  1  0.133310  0.600730  0.868340  1.0  0.1111
  H  H111  1  0.596070  0.575670  0.780380  1.0  0.1141
  H  H112  1  0.818290  0.608920  0.835890  1.0  0.1057
  H  H113  1  0.125160  0.743680  0.086760  1.0  0.103
  H  H114  1  0.916400  0.796740  0.132750  1.0  0.1224
  H  H115  1  0.591040  0.836450  0.019420  1.0  0.1191
  H  H116  1  0.799670  0.783300  0.973550  1.0  0.1019
  H  H117  1  0.099810  0.626400  0.009190  1.0  0.1111
  H  H118  1  0.322500  0.577020  0.054920  1.0  0.1228
  H  H119  1  0.618790  0.713510  0.087570  1.0  0.1222
  H  H120  1  0.397040  0.762850  0.041550  1.0  0.1163
  H  H121  1  0.090400  0.834730  0.989930  1.0  0.1089
  H  H122  1  0.307840  0.890100  0.948070  1.0  0.1367
  H  H123  1  0.614730  0.759470  0.904580  1.0  0.1275
  H  H124  1  0.397080  0.704100  0.946420  1.0  0.1283
  H  H125  1  0.062320  0.863730  0.864280  1.0  0.1251
  H  H126  1  0.850350  0.809440  0.908430  1.0  0.1146
  H  H127  1  0.397240  0.914850  0.888370  1.0  0.1308
  H  H128  1  0.610020  0.969120  0.844300  1.0  0.1197
  H  H129  1  0.657030  0.941130  0.184640  1.0  0.1128
  H  H130  1  0.851940  0.890400  0.133650  1.0  0.1086
  H  H131  1  0.351290  0.820410  0.082940  1.0  0.1036
  H  H132  1  0.155720  0.871510  0.133600  1.0  0.112
  C  C133  1  0.347000  0.048900  0.344400  1.0  -0.0826
  C  C134  1  0.165000  0.064000  0.338500  1.0  -0.0481
  C  C135  1  0.095500  0.103500  0.362000  1.0  -0.1088
  C  C136  1  0.208000  0.128000  0.391300  1.0  -0.099
  C  C137  1  0.390000  0.112800  0.397200  1.0  0.0083
  C  C138  1  0.459400  0.073300  0.373800  1.0  -0.0933
  C  C139  1  0.055000  0.039400  0.306800  1.0  0.6987
  C  C140  1  0.022300  0.201600  0.535900  1.0  0.0398
  C  C141  1  0.159000  0.172500  0.517100  1.0  -0.1174
  C  C142  1  0.279400  0.145500  0.542700  1.0  -0.1133
  C  C143  1  0.263900  0.147600  0.587000  1.0  0.031
  C  C144  1  0.128000  0.176700  0.605700  1.0  -0.1447
  C  C145  1  0.006800  0.203700  0.580200  1.0  -0.1335
  C  C146  1  0.402000  0.122900  0.617300  1.0  0.0127
  C  C147  1  0.590000  0.120600  0.608500  1.0  -0.1146
  C  C148  1  0.712400  0.102500  0.639000  1.0  -0.0867
  C  C149  1  0.646000  0.086600  0.678400  1.0  -0.1385
  C  C150  1  0.458000  0.088800  0.687300  1.0  -0.0736
  C  C151  1  0.336000  0.107000  0.656800  1.0  -0.1005
  C  C152  1  0.785000  0.071400  0.709300  1.0  0.6797
  C  C153  1  0.026700  0.261000  0.472100  1.0  0.0072
  C  C154  1  0.995100  0.264600  0.428400  1.0  -0.1337
  C  C155  1  0.110000  0.293700  0.403100  1.0  -0.1231
  C  C156  1  0.257200  0.319100  0.421600  1.0  -0.0036
  C  C157  1  0.288800  0.315500  0.465400  1.0  -0.1143
  C  C158  1  0.174000  0.286400  0.490600  1.0  -0.0952
  C  C159  1  0.901000  0.229800  0.504800  1.0  -0.0333
  C  C160  1  0.762200  0.197100  0.476900  1.0  0.0102
  C  C161  1  0.783100  0.146000  0.473200  1.0  -0.1545
  C  C162  1  0.661000  0.118900  0.448000  1.0  -0.1431
  C  C163  1  0.519000  0.142900  0.426400  1.0  0.0199
  C  C164  1  0.498100  0.193900  0.430100  1.0  -0.1197
  C  C165  1  0.620000  0.221000  0.455400  1.0  -0.0963
  C  C166  1  0.723000  0.437100  0.311000  1.0  0.6248
  C  C167  1  0.766700  0.266700  0.529800  1.0  0.0062
  C  C168  1  0.791500  0.317800  0.529300  1.0  -0.1367
  C  C169  1  0.672000  0.348200  0.552300  1.0  -0.1454
  C  C170  1  0.528200  0.327500  0.575700  1.0  0.0211
  C  C171  1  0.503400  0.276400  0.576200  1.0  -0.1314
  C  C172  1  0.623000  0.246000  0.553200  1.0  -0.0876
  C  C173  1  0.087600  0.375200  0.630300  1.0  -0.0881
  C  C174  1  0.204000  0.345400  0.606000  1.0  -0.0986
  C  C175  1  0.387000  0.359500  0.599300  1.0  0.0246
  C  C176  1  0.452900  0.403300  0.617000  1.0  -0.0833
  C  C177  1  0.336000  0.433100  0.641300  1.0  -0.0725
  C  C178  1  0.154000  0.419000  0.648000  1.0  -0.1243
  C  C179  1  0.021000  0.456600  0.676800  1.0  0.6694
  C  C180  1  0.412000  0.414000  0.338300  1.0  -0.1097
  C  C181  1  0.304900  0.386100  0.366300  1.0  -0.0964
  C  C182  1  0.389000  0.353000  0.394200  1.0  -0.002
  C  C183  1  0.580000  0.347700  0.394200  1.0  -0.1047
  C  C184  1  0.687400  0.375700  0.366300  1.0  -0.0453
  C  C185  1  0.603000  0.408800  0.338300  1.0  -0.0572
  C  C186  1  0.347000  0.951100  0.655600  1.0  -0.0809
  C  C187  1  0.165000  0.936000  0.661500  1.0  -0.0481
  C  C188  1  0.095500  0.896500  0.638000  1.0  -0.1094
  C  C189  1  0.208000  0.872000  0.608700  1.0  -0.1007
  C  C190  1  0.390000  0.887200  0.602800  1.0  0.0085
  C  C191  1  0.459400  0.926700  0.626200  1.0  -0.0934
  C  C192  1  0.055000  0.960600  0.693200  1.0  0.699
  C  C193  1  0.022300  0.798400  0.464100  1.0  0.0383
  C  C194  1  0.159000  0.827500  0.482900  1.0  -0.1159
  C  C195  1  0.279400  0.854500  0.457300  1.0  -0.1166
  C  C196  1  0.263900  0.852400  0.413000  1.0  0.0304
  C  C197  1  0.128000  0.823300  0.394300  1.0  -0.1421
  C  C198  1  0.006800  0.796300  0.419800  1.0  -0.1338
  C  C199  1  0.402000  0.877100  0.382700  1.0  0.0123
  C  C200  1  0.590000  0.879400  0.391500  1.0  -0.1153
  C  C201  1  0.712400  0.897500  0.361000  1.0  -0.0866
  C  C202  1  0.646000  0.913400  0.321600  1.0  -0.1381
  C  C203  1  0.458000  0.911200  0.312700  1.0  -0.0748
  C  C204  1  0.336000  0.893000  0.343200  1.0  -0.1009
  C  C205  1  0.785000  0.928600  0.290700  1.0  0.6796
  C  C206  1  0.026700  0.739000  0.527900  1.0  0.0079
  C  C207  1  0.995100  0.735400  0.571600  1.0  -0.1356
  C  C208  1  0.110000  0.706300  0.596900  1.0  -0.1222
  C  C209  1  0.257200  0.680900  0.578400  1.0  -0.0032
  C  C210  1  0.288800  0.684500  0.534600  1.0  -0.1128
  C  C211  1  0.174000  0.713600  0.509400  1.0  -0.0961
  C  C212  1  0.901000  0.770200  0.495200  1.0  -0.0381
  C  C213  1  0.762200  0.802900  0.523100  1.0  0.0113
  C  C214  1  0.783100  0.854000  0.526800  1.0  -0.1548
  C  C215  1  0.661000  0.881100  0.552000  1.0  -0.147
  C  C216  1  0.519000  0.857100  0.573600  1.0  0.0186
  C  C217  1  0.498100  0.806100  0.569900  1.0  -0.1182
  C  C218  1  0.620000  0.779000  0.544600  1.0  -0.0962
  C  C219  1  0.723000  0.562900  0.689000  1.0  0.6248
  C  C220  1  0.766700  0.733300  0.470200  1.0  0.0027
  C  C221  1  0.791500  0.682200  0.470700  1.0  -0.1356
  C  C222  1  0.672000  0.651800  0.447700  1.0  -0.1447
  C  C223  1  0.528200  0.672500  0.424300  1.0  0.0209
  C  C224  1  0.503400  0.723600  0.423800  1.0  -0.1326
  C  C225  1  0.623000  0.754000  0.446800  1.0  -0.0872
  C  C226  1  0.087600  0.624800  0.369700  1.0  -0.0873
  C  C227  1  0.204000  0.654600  0.394000  1.0  -0.0974
  C  C228  1  0.387000  0.640500  0.400700  1.0  0.0248
  C  C229  1  0.452900  0.596700  0.383000  1.0  -0.0827
  C  C230  1  0.336000  0.566900  0.358700  1.0  -0.0722
  C  C231  1  0.154000  0.581000  0.352000  1.0  -0.1245
  C  C232  1  0.021000  0.543400  0.323200  1.0  0.6685
  C  C233  1  0.412000  0.586000  0.661700  1.0  -0.109
  C  C234  1  0.304900  0.613900  0.633700  1.0  -0.0966
  C  C235  1  0.389000  0.647000  0.605800  1.0  -0.0015
  C  C236  1  0.580000  0.652300  0.605800  1.0  -0.1044
  C  C237  1  0.687400  0.624300  0.633700  1.0  -0.073
  C  C238  1  0.603000  0.591200  0.661700  1.0  -0.058
  C  C239  1  0.653000  0.451100  0.844400  1.0  -0.0787
  C  C240  1  0.835000  0.436000  0.838500  1.0  -0.0476
  C  C241  1  0.904500  0.396500  0.862000  1.0  -0.1096
  C  C242  1  0.792000  0.372000  0.891300  1.0  -0.0984
  C  C243  1  0.610000  0.387200  0.897200  1.0  0.0019
  C  C244  1  0.540600  0.426700  0.873800  1.0  -0.1058
  C  C245  1  0.945000  0.460600  0.806800  1.0  0.7
  C  C246  1  0.977700  0.298400  0.035900  1.0  0.0392
  C  C247  1  0.841000  0.327500  0.017100  1.0  -0.1166
  C  C248  1  0.720600  0.354500  0.042700  1.0  -0.1155
  C  C249  1  0.736100  0.352400  0.087000  1.0  0.0303
  C  C250  1  0.872000  0.323300  0.105700  1.0  -0.1437
  C  C251  1  0.993200  0.296300  0.080200  1.0  -0.1286
  C  C252  1  0.598000  0.377100  0.117300  1.0  0.0133
  C  C253  1  0.410000  0.379400  0.108500  1.0  -0.1151
  C  C254  1  0.287600  0.397500  0.139000  1.0  -0.088
  C  C255  1  0.354000  0.413400  0.178400  1.0  -0.137
  C  C256  1  0.542000  0.411200  0.187300  1.0  -0.0734
  C  C257  1  0.664000  0.393000  0.156800  1.0  -0.1004
  C  C258  1  0.215000  0.428600  0.209300  1.0  0.6785
  C  C259  1  0.973300  0.239000  0.972100  1.0  0.006
  C  C260  1  0.004900  0.235400  0.928400  1.0  -0.1344
  C  C261  1  0.890000  0.206300  0.903100  1.0  -0.1228
  C  C262  1  0.742800  0.180900  0.921600  1.0  -0.0038
  C  C263  1  0.711200  0.184500  0.965400  1.0  -0.112
  C  C264  1  0.826000  0.213600  0.990600  1.0  -0.0964
  C  C265  1  0.099000  0.270200  0.004800  1.0  -0.0335
  C  C266  1  0.237800  0.302900  0.976900  1.0  0.0113
  C  C267  1  0.216900  0.354000  0.973200  1.0  -0.1591
  C  C268  1  0.339000  0.381100  0.948000  1.0  -0.1466
  C  C269  1  0.481000  0.357100  0.926400  1.0  0.0193
  C  C270  1  0.501900  0.306100  0.930100  1.0  -0.1143
  C  C271  1  0.380000  0.279000  0.955400  1.0  -0.0969
  C  C272  1  0.277000  0.062900  0.811000  1.0  0.6232
  C  C273  1  0.233300  0.233300  0.029800  1.0  0.0065
  C  C274  1  0.208500  0.182200  0.029300  1.0  -0.1375
  C  C275  1  0.328000  0.151800  0.052300  1.0  -0.1447
  C  C276  1  0.471800  0.172500  0.075700  1.0  0.0224
  C  C277  1  0.496600  0.223600  0.076200  1.0  -0.1293
  C  C278  1  0.377000  0.254000  0.053200  1.0  -0.0875
  C  C279  1  0.912400  0.124800  0.130300  1.0  -0.0879
  C  C280  1  0.796000  0.154600  0.106000  1.0  -0.0987
  C  C281  1  0.613000  0.140500  0.099300  1.0  0.0241
  C  C282  1  0.547100  0.096700  0.117000  1.0  -0.0825
  C  C283  1  0.664000  0.066900  0.141300  1.0  -0.0726
  C  C284  1  0.846000  0.081000  0.148000  1.0  -0.1238
  C  C285  1  0.979000  0.043400  0.176800  1.0  0.669
  C  C286  1  0.588000  0.086000  0.838300  1.0  -0.1088
  C  C287  1  0.695100  0.113900  0.866300  1.0  -0.0972
  C  C288  1  0.611000  0.147000  0.894200  1.0  -0.0017
  C  C289  1  0.420000  0.152300  0.894200  1.0  -0.1049
  C  C290  1  0.312600  0.124300  0.866300  1.0  -0.0462
  C  C291  1  0.397000  0.091200  0.838300  1.0  -0.0577
  C  C292  1  0.653000  0.548900  0.155600  1.0  -0.0811
  C  C293  1  0.835000  0.564000  0.161500  1.0  -0.0502
  C  C294  1  0.904500  0.603500  0.138000  1.0  -0.1147
  C  C295  1  0.792000  0.628000  0.108700  1.0  -0.0796
  C  C296  1  0.610000  0.612800  0.102800  1.0  -0.0016
  C  C297  1  0.540600  0.573300  0.126200  1.0  -0.096
  C  C298  1  0.945000  0.539400  0.193200  1.0  0.7002
  C  C299  1  0.977700  0.701600  0.964100  1.0  -0.005
  C  C300  1  0.841000  0.672500  0.982900  1.0  0.0041
  C  C301  1  0.720600  0.645500  0.957300  1.0  0.0219
  C  C302  1  0.736100  0.647600  0.913000  1.0  -0.0192
  C  C303  1  0.872000  0.676700  0.894300  1.0  0.022
  C  C304  1  0.993200  0.703700  0.919800  1.0  -0.0091
  C  C305  1  0.598000  0.622900  0.882700  1.0  -0.0665
  C  C306  1  0.410000  0.620600  0.891500  1.0  -0.11
  C  C307  1  0.287600  0.602500  0.861000  1.0  -0.0789
  C  C308  1  0.354000  0.586600  0.821600  1.0  -0.1409
  C  C309  1  0.542000  0.588800  0.812700  1.0  -0.0804
  C  C310  1  0.664000  0.607000  0.843200  1.0  -0.1036
  C  C311  1  0.215000  0.571400  0.790700  1.0  0.656
  C  C312  1  0.973300  0.761000  0.027900  1.0  0.0088
  C  C313  1  0.004900  0.764600  0.071600  1.0  -0.1373
  C  C314  1  0.890000  0.793700  0.096900  1.0  -0.1228
  C  C315  1  0.742800  0.819100  0.078400  1.0  -0.0027
  C  C316  1  0.711200  0.815500  0.034600  1.0  -0.1148
  C  C317  1  0.826000  0.786400  0.009400  1.0  -0.0921
  C  C318  1  0.099000  0.729800  0.995200  1.0  -0.0624
  C  C319  1  0.237800  0.697100  0.023100  1.0  0.0293
  C  C320  1  0.216900  0.646000  0.026800  1.0  -0.1412
  C  C321  1  0.339000  0.618900  0.052000  1.0  -0.1333
  C  C322  1  0.481000  0.642900  0.073600  1.0  0.0163
  C  C323  1  0.501900  0.693900  0.069900  1.0  -0.1242
  C  C324  1  0.380000  0.721000  0.044600  1.0  -0.0973
  C  C325  1  0.277000  0.937100  0.189000  1.0  0.6236
  C  C326  1  0.233300  0.766700  0.970200  1.0  0.0113
  C  C327  1  0.208500  0.817800  0.970700  1.0  -0.1427
  C  C328  1  0.328000  0.848200  0.947700  1.0  -0.1486
  C  C329  1  0.471800  0.827500  0.924300  1.0  0.0237
  C  C330  1  0.496600  0.776400  0.923800  1.0  -0.1101
  C  C331  1  0.377000  0.746000  0.946800  1.0  -0.1273
  C  C332  1  0.912400  0.875200  0.869700  1.0  -0.0733
  C  C333  1  0.796000  0.845400  0.894000  1.0  -0.0867
  C  C334  1  0.613000  0.859500  0.900700  1.0  0.0232
  C  C335  1  0.547100  0.903300  0.883000  1.0  -0.0837
  C  C336  1  0.664000  0.933100  0.858700  1.0  -0.0731
  C  C337  1  0.846000  0.919000  0.852000  1.0  -0.1247
  C  C338  1  0.979000  0.956600  0.823200  1.0  0.6701
  C  C339  1  0.588000  0.914000  0.161700  1.0  -0.1081
  C  C340  1  0.695100  0.886100  0.133700  1.0  -0.0973
  C  C341  1  0.611000  0.853000  0.105800  1.0  -0.0018
  C  C342  1  0.420000  0.847700  0.105800  1.0  -0.1058
  C  C343  1  0.312600  0.875700  0.133700  1.0  -0.0461
  C  C344  1  0.397000  0.908800  0.161700  1.0  -0.0574
  O  O345  1  0.860000  0.434900  0.679600  1.0  -0.5783
  O  O346  1  0.887000  0.046800  0.306500  1.0  -0.3982
  O  O347  1  0.733000  0.049100  0.741200  1.0  -0.5512
  O  O348  1  0.949000  0.078900  0.703300  1.0  -0.6219
  O  O349  1  0.862000  0.425300  0.298200  1.0  -0.5462
  O  O350  1  0.644000  0.479000  0.300900  1.0  -0.6654
  O  O351  1  0.127500  0.016900  0.275100  1.0  -0.696
  O  O352  1  0.096000  0.486500  0.694100  1.0  -0.5612
  O  O353  1  0.860000  0.565100  0.320400  1.0  -0.5777
  O  O354  1  0.887000  0.953200  0.693500  1.0  -0.3975
  O  O355  1  0.733000  0.950900  0.258800  1.0  -0.5497
  O  O356  1  0.949000  0.921100  0.296700  1.0  -0.6203
  O  O357  1  0.862000  0.574700  0.701800  1.0  -0.5467
  O  O358  1  0.644000  0.521000  0.699100  1.0  -0.6659
  O  O359  1  0.127500  0.983100  0.724900  1.0  -0.6944
  O  O360  1  0.096000  0.513500  0.305900  1.0  -0.5598
  O  O361  1  0.140000  0.065100  0.179600  1.0  -0.5763
  O  O362  1  0.113000  0.453200  0.806500  1.0  -0.3946
  O  O363  1  0.267000  0.450900  0.241200  1.0  -0.5505
  O  O364  1  0.051000  0.421100  0.203300  1.0  -0.6183
  O  O365  1  0.138000  0.074700  0.798200  1.0  -0.5481
  O  O366  1  0.356000  0.021000  0.800900  1.0  -0.6643
  O  O367  1  0.872500  0.483100  0.775100  1.0  -0.6953
  O  O368  1  0.904000  0.013500  0.194100  1.0  -0.5604
  O  O369  1  0.140000  0.934900  0.820400  1.0  -0.5774
  O  O370  1  0.113000  0.546800  0.193500  1.0  -0.3939
  O  O371  1  0.267000  0.549100  0.758800  1.0  -0.5496
  O  O372  1  0.051000  0.578900  0.796700  1.0  -0.6294
  O  O373  1  0.138000  0.925300  0.201800  1.0  -0.5471
  O  O374  1  0.356000  0.979000  0.199100  1.0  -0.6652
  O  O375  1  0.872500  0.516900  0.224900  1.0  -0.6955
  O  O376  1  0.904000  0.986500  0.805900  1.0  -0.5612
