# generated using pymatgen
data_Zn2Mo6H4C6NO14
_symmetry_space_group_name_H-M   'P 1'
_cell_length_a   25.68600000
_cell_length_b   31.77000000
_cell_length_c   25.12900000
_cell_angle_alpha   90.00000000
_cell_angle_beta   90.00000000
_cell_angle_gamma   90.00000000
_symmetry_Int_Tables_number   1
_chemical_formula_structural   Zn2Mo6H4C6NO14
_chemical_formula_sum   'Zn32 Mo96 H64 C96 N16 O224'
_cell_volume   20506.37520438
_cell_formula_units_Z   16
loop_
 _symmetry_equiv_pos_site_id
 _symmetry_equiv_pos_as_xyz
  1  'x, y, z'
loop_
 _atom_site_type_symbol
 _atom_site_label
 _atom_site_symmetry_multiplicity
 _atom_site_fract_x
 _atom_site_fract_y
 _atom_site_fract_z
 _atom_site_occupancy
 _atom_site_charge
  Zn  Zn1  1  0.235620  0.099490  0.314470  1.0  1.0896
  Zn  Zn2  1  0.279700  0.016950  0.522390  1.0  1.1399
  Zn  Zn3  1  0.406080  0.153160  0.461730  1.0  1.162
  Zn  Zn4  1  0.182010  0.186920  0.501370  1.0  1.0972
  Zn  Zn5  1  0.735620  0.400510  0.685530  1.0  1.0889
  Zn  Zn6  1  0.779700  0.483050  0.477610  1.0  1.1401
  Zn  Zn7  1  0.906080  0.346840  0.538270  1.0  1.1585
  Zn  Zn8  1  0.682010  0.313080  0.498630  1.0  1.0975
  Zn  Zn9  1  0.735620  0.599490  0.185530  1.0  1.089
  Zn  Zn10  1  0.779700  0.516950  0.977610  1.0  1.1403
  Zn  Zn11  1  0.906080  0.653160  0.038270  1.0  1.162
  Zn  Zn12  1  0.682010  0.686920  0.998630  1.0  1.0972
  Zn  Zn13  1  0.235620  0.900510  0.814470  1.0  1.0893
  Zn  Zn14  1  0.279700  0.983050  0.022390  1.0  1.1404
  Zn  Zn15  1  0.406080  0.846840  0.961730  1.0  1.1584
  Zn  Zn16  1  0.182010  0.813080  0.001370  1.0  1.0974
  Zn  Zn17  1  0.264380  0.400510  0.814470  1.0  1.0887
  Zn  Zn18  1  0.220300  0.483050  0.022390  1.0  1.1393
  Zn  Zn19  1  0.093920  0.346840  0.961730  1.0  1.1597
  Zn  Zn20  1  0.317990  0.313080  0.001370  1.0  1.0977
  Zn  Zn21  1  0.764380  0.099490  0.185530  1.0  1.0884
  Zn  Zn22  1  0.720300  0.016950  0.977610  1.0  1.1395
  Zn  Zn23  1  0.593920  0.153160  0.038270  1.0  1.1574
  Zn  Zn24  1  0.817990  0.186920  0.998630  1.0  1.0977
  Zn  Zn25  1  0.764380  0.900510  0.685530  1.0  1.0883
  Zn  Zn26  1  0.720300  0.983050  0.477610  1.0  1.14
  Zn  Zn27  1  0.593920  0.846840  0.538270  1.0  1.1599
  Zn  Zn28  1  0.817990  0.813080  0.498630  1.0  1.0977
  Zn  Zn29  1  0.264380  0.599490  0.314470  1.0  1.089
  Zn  Zn30  1  0.220300  0.516950  0.522390  1.0  1.1398
  Zn  Zn31  1  0.093920  0.653160  0.461730  1.0  1.1573
  Zn  Zn32  1  0.317990  0.686920  0.501370  1.0  1.0978
  Mo  Mo33  1  0.195700  0.023050  0.406090  1.0  0.9903
  Mo  Mo34  1  0.335000  0.172270  0.339340  1.0  1.0734
  Mo  Mo35  1  0.207590  0.197470  0.367320  1.0  1.0427
  Mo  Mo36  1  0.161640  0.079930  0.526420  1.0  1.1306
  Mo  Mo37  1  0.299850  0.228840  0.459560  1.0  1.0724
  Mo  Mo38  1  0.395110  0.044030  0.463000  1.0  1.1507
  Mo  Mo39  1  0.295080  0.011120  0.381900  1.0  1.0956
  Mo  Mo40  1  0.312150  0.193190  0.553780  1.0  1.0735
  Mo  Mo41  1  0.364710  0.094470  0.569390  1.0  1.0998
  Mo  Mo42  1  0.373270  0.095130  0.344720  1.0  1.064
  Mo  Mo43  1  0.234160  0.109190  0.591010  1.0  1.0973
  Mo  Mo44  1  0.135320  0.120100  0.402170  1.0  1.1593
  Mo  Mo45  1  0.695700  0.476950  0.593910  1.0  0.9894
  Mo  Mo46  1  0.835000  0.327730  0.660660  1.0  1.0705
  Mo  Mo47  1  0.707590  0.302530  0.632680  1.0  1.0397
  Mo  Mo48  1  0.661640  0.420070  0.473580  1.0  1.1298
  Mo  Mo49  1  0.799850  0.271160  0.540440  1.0  1.0735
  Mo  Mo50  1  0.895110  0.455970  0.537000  1.0  1.1508
  Mo  Mo51  1  0.795080  0.488880  0.618100  1.0  1.0945
  Mo  Mo52  1  0.812150  0.306810  0.446220  1.0  1.0755
  Mo  Mo53  1  0.864710  0.405530  0.430610  1.0  1.1016
  Mo  Mo54  1  0.873270  0.404870  0.655280  1.0  1.0625
  Mo  Mo55  1  0.734160  0.390810  0.408990  1.0  1.1001
  Mo  Mo56  1  0.635320  0.379900  0.597830  1.0  1.1926
  Mo  Mo57  1  0.695700  0.523050  0.093910  1.0  0.9883
  Mo  Mo58  1  0.835000  0.672270  0.160660  1.0  1.0717
  Mo  Mo59  1  0.707590  0.697470  0.132680  1.0  1.0386
  Mo  Mo60  1  0.661640  0.579930  0.973580  1.0  1.1301
  Mo  Mo61  1  0.799850  0.728840  0.040440  1.0  1.073
  Mo  Mo62  1  0.895110  0.544030  0.037000  1.0  1.1509
  Mo  Mo63  1  0.795080  0.511120  0.118100  1.0  1.0955
  Mo  Mo64  1  0.812150  0.693190  0.946220  1.0  1.0733
  Mo  Mo65  1  0.864710  0.594470  0.930610  1.0  1.1016
  Mo  Mo66  1  0.873270  0.595130  0.155280  1.0  1.0622
  Mo  Mo67  1  0.734160  0.609190  0.908990  1.0  1.1002
  Mo  Mo68  1  0.635320  0.620100  0.097830  1.0  1.1926
  Mo  Mo69  1  0.195700  0.976950  0.906090  1.0  0.9911
  Mo  Mo70  1  0.335000  0.827730  0.839340  1.0  1.0732
  Mo  Mo71  1  0.207590  0.802530  0.867320  1.0  1.0432
  Mo  Mo72  1  0.161640  0.920070  0.026420  1.0  1.1301
  Mo  Mo73  1  0.299850  0.771160  0.959560  1.0  1.0729
  Mo  Mo74  1  0.395110  0.955970  0.963000  1.0  1.1506
  Mo  Mo75  1  0.295080  0.988880  0.881900  1.0  1.0951
  Mo  Mo76  1  0.312150  0.806810  0.053780  1.0  1.0743
  Mo  Mo77  1  0.364710  0.905530  0.069390  1.0  1.0995
  Mo  Mo78  1  0.373270  0.904870  0.844720  1.0  1.0639
  Mo  Mo79  1  0.234160  0.890810  0.091010  1.0  1.0969
  Mo  Mo80  1  0.135320  0.879900  0.902170  1.0  1.1931
  Mo  Mo81  1  0.304300  0.476950  0.906090  1.0  0.9907
  Mo  Mo82  1  0.165000  0.327730  0.839340  1.0  1.0734
  Mo  Mo83  1  0.292410  0.302530  0.867320  1.0  1.0419
  Mo  Mo84  1  0.338360  0.420070  0.026420  1.0  1.1302
  Mo  Mo85  1  0.200150  0.271160  0.959560  1.0  1.073
  Mo  Mo86  1  0.104890  0.455970  0.963000  1.0  1.1499
  Mo  Mo87  1  0.204920  0.488880  0.881900  1.0  1.0954
  Mo  Mo88  1  0.187850  0.306810  0.053780  1.0  1.073
  Mo  Mo89  1  0.135290  0.405530  0.069390  1.0  1.099
  Mo  Mo90  1  0.126730  0.404870  0.844720  1.0  1.0639
  Mo  Mo91  1  0.265840  0.390810  0.091010  1.0  1.0981
  Mo  Mo92  1  0.364680  0.379900  0.902170  1.0  1.1926
  Mo  Mo93  1  0.804300  0.023050  0.093910  1.0  0.9876
  Mo  Mo94  1  0.665000  0.172270  0.160660  1.0  1.0695
  Mo  Mo95  1  0.792410  0.197470  0.132680  1.0  1.0389
  Mo  Mo96  1  0.838360  0.079930  0.973580  1.0  1.1296
  Mo  Mo97  1  0.700150  0.228840  0.040440  1.0  1.073
  Mo  Mo98  1  0.604890  0.044030  0.037000  1.0  1.1499
  Mo  Mo99  1  0.704920  0.011120  0.118100  1.0  1.0956
  Mo  Mo100  1  0.687850  0.193190  0.946220  1.0  1.0744
  Mo  Mo101  1  0.635290  0.094470  0.930610  1.0  1.1034
  Mo  Mo102  1  0.626730  0.095130  0.155280  1.0  1.0628
  Mo  Mo103  1  0.765840  0.109190  0.908990  1.0  1.0999
  Mo  Mo104  1  0.864680  0.120100  0.097830  1.0  1.1915
  Mo  Mo105  1  0.804300  0.976950  0.593910  1.0  0.9889
  Mo  Mo106  1  0.665000  0.827730  0.660660  1.0  1.0688
  Mo  Mo107  1  0.792410  0.802530  0.632680  1.0  1.0414
  Mo  Mo108  1  0.838360  0.920070  0.473580  1.0  1.1299
  Mo  Mo109  1  0.700150  0.771160  0.540440  1.0  1.0736
  Mo  Mo110  1  0.604890  0.955970  0.537000  1.0  1.1497
  Mo  Mo111  1  0.704920  0.988880  0.618100  1.0  1.0947
  Mo  Mo112  1  0.687850  0.806810  0.446220  1.0  1.0763
  Mo  Mo113  1  0.635290  0.905530  0.430610  1.0  1.1034
  Mo  Mo114  1  0.626730  0.904870  0.655280  1.0  1.0627
  Mo  Mo115  1  0.765840  0.890810  0.408990  1.0  1.0998
  Mo  Mo116  1  0.864680  0.879900  0.597830  1.0  1.1574
  Mo  Mo117  1  0.304300  0.523050  0.406090  1.0  0.9899
  Mo  Mo118  1  0.165000  0.672270  0.339340  1.0  1.0733
  Mo  Mo119  1  0.292410  0.697470  0.367320  1.0  1.0408
  Mo  Mo120  1  0.338360  0.579930  0.526420  1.0  1.1301
  Mo  Mo121  1  0.200150  0.728840  0.459560  1.0  1.0724
  Mo  Mo122  1  0.104890  0.544030  0.463000  1.0  1.1501
  Mo  Mo123  1  0.204920  0.511120  0.381900  1.0  1.0958
  Mo  Mo124  1  0.187850  0.693190  0.553780  1.0  1.0725
  Mo  Mo125  1  0.135290  0.594470  0.569390  1.0  1.0997
  Mo  Mo126  1  0.126730  0.595130  0.344720  1.0  1.0643
  Mo  Mo127  1  0.265840  0.609190  0.591010  1.0  1.0985
  Mo  Mo128  1  0.364680  0.620100  0.402170  1.0  1.1931
  H  H129  1  0.274600  0.127600  0.208800  1.0  0.1143
  H  H130  1  0.274000  0.107000  0.123500  1.0  0.1455
  H  H131  1  0.159500  0.024200  0.160900  1.0  0.1424
  H  H132  1  0.161700  0.050400  0.245700  1.0  0.1049
  H  H133  1  0.085900  0.171800  0.560300  1.0  0.1375
  H  H134  1  0.008200  0.206600  0.576700  1.0  0.1157
  H  H135  1  0.066200  0.310500  0.513400  1.0  0.1409
  H  H136  1  0.141600  0.273500  0.500800  1.0  0.088
  H  H137  1  0.774600  0.372400  0.791200  1.0  0.1141
  H  H138  1  0.774000  0.393000  0.876500  1.0  0.1459
  H  H139  1  0.659500  0.475800  0.839100  1.0  0.1428
  H  H140  1  0.661700  0.449600  0.754300  1.0  0.1038
  H  H141  1  0.585900  0.328200  0.439700  1.0  0.1374
  H  H142  1  0.508200  0.293400  0.423300  1.0  0.1149
  H  H143  1  0.566200  0.189500  0.486600  1.0  0.141
  H  H144  1  0.641600  0.226500  0.499200  1.0  0.089
  H  H145  1  0.774600  0.627600  0.291200  1.0  0.1145
  H  H146  1  0.774000  0.607000  0.376500  1.0  0.1458
  H  H147  1  0.659500  0.524200  0.339100  1.0  0.1423
  H  H148  1  0.661700  0.550400  0.254300  1.0  0.104
  H  H149  1  0.585900  0.671800  0.939700  1.0  0.1381
  H  H150  1  0.508200  0.706600  0.923300  1.0  0.1144
  H  H151  1  0.566200  0.810500  0.986600  1.0  0.1411
  H  H152  1  0.641600  0.773500  0.999200  1.0  0.0884
  H  H153  1  0.274600  0.872400  0.708800  1.0  0.1138
  H  H154  1  0.274000  0.893000  0.623500  1.0  0.1456
  H  H155  1  0.159500  0.975800  0.660900  1.0  0.1429
  H  H156  1  0.161700  0.949600  0.745700  1.0  0.1041
  H  H157  1  0.085900  0.828200  0.060300  1.0  0.1374
  H  H158  1  0.008200  0.793400  0.076700  1.0  0.116
  H  H159  1  0.066200  0.689500  0.013400  1.0  0.1415
  H  H160  1  0.141600  0.726500  0.000800  1.0  0.0882
  H  H161  1  0.225400  0.372400  0.708800  1.0  0.1138
  H  H162  1  0.226000  0.393000  0.623500  1.0  0.1458
  H  H163  1  0.340500  0.475800  0.660900  1.0  0.1428
  H  H164  1  0.338300  0.449600  0.745700  1.0  0.1047
  H  H165  1  0.414100  0.328200  0.060300  1.0  0.1373
  H  H166  1  0.491800  0.293400  0.076700  1.0  0.1149
  H  H167  1  0.433800  0.189500  0.013400  1.0  0.1416
  H  H168  1  0.358400  0.226500  0.000800  1.0  0.0882
  H  H169  1  0.725400  0.127600  0.291200  1.0  0.1141
  H  H170  1  0.726000  0.107000  0.376500  1.0  0.1465
  H  H171  1  0.840500  0.024200  0.339100  1.0  0.1421
  H  H172  1  0.838300  0.050400  0.254300  1.0  0.1046
  H  H173  1  0.914100  0.171800  0.939700  1.0  0.1381
  H  H174  1  0.991800  0.206600  0.923300  1.0  0.1154
  H  H175  1  0.933800  0.310500  0.986600  1.0  0.1412
  H  H176  1  0.858400  0.273500  0.999200  1.0  0.0884
  H  H177  1  0.725400  0.872400  0.791200  1.0  0.1139
  H  H178  1  0.726000  0.893000  0.876500  1.0  0.1467
  H  H179  1  0.840500  0.975800  0.839100  1.0  0.1427
  H  H180  1  0.838300  0.949600  0.754300  1.0  0.1049
  H  H181  1  0.914100  0.828200  0.439700  1.0  0.1374
  H  H182  1  0.991800  0.793400  0.423300  1.0  0.1159
  H  H183  1  0.933800  0.689500  0.486600  1.0  0.1409
  H  H184  1  0.858400  0.726500  0.499200  1.0  0.0889
  H  H185  1  0.225400  0.627600  0.208800  1.0  0.1142
  H  H186  1  0.226000  0.607000  0.123500  1.0  0.1459
  H  H187  1  0.340500  0.524200  0.160900  1.0  0.1422
  H  H188  1  0.338300  0.550400  0.245700  1.0  0.1051
  H  H189  1  0.414100  0.671800  0.560300  1.0  0.1375
  H  H190  1  0.491800  0.706600  0.576700  1.0  0.1146
  H  H191  1  0.433800  0.810500  0.513400  1.0  0.141
  H  H192  1  0.358400  0.773500  0.500800  1.0  0.0881
  C  C193  1  0.251700  0.106300  0.198800  1.0  0.1753
  C  C194  1  0.252000  0.094000  0.147800  1.0  -0.1396
  C  C195  1  0.218900  0.061300  0.131300  1.0  0.0063
  C  C196  1  0.183400  0.044900  0.170000  1.0  -0.1058
  C  C197  1  0.185600  0.060600  0.221100  1.0  0.1631
  C  C198  1  0.221900  0.041600  0.077500  1.0  0.6684
  C  C199  1  0.081700  0.199800  0.550200  1.0  0.0924
  C  C200  1  0.035300  0.221000  0.560200  1.0  -0.0415
  C  C201  1  0.028300  0.261400  0.546900  1.0  -0.1095
  C  C202  1  0.068700  0.282400  0.523400  1.0  -0.1315
  C  C203  1  0.113300  0.259300  0.515300  1.0  0.1962
  C  C204  1  0.977000  0.283000  0.557600  1.0  0.7323
  C  C205  1  0.751700  0.393700  0.801200  1.0  0.1761
  C  C206  1  0.752000  0.406000  0.852200  1.0  -0.139
  C  C207  1  0.718900  0.438700  0.868700  1.0  0.007
  C  C208  1  0.683400  0.455100  0.830000  1.0  -0.1076
  C  C209  1  0.685600  0.439400  0.778900  1.0  0.1636
  C  C210  1  0.721900  0.458400  0.922500  1.0  0.6686
  C  C211  1  0.581700  0.300200  0.449800  1.0  0.0932
  C  C212  1  0.535300  0.279000  0.439800  1.0  -0.0415
  C  C213  1  0.528300  0.238600  0.453100  1.0  -0.1099
  C  C214  1  0.568700  0.217600  0.476600  1.0  -0.1321
  C  C215  1  0.613300  0.240700  0.484700  1.0  0.1969
  C  C216  1  0.477000  0.217000  0.442400  1.0  0.7317
  C  C217  1  0.751700  0.606300  0.301200  1.0  0.1764
  C  C218  1  0.752000  0.594000  0.352200  1.0  -0.1398
  C  C219  1  0.718900  0.561300  0.368700  1.0  0.0072
  C  C220  1  0.683400  0.544900  0.330000  1.0  -0.1063
  C  C221  1  0.685600  0.560600  0.278900  1.0  0.1634
  C  C222  1  0.721900  0.541600  0.422500  1.0  0.668
  C  C223  1  0.581700  0.699800  0.949800  1.0  0.0925
  C  C224  1  0.535300  0.721000  0.939800  1.0  -0.0415
  C  C225  1  0.528300  0.761400  0.953100  1.0  -0.1098
  C  C226  1  0.568700  0.782400  0.976600  1.0  -0.1316
  C  C227  1  0.613300  0.759300  0.984700  1.0  0.1965
  C  C228  1  0.477000  0.783000  0.942400  1.0  0.7317
  C  C229  1  0.251700  0.893700  0.698800  1.0  0.1756
  C  C230  1  0.252000  0.906000  0.647800  1.0  -0.139
  C  C231  1  0.218900  0.938700  0.631300  1.0  0.006
  C  C232  1  0.183400  0.955100  0.670000  1.0  -0.107
  C  C233  1  0.185600  0.939400  0.721100  1.0  0.163
  C  C234  1  0.221900  0.958400  0.577500  1.0  0.6683
  C  C235  1  0.081700  0.800200  0.050200  1.0  0.0931
  C  C236  1  0.035300  0.779000  0.060200  1.0  -0.0421
  C  C237  1  0.028300  0.738600  0.046900  1.0  -0.1096
  C  C238  1  0.068700  0.717600  0.023400  1.0  -0.1312
  C  C239  1  0.113300  0.740700  0.015300  1.0  0.1959
  C  C240  1  0.977000  0.717000  0.057600  1.0  0.7322
  C  C241  1  0.248300  0.393700  0.698800  1.0  0.1755
  C  C242  1  0.248000  0.406000  0.647800  1.0  -0.138
  C  C243  1  0.281100  0.438700  0.631300  1.0  0.0065
  C  C244  1  0.316600  0.455100  0.670000  1.0  -0.1066
  C  C245  1  0.314400  0.439400  0.721100  1.0  0.1639
  C  C246  1  0.278100  0.458400  0.577500  1.0  0.6687
  C  C247  1  0.418300  0.300200  0.050200  1.0  0.0909
  C  C248  1  0.464700  0.279000  0.060200  1.0  -0.0415
  C  C249  1  0.471700  0.238600  0.046900  1.0  -0.1095
  C  C250  1  0.431300  0.217600  0.023400  1.0  -0.1312
  C  C251  1  0.386700  0.240700  0.015300  1.0  0.1967
  C  C252  1  0.523000  0.217000  0.057600  1.0  0.7317
  C  C253  1  0.748300  0.106300  0.301200  1.0  0.1758
  C  C254  1  0.748000  0.094000  0.352200  1.0  -0.1402
  C  C255  1  0.781100  0.061300  0.368700  1.0  0.0081
  C  C256  1  0.816600  0.044900  0.330000  1.0  -0.1062
  C  C257  1  0.814400  0.060600  0.278900  1.0  0.1642
  C  C258  1  0.778100  0.041600  0.422500  1.0  0.6688
  C  C259  1  0.918300  0.199800  0.949800  1.0  0.0901
  C  C260  1  0.964700  0.221000  0.939800  1.0  -0.0414
  C  C261  1  0.971700  0.261400  0.953100  1.0  -0.11
  C  C262  1  0.931300  0.282400  0.976600  1.0  -0.1321
  C  C263  1  0.886700  0.259300  0.984700  1.0  0.1975
  C  C264  1  0.023000  0.283000  0.942400  1.0  0.7311
  C  C265  1  0.748300  0.893700  0.801200  1.0  0.176
  C  C266  1  0.748000  0.906000  0.852200  1.0  -0.1389
  C  C267  1  0.781100  0.938700  0.868700  1.0  0.008
  C  C268  1  0.816600  0.955100  0.830000  1.0  -0.1067
  C  C269  1  0.814400  0.939400  0.778900  1.0  0.1643
  C  C270  1  0.778100  0.958400  0.922500  1.0  0.6692
  C  C271  1  0.918300  0.800200  0.449800  1.0  0.091
  C  C272  1  0.964700  0.779000  0.439800  1.0  -0.0412
  C  C273  1  0.971700  0.738600  0.453100  1.0  -0.1095
  C  C274  1  0.931300  0.717600  0.476600  1.0  -0.1319
  C  C275  1  0.886700  0.740700  0.484700  1.0  0.1978
  C  C276  1  0.023000  0.717000  0.442400  1.0  0.731
  C  C277  1  0.248300  0.606300  0.198800  1.0  0.1745
  C  C278  1  0.248000  0.594000  0.147800  1.0  -0.1388
  C  C279  1  0.281100  0.561300  0.131300  1.0  0.0067
  C  C280  1  0.316600  0.544900  0.170000  1.0  -0.1057
  C  C281  1  0.314400  0.560600  0.221100  1.0  0.1643
  C  C282  1  0.278100  0.541600  0.077500  1.0  0.6687
  C  C283  1  0.418300  0.699800  0.550200  1.0  0.0899
  C  C284  1  0.464700  0.721000  0.560200  1.0  -0.0413
  C  C285  1  0.471700  0.761400  0.546900  1.0  -0.1099
  C  C286  1  0.431300  0.782400  0.523400  1.0  -0.1321
  C  C287  1  0.386700  0.759300  0.515300  1.0  0.1971
  C  C288  1  0.523000  0.783000  0.557600  1.0  0.7318
  N  N289  1  0.219900  0.089600  0.237400  1.0  -0.2702
  N  N290  1  0.119600  0.220300  0.525900  1.0  -0.2677
  N  N291  1  0.719900  0.410400  0.762600  1.0  -0.2711
  N  N292  1  0.619600  0.279700  0.474100  1.0  -0.2682
  N  N293  1  0.719900  0.589600  0.262600  1.0  -0.2701
  N  N294  1  0.619600  0.720300  0.974100  1.0  -0.2679
  N  N295  1  0.219900  0.910400  0.737400  1.0  -0.2697
  N  N296  1  0.119600  0.779700  0.025900  1.0  -0.268
  N  N297  1  0.280100  0.410400  0.737400  1.0  -0.2701
  N  N298  1  0.380400  0.279700  0.025900  1.0  -0.266
  N  N299  1  0.780100  0.089600  0.262600  1.0  -0.2708
  N  N300  1  0.880400  0.220300  0.974100  1.0  -0.2661
  N  N301  1  0.780100  0.910400  0.762600  1.0  -0.2718
  N  N302  1  0.880400  0.779700  0.474100  1.0  -0.2663
  N  N303  1  0.280100  0.589600  0.237400  1.0  -0.2705
  N  N304  1  0.380400  0.720300  0.525900  1.0  -0.2658
  O  O305  1  0.348400  0.041600  0.526800  1.0  -0.7094
  O  O306  1  0.305600  0.085600  0.607400  1.0  -0.668
  O  O307  1  0.366900  0.151600  0.577800  1.0  -0.6348
  O  O308  1  0.249300  0.211500  0.513200  1.0  -0.8261
  O  O309  1  0.418400  0.069500  0.401600  1.0  -0.6539
  O  O310  1  0.340800  0.224900  0.389100  1.0  -0.6393
  O  O311  1  0.116300  0.108500  0.470400  1.0  -0.6702
  O  O312  1  0.265600  0.163700  0.601500  1.0  -0.6977
  O  O313  1  0.355600  0.003600  0.433400  1.0  -0.672
  O  O314  1  0.144000  0.065300  0.379600  1.0  -0.6697
  O  O315  1  0.263100  0.191900  0.322000  1.0  -0.6906
  O  O316  1  0.235600  0.235500  0.413000  1.0  -0.6591
  O  O317  1  0.256200  0.006100  0.449300  1.0  -0.7613
  O  O318  1  0.226700  0.056000  0.552100  1.0  -0.8209
  O  O319  1  0.401300  0.100900  0.498900  1.0  -0.7738
  O  O320  1  0.386500  0.146300  0.386400  1.0  -0.8171
  O  O321  1  0.308500  0.117300  0.315700  1.0  -0.8195
  O  O322  1  0.355500  0.194400  0.490200  1.0  -0.8071
  O  O323  1  0.157900  0.025700  0.479400  1.0  -0.6324
  O  O324  1  0.188900  0.138200  0.347000  1.0  -0.7355
  O  O325  1  0.164000  0.174700  0.427400  1.0  -0.7937
  O  O326  1  0.342900  0.039300  0.337500  1.0  -0.6885
  O  O327  1  0.239700  0.044500  0.348000  1.0  -0.8133
  O  O328  1  0.181300  0.137200  0.545600  1.0  -0.8598
  O  O329  1  0.269200  0.033800  0.063400  1.0  -0.5491
  O  O330  1  0.181200  0.033400  0.053700  1.0  -0.4559
  O  O331  1  0.943500  0.264100  0.582500  1.0  -0.4367
  O  O332  1  0.974200  0.320100  0.537400  1.0  -0.5577
  O  O333  1  0.848400  0.458400  0.473200  1.0  -0.7091
  O  O334  1  0.805600  0.414400  0.392600  1.0  -0.6718
  O  O335  1  0.866900  0.348400  0.422200  1.0  -0.6352
  O  O336  1  0.749300  0.288500  0.486800  1.0  -0.8271
  O  O337  1  0.918400  0.430500  0.598400  1.0  -0.6542
  O  O338  1  0.840800  0.275100  0.610900  1.0  -0.6408
  O  O339  1  0.616300  0.391500  0.529600  1.0  -0.6702
  O  O340  1  0.765600  0.336300  0.398500  1.0  -0.698
  O  O341  1  0.855600  0.496400  0.566600  1.0  -0.6723
  O  O342  1  0.644000  0.434700  0.620400  1.0  -0.6682
  O  O343  1  0.763100  0.308100  0.678000  1.0  -0.6925
  O  O344  1  0.735600  0.264500  0.587000  1.0  -0.6609
  O  O345  1  0.756200  0.493900  0.550700  1.0  -0.7603
  O  O346  1  0.726700  0.444000  0.447900  1.0  -0.8215
  O  O347  1  0.901300  0.399100  0.501100  1.0  -0.7736
  O  O348  1  0.886500  0.353700  0.613600  1.0  -0.8169
  O  O349  1  0.808500  0.382700  0.684300  1.0  -0.8183
  O  O350  1  0.855500  0.305600  0.509800  1.0  -0.809
  O  O351  1  0.657900  0.474300  0.520600  1.0  -0.6324
  O  O352  1  0.688900  0.361800  0.653000  1.0  -0.7332
  O  O353  1  0.664000  0.325300  0.572600  1.0  -0.7923
  O  O354  1  0.842900  0.460700  0.662500  1.0  -0.6896
  O  O355  1  0.739700  0.455500  0.652000  1.0  -0.8111
  O  O356  1  0.681300  0.362800  0.454400  1.0  -0.8603
  O  O357  1  0.769200  0.466200  0.936600  1.0  -0.5489
  O  O358  1  0.681200  0.466600  0.946300  1.0  -0.4555
  O  O359  1  0.443500  0.235900  0.417500  1.0  -0.4384
  O  O360  1  0.474200  0.179900  0.462600  1.0  -0.5576
  O  O361  1  0.848400  0.541600  0.973200  1.0  -0.7098
  O  O362  1  0.805600  0.585600  0.892600  1.0  -0.6721
  O  O363  1  0.866900  0.651600  0.922200  1.0  -0.6364
  O  O364  1  0.749300  0.711500  0.986800  1.0  -0.8261
  O  O365  1  0.918400  0.569500  0.098400  1.0  -0.6537
  O  O366  1  0.840800  0.724900  0.110900  1.0  -0.6387
  O  O367  1  0.616300  0.608500  0.029600  1.0  -0.6704
  O  O368  1  0.765600  0.663700  0.898500  1.0  -0.6996
  O  O369  1  0.855600  0.503600  0.066600  1.0  -0.6725
  O  O370  1  0.644000  0.565300  0.120400  1.0  -0.6688
  O  O371  1  0.763100  0.691900  0.178000  1.0  -0.6907
  O  O372  1  0.735600  0.735500  0.087000  1.0  -0.6592
  O  O373  1  0.756200  0.506100  0.050700  1.0  -0.762
  O  O374  1  0.726700  0.556000  0.947900  1.0  -0.8215
  O  O375  1  0.901300  0.600900  0.001100  1.0  -0.773
  O  O376  1  0.886500  0.646300  0.113600  1.0  -0.8167
  O  O377  1  0.808500  0.617300  0.184300  1.0  -0.8187
  O  O378  1  0.855500  0.694400  0.009800  1.0  -0.8077
  O  O379  1  0.657900  0.525700  0.020600  1.0  -0.6342
  O  O380  1  0.688900  0.638200  0.153000  1.0  -0.7331
  O  O381  1  0.664000  0.674700  0.072600  1.0  -0.7931
  O  O382  1  0.842900  0.539300  0.162500  1.0  -0.6903
  O  O383  1  0.739700  0.544500  0.152000  1.0  -0.8137
  O  O384  1  0.681300  0.637200  0.954400  1.0  -0.8597
  O  O385  1  0.769200  0.533800  0.436600  1.0  -0.549
  O  O386  1  0.681200  0.533400  0.446300  1.0  -0.4558
  O  O387  1  0.443500  0.764100  0.917500  1.0  -0.4385
  O  O388  1  0.474200  0.820100  0.962600  1.0  -0.5575
  O  O389  1  0.348400  0.958400  0.026800  1.0  -0.709
  O  O390  1  0.305600  0.914400  0.107400  1.0  -0.6675
  O  O391  1  0.366900  0.848400  0.077800  1.0  -0.6346
  O  O392  1  0.249300  0.788500  0.013200  1.0  -0.8274
  O  O393  1  0.418400  0.930500  0.901600  1.0  -0.6539
  O  O394  1  0.340800  0.775100  0.889100  1.0  -0.6398
  O  O395  1  0.116300  0.891500  0.970400  1.0  -0.6698
  O  O396  1  0.265600  0.836300  0.101500  1.0  -0.6992
  O  O397  1  0.355600  0.996400  0.933400  1.0  -0.672
  O  O398  1  0.144000  0.934700  0.879600  1.0  -0.669
  O  O399  1  0.263100  0.808100  0.822000  1.0  -0.6916
  O  O400  1  0.235600  0.764500  0.913000  1.0  -0.6607
  O  O401  1  0.256200  0.993900  0.949300  1.0  -0.7601
  O  O402  1  0.226700  0.944000  0.052100  1.0  -0.8214
  O  O403  1  0.401300  0.899100  0.998900  1.0  -0.7743
  O  O404  1  0.386500  0.853700  0.886400  1.0  -0.8174
  O  O405  1  0.308500  0.882700  0.815700  1.0  -0.8192
  O  O406  1  0.355500  0.805600  0.990200  1.0  -0.8085
  O  O407  1  0.157900  0.974300  0.979400  1.0  -0.634
  O  O408  1  0.188900  0.861800  0.847000  1.0  -0.7336
  O  O409  1  0.164000  0.825300  0.927400  1.0  -0.7929
  O  O410  1  0.342900  0.960700  0.837500  1.0  -0.6904
  O  O411  1  0.239700  0.955500  0.848000  1.0  -0.8111
  O  O412  1  0.181300  0.862800  0.045600  1.0  -0.86
  O  O413  1  0.269200  0.966200  0.563400  1.0  -0.5494
  O  O414  1  0.181200  0.966600  0.553700  1.0  -0.4558
  O  O415  1  0.943500  0.735900  0.082500  1.0  -0.4365
  O  O416  1  0.974200  0.679900  0.037400  1.0  -0.5576
  O  O417  1  0.151600  0.458400  0.026800  1.0  -0.7095
  O  O418  1  0.194400  0.414400  0.107400  1.0  -0.6677
  O  O419  1  0.133100  0.348400  0.077800  1.0  -0.6361
  O  O420  1  0.250700  0.288500  0.013200  1.0  -0.8267
  O  O421  1  0.081600  0.430500  0.901600  1.0  -0.6532
  O  O422  1  0.159200  0.275100  0.889100  1.0  -0.6389
  O  O423  1  0.383700  0.391500  0.970400  1.0  -0.6707
  O  O424  1  0.234400  0.336300  0.101500  1.0  -0.6988
  O  O425  1  0.144400  0.496400  0.933400  1.0  -0.6721
  O  O426  1  0.356000  0.434700  0.879600  1.0  -0.6693
  O  O427  1  0.236900  0.308100  0.822000  1.0  -0.6912
  O  O428  1  0.264400  0.264500  0.913000  1.0  -0.6609
  O  O429  1  0.243800  0.493900  0.949300  1.0  -0.7591
  O  O430  1  0.273300  0.444000  0.052100  1.0  -0.8231
  O  O431  1  0.098700  0.399100  0.998900  1.0  -0.7746
  O  O432  1  0.113500  0.353700  0.886400  1.0  -0.8173
  O  O433  1  0.191500  0.382700  0.815700  1.0  -0.8183
  O  O434  1  0.144500  0.305600  0.990200  1.0  -0.8072
  O  O435  1  0.342100  0.474300  0.979400  1.0  -0.6314
  O  O436  1  0.311100  0.361800  0.847000  1.0  -0.733
  O  O437  1  0.336000  0.325300  0.927400  1.0  -0.7931
  O  O438  1  0.157100  0.460700  0.837500  1.0  -0.6907
  O  O439  1  0.260300  0.455500  0.848000  1.0  -0.8115
  O  O440  1  0.318700  0.362800  0.045600  1.0  -0.8593
  O  O441  1  0.230800  0.466200  0.563400  1.0  -0.549
  O  O442  1  0.318800  0.466600  0.553700  1.0  -0.4556
  O  O443  1  0.556500  0.235900  0.082500  1.0  -0.4354
  O  O444  1  0.525800  0.179900  0.037400  1.0  -0.5581
  O  O445  1  0.651600  0.041600  0.973200  1.0  -0.711
  O  O446  1  0.694400  0.085600  0.892600  1.0  -0.6707
  O  O447  1  0.633100  0.151600  0.922200  1.0  -0.635
  O  O448  1  0.750700  0.211500  0.986800  1.0  -0.8262
  O  O449  1  0.581600  0.069500  0.098400  1.0  -0.6524
  O  O450  1  0.659200  0.224900  0.110900  1.0  -0.6397
  O  O451  1  0.883700  0.108500  0.029600  1.0  -0.6702
  O  O452  1  0.734400  0.163700  0.898500  1.0  -0.7001
  O  O453  1  0.644400  0.003600  0.066600  1.0  -0.672
  O  O454  1  0.856000  0.065300  0.120400  1.0  -0.67
  O  O455  1  0.736900  0.191900  0.178000  1.0  -0.6904
  O  O456  1  0.764400  0.235500  0.087000  1.0  -0.6593
  O  O457  1  0.743800  0.006100  0.050700  1.0  -0.7609
  O  O458  1  0.773300  0.056000  0.947900  1.0  -0.8232
  O  O459  1  0.598700  0.100900  0.001100  1.0  -0.7735
  O  O460  1  0.613500  0.146300  0.113600  1.0  -0.8167
  O  O461  1  0.691500  0.117300  0.184300  1.0  -0.818
  O  O462  1  0.644500  0.194400  0.009800  1.0  -0.8066
  O  O463  1  0.842100  0.025700  0.020600  1.0  -0.6326
  O  O464  1  0.811100  0.138200  0.153000  1.0  -0.7323
  O  O465  1  0.836000  0.174700  0.072600  1.0  -0.7933
  O  O466  1  0.657100  0.039300  0.162500  1.0  -0.6896
  O  O467  1  0.760300  0.044500  0.152000  1.0  -0.8141
  O  O468  1  0.818700  0.137200  0.954400  1.0  -0.8597
  O  O469  1  0.730800  0.033800  0.436600  1.0  -0.5474
  O  O470  1  0.818800  0.033400  0.446300  1.0  -0.4567
  O  O471  1  0.056500  0.264100  0.917500  1.0  -0.4375
  O  O472  1  0.025800  0.320100  0.962600  1.0  -0.5585
  O  O473  1  0.651600  0.958400  0.473200  1.0  -0.7107
  O  O474  1  0.694400  0.914400  0.392600  1.0  -0.6704
  O  O475  1  0.633100  0.848400  0.422200  1.0  -0.6346
  O  O476  1  0.750700  0.788500  0.486800  1.0  -0.8266
  O  O477  1  0.581600  0.930500  0.598400  1.0  -0.6527
  O  O478  1  0.659200  0.775100  0.610900  1.0  -0.6395
  O  O479  1  0.883700  0.891500  0.529600  1.0  -0.6706
  O  O480  1  0.734400  0.836300  0.398500  1.0  -0.6984
  O  O481  1  0.644400  0.996400  0.566600  1.0  -0.6721
  O  O482  1  0.856000  0.934700  0.620400  1.0  -0.6696
  O  O483  1  0.736900  0.808100  0.678000  1.0  -0.6921
  O  O484  1  0.764400  0.764500  0.587000  1.0  -0.6609
  O  O485  1  0.743800  0.993900  0.550700  1.0  -0.7594
  O  O486  1  0.773300  0.944000  0.447900  1.0  -0.8232
  O  O487  1  0.598700  0.899100  0.501100  1.0  -0.7741
  O  O488  1  0.613500  0.853700  0.613600  1.0  -0.8169
  O  O489  1  0.691500  0.882700  0.684300  1.0  -0.8177
  O  O490  1  0.644500  0.805600  0.509800  1.0  -0.8078
  O  O491  1  0.842100  0.974300  0.520600  1.0  -0.6332
  O  O492  1  0.811100  0.861800  0.653000  1.0  -0.7331
  O  O493  1  0.836000  0.825300  0.572600  1.0  -0.7924
  O  O494  1  0.657100  0.960700  0.662500  1.0  -0.6885
  O  O495  1  0.760300  0.955500  0.652000  1.0  -0.8116
  O  O496  1  0.818700  0.862800  0.454400  1.0  -0.8604
  O  O497  1  0.730800  0.966200  0.936600  1.0  -0.548
  O  O498  1  0.818800  0.966600  0.946300  1.0  -0.4568
  O  O499  1  0.056500  0.735900  0.417500  1.0  -0.4364
  O  O500  1  0.025800  0.679900  0.462600  1.0  -0.5582
  O  O501  1  0.151600  0.541600  0.526800  1.0  -0.7098
  O  O502  1  0.194400  0.585600  0.607400  1.0  -0.6679
  O  O503  1  0.133100  0.651600  0.577800  1.0  -0.6354
  O  O504  1  0.250700  0.711500  0.513200  1.0  -0.8261
  O  O505  1  0.081600  0.569500  0.401600  1.0  -0.6533
  O  O506  1  0.159200  0.724900  0.389100  1.0  -0.6404
  O  O507  1  0.383700  0.608500  0.470400  1.0  -0.6707
  O  O508  1  0.234400  0.663700  0.601500  1.0  -0.6975
  O  O509  1  0.144400  0.503600  0.433400  1.0  -0.6716
  O  O510  1  0.356000  0.565300  0.379600  1.0  -0.6697
  O  O511  1  0.236900  0.691900  0.322000  1.0  -0.6903
  O  O512  1  0.264400  0.735500  0.413000  1.0  -0.6594
  O  O513  1  0.243800  0.506100  0.449300  1.0  -0.7603
  O  O514  1  0.273300  0.556000  0.552100  1.0  -0.8226
  O  O515  1  0.098700  0.600900  0.498900  1.0  -0.774
  O  O516  1  0.113500  0.646300  0.386400  1.0  -0.817
  O  O517  1  0.191500  0.617300  0.315700  1.0  -0.8187
  O  O518  1  0.144500  0.694400  0.490200  1.0  -0.8059
  O  O519  1  0.342100  0.525700  0.479400  1.0  -0.6345
  O  O520  1  0.311100  0.638200  0.347000  1.0  -0.7331
  O  O521  1  0.336000  0.674700  0.427400  1.0  -0.794
  O  O522  1  0.157100  0.539300  0.337500  1.0  -0.6885
  O  O523  1  0.260300  0.544500  0.348000  1.0  -0.8136
  O  O524  1  0.318700  0.637200  0.545600  1.0  -0.8592
  O  O525  1  0.230800  0.533800  0.063400  1.0  -0.5486
  O  O526  1  0.318800  0.533400  0.053700  1.0  -0.455
  O  O527  1  0.556500  0.764100  0.582500  1.0  -0.4362
  O  O528  1  0.525800  0.820100  0.537400  1.0  -0.5588
