# generated using pymatgen
data_Mn2Cu3H148C104(N4O9)2
_symmetry_space_group_name_H-M   'P 1'
_cell_length_a   17.00730000
_cell_length_b   17.00730000
_cell_length_c   24.52300000
_cell_angle_alpha   73.85820000
_cell_angle_beta   73.85820000
_cell_angle_gamma   88.36340000
_symmetry_Int_Tables_number   1
_chemical_formula_structural   Mn2Cu3H148C104(N4O9)2
_chemical_formula_sum   'Mn4 Cu6 H296 C208 N16 O36'
_cell_volume   6535.84555271
_cell_formula_units_Z   2
loop_
 _symmetry_equiv_pos_site_id
 _symmetry_equiv_pos_as_xyz
  1  'x, y, z'
loop_
 _atom_site_type_symbol
 _atom_site_label
 _atom_site_symmetry_multiplicity
 _atom_site_fract_x
 _atom_site_fract_y
 _atom_site_fract_z
 _atom_site_occupancy
 _atom_site_charge
  Mn  Mn1  1  0.126300  0.712800  0.584900  1.0  1.0565
  Mn  Mn2  1  0.287200  0.873700  0.915100  1.0  1.056
  Mn  Mn3  1  0.873700  0.287200  0.415100  1.0  1.0607
  Mn  Mn4  1  0.712800  0.126300  0.084900  1.0  1.0609
  Cu  Cu5  1  0.000000  0.000000  0.500000  1.0  0.8409
  Cu  Cu6  1  0.000000  0.000000  0.000000  1.0  0.8409
  Cu  Cu7  1  0.000000  0.500000  0.500000  1.0  0.8307
  Cu  Cu8  1  0.500000  0.000000  0.000000  1.0  0.8307
  Cu  Cu9  1  0.265330  0.734670  0.750000  1.0  0.6809
  Cu  Cu10  1  0.734670  0.265330  0.250000  1.0  0.6791
  H  H11  1  0.119800  0.841000  0.306100  1.0  0.1067
  H  H12  1  0.238700  0.931100  0.258100  1.0  0.0756
  H  H13  1  0.275100  0.028700  0.295500  1.0  0.1222
  H  H14  1  0.022400  0.785400  0.384500  1.0  0.0756
  H  H15  1  0.020900  0.796500  0.446100  1.0  0.0787
  H  H16  1  0.895300  0.831100  0.426900  1.0  0.0826
  H  H17  1  0.938200  0.909200  0.430300  1.0  0.0969
  H  H18  1  0.939800  0.898200  0.368600  1.0  0.0968
  H  H19  1  0.249400  0.083000  0.381900  1.0  0.0823
  H  H20  1  0.175000  0.052000  0.438700  1.0  0.0807
  H  H21  1  0.303100  0.015300  0.466000  1.0  0.0965
  H  H22  1  0.252500  0.934100  0.476400  1.0  0.1069
  H  H23  1  0.326800  0.964800  0.419700  1.0  0.1024
  H  H24  1  0.324100  0.380100  0.496900  1.0  0.1106
  H  H25  1  0.376800  0.443400  0.403800  1.0  0.0371
  H  H26  1  0.319300  0.529900  0.348100  1.0  0.1071
  H  H27  1  0.163300  0.457300  0.592500  1.0  0.0767
  H  H28  1  0.230300  0.391300  0.593600  1.0  0.0886
  H  H29  1  0.096800  0.325200  0.627900  1.0  0.0909
  H  H30  1  0.081000  0.370000  0.567000  1.0  0.0957
  H  H31  1  0.147100  0.303900  0.570200  1.0  0.1025
  H  H32  1  0.124600  0.586000  0.386900  1.0  0.0918
  H  H33  1  0.171800  0.647600  0.405000  1.0  0.0896
  H  H34  1  0.195600  0.688200  0.301200  1.0  0.0899
  H  H35  1  0.279100  0.665700  0.315600  1.0  0.0906
  H  H36  1  0.232100  0.603700  0.297400  1.0  0.098
  H  H37  1  0.396200  0.025800  0.563200  1.0  0.1027
  H  H38  1  0.527200  0.978000  0.541500  1.0  0.0921
  H  H39  1  0.546500  0.838900  0.573300  1.0  0.095
  H  H40  1  0.232200  0.934800  0.661300  1.0  0.0945
  H  H41  1  0.258700  0.002900  0.599300  1.0  0.0993
  H  H42  1  0.475400  0.696600  0.634300  1.0  0.0885
  H  H43  1  0.379200  0.690800  0.648800  1.0  0.1109
  H  H44  1  0.164500  0.898700  0.594200  1.0  0.0776
  H  H45  1  0.250700  0.899100  0.549200  1.0  0.0496
  H  H46  1  0.225800  0.831400  0.610200  1.0  0.0962
  H  H47  1  0.435300  0.648900  0.560700  1.0  0.131
  H  H48  1  0.392400  0.731200  0.543200  1.0  0.1207
  H  H49  1  0.159000  0.880200  0.193900  1.0  0.1077
  H  H50  1  0.068900  0.761300  0.241900  1.0  0.0761
  H  H51  1  0.971300  0.724900  0.204500  1.0  0.1219
  H  H52  1  0.214600  0.977600  0.115500  1.0  0.075
  H  H53  1  0.203500  0.979100  0.053900  1.0  0.0793
  H  H54  1  0.168900  0.104700  0.073100  1.0  0.0857
  H  H55  1  0.090800  0.061800  0.069700  1.0  0.0948
  H  H56  1  0.101800  0.060200  0.131400  1.0  0.0958
  H  H57  1  0.917000  0.750600  0.118100  1.0  0.0824
  H  H58  1  0.948000  0.825000  0.061300  1.0  0.0796
  H  H59  1  0.984700  0.696900  0.034000  1.0  0.0966
  H  H60  1  0.065900  0.747500  0.023600  1.0  0.1068
  H  H61  1  0.035200  0.673200  0.080300  1.0  0.1045
  H  H62  1  0.619900  0.675900  0.003100  1.0  0.1097
  H  H63  1  0.556600  0.623200  0.096200  1.0  0.0302
  H  H64  1  0.470100  0.680700  0.151900  1.0  0.1054
  H  H65  1  0.542700  0.836700  0.907500  1.0  0.0743
  H  H66  1  0.608700  0.769700  0.906400  1.0  0.0891
  H  H67  1  0.674800  0.903200  0.872100  1.0  0.0909
  H  H68  1  0.630000  0.919000  0.933000  1.0  0.0986
  H  H69  1  0.696100  0.852900  0.929800  1.0  0.1033
  H  H70  1  0.414000  0.875400  0.113100  1.0  0.0894
  H  H71  1  0.352400  0.828200  0.095000  1.0  0.0886
  H  H72  1  0.311800  0.804400  0.198800  1.0  0.0848
  H  H73  1  0.334300  0.720900  0.184400  1.0  0.0892
  H  H74  1  0.396300  0.767900  0.202600  1.0  0.0967
  H  H75  1  0.974200  0.603800  0.936800  1.0  0.1046
  H  H76  1  0.022000  0.472800  0.958500  1.0  0.0925
  H  H77  1  0.161100  0.453500  0.926700  1.0  0.0945
  H  H78  1  0.065200  0.767800  0.838700  1.0  0.0943
  H  H79  1  0.997100  0.741300  0.900700  1.0  0.0961
  H  H80  1  0.303400  0.524600  0.865700  1.0  0.0901
  H  H81  1  0.309200  0.620800  0.851200  1.0  0.1144
  H  H82  1  0.101300  0.835500  0.905800  1.0  0.082
  H  H83  1  0.100900  0.749300  0.950800  1.0  0.0496
  H  H84  1  0.168600  0.774200  0.889800  1.0  0.0988
  H  H85  1  0.351100  0.564700  0.939300  1.0  0.1421
  H  H86  1  0.268800  0.607600  0.956800  1.0  0.1221
  H  H87  1  0.880200  0.159000  0.693900  1.0  0.1069
  H  H88  1  0.761300  0.068900  0.741900  1.0  0.0749
  H  H89  1  0.724900  0.971300  0.704500  1.0  0.1215
  H  H90  1  0.977600  0.214600  0.615500  1.0  0.0732
  H  H91  1  0.979100  0.203500  0.553900  1.0  0.0792
  H  H92  1  0.104700  0.168900  0.573100  1.0  0.0846
  H  H93  1  0.061800  0.090800  0.569700  1.0  0.0983
  H  H94  1  0.060200  0.101800  0.631400  1.0  0.0962
  H  H95  1  0.750600  0.917000  0.618100  1.0  0.0841
  H  H96  1  0.825000  0.948000  0.561300  1.0  0.0805
  H  H97  1  0.696900  0.984700  0.534000  1.0  0.0963
  H  H98  1  0.747500  0.065900  0.523600  1.0  0.1082
  H  H99  1  0.673200  0.035200  0.580300  1.0  0.1013
  H  H100  1  0.675900  0.619900  0.503100  1.0  0.1112
  H  H101  1  0.623200  0.556600  0.596200  1.0  0.035
  H  H102  1  0.680700  0.470100  0.651900  1.0  0.1055
  H  H103  1  0.836700  0.542700  0.407500  1.0  0.076
  H  H104  1  0.769700  0.608700  0.406400  1.0  0.0887
  H  H105  1  0.903200  0.674800  0.372100  1.0  0.0915
  H  H106  1  0.919000  0.630000  0.433000  1.0  0.0976
  H  H107  1  0.852900  0.696100  0.429800  1.0  0.1011
  H  H108  1  0.875400  0.414000  0.613100  1.0  0.0907
  H  H109  1  0.828200  0.352400  0.595000  1.0  0.0898
  H  H110  1  0.804400  0.311800  0.698800  1.0  0.0892
  H  H111  1  0.720900  0.334300  0.684400  1.0  0.089
  H  H112  1  0.767900  0.396300  0.702600  1.0  0.0982
  H  H113  1  0.603800  0.974200  0.436800  1.0  0.1021
  H  H114  1  0.472800  0.022000  0.458500  1.0  0.0929
  H  H115  1  0.453500  0.161100  0.426700  1.0  0.0956
  H  H116  1  0.767800  0.065200  0.338700  1.0  0.0944
  H  H117  1  0.741300  0.997100  0.400700  1.0  0.0971
  H  H118  1  0.524600  0.303400  0.365700  1.0  0.0878
  H  H119  1  0.620800  0.309200  0.351200  1.0  0.1095
  H  H120  1  0.835500  0.101300  0.405800  1.0  0.0812
  H  H121  1  0.749300  0.100900  0.450800  1.0  0.0488
  H  H122  1  0.774200  0.168600  0.389800  1.0  0.0983
  H  H123  1  0.564700  0.351100  0.439300  1.0  0.1299
  H  H124  1  0.607600  0.268800  0.456800  1.0  0.1205
  H  H125  1  0.841000  0.119800  0.806100  1.0  0.1077
  H  H126  1  0.931100  0.238700  0.758100  1.0  0.0762
  H  H127  1  0.028700  0.275100  0.795500  1.0  0.1224
  H  H128  1  0.785400  0.022400  0.884500  1.0  0.0746
  H  H129  1  0.796500  0.020900  0.946100  1.0  0.0797
  H  H130  1  0.831100  0.895300  0.926900  1.0  0.0863
  H  H131  1  0.909200  0.938200  0.930300  1.0  0.0967
  H  H132  1  0.898200  0.939800  0.868600  1.0  0.0958
  H  H133  1  0.083000  0.249400  0.881900  1.0  0.0816
  H  H134  1  0.052000  0.175000  0.938700  1.0  0.0801
  H  H135  1  0.015300  0.303100  0.966000  1.0  0.096
  H  H136  1  0.934100  0.252500  0.976400  1.0  0.1077
  H  H137  1  0.964800  0.326800  0.919700  1.0  0.1032
  H  H138  1  0.380100  0.324100  0.996900  1.0  0.1101
  H  H139  1  0.443400  0.376800  0.903800  1.0  0.0296
  H  H140  1  0.529900  0.319300  0.848100  1.0  0.1058
  H  H141  1  0.457300  0.163300  0.092500  1.0  0.075
  H  H142  1  0.391300  0.230300  0.093600  1.0  0.088
  H  H143  1  0.325200  0.096800  0.127900  1.0  0.0915
  H  H144  1  0.370000  0.081000  0.067000  1.0  0.0993
  H  H145  1  0.303900  0.147100  0.070200  1.0  0.1013
  H  H146  1  0.586000  0.124600  0.886900  1.0  0.0872
  H  H147  1  0.647600  0.171800  0.905000  1.0  0.0905
  H  H148  1  0.688200  0.195600  0.801200  1.0  0.0858
  H  H149  1  0.665700  0.279100  0.815600  1.0  0.0897
  H  H150  1  0.603700  0.232100  0.797400  1.0  0.0957
  H  H151  1  0.025800  0.396200  0.063200  1.0  0.1039
  H  H152  1  0.978000  0.527200  0.041500  1.0  0.0924
  H  H153  1  0.838900  0.546500  0.073300  1.0  0.0948
  H  H154  1  0.934800  0.232200  0.161300  1.0  0.0943
  H  H155  1  0.002900  0.258700  0.099300  1.0  0.0966
  H  H156  1  0.696600  0.475400  0.134300  1.0  0.0907
  H  H157  1  0.690800  0.379200  0.148800  1.0  0.1138
  H  H158  1  0.898700  0.164500  0.094200  1.0  0.0818
  H  H159  1  0.899100  0.250700  0.049200  1.0  0.0506
  H  H160  1  0.831400  0.225800  0.110200  1.0  0.0957
  H  H161  1  0.648900  0.435300  0.060700  1.0  0.1361
  H  H162  1  0.731200  0.392400  0.043200  1.0  0.1202
  H  H163  1  0.587100  0.932300  0.260800  1.0  0.0853
  H  H164  1  0.630100  0.946700  0.193400  1.0  0.0747
  H  H165  1  0.513200  0.817200  0.242800  1.0  0.0809
  H  H166  1  0.529000  0.884000  0.180500  1.0  0.094
  H  H167  1  0.411600  0.904400  0.274100  1.0  0.0872
  H  H168  1  0.486600  0.955600  0.276600  1.0  0.0827
  H  H169  1  0.426800  0.037600  0.204400  1.0  0.0932
  H  H170  1  0.439600  0.968800  0.171900  1.0  0.09
  H  H171  1  0.515600  0.017600  0.173100  1.0  0.0984
  H  H172  1  0.668100  0.746500  0.319700  1.0  0.0744
  H  H173  1  0.582600  0.749800  0.307100  1.0  0.0848
  H  H174  1  0.633200  0.869600  0.357900  1.0  0.0968
  H  H175  1  0.542600  0.857800  0.353900  1.0  0.0798
  H  H176  1  0.630900  0.732500  0.414300  1.0  0.0829
  H  H177  1  0.550800  0.710400  0.401800  1.0  0.0804
  H  H178  1  0.524900  0.696500  0.503400  1.0  0.1143
  H  H179  1  0.471800  0.766200  0.477700  1.0  0.087
  H  H180  1  0.552500  0.788700  0.490300  1.0  0.076
  H  H181  1  0.626300  0.766500  0.208200  1.0  0.0781
  H  H182  1  0.712600  0.746000  0.217900  1.0  0.0659
  H  H183  1  0.770300  0.855700  0.141400  1.0  0.0779
  H  H184  1  0.684000  0.878000  0.132000  1.0  0.0613
  H  H185  1  0.764300  0.732900  0.114400  1.0  0.0689
  H  H186  1  0.674700  0.748300  0.110100  1.0  0.0673
  H  H187  1  0.765300  0.779500  0.018000  1.0  0.0917
  H  H188  1  0.811800  0.844600  0.033800  1.0  0.0799
  H  H189  1  0.722100  0.858500  0.029200  1.0  0.0928
  H  H190  1  0.721500  0.941500  0.247400  1.0  0.0618
  H  H191  1  0.758800  0.918000  0.187700  1.0  0.1242
  H  H192  1  0.768600  0.808800  0.297900  1.0  0.0935
  H  H193  1  0.817100  0.801700  0.236000  1.0  0.0894
  H  H194  1  0.874600  0.870600  0.309000  1.0  0.0648
  H  H195  1  0.926800  0.834200  0.258600  1.0  0.0598
  H  H196  1  0.954400  0.980800  0.232300  1.0  0.0969
  H  H197  1  0.862200  0.993800  0.234100  1.0  0.0945
  H  H198  1  0.919300  0.957900  0.185600  1.0  0.0879
  H  H199  1  0.067700  0.412900  0.239200  1.0  0.0863
  H  H200  1  0.053300  0.369900  0.306600  1.0  0.0759
  H  H201  1  0.182800  0.486800  0.257200  1.0  0.0861
  H  H202  1  0.116000  0.471000  0.319500  1.0  0.0932
  H  H203  1  0.095600  0.588400  0.225900  1.0  0.0862
  H  H204  1  0.044400  0.513400  0.223400  1.0  0.0793
  H  H205  1  0.962400  0.573200  0.295600  1.0  0.0914
  H  H206  1  0.031200  0.560400  0.328100  1.0  0.0905
  H  H207  1  0.982400  0.484400  0.326900  1.0  0.099
  H  H208  1  0.253500  0.331900  0.180300  1.0  0.0744
  H  H209  1  0.250200  0.417400  0.192900  1.0  0.0849
  H  H210  1  0.130400  0.366800  0.142100  1.0  0.0974
  H  H211  1  0.142200  0.457400  0.146100  1.0  0.0808
  H  H212  1  0.267500  0.369100  0.085700  1.0  0.0894
  H  H213  1  0.289600  0.449200  0.098200  1.0  0.0818
  H  H214  1  0.303500  0.475100  0.996600  1.0  0.1168
  H  H215  1  0.233800  0.528200  0.022300  1.0  0.0844
  H  H216  1  0.211300  0.447500  0.009700  1.0  0.0764
  H  H217  1  0.233500  0.373700  0.291800  1.0  0.0762
  H  H218  1  0.254000  0.287400  0.282100  1.0  0.0649
  H  H219  1  0.144300  0.229700  0.358600  1.0  0.081
  H  H220  1  0.122000  0.316000  0.368000  1.0  0.062
  H  H221  1  0.267100  0.235700  0.385600  1.0  0.0664
  H  H222  1  0.251700  0.325300  0.389900  1.0  0.0684
  H  H223  1  0.220500  0.234700  0.482000  1.0  0.0932
  H  H224  1  0.155400  0.188200  0.466200  1.0  0.0849
  H  H225  1  0.141500  0.277900  0.470800  1.0  0.0917
  H  H226  1  0.058500  0.278500  0.252600  1.0  0.064
  H  H227  1  0.082000  0.241200  0.312300  1.0  0.1233
  H  H228  1  0.191200  0.231400  0.202100  1.0  0.0942
  H  H229  1  0.198300  0.182900  0.264000  1.0  0.094
  H  H230  1  0.129400  0.125400  0.191000  1.0  0.0644
  H  H231  1  0.165800  0.073200  0.241400  1.0  0.061
  H  H232  1  0.019200  0.045600  0.267700  1.0  0.0986
  H  H233  1  0.006200  0.137800  0.265900  1.0  0.0954
  H  H234  1  0.042100  0.080700  0.314400  1.0  0.0888
  H  H235  1  0.412900  0.067700  0.739200  1.0  0.0863
  H  H236  1  0.369900  0.053300  0.806600  1.0  0.0765
  H  H237  1  0.486800  0.182800  0.757200  1.0  0.0807
  H  H238  1  0.471000  0.116000  0.819500  1.0  0.0946
  H  H239  1  0.588400  0.095600  0.725900  1.0  0.0866
  H  H240  1  0.513400  0.044400  0.723400  1.0  0.0808
  H  H241  1  0.573200  0.962400  0.795600  1.0  0.094
  H  H242  1  0.560400  0.031200  0.828100  1.0  0.0903
  H  H243  1  0.484400  0.982400  0.826900  1.0  0.0985
  H  H244  1  0.331900  0.253500  0.680300  1.0  0.0753
  H  H245  1  0.417400  0.250200  0.692900  1.0  0.0853
  H  H246  1  0.366800  0.130400  0.642100  1.0  0.0968
  H  H247  1  0.457400  0.142200  0.646100  1.0  0.0807
  H  H248  1  0.369100  0.267500  0.585700  1.0  0.0843
  H  H249  1  0.449200  0.289600  0.598200  1.0  0.0799
  H  H250  1  0.475100  0.303500  0.496600  1.0  0.1162
  H  H251  1  0.528200  0.233800  0.522300  1.0  0.0855
  H  H252  1  0.447500  0.211300  0.509700  1.0  0.0754
  H  H253  1  0.373700  0.233500  0.791800  1.0  0.0779
  H  H254  1  0.287400  0.254000  0.782100  1.0  0.0664
  H  H255  1  0.229700  0.144300  0.858600  1.0  0.0806
  H  H256  1  0.316000  0.122000  0.868000  1.0  0.0624
  H  H257  1  0.235700  0.267100  0.885600  1.0  0.0676
  H  H258  1  0.325300  0.251700  0.889900  1.0  0.0701
  H  H259  1  0.234700  0.220500  0.982000  1.0  0.0924
  H  H260  1  0.188200  0.155400  0.966200  1.0  0.0794
  H  H261  1  0.277900  0.141500  0.970800  1.0  0.0926
  H  H262  1  0.278500  0.058500  0.752600  1.0  0.0623
  H  H263  1  0.241200  0.082000  0.812300  1.0  0.1225
  H  H264  1  0.231400  0.191200  0.702100  1.0  0.0954
  H  H265  1  0.182900  0.198300  0.764000  1.0  0.0897
  H  H266  1  0.125400  0.129400  0.691000  1.0  0.0635
  H  H267  1  0.073200  0.165800  0.741400  1.0  0.0613
  H  H268  1  0.045600  0.019200  0.767700  1.0  0.0979
  H  H269  1  0.137800  0.006200  0.765900  1.0  0.0932
  H  H270  1  0.080700  0.042100  0.814400  1.0  0.088
  H  H271  1  0.932300  0.587100  0.760800  1.0  0.0861
  H  H272  1  0.946700  0.630100  0.693400  1.0  0.0778
  H  H273  1  0.817200  0.513200  0.742800  1.0  0.0828
  H  H274  1  0.884000  0.529000  0.680500  1.0  0.0911
  H  H275  1  0.904400  0.411600  0.774100  1.0  0.084
  H  H276  1  0.955600  0.486600  0.776600  1.0  0.0821
  H  H277  1  0.037600  0.426800  0.704400  1.0  0.0919
  H  H278  1  0.968800  0.439600  0.671900  1.0  0.0898
  H  H279  1  0.017600  0.515600  0.673100  1.0  0.0998
  H  H280  1  0.746500  0.668100  0.819700  1.0  0.0751
  H  H281  1  0.749800  0.582600  0.807100  1.0  0.0846
  H  H282  1  0.869600  0.633200  0.857900  1.0  0.0962
  H  H283  1  0.857800  0.542600  0.853900  1.0  0.0796
  H  H284  1  0.732500  0.630900  0.914300  1.0  0.0916
  H  H285  1  0.710400  0.550800  0.901800  1.0  0.0815
  H  H286  1  0.696500  0.524900  0.003400  1.0  0.1142
  H  H287  1  0.766200  0.471800  0.977700  1.0  0.0831
  H  H288  1  0.788700  0.552500  0.990300  1.0  0.0755
  H  H289  1  0.766500  0.626300  0.708200  1.0  0.0768
  H  H290  1  0.746000  0.712600  0.717900  1.0  0.0653
  H  H291  1  0.855700  0.770300  0.641400  1.0  0.0751
  H  H292  1  0.878000  0.684000  0.632000  1.0  0.0608
  H  H293  1  0.732900  0.764300  0.614400  1.0  0.0655
  H  H294  1  0.748300  0.674700  0.610100  1.0  0.0669
  H  H295  1  0.779500  0.765300  0.518000  1.0  0.0914
  H  H296  1  0.844600  0.811800  0.533800  1.0  0.082
  H  H297  1  0.858500  0.722100  0.529200  1.0  0.0917
  H  H298  1  0.941500  0.721500  0.747400  1.0  0.0635
  H  H299  1  0.918000  0.758800  0.687700  1.0  0.1255
  H  H300  1  0.808800  0.768600  0.797900  1.0  0.0935
  H  H301  1  0.801700  0.817100  0.736000  1.0  0.0917
  H  H302  1  0.870600  0.874600  0.809000  1.0  0.0653
  H  H303  1  0.834200  0.926800  0.758600  1.0  0.0614
  H  H304  1  0.980800  0.954400  0.732300  1.0  0.0979
  H  H305  1  0.993800  0.862200  0.734100  1.0  0.0955
  H  H306  1  0.957900  0.919300  0.685600  1.0  0.089
  C  C307  1  0.089500  0.865300  0.510800  1.0  0.5743
  C  C308  1  0.042300  0.866300  0.572200  1.0  0.6583
  C  C309  1  0.122800  0.936000  0.407400  1.0  0.0886
  C  C310  1  0.092700  0.879100  0.378700  1.0  0.0971
  C  C311  1  0.135300  0.876700  0.324400  1.0  -0.1621
  C  C312  1  0.207500  0.933500  0.295300  1.0  -0.1099
  C  C313  1  0.233100  0.989500  0.317900  1.0  -0.1939
  C  C314  1  0.188300  0.983900  0.382400  1.0  0.0565
  C  C315  1  0.020700  0.825700  0.406000  1.0  -0.146
  C  C316  1  0.941100  0.870100  0.408200  1.0  -0.3234
  C  C317  1  0.220000  0.034400  0.411200  1.0  -0.2551
  C  C318  1  0.282100  0.981700  0.447100  1.0  -0.3269
  C  C319  1  0.106300  0.588100  0.529500  1.0  0.5546
  C  C320  1  0.020200  0.609600  0.557800  1.0  0.6307
  C  C321  1  0.184200  0.508400  0.473300  1.0  0.2067
  C  C322  1  0.222700  0.447500  0.507900  1.0  0.0751
  C  C323  1  0.296600  0.421800  0.477700  1.0  -0.1715
  C  C324  1  0.325100  0.458300  0.421800  1.0  -0.0915
  C  C325  1  0.294100  0.510300  0.388500  1.0  -0.2065
  C  C326  1  0.217600  0.538000  0.416000  1.0  0.2047
  C  C327  1  0.187400  0.414000  0.575600  1.0  -0.2362
  C  C328  1  0.122000  0.347000  0.586200  1.0  -0.3303
  C  C329  1  0.178800  0.605200  0.384800  1.0  -0.222
  C  C330  1  0.225900  0.644500  0.318400  1.0  -0.3118
  C  C331  1  0.242900  0.735300  0.645400  1.0  0.5896
  C  C332  1  0.170000  0.683400  0.692600  1.0  0.6766
  C  C333  1  0.337200  0.915400  0.608100  1.0  0.0909
  C  C334  1  0.404000  0.970000  0.576000  1.0  -0.2051
  C  C335  1  0.482500  0.941300  0.562900  1.0  -0.1116
  C  C336  1  0.494100  0.858100  0.582000  1.0  -0.1716
  C  C337  1  0.427200  0.803400  0.614100  1.0  0.1301
  C  C338  1  0.348800  0.832000  0.627100  1.0  0.0114
  C  C339  1  0.259000  0.945000  0.619400  1.0  -0.1764
  C  C340  1  0.429000  0.718800  0.620400  1.0  -0.1862
  C  C341  1  0.221300  0.887900  0.590400  1.0  -0.3594
  C  C342  1  0.436700  0.706700  0.557500  1.0  -0.0934
  C  C343  1  0.134700  0.910500  0.989200  1.0  0.5746
  C  C344  1  0.133700  0.957700  0.927800  1.0  0.6604
  C  C345  1  0.064000  0.877200  0.092600  1.0  0.0888
  C  C346  1  0.120900  0.907300  0.121300  1.0  0.0954
  C  C347  1  0.123300  0.864700  0.175600  1.0  -0.1602
  C  C348  1  0.066500  0.792500  0.204700  1.0  -0.1107
  C  C349  1  0.010500  0.766900  0.182100  1.0  -0.1929
  C  C350  1  0.016100  0.811700  0.117600  1.0  0.0561
  C  C351  1  0.174300  0.979300  0.094000  1.0  -0.1427
  C  C352  1  0.129900  0.058900  0.091800  1.0  -0.3219
  C  C353  1  0.965600  0.780000  0.088800  1.0  -0.2537
  C  C354  1  0.018300  0.717900  0.052900  1.0  -0.3259
  C  C355  1  0.411900  0.893700  0.970500  1.0  0.5541
  C  C356  1  0.390400  0.979800  0.942200  1.0  0.6305
  C  C357  1  0.491600  0.815800  0.026700  1.0  0.2045
  C  C358  1  0.552500  0.777300  0.992100  1.0  0.0749
  C  C359  1  0.578200  0.703400  0.022300  1.0  -0.1732
  C  C360  1  0.541700  0.674900  0.078200  1.0  -0.0941
  C  C361  1  0.489700  0.705900  0.111500  1.0  -0.2041
  C  C362  1  0.462000  0.782400  0.084000  1.0  0.2027
  C  C363  1  0.586000  0.812600  0.924400  1.0  -0.2366
  C  C364  1  0.653000  0.878000  0.913800  1.0  -0.3302
  C  C365  1  0.394800  0.821200  0.115200  1.0  -0.2182
  C  C366  1  0.355500  0.774100  0.181600  1.0  -0.3118
  C  C367  1  0.264700  0.757100  0.854600  1.0  0.5925
  C  C368  1  0.316600  0.830000  0.807400  1.0  0.6771
  C  C369  1  0.084600  0.662800  0.891900  1.0  0.0879
  C  C370  1  0.030000  0.596000  0.924000  1.0  -0.2021
  C  C371  1  0.058700  0.517500  0.937100  1.0  -0.1086
  C  C372  1  0.141900  0.505900  0.918000  1.0  -0.1748
  C  C373  1  0.196600  0.572800  0.885900  1.0  0.1291
  C  C374  1  0.168000  0.651200  0.872900  1.0  0.011
  C  C375  1  0.055000  0.741000  0.880600  1.0  -0.1754
  C  C376  1  0.281200  0.571000  0.879600  1.0  -0.1844
  C  C377  1  0.112100  0.778700  0.909600  1.0  -0.3592
  C  C378  1  0.293300  0.563300  0.942500  1.0  -0.0943
  C  C379  1  0.910500  0.134700  0.489200  1.0  0.5748
  C  C380  1  0.957700  0.133700  0.427800  1.0  0.6582
  C  C381  1  0.877200  0.064000  0.592600  1.0  0.0871
  C  C382  1  0.907300  0.120900  0.621300  1.0  0.0962
  C  C383  1  0.864700  0.123300  0.675600  1.0  -0.1619
  C  C384  1  0.792500  0.066500  0.704700  1.0  -0.1107
  C  C385  1  0.766900  0.010500  0.682100  1.0  -0.1926
  C  C386  1  0.811700  0.016100  0.617600  1.0  0.0562
  C  C387  1  0.979300  0.174300  0.594000  1.0  -0.1463
  C  C388  1  0.058900  0.129900  0.591800  1.0  -0.3242
  C  C389  1  0.780000  0.965600  0.588800  1.0  -0.2576
  C  C390  1  0.717900  0.018300  0.552900  1.0  -0.3258
  C  C391  1  0.893700  0.411900  0.470500  1.0  0.5554
  C  C392  1  0.979800  0.390400  0.442200  1.0  0.6303
  C  C393  1  0.815800  0.491600  0.526700  1.0  0.2047
  C  C394  1  0.777300  0.552500  0.492100  1.0  0.0742
  C  C395  1  0.703400  0.578200  0.522300  1.0  -0.1703
  C  C396  1  0.674900  0.541700  0.578200  1.0  -0.0947
  C  C397  1  0.705900  0.489700  0.611500  1.0  -0.203
  C  C398  1  0.782400  0.462000  0.584000  1.0  0.2017
  C  C399  1  0.812600  0.586000  0.424400  1.0  -0.2345
  C  C400  1  0.878000  0.653000  0.413800  1.0  -0.3318
  C  C401  1  0.821200  0.394800  0.615200  1.0  -0.2167
  C  C402  1  0.774100  0.355500  0.681600  1.0  -0.3095
  C  C403  1  0.757100  0.264700  0.354600  1.0  0.5917
  C  C404  1  0.830000  0.316600  0.307400  1.0  0.677
  C  C405  1  0.662800  0.084600  0.391900  1.0  0.0882
  C  C406  1  0.596000  0.030000  0.424000  1.0  -0.2024
  C  C407  1  0.517500  0.058700  0.437100  1.0  -0.1119
  C  C408  1  0.505900  0.141900  0.418000  1.0  -0.1736
  C  C409  1  0.572800  0.196600  0.385900  1.0  0.1312
  C  C410  1  0.651200  0.168000  0.372900  1.0  0.0108
  C  C411  1  0.741000  0.055000  0.380600  1.0  -0.1768
  C  C412  1  0.571000  0.281200  0.379600  1.0  -0.1862
  C  C413  1  0.778700  0.112100  0.409600  1.0  -0.3615
  C  C414  1  0.563300  0.293300  0.442500  1.0  -0.0953
  C  C415  1  0.865300  0.089500  0.010800  1.0  0.5742
  C  C416  1  0.866300  0.042300  0.072200  1.0  0.6606
  C  C417  1  0.936000  0.122800  0.907400  1.0  0.0876
  C  C418  1  0.879100  0.092700  0.878700  1.0  0.0968
  C  C419  1  0.876700  0.135300  0.824400  1.0  -0.1622
  C  C420  1  0.933500  0.207500  0.795300  1.0  -0.1094
  C  C421  1  0.989500  0.233100  0.817900  1.0  -0.1937
  C  C422  1  0.983900  0.188300  0.882400  1.0  0.0578
  C  C423  1  0.825700  0.020700  0.906000  1.0  -0.1442
  C  C424  1  0.870100  0.941100  0.908200  1.0  -0.324
  C  C425  1  0.034400  0.220000  0.911200  1.0  -0.2531
  C  C426  1  0.981700  0.282100  0.947100  1.0  -0.3264
  C  C427  1  0.588100  0.106300  0.029500  1.0  0.5553
  C  C428  1  0.609600  0.020200  0.057800  1.0  0.6317
  C  C429  1  0.508400  0.184200  0.973300  1.0  0.2063
  C  C430  1  0.447500  0.222700  0.007900  1.0  0.075
  C  C431  1  0.421800  0.296600  0.977700  1.0  -0.174
  C  C432  1  0.458300  0.325100  0.921800  1.0  -0.0863
  C  C433  1  0.510300  0.294100  0.888500  1.0  -0.2068
  C  C434  1  0.538000  0.217600  0.916000  1.0  0.202
  C  C435  1  0.414000  0.187400  0.075600  1.0  -0.238
  C  C436  1  0.347000  0.122000  0.086200  1.0  -0.3293
  C  C437  1  0.605200  0.178800  0.884800  1.0  -0.2185
  C  C438  1  0.644500  0.225900  0.818400  1.0  -0.3119
  C  C439  1  0.735300  0.242900  0.145400  1.0  0.5906
  C  C440  1  0.683400  0.170000  0.192600  1.0  0.6771
  C  C441  1  0.915400  0.337200  0.108100  1.0  0.0885
  C  C442  1  0.970000  0.404000  0.076000  1.0  -0.1996
  C  C443  1  0.941300  0.482500  0.062900  1.0  -0.1069
  C  C444  1  0.858100  0.494100  0.082000  1.0  -0.1733
  C  C445  1  0.803400  0.427200  0.114100  1.0  0.1338
  C  C446  1  0.832000  0.348800  0.127100  1.0  0.0111
  C  C447  1  0.945000  0.259000  0.119400  1.0  -0.1756
  C  C448  1  0.718800  0.429000  0.120400  1.0  -0.186
  C  C449  1  0.887900  0.221300  0.090400  1.0  -0.3603
  C  C450  1  0.706700  0.436700  0.057500  1.0  -0.0963
  C  C451  1  0.602600  0.905400  0.229600  1.0  -0.0632
  C  C452  1  0.526300  0.874700  0.221900  1.0  -0.1748
  C  C453  1  0.464500  0.932100  0.251700  1.0  -0.1057
  C  C454  1  0.461300  0.994700  0.195100  1.0  -0.3475
  C  C455  1  0.627200  0.783200  0.308100  1.0  -0.0837
  C  C456  1  0.592700  0.830900  0.357500  1.0  -0.1695
  C  C457  1  0.577300  0.751700  0.412000  1.0  -0.1615
  C  C458  1  0.526700  0.750700  0.477300  1.0  -0.2992
  C  C459  1  0.678800  0.790600  0.205300  1.0  -0.001
  C  C460  1  0.716900  0.832900  0.144900  1.0  -0.1357
  C  C461  1  0.727500  0.775100  0.103500  1.0  -0.1231
  C  C462  1  0.759400  0.818000  0.040800  1.0  -0.3272
  C  C463  1  0.736300  0.896300  0.230200  1.0  -0.0085
  C  C464  1  0.800600  0.840600  0.258900  1.0  -0.1659
  C  C465  1  0.883300  0.870500  0.268200  1.0  -0.1249
  C  C466  1  0.907100  0.959300  0.226000  1.0  -0.3346
  C  C467  1  0.094600  0.397400  0.270400  1.0  -0.0582
  C  C468  1  0.125300  0.473700  0.278100  1.0  -0.1784
  C  C469  1  0.067900  0.535500  0.248300  1.0  -0.1044
  C  C470  1  0.005300  0.538700  0.304900  1.0  -0.3517
  C  C471  1  0.216800  0.372800  0.191900  1.0  -0.0869
  C  C472  1  0.169100  0.407300  0.142500  1.0  -0.1642
  C  C473  1  0.248300  0.422700  0.088000  1.0  -0.154
  C  C474  1  0.249300  0.473300  0.022700  1.0  -0.2984
  C  C475  1  0.209400  0.321200  0.294700  1.0  -0.0079
  C  C476  1  0.167100  0.283100  0.355100  1.0  -0.1358
  C  C477  1  0.224900  0.272500  0.396500  1.0  -0.1222
  C  C478  1  0.182000  0.240600  0.459200  1.0  -0.3254
  C  C479  1  0.103700  0.263700  0.269800  1.0  -0.0089
  C  C480  1  0.159400  0.199400  0.241100  1.0  -0.1679
  C  C481  1  0.129500  0.116700  0.231800  1.0  -0.1241
  C  C482  1  0.040700  0.092900  0.274000  1.0  -0.336
  C  C483  1  0.397400  0.094600  0.770400  1.0  -0.0603
  C  C484  1  0.473700  0.125300  0.778100  1.0  -0.1766
  C  C485  1  0.535500  0.067900  0.748300  1.0  -0.1043
  C  C486  1  0.538700  0.005300  0.804900  1.0  -0.3481
  C  C487  1  0.372800  0.216800  0.691900  1.0  -0.0864
  C  C488  1  0.407300  0.169100  0.642500  1.0  -0.1677
  C  C489  1  0.422700  0.248300  0.588000  1.0  -0.16
  C  C490  1  0.473300  0.249300  0.522700  1.0  -0.2973
  C  C491  1  0.321200  0.209400  0.794700  1.0  -0.0038
  C  C492  1  0.283100  0.167100  0.855100  1.0  -0.1388
  C  C493  1  0.272500  0.224900  0.896500  1.0  -0.1241
  C  C494  1  0.240600  0.182000  0.959200  1.0  -0.3269
  C  C495  1  0.263700  0.103700  0.769800  1.0  -0.0072
  C  C496  1  0.199400  0.159400  0.741100  1.0  -0.1656
  C  C497  1  0.116700  0.129500  0.731800  1.0  -0.1223
  C  C498  1  0.092900  0.040700  0.774000  1.0  -0.3354
  C  C499  1  0.905400  0.602600  0.729600  1.0  -0.0538
  C  C500  1  0.874700  0.526300  0.721900  1.0  -0.1744
  C  C501  1  0.932100  0.464500  0.751700  1.0  -0.1058
  C  C502  1  0.994700  0.461300  0.695100  1.0  -0.3485
  C  C503  1  0.783200  0.627200  0.808100  1.0  -0.0883
  C  C504  1  0.830900  0.592700  0.857500  1.0  -0.167
  C  C505  1  0.751700  0.577300  0.912000  1.0  -0.1554
  C  C506  1  0.750700  0.526700  0.977300  1.0  -0.2967
  C  C507  1  0.790600  0.678800  0.705300  1.0  -0.0068
  C  C508  1  0.832900  0.716900  0.644900  1.0  -0.1289
  C  C509  1  0.775100  0.727500  0.603500  1.0  -0.1221
  C  C510  1  0.818000  0.759400  0.540800  1.0  -0.3263
  C  C511  1  0.896300  0.736300  0.730200  1.0  -0.0076
  C  C512  1  0.840600  0.800600  0.758900  1.0  -0.1682
  C  C513  1  0.870500  0.883300  0.768200  1.0  -0.1238
  C  C514  1  0.959300  0.907100  0.726000  1.0  -0.3322
  N  N515  1  0.296700  0.759900  0.664500  1.0  -0.2323
  N  N516  1  0.078700  0.927500  0.468100  1.0  -0.4254
  N  N517  1  0.108100  0.533700  0.500400  1.0  -0.3671
  N  N518  1  0.240100  0.703300  0.835500  1.0  -0.2338
  N  N519  1  0.072500  0.921300  0.031900  1.0  -0.4268
  N  N520  1  0.466300  0.891900  0.999600  1.0  -0.3687
  N  N521  1  0.703300  0.240100  0.335500  1.0  -0.2337
  N  N522  1  0.921300  0.072500  0.531900  1.0  -0.4248
  N  N523  1  0.891900  0.466300  0.499600  1.0  -0.3682
  N  N524  1  0.759900  0.296700  0.164500  1.0  -0.2291
  N  N525  1  0.927500  0.078700  0.968100  1.0  -0.4265
  N  N526  1  0.533700  0.108100  0.000400  1.0  -0.368
  N  N527  1  0.666000  0.839800  0.244800  1.0  -0.1129
  N  N528  1  0.160200  0.334000  0.255200  1.0  -0.1085
  N  N529  1  0.334000  0.160200  0.755200  1.0  -0.1143
  N  N530  1  0.839800  0.666000  0.744800  1.0  -0.1101
  O  O531  1  0.171800  0.671600  0.745600  1.0  -0.5908
  O  O532  1  0.135600  0.806600  0.503300  1.0  -0.5721
  O  O533  1  0.050700  0.808900  0.614800  1.0  -0.6306
  O  O534  1  0.993200  0.922200  0.577500  1.0  -0.571
  O  O535  1  0.163500  0.619500  0.539400  1.0  -0.5717
  O  O536  1  0.011100  0.658300  0.587100  1.0  -0.5759
  O  O537  1  0.959700  0.574100  0.548500  1.0  -0.5729
  O  O538  1  0.242500  0.749100  0.591500  1.0  -0.6429
  O  O539  1  0.118000  0.655600  0.676200  1.0  -0.571
  O  O540  1  0.328400  0.828200  0.754400  1.0  -0.5916
  O  O541  1  0.193400  0.864400  0.996700  1.0  -0.5718
  O  O542  1  0.191100  0.949300  0.885200  1.0  -0.6292
  O  O543  1  0.077800  0.006800  0.922500  1.0  -0.5718
  O  O544  1  0.380500  0.836500  0.960600  1.0  -0.5714
  O  O545  1  0.341700  0.988900  0.912900  1.0  -0.5754
  O  O546  1  0.425900  0.040300  0.951500  1.0  -0.5686
  O  O547  1  0.250900  0.757500  0.908500  1.0  -0.6446
  O  O548  1  0.344400  0.882000  0.823800  1.0  -0.5712
  O  O549  1  0.828200  0.328400  0.254400  1.0  -0.5909
  O  O550  1  0.864400  0.193400  0.496700  1.0  -0.5718
  O  O551  1  0.949300  0.191100  0.385200  1.0  -0.6303
  O  O552  1  0.006800  0.077800  0.422500  1.0  -0.571
  O  O553  1  0.836500  0.380500  0.460600  1.0  -0.5721
  O  O554  1  0.988900  0.341700  0.412900  1.0  -0.5767
  O  O555  1  0.040300  0.425900  0.451500  1.0  -0.5713
  O  O556  1  0.757500  0.250900  0.408500  1.0  -0.6482
  O  O557  1  0.882000  0.344400  0.323800  1.0  -0.5725
  O  O558  1  0.671600  0.171800  0.245600  1.0  -0.5905
  O  O559  1  0.806600  0.135600  0.003300  1.0  -0.5717
  O  O560  1  0.808900  0.050700  0.114800  1.0  -0.6291
  O  O561  1  0.922200  0.993200  0.077500  1.0  -0.5724
  O  O562  1  0.619500  0.163500  0.039400  1.0  -0.5711
  O  O563  1  0.658300  0.011100  0.087100  1.0  -0.5757
  O  O564  1  0.574100  0.959700  0.048500  1.0  -0.57
  O  O565  1  0.749100  0.242500  0.091500  1.0  -0.6432
  O  O566  1  0.655600  0.118000  0.176200  1.0  -0.5713
