# generated using pymatgen
data_ZnH11C9(NO)2
_symmetry_space_group_name_H-M   'P 1'
_cell_length_a   12.48700000
_cell_length_b   12.48700000
_cell_length_c   9.77600000
_cell_angle_alpha   90.00000000
_cell_angle_beta   90.00000000
_cell_angle_gamma   90.00000000
_symmetry_Int_Tables_number   1
_chemical_formula_structural   ZnH11C9(NO)2
_chemical_formula_sum   'Zn4 H44 C36 N8 O8'
_cell_volume   1524.32445214
_cell_formula_units_Z   4
loop_
 _symmetry_equiv_pos_site_id
 _symmetry_equiv_pos_as_xyz
  1  'x, y, z'
loop_
 _atom_site_type_symbol
 _atom_site_label
 _atom_site_symmetry_multiplicity
 _atom_site_fract_x
 _atom_site_fract_y
 _atom_site_fract_z
 _atom_site_occupancy
 _atom_site_charge
  Zn  Zn1  1  0.590200  0.984200  0.027900  1.0  0.6946
  Zn  Zn2  1  0.409800  0.015800  0.527900  1.0  0.6837
  Zn  Zn3  1  0.015800  0.590200  0.777900  1.0  0.6901
  Zn  Zn4  1  0.984200  0.409800  0.277900  1.0  0.691
  H  H5  1  0.972400  0.579300  0.162600  1.0  0.1355
  H  H6  1  0.774600  0.837900  0.943900  1.0  0.0902
  H  H7  1  0.855400  0.683300  0.025600  1.0  0.0895
  H  H8  1  0.663400  0.689700  0.355300  1.0  0.1066
  H  H9  1  0.582600  0.844300  0.273600  1.0  0.0851
  H  H10  1  0.786900  0.519800  0.181000  1.0  0.0993
  H  H11  1  0.783800  0.560100  0.331800  1.0  0.0804
  H  H12  1  0.930100  0.691000  0.387300  1.0  0.0612
  H  H13  1  0.103200  0.740300  0.361900  1.0  0.2691
  H  H14  1  0.060600  0.733700  0.222100  1.0  0.0841
  H  H15  1  0.135400  0.646200  0.286100  1.0  0.091
  H  H16  1  0.027600  0.420700  0.662600  1.0  0.1349
  H  H17  1  0.225400  0.162100  0.443900  1.0  0.0906
  H  H18  1  0.144600  0.316700  0.525600  1.0  0.0893
  H  H19  1  0.336600  0.310300  0.855300  1.0  0.1058
  H  H20  1  0.417400  0.155700  0.773600  1.0  0.0854
  H  H21  1  0.213100  0.480200  0.681000  1.0  0.097
  H  H22  1  0.216200  0.439900  0.831800  1.0  0.0801
  H  H23  1  0.069900  0.309000  0.887300  1.0  0.0623
  H  H24  1  0.896800  0.259700  0.861900  1.0  0.2671
  H  H25  1  0.939400  0.266300  0.722100  1.0  0.0844
  H  H26  1  0.864600  0.353800  0.786100  1.0  0.09
  H  H27  1  0.420700  0.972400  0.912600  1.0  0.1348
  H  H28  1  0.162100  0.774600  0.693900  1.0  0.0907
  H  H29  1  0.316700  0.855400  0.775600  1.0  0.0902
  H  H30  1  0.310300  0.663400  0.105300  1.0  0.1061
  H  H31  1  0.155700  0.582600  0.023600  1.0  0.0833
  H  H32  1  0.480200  0.786900  0.931000  1.0  0.0993
  H  H33  1  0.439900  0.783800  0.081800  1.0  0.0788
  H  H34  1  0.309000  0.930100  0.137300  1.0  0.0632
  H  H35  1  0.259700  0.103200  0.111900  1.0  0.2686
  H  H36  1  0.266300  0.060600  0.972100  1.0  0.0853
  H  H37  1  0.353800  0.135400  0.036100  1.0  0.0883
  H  H38  1  0.579300  0.027600  0.412600  1.0  0.1347
  H  H39  1  0.837900  0.225400  0.193900  1.0  0.0903
  H  H40  1  0.683300  0.144600  0.275600  1.0  0.0901
  H  H41  1  0.689700  0.336600  0.605300  1.0  0.1067
  H  H42  1  0.844300  0.417400  0.523600  1.0  0.0857
  H  H43  1  0.519800  0.213100  0.431000  1.0  0.1032
  H  H44  1  0.560100  0.216200  0.581800  1.0  0.0787
  H  H45  1  0.691000  0.069900  0.637300  1.0  0.063
  H  H46  1  0.740300  0.896800  0.611900  1.0  0.2634
  H  H47  1  0.733700  0.939400  0.472100  1.0  0.0859
  H  H48  1  0.646200  0.864600  0.536100  1.0  0.0848
  C  C49  1  0.752300  0.808200  0.026000  1.0  0.144
  C  C50  1  0.800700  0.715600  0.075000  1.0  -0.229
  C  C51  1  0.767400  0.671200  0.199000  1.0  0.1196
  C  C52  1  0.685700  0.719400  0.273000  1.0  -0.2269
  C  C53  1  0.637300  0.812000  0.224000  1.0  0.1058
  C  C54  1  0.812000  0.576000  0.242000  1.0  -0.0998
  C  C55  1  0.985000  0.640000  0.358000  1.0  0.0116
  C  C56  1  0.079000  0.697000  0.305000  1.0  -0.2317
  C  C57  1  0.017000  0.566000  0.476000  1.0  0.4598
  C  C58  1  0.247700  0.191800  0.526000  1.0  0.1445
  C  C59  1  0.199300  0.284400  0.575000  1.0  -0.2293
  C  C60  1  0.232600  0.328800  0.699000  1.0  0.1167
  C  C61  1  0.314300  0.280600  0.773000  1.0  -0.2263
  C  C62  1  0.362700  0.188000  0.724000  1.0  0.1065
  C  C63  1  0.188000  0.424000  0.742000  1.0  -0.0999
  C  C64  1  0.015000  0.360000  0.858000  1.0  0.0141
  C  C65  1  0.921000  0.303000  0.805000  1.0  -0.2293
  C  C66  1  0.983000  0.434000  0.976000  1.0  0.4609
  C  C67  1  0.191800  0.752300  0.776000  1.0  0.146
  C  C68  1  0.284400  0.800700  0.825000  1.0  -0.2301
  C  C69  1  0.328800  0.767400  0.949000  1.0  0.1183
  C  C70  1  0.280600  0.685700  0.023000  1.0  -0.2253
  C  C71  1  0.188000  0.637300  0.974000  1.0  0.105
  C  C72  1  0.424000  0.812000  0.992000  1.0  -0.0995
  C  C73  1  0.360000  0.985000  0.108000  1.0  0.0124
  C  C74  1  0.303000  0.079000  0.055000  1.0  -0.2323
  C  C75  1  0.434000  0.017000  0.226000  1.0  0.4617
  C  C76  1  0.808200  0.247700  0.276000  1.0  0.1436
  C  C77  1  0.715600  0.199300  0.325000  1.0  -0.2299
  C  C78  1  0.671200  0.232600  0.449000  1.0  0.1188
  C  C79  1  0.719400  0.314300  0.523000  1.0  -0.2274
  C  C80  1  0.812000  0.362700  0.474000  1.0  0.1055
  C  C81  1  0.576000  0.188000  0.492000  1.0  -0.0989
  C  C82  1  0.640000  0.015000  0.608000  1.0  0.0149
  C  C83  1  0.697000  0.921000  0.555000  1.0  -0.232
  C  C84  1  0.566000  0.983000  0.726000  1.0  0.4606
  N  N85  1  0.941000  0.563100  0.251000  1.0  -0.3938
  N  N86  1  0.670600  0.856400  0.101000  1.0  -0.3394
  N  N87  1  0.059000  0.436900  0.751000  1.0  -0.3954
  N  N88  1  0.329400  0.143600  0.601000  1.0  -0.3392
  N  N89  1  0.436900  0.941000  0.001000  1.0  -0.3951
  N  N90  1  0.143600  0.670600  0.851000  1.0  -0.3393
  N  N91  1  0.563100  0.059000  0.501000  1.0  -0.3956
  N  N92  1  0.856400  0.329400  0.351000  1.0  -0.339
  O  O93  1  0.052500  0.626900  0.577000  1.0  -0.6166
  O  O94  1  0.020700  0.474700  0.469000  1.0  -0.5848
  O  O95  1  0.947500  0.373100  0.077000  1.0  -0.6162
  O  O96  1  0.979300  0.525300  0.969000  1.0  -0.5844
  O  O97  1  0.373100  0.052500  0.327000  1.0  -0.6128
  O  O98  1  0.525300  0.020700  0.219000  1.0  -0.5859
  O  O99  1  0.626900  0.947500  0.827000  1.0  -0.613
  O  O100  1  0.474700  0.979300  0.719000  1.0  -0.5858
