# generated using pymatgen
data_ZnH11C9(NO)2
_symmetry_space_group_name_H-M   'P 1'
_cell_length_a   12.80000000
_cell_length_b   12.80000000
_cell_length_c   9.98400000
_cell_angle_alpha   90.00000000
_cell_angle_beta   90.00000000
_cell_angle_gamma   90.00000000
_symmetry_Int_Tables_number   1
_chemical_formula_structural   ZnH11C9(NO)2
_chemical_formula_sum   'Zn4 H44 C36 N8 O8'
_cell_volume   1635.77856000
_cell_formula_units_Z   4
loop_
 _symmetry_equiv_pos_site_id
 _symmetry_equiv_pos_as_xyz
  1  'x, y, z'
loop_
 _atom_site_type_symbol
 _atom_site_label
 _atom_site_symmetry_multiplicity
 _atom_site_fract_x
 _atom_site_fract_y
 _atom_site_fract_z
 _atom_site_occupancy
 _atom_site_charge
  Zn  Zn1  1  0.909720  0.517230  0.041610  1.0  0.4923
  Zn  Zn2  1  0.090280  0.482770  0.541610  1.0  0.4915
  Zn  Zn3  1  0.482770  0.909720  0.291610  1.0  0.4917
  Zn  Zn4  1  0.517230  0.090280  0.791610  1.0  0.4916
  H  H5  1  0.733200  0.667100  0.119500  1.0  0.0787
  H  H6  1  0.649700  0.812800  0.045000  1.0  0.1072
  H  H7  1  0.824200  0.800400  0.712400  1.0  0.1152
  H  H8  1  0.907300  0.659900  0.801300  1.0  0.0728
  H  H9  1  0.709000  0.940500  0.733000  1.0  0.1061
  H  H10  1  0.706800  0.980300  0.880900  1.0  0.1108
  H  H11  1  0.565700  0.811800  0.683600  1.0  0.084
  H  H12  1  0.442100  0.755100  0.835600  1.0  0.097
  H  H13  1  0.377200  0.779700  0.706200  1.0  0.1071
  H  H14  1  0.378400  0.859400  0.825400  1.0  0.1049
  H  H15  1  0.541600  0.911500  0.895900  1.0  0.2694
  H  H16  1  0.266800  0.332900  0.619500  1.0  0.0779
  H  H17  1  0.350300  0.187200  0.545000  1.0  0.1064
  H  H18  1  0.175800  0.199600  0.212400  1.0  0.1151
  H  H19  1  0.092700  0.340100  0.301300  1.0  0.0729
  H  H20  1  0.291000  0.059500  0.233000  1.0  0.1067
  H  H21  1  0.293200  0.019700  0.380900  1.0  0.1125
  H  H22  1  0.434300  0.188200  0.183600  1.0  0.0842
  H  H23  1  0.557900  0.244900  0.335600  1.0  0.0968
  H  H24  1  0.622800  0.220300  0.206200  1.0  0.1063
  H  H25  1  0.621600  0.140600  0.325400  1.0  0.1052
  H  H26  1  0.458400  0.088500  0.395900  1.0  0.2696
  H  H27  1  0.332900  0.733200  0.369500  1.0  0.0777
  H  H28  1  0.187200  0.649700  0.295000  1.0  0.1076
  H  H29  1  0.199600  0.824200  0.962400  1.0  0.1156
  H  H30  1  0.340100  0.907300  0.051300  1.0  0.0735
  H  H31  1  0.059500  0.709000  0.983000  1.0  0.1051
  H  H32  1  0.019700  0.706800  0.130900  1.0  0.1106
  H  H33  1  0.188200  0.565700  0.933600  1.0  0.0855
  H  H34  1  0.244900  0.442100  0.085600  1.0  0.0969
  H  H35  1  0.220300  0.377200  0.956200  1.0  0.1065
  H  H36  1  0.140600  0.378400  0.075400  1.0  0.1042
  H  H37  1  0.088500  0.541600  0.145900  1.0  0.2699
  H  H38  1  0.667100  0.266800  0.869500  1.0  0.0789
  H  H39  1  0.812800  0.350300  0.795000  1.0  0.1071
  H  H40  1  0.800400  0.175800  0.462400  1.0  0.1154
  H  H41  1  0.659900  0.092700  0.551300  1.0  0.0729
  H  H42  1  0.940500  0.291000  0.483000  1.0  0.1049
  H  H43  1  0.980300  0.293200  0.630900  1.0  0.1108
  H  H44  1  0.811800  0.434300  0.433600  1.0  0.0841
  H  H45  1  0.755100  0.557900  0.585600  1.0  0.0994
  H  H46  1  0.779700  0.622800  0.456200  1.0  0.1063
  H  H47  1  0.859400  0.621600  0.575400  1.0  0.1047
  H  H48  1  0.911500  0.458400  0.645900  1.0  0.269
  C  C49  1  0.751800  0.694000  0.036300  1.0  0.1641
  C  C50  1  0.700800  0.781800  0.992000  1.0  -0.2423
  C  C51  1  0.725600  0.824600  0.867500  1.0  0.1073
  C  C52  1  0.804400  0.775300  0.796100  1.0  -0.2439
  C  C53  1  0.852600  0.689600  0.849400  1.0  0.1394
  C  C54  1  0.681600  0.925900  0.821600  1.0  -0.04
  C  C55  1  0.515400  0.864500  0.714000  1.0  0.0004
  C  C56  1  0.419100  0.809400  0.776200  1.0  -0.3385
  C  C57  1  0.478000  0.928900  0.594300  1.0  0.6289
  C  C58  1  0.248200  0.306000  0.536300  1.0  0.1628
  C  C59  1  0.299200  0.218200  0.492000  1.0  -0.2406
  C  C60  1  0.274400  0.175400  0.367500  1.0  0.1065
  C  C61  1  0.195600  0.224700  0.296100  1.0  -0.244
  C  C62  1  0.147400  0.310400  0.349400  1.0  0.1395
  C  C63  1  0.318400  0.074100  0.321600  1.0  -0.0404
  C  C64  1  0.484600  0.135500  0.214000  1.0  0.0033
  C  C65  1  0.580900  0.190600  0.276200  1.0  -0.3386
  C  C66  1  0.522000  0.071100  0.094300  1.0  0.6288
  C  C67  1  0.306000  0.751800  0.286300  1.0  0.1643
  C  C68  1  0.218200  0.700800  0.242000  1.0  -0.2443
  C  C69  1  0.175400  0.725600  0.117500  1.0  0.1053
  C  C70  1  0.224700  0.804400  0.046100  1.0  -0.2434
  C  C71  1  0.310400  0.852600  0.099400  1.0  0.1386
  C  C72  1  0.074100  0.681600  0.071600  1.0  -0.0362
  C  C73  1  0.135500  0.515400  0.964000  1.0  0.0023
  C  C74  1  0.190600  0.419100  0.026200  1.0  -0.3384
  C  C75  1  0.071100  0.478000  0.844300  1.0  0.6281
  C  C76  1  0.694000  0.248200  0.786300  1.0  0.1628
  C  C77  1  0.781800  0.299200  0.742000  1.0  -0.2433
  C  C78  1  0.824600  0.274400  0.617500  1.0  0.1066
  C  C79  1  0.775300  0.195600  0.546100  1.0  -0.2423
  C  C80  1  0.689600  0.147400  0.599400  1.0  0.1384
  C  C81  1  0.925900  0.318400  0.571600  1.0  -0.038
  C  C82  1  0.864500  0.484600  0.464000  1.0  0.0011
  C  C83  1  0.809400  0.580900  0.526200  1.0  -0.3393
  C  C84  1  0.928900  0.522000  0.344300  1.0  0.6287
  N  N85  1  0.826100  0.645000  0.968000  1.0  -0.3384
  N  N86  1  0.565500  0.932900  0.815600  1.0  -0.3782
  N  N87  1  0.173900  0.355000  0.468000  1.0  -0.3404
  N  N88  1  0.434500  0.067100  0.315600  1.0  -0.3789
  N  N89  1  0.355000  0.826100  0.218000  1.0  -0.338
  N  N90  1  0.067100  0.565500  0.065600  1.0  -0.378
  N  N91  1  0.645000  0.173900  0.718000  1.0  -0.3397
  N  N92  1  0.932900  0.434500  0.565600  1.0  -0.3781
  O  O93  1  0.478000  0.026100  0.599600  1.0  -0.5687
  O  O94  1  0.445500  0.875300  0.495400  1.0  -0.6361
  O  O95  1  0.522000  0.973900  0.099600  1.0  -0.5694
  O  O96  1  0.554500  0.124700  0.995400  1.0  -0.6358
  O  O97  1  0.973900  0.478000  0.849600  1.0  -0.5681
  O  O98  1  0.124700  0.445500  0.745400  1.0  -0.6341
  O  O99  1  0.026100  0.522000  0.349600  1.0  -0.5678
  O  O100  1  0.875300  0.554500  0.245400  1.0  -0.6345
