# generated using pymatgen
data_AgBH6C8(NF)4
_symmetry_space_group_name_H-M   'P 1'
_cell_length_a   11.39600000
_cell_length_b   11.39600000
_cell_length_c   13.91300000
_cell_angle_alpha   90.00000000
_cell_angle_beta   90.00000000
_cell_angle_gamma   90.00000000
_symmetry_Int_Tables_number   1
_chemical_formula_structural   AgBH6C8(NF)4
_chemical_formula_sum   'Ag4 B4 H24 C32 N16 F16'
_cell_volume   1806.86483701
_cell_formula_units_Z   4
loop_
 _symmetry_equiv_pos_site_id
 _symmetry_equiv_pos_as_xyz
  1  'x, y, z'
loop_
 _atom_site_type_symbol
 _atom_site_label
 _atom_site_symmetry_multiplicity
 _atom_site_fract_x
 _atom_site_fract_y
 _atom_site_fract_z
 _atom_site_occupancy
 _atom_site_charge
  Ag  Ag1  1  0.890810  0.890810  0.000000  1.0  0.3228
  Ag  Ag2  1  0.109190  0.109190  0.500000  1.0  0.3229
  Ag  Ag3  1  0.609190  0.390810  0.250000  1.0  0.3231
  Ag  Ag4  1  0.390810  0.609190  0.750000  1.0  0.3228
  B  B5  1  0.874200  0.125800  0.750000  1.0  0.9371
  B  B6  1  0.125800  0.874200  0.250000  1.0  0.9364
  B  B7  1  0.374200  0.374200  0.000000  1.0  0.9363
  B  B8  1  0.625800  0.625800  0.500000  1.0  0.937
  H  H9  1  0.587400  0.553700  0.068800  1.0  0.0744
  H  H10  1  0.584000  0.807500  0.714500  1.0  0.0581
  H  H11  1  0.899900  0.735700  0.207100  1.0  0.0634
  H  H12  1  0.412600  0.446300  0.568800  1.0  0.0742
  H  H13  1  0.416000  0.192500  0.214500  1.0  0.0576
  H  H14  1  0.100100  0.264300  0.707100  1.0  0.0632
  H  H15  1  0.946300  0.087400  0.318800  1.0  0.0753
  H  H16  1  0.692500  0.084000  0.964500  1.0  0.0579
  H  H17  1  0.764300  0.399900  0.457100  1.0  0.0642
  H  H18  1  0.053700  0.912600  0.818800  1.0  0.0753
  H  H19  1  0.307500  0.916000  0.464500  1.0  0.0577
  H  H20  1  0.235700  0.600100  0.957100  1.0  0.0641
  H  H21  1  0.912600  0.053700  0.181200  1.0  0.0745
  H  H22  1  0.916000  0.307500  0.535500  1.0  0.0578
  H  H23  1  0.600100  0.235700  0.042900  1.0  0.0617
  H  H24  1  0.087400  0.946300  0.681200  1.0  0.0741
  H  H25  1  0.084000  0.692500  0.035500  1.0  0.0584
  H  H26  1  0.399900  0.764300  0.542900  1.0  0.0619
  H  H27  1  0.553700  0.587400  0.931200  1.0  0.0751
  H  H28  1  0.807500  0.584000  0.285500  1.0  0.058
  H  H29  1  0.735700  0.899900  0.792900  1.0  0.062
  H  H30  1  0.446300  0.412600  0.431200  1.0  0.0753
  H  H31  1  0.192500  0.416000  0.785500  1.0  0.0583
  H  H32  1  0.264300  0.100100  0.292900  1.0  0.0623
  C  C33  1  0.677200  0.712100  0.950300  1.0  0.1126
  C  C34  1  0.589600  0.653200  0.901400  1.0  0.1105
  C  C35  1  0.607700  0.779500  0.775800  1.0  0.0788
  C  C36  1  0.836400  0.696600  0.176500  1.0  0.0906
  C  C37  1  0.322800  0.287900  0.450300  1.0  0.1129
  C  C38  1  0.410400  0.346800  0.401400  1.0  0.1109
  C  C39  1  0.392300  0.220500  0.275800  1.0  0.0795
  C  C40  1  0.163600  0.303400  0.676500  1.0  0.0915
  C  C41  1  0.787900  0.177200  0.200300  1.0  0.1116
  C  C42  1  0.846800  0.089600  0.151400  1.0  0.11
  C  C43  1  0.720500  0.107700  0.025800  1.0  0.0794
  C  C44  1  0.803400  0.336400  0.426500  1.0  0.0901
  C  C45  1  0.212100  0.822800  0.700300  1.0  0.1116
  C  C46  1  0.153200  0.910400  0.651400  1.0  0.11
  C  C47  1  0.279500  0.892300  0.525800  1.0  0.0789
  C  C48  1  0.196600  0.663600  0.926500  1.0  0.0908
  C  C49  1  0.822800  0.212100  0.299700  1.0  0.1138
  C  C50  1  0.910400  0.153200  0.348600  1.0  0.1112
  C  C51  1  0.892300  0.279500  0.474200  1.0  0.0802
  C  C52  1  0.663600  0.196600  0.073500  1.0  0.0904
  C  C53  1  0.177200  0.787900  0.799700  1.0  0.1141
  C  C54  1  0.089600  0.846800  0.848600  1.0  0.1104
  C  C55  1  0.107700  0.720500  0.974200  1.0  0.079
  C  C56  1  0.336400  0.803400  0.573500  1.0  0.0896
  C  C57  1  0.712100  0.677200  0.049700  1.0  0.1133
  C  C58  1  0.653200  0.589600  0.098600  1.0  0.1108
  C  C59  1  0.779500  0.607700  0.224200  1.0  0.0803
  C  C60  1  0.696600  0.836400  0.823500  1.0  0.0901
  C  C61  1  0.287900  0.322800  0.549700  1.0  0.1123
  C  C62  1  0.346800  0.410400  0.598600  1.0  0.1095
  C  C63  1  0.220500  0.392300  0.724200  1.0  0.0793
  C  C64  1  0.303400  0.163600  0.323500  1.0  0.0892
  N  N65  1  0.729100  0.804900  0.911300  1.0  -0.3822
  N  N66  1  0.553000  0.685200  0.813300  1.0  -0.3757
  N  N67  1  0.270900  0.195100  0.411300  1.0  -0.383
  N  N68  1  0.447000  0.314800  0.313300  1.0  -0.3759
  N  N69  1  0.695100  0.229100  0.161300  1.0  -0.3853
  N  N70  1  0.814800  0.053000  0.063300  1.0  -0.3749
  N  N71  1  0.304900  0.770900  0.661300  1.0  -0.3822
  N  N72  1  0.185200  0.947000  0.563300  1.0  -0.3747
  N  N73  1  0.770900  0.304900  0.338700  1.0  -0.3837
  N  N74  1  0.947000  0.185200  0.436700  1.0  -0.3755
  N  N75  1  0.229100  0.695100  0.838700  1.0  -0.3828
  N  N76  1  0.053000  0.814800  0.936700  1.0  -0.3744
  N  N77  1  0.804900  0.729100  0.088700  1.0  -0.3844
  N  N78  1  0.685200  0.553000  0.186700  1.0  -0.375
  N  N79  1  0.195100  0.270900  0.588700  1.0  -0.3844
  N  N80  1  0.314800  0.447000  0.686700  1.0  -0.3746
  F  F81  1  0.942300  0.098600  0.673700  1.0  -0.2457
  F  F82  1  0.758600  0.107500  0.730400  1.0  -0.2151
  F  F83  1  0.901400  0.057700  0.826300  1.0  -0.244
  F  F84  1  0.892500  0.241400  0.769600  1.0  -0.2162
  F  F85  1  0.057700  0.901400  0.173700  1.0  -0.2452
  F  F86  1  0.241400  0.892500  0.230400  1.0  -0.2156
  F  F87  1  0.098600  0.942300  0.326300  1.0  -0.2435
  F  F88  1  0.107500  0.758600  0.269600  1.0  -0.214
  F  F89  1  0.401400  0.442300  0.923700  1.0  -0.2427
  F  F90  1  0.392500  0.258600  0.980400  1.0  -0.2144
  F  F91  1  0.442300  0.401400  0.076300  1.0  -0.246
  F  F92  1  0.258600  0.392500  0.019600  1.0  -0.2153
  F  F93  1  0.598600  0.557700  0.423700  1.0  -0.2424
  F  F94  1  0.607500  0.741400  0.480400  1.0  -0.2159
  F  F95  1  0.557700  0.598600  0.576300  1.0  -0.2462
  F  F96  1  0.741400  0.607500  0.519600  1.0  -0.2157
