# generated using pymatgen
data_Ag3H12(C2N5)2
_symmetry_space_group_name_H-M   'P 1'
_cell_length_a   29.60100000
_cell_length_b   29.60100000
_cell_length_c   3.44960000
_cell_angle_alpha   90.00000000
_cell_angle_beta   90.00000000
_cell_angle_gamma   90.00000000
_symmetry_Int_Tables_number   1
_chemical_formula_structural   Ag3H12(C2N5)2
_chemical_formula_sum   'Ag24 H96 C32 N80'
_cell_volume   3022.60575577
_cell_formula_units_Z   8
loop_
 _symmetry_equiv_pos_site_id
 _symmetry_equiv_pos_as_xyz
  1  'x, y, z'
loop_
 _atom_site_type_symbol
 _atom_site_label
 _atom_site_symmetry_multiplicity
 _atom_site_fract_x
 _atom_site_fract_y
 _atom_site_fract_z
 _atom_site_occupancy
 _atom_site_charge
  Ag  Ag1  1  0.439610  0.310390  0.125000  1.0  0.2144
  Ag  Ag2  1  0.060390  0.689610  0.625000  1.0  0.2121
  Ag  Ag3  1  0.939610  0.189610  0.375000  1.0  0.2148
  Ag  Ag4  1  0.560390  0.810390  0.875000  1.0  0.211
  Ag  Ag5  1  0.060390  0.310390  0.375000  1.0  0.211
  Ag  Ag6  1  0.439610  0.689610  0.875000  1.0  0.2148
  Ag  Ag7  1  0.560390  0.189610  0.125000  1.0  0.2121
  Ag  Ag8  1  0.939610  0.810390  0.625000  1.0  0.2144
  Ag  Ag9  1  0.560390  0.689610  0.875000  1.0  0.2123
  Ag  Ag10  1  0.939610  0.310390  0.375000  1.0  0.2145
  Ag  Ag11  1  0.060390  0.810390  0.625000  1.0  0.2112
  Ag  Ag12  1  0.439610  0.189610  0.125000  1.0  0.2148
  Ag  Ag13  1  0.939610  0.689610  0.625000  1.0  0.2148
  Ag  Ag14  1  0.560390  0.310390  0.125000  1.0  0.2112
  Ag  Ag15  1  0.439610  0.810390  0.875000  1.0  0.2145
  Ag  Ag16  1  0.060390  0.189610  0.375000  1.0  0.2123
  Ag  Ag17  1  0.250000  0.250000  0.750000  1.0  0.2341
  Ag  Ag18  1  0.250000  0.750000  0.250000  1.0  0.2341
  Ag  Ag19  1  0.000000  0.000000  0.000000  1.0  0.2341
  Ag  Ag20  1  0.500000  0.500000  0.500000  1.0  0.2341
  Ag  Ag21  1  0.500000  0.000000  0.500000  1.0  0.2341
  Ag  Ag22  1  0.000000  0.500000  0.000000  1.0  0.2341
  Ag  Ag23  1  0.750000  0.250000  0.750000  1.0  0.2341
  Ag  Ag24  1  0.750000  0.750000  0.250000  1.0  0.2341
  H  H25  1  0.350000  0.354400  0.432300  1.0  0.1734
  H  H26  1  0.304200  0.341400  0.573200  1.0  0.2299
  H  H27  1  0.333100  0.316200  0.481500  1.0  0.2256
  H  H28  1  0.850000  0.854400  0.932300  1.0  0.1734
  H  H29  1  0.804200  0.841400  0.073200  1.0  0.2299
  H  H30  1  0.833100  0.816200  0.981500  1.0  0.2256
  H  H31  1  0.150000  0.645600  0.932300  1.0  0.1733
  H  H32  1  0.195800  0.658600  0.073200  1.0  0.2297
  H  H33  1  0.166900  0.683800  0.981500  1.0  0.2261
  H  H34  1  0.650000  0.145600  0.432300  1.0  0.1733
  H  H35  1  0.695800  0.158600  0.573200  1.0  0.2297
  H  H36  1  0.666900  0.183800  0.481500  1.0  0.2261
  H  H37  1  0.895600  0.100000  0.682300  1.0  0.1729
  H  H38  1  0.908600  0.054200  0.823200  1.0  0.228
  H  H39  1  0.933800  0.083100  0.731500  1.0  0.2277
  H  H40  1  0.395600  0.600000  0.182300  1.0  0.1729
  H  H41  1  0.408600  0.554200  0.323200  1.0  0.228
  H  H42  1  0.433800  0.583100  0.231500  1.0  0.2277
  H  H43  1  0.604400  0.900000  0.182300  1.0  0.1722
  H  H44  1  0.591400  0.945800  0.323200  1.0  0.2293
  H  H45  1  0.566200  0.916900  0.231500  1.0  0.2266
  H  H46  1  0.104400  0.400000  0.682300  1.0  0.1722
  H  H47  1  0.091400  0.445800  0.823200  1.0  0.2293
  H  H48  1  0.066200  0.416900  0.731500  1.0  0.2266
  H  H49  1  0.150000  0.354400  0.067700  1.0  0.1742
  H  H50  1  0.195800  0.341400  0.926800  1.0  0.2283
  H  H51  1  0.166900  0.316200  0.018500  1.0  0.2249
  H  H52  1  0.650000  0.854400  0.567700  1.0  0.1742
  H  H53  1  0.695800  0.841400  0.426800  1.0  0.2283
  H  H54  1  0.666900  0.816200  0.518500  1.0  0.2249
  H  H55  1  0.350000  0.645600  0.567700  1.0  0.1723
  H  H56  1  0.304200  0.658600  0.426800  1.0  0.23
  H  H57  1  0.333100  0.683800  0.518500  1.0  0.2269
  H  H58  1  0.850000  0.145600  0.067700  1.0  0.1723
  H  H59  1  0.804200  0.158600  0.926800  1.0  0.23
  H  H60  1  0.833100  0.183800  0.018500  1.0  0.2269
  H  H61  1  0.604400  0.100000  0.817700  1.0  0.1745
  H  H62  1  0.591400  0.054200  0.676800  1.0  0.2277
  H  H63  1  0.566200  0.083100  0.768500  1.0  0.2271
  H  H64  1  0.104400  0.600000  0.317700  1.0  0.1745
  H  H65  1  0.091400  0.554200  0.176800  1.0  0.2277
  H  H66  1  0.066200  0.583100  0.268500  1.0  0.2271
  H  H67  1  0.895600  0.900000  0.317700  1.0  0.1716
  H  H68  1  0.908600  0.945800  0.176800  1.0  0.232
  H  H69  1  0.933800  0.916900  0.268500  1.0  0.2269
  H  H70  1  0.395600  0.400000  0.817700  1.0  0.1716
  H  H71  1  0.408600  0.445800  0.676800  1.0  0.232
  H  H72  1  0.433800  0.416900  0.768500  1.0  0.2269
  H  H73  1  0.650000  0.645600  0.567700  1.0  0.1729
  H  H74  1  0.695800  0.658600  0.426800  1.0  0.2291
  H  H75  1  0.666900  0.683800  0.518500  1.0  0.2261
  H  H76  1  0.150000  0.145600  0.067700  1.0  0.1729
  H  H77  1  0.195800  0.158600  0.926800  1.0  0.2291
  H  H78  1  0.166900  0.183800  0.018500  1.0  0.2261
  H  H79  1  0.850000  0.354400  0.067700  1.0  0.1743
  H  H80  1  0.804200  0.341400  0.926800  1.0  0.2301
  H  H81  1  0.833100  0.316200  0.018500  1.0  0.2254
  H  H82  1  0.350000  0.854400  0.567700  1.0  0.1743
  H  H83  1  0.304200  0.841400  0.426800  1.0  0.2301
  H  H84  1  0.333100  0.816200  0.518500  1.0  0.2254
  H  H85  1  0.104400  0.900000  0.317700  1.0  0.1723
  H  H86  1  0.091400  0.945800  0.176800  1.0  0.2298
  H  H87  1  0.066200  0.916900  0.268500  1.0  0.2263
  H  H88  1  0.604400  0.400000  0.817700  1.0  0.1723
  H  H89  1  0.591400  0.445800  0.676800  1.0  0.2298
  H  H90  1  0.566200  0.416900  0.768500  1.0  0.2263
  H  H91  1  0.395600  0.100000  0.817700  1.0  0.1732
  H  H92  1  0.408600  0.054200  0.676800  1.0  0.2291
  H  H93  1  0.433800  0.083100  0.768500  1.0  0.2278
  H  H94  1  0.895600  0.600000  0.317700  1.0  0.1732
  H  H95  1  0.908600  0.554200  0.176800  1.0  0.2291
  H  H96  1  0.933800  0.583100  0.268500  1.0  0.2278
  H  H97  1  0.850000  0.645600  0.932300  1.0  0.1718
  H  H98  1  0.804200  0.658600  0.073200  1.0  0.2294
  H  H99  1  0.833100  0.683800  0.981500  1.0  0.2265
  H  H100  1  0.350000  0.145600  0.432300  1.0  0.1718
  H  H101  1  0.304200  0.158600  0.573200  1.0  0.2294
  H  H102  1  0.333100  0.183800  0.481500  1.0  0.2265
  H  H103  1  0.650000  0.354400  0.432300  1.0  0.1735
  H  H104  1  0.695800  0.341400  0.573200  1.0  0.2286
  H  H105  1  0.666900  0.316200  0.481500  1.0  0.2241
  H  H106  1  0.150000  0.854400  0.932300  1.0  0.1735
  H  H107  1  0.195800  0.841400  0.073200  1.0  0.2286
  H  H108  1  0.166900  0.816200  0.981500  1.0  0.2241
  H  H109  1  0.395600  0.900000  0.182300  1.0  0.172
  H  H110  1  0.408600  0.945800  0.323200  1.0  0.2307
  H  H111  1  0.433800  0.916900  0.231500  1.0  0.2263
  H  H112  1  0.895600  0.400000  0.682300  1.0  0.172
  H  H113  1  0.908600  0.445800  0.823200  1.0  0.2307
  H  H114  1  0.933800  0.416900  0.731500  1.0  0.2263
  H  H115  1  0.104400  0.100000  0.682300  1.0  0.1739
  H  H116  1  0.091400  0.054200  0.823200  1.0  0.2275
  H  H117  1  0.066200  0.083100  0.731500  1.0  0.2267
  H  H118  1  0.604400  0.600000  0.182300  1.0  0.1739
  H  H119  1  0.591400  0.554200  0.323200  1.0  0.2275
  H  H120  1  0.566200  0.583100  0.231500  1.0  0.2267
  C  C121  1  0.342660  0.285400  0.452700  1.0  0.083
  C  C122  1  0.842660  0.785400  0.952700  1.0  0.083
  C  C123  1  0.157340  0.714600  0.952700  1.0  0.0845
  C  C124  1  0.657340  0.214600  0.452700  1.0  0.0845
  C  C125  1  0.964600  0.092660  0.702700  1.0  0.0875
  C  C126  1  0.464600  0.592660  0.202700  1.0  0.0875
  C  C127  1  0.535400  0.907340  0.202700  1.0  0.0896
  C  C128  1  0.035400  0.407340  0.702700  1.0  0.0896
  C  C129  1  0.157340  0.285400  0.047300  1.0  0.0858
  C  C130  1  0.657340  0.785400  0.547300  1.0  0.0858
  C  C131  1  0.342660  0.714600  0.547300  1.0  0.0821
  C  C132  1  0.842660  0.214600  0.047300  1.0  0.0821
  C  C133  1  0.535400  0.092660  0.797300  1.0  0.0888
  C  C134  1  0.035400  0.592660  0.297300  1.0  0.0888
  C  C135  1  0.964600  0.907340  0.297300  1.0  0.0881
  C  C136  1  0.464600  0.407340  0.797300  1.0  0.0881
  C  C137  1  0.657340  0.714600  0.547300  1.0  0.0826
  C  C138  1  0.157340  0.214600  0.047300  1.0  0.0826
  C  C139  1  0.842660  0.285400  0.047300  1.0  0.0816
  C  C140  1  0.342660  0.785400  0.547300  1.0  0.0816
  C  C141  1  0.035400  0.907340  0.297300  1.0  0.0877
  C  C142  1  0.535400  0.407340  0.797300  1.0  0.0877
  C  C143  1  0.464600  0.092660  0.797300  1.0  0.0859
  C  C144  1  0.964600  0.592660  0.297300  1.0  0.0859
  C  C145  1  0.842660  0.714600  0.952700  1.0  0.0802
  C  C146  1  0.342660  0.214600  0.452700  1.0  0.0802
  C  C147  1  0.657340  0.285400  0.452700  1.0  0.0838
  C  C148  1  0.157340  0.785400  0.952700  1.0  0.0838
  C  C149  1  0.464600  0.907340  0.202700  1.0  0.0868
  C  C150  1  0.964600  0.407340  0.702700  1.0  0.0868
  C  C151  1  0.035400  0.092660  0.702700  1.0  0.0873
  C  C152  1  0.535400  0.592660  0.202700  1.0  0.0873
  N  N153  1  0.383340  0.273230  0.326700  1.0  -0.3394
  N  N154  1  0.330600  0.333900  0.491000  1.0  -0.3351
  N  N155  1  0.883340  0.773230  0.826700  1.0  -0.3394
  N  N156  1  0.830600  0.833900  0.991000  1.0  -0.3351
  N  N157  1  0.116660  0.726770  0.826700  1.0  -0.3419
  N  N158  1  0.169400  0.666100  0.991000  1.0  -0.3371
  N  N159  1  0.616660  0.226770  0.326700  1.0  -0.3419
  N  N160  1  0.669400  0.166100  0.491000  1.0  -0.3371
  N  N161  1  0.976770  0.133340  0.576700  1.0  -0.3419
  N  N162  1  0.916100  0.080600  0.741000  1.0  -0.339
  N  N163  1  0.476770  0.633340  0.076700  1.0  -0.3419
  N  N164  1  0.416100  0.580600  0.241000  1.0  -0.339
  N  N165  1  0.523230  0.866660  0.076700  1.0  -0.3432
  N  N166  1  0.583900  0.919400  0.241000  1.0  -0.3357
  N  N167  1  0.023230  0.366660  0.576700  1.0  -0.3432
  N  N168  1  0.083900  0.419400  0.741000  1.0  -0.3357
  N  N169  1  0.116660  0.273230  0.173300  1.0  -0.3406
  N  N170  1  0.169400  0.333900  0.009000  1.0  -0.3365
  N  N171  1  0.616660  0.773230  0.673300  1.0  -0.3406
  N  N172  1  0.669400  0.833900  0.509000  1.0  -0.3365
  N  N173  1  0.383340  0.726770  0.673300  1.0  -0.338
  N  N174  1  0.330600  0.666100  0.509000  1.0  -0.3379
  N  N175  1  0.883340  0.226770  0.173300  1.0  -0.338
  N  N176  1  0.830600  0.166100  0.009000  1.0  -0.3379
  N  N177  1  0.523230  0.133340  0.923300  1.0  -0.3412
  N  N178  1  0.583900  0.080600  0.759000  1.0  -0.3368
  N  N179  1  0.023230  0.633340  0.423300  1.0  -0.3412
  N  N180  1  0.083900  0.580600  0.259000  1.0  -0.3368
  N  N181  1  0.976770  0.866660  0.423300  1.0  -0.3436
  N  N182  1  0.916100  0.919400  0.259000  1.0  -0.3393
  N  N183  1  0.476770  0.366660  0.923300  1.0  -0.3436
  N  N184  1  0.416100  0.419400  0.759000  1.0  -0.3393
  N  N185  1  0.616660  0.726770  0.673300  1.0  -0.3407
  N  N186  1  0.669400  0.666100  0.509000  1.0  -0.337
  N  N187  1  0.116660  0.226770  0.173300  1.0  -0.3407
  N  N188  1  0.169400  0.166100  0.009000  1.0  -0.337
  N  N189  1  0.883340  0.273230  0.173300  1.0  -0.3382
  N  N190  1  0.830600  0.333900  0.009000  1.0  -0.3353
  N  N191  1  0.383340  0.773230  0.673300  1.0  -0.3382
  N  N192  1  0.330600  0.833900  0.509000  1.0  -0.3353
  N  N193  1  0.023230  0.866660  0.423300  1.0  -0.3427
  N  N194  1  0.083900  0.919400  0.259000  1.0  -0.3358
  N  N195  1  0.523230  0.366660  0.923300  1.0  -0.3427
  N  N196  1  0.583900  0.419400  0.759000  1.0  -0.3358
  N  N197  1  0.476770  0.133340  0.923300  1.0  -0.3412
  N  N198  1  0.416100  0.080600  0.759000  1.0  -0.3389
  N  N199  1  0.976770  0.633340  0.423300  1.0  -0.3412
  N  N200  1  0.916100  0.580600  0.259000  1.0  -0.3389
  N  N201  1  0.883340  0.726770  0.826700  1.0  -0.3391
  N  N202  1  0.830600  0.666100  0.991000  1.0  -0.3382
  N  N203  1  0.383340  0.226770  0.326700  1.0  -0.3391
  N  N204  1  0.330600  0.166100  0.491000  1.0  -0.3382
  N  N205  1  0.616660  0.273230  0.326700  1.0  -0.3418
  N  N206  1  0.669400  0.333900  0.491000  1.0  -0.3364
  N  N207  1  0.116660  0.773230  0.826700  1.0  -0.3418
  N  N208  1  0.169400  0.833900  0.991000  1.0  -0.3364
  N  N209  1  0.476770  0.866660  0.076700  1.0  -0.3443
  N  N210  1  0.416100  0.919400  0.241000  1.0  -0.3394
  N  N211  1  0.976770  0.366660  0.576700  1.0  -0.3443
  N  N212  1  0.916100  0.419400  0.741000  1.0  -0.3394
  N  N213  1  0.023230  0.133340  0.576700  1.0  -0.3418
  N  N214  1  0.083900  0.080600  0.741000  1.0  -0.337
  N  N215  1  0.523230  0.633340  0.076700  1.0  -0.3418
  N  N216  1  0.583900  0.580600  0.241000  1.0  -0.337
  N  N217  1  0.316500  0.250000  0.534000  1.0  -0.4035
  N  N218  1  0.183500  0.750000  0.034000  1.0  -0.3993
  N  N219  1  0.000000  0.066500  0.784000  1.0  -0.4006
  N  N220  1  0.500000  0.566500  0.284000  1.0  -0.4006
  N  N221  1  0.500000  0.933500  0.284000  1.0  -0.4037
  N  N222  1  0.000000  0.433500  0.784000  1.0  -0.4037
  N  N223  1  0.183500  0.250000  0.966000  1.0  -0.3986
  N  N224  1  0.316500  0.750000  0.466000  1.0  -0.4027
  N  N225  1  0.816500  0.250000  0.966000  1.0  -0.4027
  N  N226  1  0.500000  0.066500  0.716000  1.0  -0.3998
  N  N227  1  0.000000  0.566500  0.216000  1.0  -0.3998
  N  N228  1  0.000000  0.933500  0.216000  1.0  -0.4023
  N  N229  1  0.500000  0.433500  0.716000  1.0  -0.4023
  N  N230  1  0.683500  0.750000  0.466000  1.0  -0.3986
  N  N231  1  0.816500  0.750000  0.034000  1.0  -0.4035
  N  N232  1  0.683500  0.250000  0.534000  1.0  -0.3993
