# generated using pymatgen
data_PrP2H4C2O7
_symmetry_space_group_name_H-M   'P 1'
_cell_length_a   8.65440000
_cell_length_b   10.38090000
_cell_length_c   10.76460000
_cell_angle_alpha   90.00000000
_cell_angle_beta   90.00000000
_cell_angle_gamma   90.00000000
_symmetry_Int_Tables_number   1
_chemical_formula_structural   PrP2H4C2O7
_chemical_formula_sum   'Pr4 P8 H16 C8 O28'
_cell_volume   967.09662605
_cell_formula_units_Z   4
loop_
 _symmetry_equiv_pos_site_id
 _symmetry_equiv_pos_as_xyz
  1  'x, y, z'
loop_
 _atom_site_type_symbol
 _atom_site_label
 _atom_site_symmetry_multiplicity
 _atom_site_fract_x
 _atom_site_fract_y
 _atom_site_fract_z
 _atom_site_occupancy
 _atom_site_charge
  Pr  Pr1  1  0.492800  0.398470  0.613460  1.0  2.2626
  Pr  Pr2  1  0.007200  0.601530  0.113460  1.0  2.2607
  Pr  Pr3  1  0.507200  0.898470  0.886540  1.0  2.2693
  Pr  Pr4  1  0.992800  0.101530  0.386540  1.0  2.2699
  P  P5  1  0.693400  0.581600  0.861800  1.0  1.5258
  P  P6  1  0.342400  0.585700  0.892500  1.0  1.5169
  P  P7  1  0.806600  0.418400  0.361800  1.0  1.525
  P  P8  1  0.157600  0.414300  0.392500  1.0  1.5197
  P  P9  1  0.306600  0.081600  0.638200  1.0  1.5238
  P  P10  1  0.657600  0.085700  0.607500  1.0  1.5218
  P  P11  1  0.193400  0.918400  0.138200  1.0  1.5248
  P  P12  1  0.842400  0.914300  0.107500  1.0  1.5186
  H  H13  1  0.631000  0.698200  0.078700  1.0  0.4057
  H  H14  1  0.640100  0.454500  0.094100  1.0  0.1542
  H  H15  1  0.525400  0.380600  0.006900  1.0  0.1631
  H  H16  1  0.461600  0.463700  0.117200  1.0  0.1704
  H  H17  1  0.869000  0.301800  0.578700  1.0  0.4058
  H  H18  1  0.859900  0.545500  0.594100  1.0  0.1547
  H  H19  1  0.974600  0.619400  0.506900  1.0  0.1649
  H  H20  1  0.038400  0.536300  0.617200  1.0  0.1698
  H  H21  1  0.369000  0.198200  0.421300  1.0  0.4069
  H  H22  1  0.359900  0.954500  0.405900  1.0  0.1546
  H  H23  1  0.474600  0.880600  0.493100  1.0  0.1642
  H  H24  1  0.538400  0.963700  0.382800  1.0  0.1686
  H  H25  1  0.131000  0.801800  0.921300  1.0  0.4049
  H  H26  1  0.140100  0.045500  0.905900  1.0  0.1537
  H  H27  1  0.025400  0.119400  0.993100  1.0  0.1647
  H  H28  1  0.961600  0.036300  0.882800  1.0  0.1681
  C  C29  1  0.532200  0.574700  0.969600  1.0  -0.2362
  C  C30  1  0.540600  0.457500  0.054900  1.0  -0.3316
  C  C31  1  0.967800  0.425300  0.469600  1.0  -0.2346
  C  C32  1  0.959400  0.542500  0.554900  1.0  -0.3319
  C  C33  1  0.467800  0.074700  0.530400  1.0  -0.235
  C  C34  1  0.459400  0.957500  0.445100  1.0  -0.3327
  C  C35  1  0.032200  0.925300  0.030400  1.0  -0.2365
  C  C36  1  0.040600  0.042500  0.945100  1.0  -0.3316
  O  O37  1  0.677200  0.472100  0.769300  1.0  -0.8284
  O  O38  1  0.670900  0.715300  0.802600  1.0  -0.8034
  O  O39  1  0.841600  0.570800  0.936500  1.0  -0.9108
  O  O40  1  0.219500  0.544800  0.984400  1.0  -0.887
  O  O41  1  0.324900  0.725600  0.856800  1.0  -0.772
  O  O42  1  0.345400  0.497100  0.779200  1.0  -0.8857
  O  O43  1  0.542800  0.695100  0.045000  1.0  -0.5488
  O  O44  1  0.822800  0.527900  0.269300  1.0  -0.8281
  O  O45  1  0.829100  0.284700  0.302600  1.0  -0.803
  O  O46  1  0.658400  0.429200  0.436500  1.0  -0.9109
  O  O47  1  0.280500  0.455200  0.484400  1.0  -0.8887
  O  O48  1  0.175100  0.274400  0.356800  1.0  -0.7724
  O  O49  1  0.154600  0.502900  0.279200  1.0  -0.8861
  O  O50  1  0.957200  0.304900  0.545000  1.0  -0.5485
  O  O51  1  0.322800  0.972100  0.730700  1.0  -0.8283
  O  O52  1  0.329100  0.215300  0.697400  1.0  -0.8035
  O  O53  1  0.158400  0.070800  0.563500  1.0  -0.9104
  O  O54  1  0.780500  0.044800  0.515600  1.0  -0.8862
  O  O55  1  0.675100  0.225600  0.643200  1.0  -0.7715
  O  O56  1  0.654600  0.997100  0.720800  1.0  -0.8868
  O  O57  1  0.457200  0.195100  0.455000  1.0  -0.5471
  O  O58  1  0.177200  0.027900  0.230700  1.0  -0.828
  O  O59  1  0.170900  0.784700  0.197400  1.0  -0.8027
  O  O60  1  0.341600  0.929200  0.063500  1.0  -0.9109
  O  O61  1  0.719500  0.955200  0.015600  1.0  -0.8874
  O  O62  1  0.824900  0.774400  0.143200  1.0  -0.7717
  O  O63  1  0.845400  0.002900  0.220800  1.0  -0.8863
  O  O64  1  0.042800  0.804900  0.955000  1.0  -0.5486
