# generated using pymatgen
data_LaP2H4C2O7
_symmetry_space_group_name_H-M   'P 1'
_cell_length_a   8.71150000
_cell_length_b   10.43160000
_cell_length_c   10.88380000
_cell_angle_alpha   90.00000000
_cell_angle_beta   90.00000000
_cell_angle_gamma   90.00000000
_symmetry_Int_Tables_number   1
_chemical_formula_structural   LaP2H4C2O7
_chemical_formula_sum   'La4 P8 H16 C8 O28'
_cell_volume   989.06405595
_cell_formula_units_Z   4
loop_
 _symmetry_equiv_pos_site_id
 _symmetry_equiv_pos_as_xyz
  1  'x, y, z'
loop_
 _atom_site_type_symbol
 _atom_site_label
 _atom_site_symmetry_multiplicity
 _atom_site_fract_x
 _atom_site_fract_y
 _atom_site_fract_z
 _atom_site_occupancy
 _atom_site_charge
  La  La1  1  0.992130  0.101520  0.112640  1.0  2.2428
  La  La2  1  0.507870  0.898480  0.612640  1.0  2.2413
  La  La3  1  0.007870  0.601520  0.387360  1.0  2.2479
  La  La4  1  0.492130  0.398480  0.887360  1.0  2.2476
  P  P5  1  0.844400  0.916700  0.394200  1.0  1.4799
  P  P6  1  0.194400  0.918700  0.360690  1.0  1.5172
  P  P7  1  0.655600  0.083300  0.894200  1.0  1.4809
  P  P8  1  0.305600  0.081300  0.860690  1.0  1.516
  P  P9  1  0.155600  0.416700  0.105800  1.0  1.4828
  P  P10  1  0.805600  0.418700  0.139310  1.0  1.5163
  P  P11  1  0.344400  0.583300  0.605800  1.0  1.4816
  P  P12  1  0.694400  0.581300  0.639310  1.0  1.5185
  H  H13  1  0.134800  0.796900  0.566100  1.0  0.4201
  H  H14  1  0.144600  0.048000  0.589900  1.0  0.1718
  H  H15  1  0.967700  0.038700  0.614700  1.0  0.1828
  H  H16  1  0.028900  0.120000  0.503900  1.0  0.1798
  H  H17  1  0.365200  0.203100  0.066100  1.0  0.4196
  H  H18  1  0.355400  0.952000  0.089900  1.0  0.1749
  H  H19  1  0.532300  0.961300  0.114700  1.0  0.1828
  H  H20  1  0.471100  0.880000  0.003900  1.0  0.1776
  H  H21  1  0.865200  0.296900  0.933900  1.0  0.421
  H  H22  1  0.855400  0.548000  0.910100  1.0  0.1744
  H  H23  1  0.032300  0.538700  0.885300  1.0  0.1817
  H  H24  1  0.971100  0.620000  0.996100  1.0  0.1802
  H  H25  1  0.634800  0.703100  0.433900  1.0  0.4198
  H  H26  1  0.644600  0.452000  0.410100  1.0  0.1725
  H  H27  1  0.467700  0.461300  0.385300  1.0  0.1818
  H  H28  1  0.528900  0.380000  0.496100  1.0  0.1787
  C  C29  1  0.036000  0.928000  0.470600  1.0  -0.3297
  C  C30  1  0.045200  0.044200  0.552100  1.0  -0.2808
  C  C31  1  0.464000  0.072000  0.970600  1.0  -0.3282
  C  C32  1  0.454800  0.955800  0.052100  1.0  -0.2807
  C  C33  1  0.964000  0.428000  0.029400  1.0  -0.3293
  C  C34  1  0.954800  0.544200  0.947900  1.0  -0.28
  C  C35  1  0.536000  0.572000  0.529400  1.0  -0.3297
  C  C36  1  0.545200  0.455800  0.447900  1.0  -0.2812
  O  O37  1  0.847200  0.004400  0.282700  1.0  -0.8755
  O  O38  1  0.824200  0.775900  0.359600  1.0  -0.7626
  O  O39  1  0.723600  0.959100  0.485900  1.0  -0.881
  O  O40  1  0.172100  0.786600  0.299700  1.0  -0.7922
  O  O41  1  0.179500  0.028800  0.269500  1.0  -0.8405
  O  O42  1  0.342800  0.930000  0.434500  1.0  -0.8591
  O  O43  1  0.045700  0.808700  0.544700  1.0  -0.5797
  O  O44  1  0.652800  0.995600  0.782700  1.0  -0.8756
  O  O45  1  0.675800  0.224100  0.859600  1.0  -0.7624
  O  O46  1  0.776400  0.040900  0.985900  1.0  -0.8812
  O  O47  1  0.327900  0.213400  0.799700  1.0  -0.7924
  O  O48  1  0.320500  0.971200  0.769500  1.0  -0.8407
  O  O49  1  0.157200  0.070000  0.934500  1.0  -0.8567
  O  O50  1  0.454300  0.191300  0.044700  1.0  -0.5773
  O  O51  1  0.152800  0.504400  0.217300  1.0  -0.8767
  O  O52  1  0.175800  0.275900  0.140400  1.0  -0.7619
  O  O53  1  0.276400  0.459100  0.014100  1.0  -0.8812
  O  O54  1  0.827900  0.286600  0.200300  1.0  -0.7916
  O  O55  1  0.820500  0.528800  0.230500  1.0  -0.8405
  O  O56  1  0.657200  0.430000  0.065500  1.0  -0.8574
  O  O57  1  0.954300  0.308700  0.955300  1.0  -0.5778
  O  O58  1  0.347200  0.495600  0.717300  1.0  -0.8774
  O  O59  1  0.324200  0.724100  0.640400  1.0  -0.7626
  O  O60  1  0.223600  0.540900  0.514100  1.0  -0.8797
  O  O61  1  0.672100  0.713400  0.700300  1.0  -0.7916
  O  O62  1  0.679500  0.471200  0.730500  1.0  -0.8408
  O  O63  1  0.842800  0.570000  0.565500  1.0  -0.8587
  O  O64  1  0.545700  0.691300  0.455300  1.0  -0.5782
