# generated using pymatgen
data_Ag3H12(C2N5)2
_symmetry_space_group_name_H-M   'P 1'
_cell_length_a   29.58620000
_cell_length_b   29.58620000
_cell_length_c   3.45630000
_cell_angle_alpha   90.00000000
_cell_angle_beta   90.00000000
_cell_angle_gamma   90.00000000
_symmetry_Int_Tables_number   1
_chemical_formula_structural   Ag3H12(C2N5)2
_chemical_formula_sum   'Ag24 H96 C32 N80'
_cell_volume   3025.44880737
_cell_formula_units_Z   8
loop_
 _symmetry_equiv_pos_site_id
 _symmetry_equiv_pos_as_xyz
  1  'x, y, z'
loop_
 _atom_site_type_symbol
 _atom_site_label
 _atom_site_symmetry_multiplicity
 _atom_site_fract_x
 _atom_site_fract_y
 _atom_site_fract_z
 _atom_site_occupancy
 _atom_site_charge
  Ag  Ag1  1  0.060440  0.689560  0.125000  1.0  0.2277
  Ag  Ag2  1  0.439560  0.310440  0.625000  1.0  0.2289
  Ag  Ag3  1  0.560440  0.810440  0.375000  1.0  0.2271
  Ag  Ag4  1  0.939560  0.189560  0.875000  1.0  0.229
  Ag  Ag5  1  0.439560  0.689560  0.375000  1.0  0.229
  Ag  Ag6  1  0.060440  0.310440  0.875000  1.0  0.2271
  Ag  Ag7  1  0.939560  0.810440  0.125000  1.0  0.2289
  Ag  Ag8  1  0.560440  0.189560  0.625000  1.0  0.2277
  Ag  Ag9  1  0.939560  0.310440  0.875000  1.0  0.2288
  Ag  Ag10  1  0.560440  0.689560  0.375000  1.0  0.2278
  Ag  Ag11  1  0.439560  0.189560  0.625000  1.0  0.2288
  Ag  Ag12  1  0.060440  0.810440  0.125000  1.0  0.2272
  Ag  Ag13  1  0.560440  0.310440  0.625000  1.0  0.2272
  Ag  Ag14  1  0.939560  0.689560  0.125000  1.0  0.2288
  Ag  Ag15  1  0.060440  0.189560  0.875000  1.0  0.2278
  Ag  Ag16  1  0.439560  0.810440  0.375000  1.0  0.2288
  Ag  Ag17  1  0.250000  0.750000  0.750000  1.0  0.2455
  Ag  Ag18  1  0.250000  0.250000  0.250000  1.0  0.2455
  Ag  Ag19  1  0.500000  0.000000  0.000000  1.0  0.2455
  Ag  Ag20  1  0.000000  0.500000  0.500000  1.0  0.2455
  Ag  Ag21  1  0.000000  0.000000  0.500000  1.0  0.2455
  Ag  Ag22  1  0.500000  0.500000  0.000000  1.0  0.2455
  Ag  Ag23  1  0.750000  0.250000  0.250000  1.0  0.2455
  Ag  Ag24  1  0.750000  0.750000  0.750000  1.0  0.2455
  H  H25  1  0.150300  0.648500  0.420300  1.0  0.1691
  H  H26  1  0.195600  0.661900  0.568200  1.0  0.2197
  H  H27  1  0.166200  0.685100  0.481700  1.0  0.2161
  H  H28  1  0.650300  0.148500  0.920300  1.0  0.1691
  H  H29  1  0.695600  0.161900  0.068200  1.0  0.2197
  H  H30  1  0.666200  0.185100  0.981700  1.0  0.2161
  H  H31  1  0.349700  0.351500  0.920300  1.0  0.1703
  H  H32  1  0.304400  0.338100  0.068200  1.0  0.221
  H  H33  1  0.333800  0.314900  0.981700  1.0  0.2181
  H  H34  1  0.849700  0.851500  0.420300  1.0  0.1703
  H  H35  1  0.804400  0.838100  0.568200  1.0  0.221
  H  H36  1  0.833800  0.814900  0.481700  1.0  0.2181
  H  H37  1  0.601500  0.900300  0.670300  1.0  0.1714
  H  H38  1  0.588100  0.945600  0.818200  1.0  0.2192
  H  H39  1  0.564900  0.916200  0.731700  1.0  0.2172
  H  H40  1  0.101500  0.400300  0.170300  1.0  0.1714
  H  H41  1  0.088100  0.445600  0.318200  1.0  0.2192
  H  H42  1  0.064900  0.416200  0.231700  1.0  0.2172
  H  H43  1  0.898500  0.099700  0.170300  1.0  0.1727
  H  H44  1  0.911900  0.054400  0.318200  1.0  0.2178
  H  H45  1  0.935100  0.083800  0.231700  1.0  0.2186
  H  H46  1  0.398500  0.599700  0.670300  1.0  0.1727
  H  H47  1  0.411900  0.554400  0.818200  1.0  0.2178
  H  H48  1  0.435100  0.583800  0.731700  1.0  0.2186
  H  H49  1  0.349700  0.648500  0.079700  1.0  0.1665
  H  H50  1  0.304400  0.661900  0.931800  1.0  0.2213
  H  H51  1  0.333800  0.685100  0.018300  1.0  0.2168
  H  H52  1  0.849700  0.148500  0.579700  1.0  0.1665
  H  H53  1  0.804400  0.161900  0.431800  1.0  0.2213
  H  H54  1  0.833800  0.185100  0.518300  1.0  0.2168
  H  H55  1  0.150300  0.351500  0.579700  1.0  0.1713
  H  H56  1  0.195600  0.338100  0.431800  1.0  0.2176
  H  H57  1  0.166200  0.314900  0.518300  1.0  0.2167
  H  H58  1  0.650300  0.851500  0.079700  1.0  0.1713
  H  H59  1  0.695600  0.838100  0.931800  1.0  0.2176
  H  H60  1  0.666200  0.814900  0.018300  1.0  0.2167
  H  H61  1  0.898500  0.900300  0.829700  1.0  0.1736
  H  H62  1  0.911900  0.945600  0.681800  1.0  0.2228
  H  H63  1  0.935100  0.916200  0.768300  1.0  0.2185
  H  H64  1  0.398500  0.400300  0.329700  1.0  0.1736
  H  H65  1  0.411900  0.445600  0.181800  1.0  0.2228
  H  H66  1  0.435100  0.416200  0.268300  1.0  0.2185
  H  H67  1  0.601500  0.099700  0.329700  1.0  0.1742
  H  H68  1  0.588100  0.054400  0.181800  1.0  0.2168
  H  H69  1  0.564900  0.083800  0.268300  1.0  0.2172
  H  H70  1  0.101500  0.599700  0.829700  1.0  0.1742
  H  H71  1  0.088100  0.554400  0.681800  1.0  0.2168
  H  H72  1  0.064900  0.583800  0.768300  1.0  0.2172
  H  H73  1  0.849700  0.351500  0.579700  1.0  0.1716
  H  H74  1  0.804400  0.338100  0.431800  1.0  0.2214
  H  H75  1  0.833800  0.314900  0.518300  1.0  0.2184
  H  H76  1  0.349700  0.851500  0.079700  1.0  0.1716
  H  H77  1  0.304400  0.838100  0.931800  1.0  0.2214
  H  H78  1  0.333800  0.814900  0.018300  1.0  0.2184
  H  H79  1  0.650300  0.648500  0.079700  1.0  0.1686
  H  H80  1  0.695600  0.661900  0.931800  1.0  0.2188
  H  H81  1  0.666200  0.685100  0.018300  1.0  0.2166
  H  H82  1  0.150300  0.148500  0.579700  1.0  0.1686
  H  H83  1  0.195600  0.161900  0.431800  1.0  0.2188
  H  H84  1  0.166200  0.185100  0.518300  1.0  0.2166
  H  H85  1  0.398500  0.099700  0.329700  1.0  0.1738
  H  H86  1  0.411900  0.054400  0.181800  1.0  0.2186
  H  H87  1  0.435100  0.083800  0.268300  1.0  0.2188
  H  H88  1  0.898500  0.599700  0.829700  1.0  0.1738
  H  H89  1  0.911900  0.554400  0.681800  1.0  0.2186
  H  H90  1  0.935100  0.583800  0.768300  1.0  0.2188
  H  H91  1  0.101500  0.900300  0.829700  1.0  0.1717
  H  H92  1  0.088100  0.945600  0.681800  1.0  0.2197
  H  H93  1  0.064900  0.916200  0.768300  1.0  0.2174
  H  H94  1  0.601500  0.400300  0.329700  1.0  0.1717
  H  H95  1  0.588100  0.445600  0.181800  1.0  0.2197
  H  H96  1  0.564900  0.416200  0.268300  1.0  0.2174
  H  H97  1  0.650300  0.351500  0.920300  1.0  0.171
  H  H98  1  0.695600  0.338100  0.068200  1.0  0.2179
  H  H99  1  0.666200  0.314900  0.981700  1.0  0.2166
  H  H100  1  0.150300  0.851500  0.420300  1.0  0.171
  H  H101  1  0.195600  0.838100  0.568200  1.0  0.2179
  H  H102  1  0.166200  0.814900  0.481700  1.0  0.2166
  H  H103  1  0.849700  0.648500  0.420300  1.0  0.1659
  H  H104  1  0.804400  0.661900  0.568200  1.0  0.2209
  H  H105  1  0.833800  0.685100  0.481700  1.0  0.2167
  H  H106  1  0.349700  0.148500  0.920300  1.0  0.1659
  H  H107  1  0.304400  0.161900  0.068200  1.0  0.2209
  H  H108  1  0.333800  0.185100  0.981700  1.0  0.2167
  H  H109  1  0.101500  0.099700  0.170300  1.0  0.1729
  H  H110  1  0.088100  0.054400  0.318200  1.0  0.2172
  H  H111  1  0.064900  0.083800  0.231700  1.0  0.2172
  H  H112  1  0.601500  0.599700  0.670300  1.0  0.1729
  H  H113  1  0.588100  0.554400  0.818200  1.0  0.2172
  H  H114  1  0.564900  0.583800  0.731700  1.0  0.2172
  H  H115  1  0.398500  0.900300  0.670300  1.0  0.1733
  H  H116  1  0.411900  0.945600  0.818200  1.0  0.2215
  H  H117  1  0.435100  0.916200  0.731700  1.0  0.2186
  H  H118  1  0.898500  0.400300  0.170300  1.0  0.1733
  H  H119  1  0.911900  0.445600  0.318200  1.0  0.2215
  H  H120  1  0.935100  0.416200  0.231700  1.0  0.2186
  C  C121  1  0.157100  0.714900  0.453000  1.0  0.1063
  C  C122  1  0.657100  0.214900  0.953000  1.0  0.1063
  C  C123  1  0.342900  0.285100  0.953000  1.0  0.1015
  C  C124  1  0.842900  0.785100  0.453000  1.0  0.1015
  C  C125  1  0.535100  0.907100  0.703000  1.0  0.1083
  C  C126  1  0.035100  0.407100  0.203000  1.0  0.1083
  C  C127  1  0.964900  0.092900  0.203000  1.0  0.1033
  C  C128  1  0.464900  0.592900  0.703000  1.0  0.1033
  C  C129  1  0.342900  0.714900  0.047000  1.0  0.1041
  C  C130  1  0.842900  0.214900  0.547000  1.0  0.1041
  C  C131  1  0.157100  0.285100  0.547000  1.0  0.1029
  C  C132  1  0.657100  0.785100  0.047000  1.0  0.1029
  C  C133  1  0.964900  0.907100  0.797000  1.0  0.1041
  C  C134  1  0.464900  0.407100  0.297000  1.0  0.1041
  C  C135  1  0.535100  0.092900  0.297000  1.0  0.1073
  C  C136  1  0.035100  0.592900  0.797000  1.0  0.1073
  C  C137  1  0.842900  0.285100  0.547000  1.0  0.0997
  C  C138  1  0.342900  0.785100  0.047000  1.0  0.0997
  C  C139  1  0.657100  0.714900  0.047000  1.0  0.1046
  C  C140  1  0.157100  0.214900  0.547000  1.0  0.1046
  C  C141  1  0.464900  0.092900  0.297000  1.0  0.1018
  C  C142  1  0.964900  0.592900  0.797000  1.0  0.1018
  C  C143  1  0.035100  0.907100  0.797000  1.0  0.1065
  C  C144  1  0.535100  0.407100  0.297000  1.0  0.1065
  C  C145  1  0.657100  0.285100  0.953000  1.0  0.1015
  C  C146  1  0.157100  0.785100  0.453000  1.0  0.1015
  C  C147  1  0.842900  0.714900  0.453000  1.0  0.1024
  C  C148  1  0.342900  0.214900  0.953000  1.0  0.1024
  C  C149  1  0.035100  0.092900  0.203000  1.0  0.1061
  C  C150  1  0.535100  0.592900  0.703000  1.0  0.1061
  C  C151  1  0.464900  0.907100  0.703000  1.0  0.1026
  C  C152  1  0.964900  0.407100  0.203000  1.0  0.1026
  N  N153  1  0.116990  0.726520  0.326200  1.0  -0.3542
  N  N154  1  0.169200  0.669200  0.485000  1.0  -0.3399
  N  N155  1  0.616990  0.226520  0.826200  1.0  -0.3542
  N  N156  1  0.669200  0.169200  0.985000  1.0  -0.3399
  N  N157  1  0.383010  0.273480  0.826200  1.0  -0.3542
  N  N158  1  0.330800  0.330800  0.985000  1.0  -0.3405
  N  N159  1  0.883010  0.773480  0.326200  1.0  -0.3542
  N  N160  1  0.830800  0.830800  0.485000  1.0  -0.3405
  N  N161  1  0.523480  0.866990  0.576200  1.0  -0.3562
  N  N162  1  0.580800  0.919200  0.735000  1.0  -0.3398
  N  N163  1  0.023480  0.366990  0.076200  1.0  -0.3562
  N  N164  1  0.080800  0.419200  0.235000  1.0  -0.3398
  N  N165  1  0.976520  0.133010  0.076200  1.0  -0.3579
  N  N166  1  0.919200  0.080800  0.235000  1.0  -0.3444
  N  N167  1  0.476520  0.633010  0.576200  1.0  -0.3579
  N  N168  1  0.419200  0.580800  0.735000  1.0  -0.3444
  N  N169  1  0.383010  0.726520  0.173800  1.0  -0.3532
  N  N170  1  0.330800  0.669200  0.015000  1.0  -0.3415
  N  N171  1  0.883010  0.226520  0.673800  1.0  -0.3532
  N  N172  1  0.830800  0.169200  0.515000  1.0  -0.3415
  N  N173  1  0.116990  0.273480  0.673800  1.0  -0.3528
  N  N174  1  0.169200  0.330800  0.515000  1.0  -0.3425
  N  N175  1  0.616990  0.773480  0.173800  1.0  -0.3528
  N  N176  1  0.669200  0.830800  0.015000  1.0  -0.3425
  N  N177  1  0.976520  0.866990  0.923800  1.0  -0.3573
  N  N178  1  0.919200  0.919200  0.765000  1.0  -0.3448
  N  N179  1  0.476520  0.366990  0.423800  1.0  -0.3573
  N  N180  1  0.419200  0.419200  0.265000  1.0  -0.3448
  N  N181  1  0.523480  0.133010  0.423800  1.0  -0.3568
  N  N182  1  0.580800  0.080800  0.265000  1.0  -0.343
  N  N183  1  0.023480  0.633010  0.923800  1.0  -0.3568
  N  N184  1  0.080800  0.580800  0.765000  1.0  -0.343
  N  N185  1  0.883010  0.273480  0.673800  1.0  -0.3534
  N  N186  1  0.830800  0.330800  0.515000  1.0  -0.3411
  N  N187  1  0.383010  0.773480  0.173800  1.0  -0.3534
  N  N188  1  0.330800  0.830800  0.015000  1.0  -0.3411
  N  N189  1  0.616990  0.726520  0.173800  1.0  -0.3534
  N  N190  1  0.669200  0.669200  0.015000  1.0  -0.3401
  N  N191  1  0.116990  0.226520  0.673800  1.0  -0.3534
  N  N192  1  0.169200  0.169200  0.515000  1.0  -0.3401
  N  N193  1  0.476520  0.133010  0.423800  1.0  -0.3572
  N  N194  1  0.419200  0.080800  0.265000  1.0  -0.3446
  N  N195  1  0.976520  0.633010  0.923800  1.0  -0.3572
  N  N196  1  0.919200  0.580800  0.765000  1.0  -0.3446
  N  N197  1  0.023480  0.866990  0.923800  1.0  -0.3563
  N  N198  1  0.080800  0.919200  0.765000  1.0  -0.3405
  N  N199  1  0.523480  0.366990  0.423800  1.0  -0.3563
  N  N200  1  0.580800  0.419200  0.265000  1.0  -0.3405
  N  N201  1  0.616990  0.273480  0.826200  1.0  -0.3536
  N  N202  1  0.669200  0.330800  0.985000  1.0  -0.3425
  N  N203  1  0.116990  0.773480  0.326200  1.0  -0.3536
  N  N204  1  0.169200  0.830800  0.485000  1.0  -0.3425
  N  N205  1  0.883010  0.726520  0.326200  1.0  -0.354
  N  N206  1  0.830800  0.669200  0.485000  1.0  -0.3418
  N  N207  1  0.383010  0.226520  0.826200  1.0  -0.354
  N  N208  1  0.330800  0.169200  0.985000  1.0  -0.3418
  N  N209  1  0.023480  0.133010  0.076200  1.0  -0.3574
  N  N210  1  0.080800  0.080800  0.235000  1.0  -0.3432
  N  N211  1  0.523480  0.633010  0.576200  1.0  -0.3574
  N  N212  1  0.580800  0.580800  0.735000  1.0  -0.3432
  N  N213  1  0.476520  0.866990  0.576200  1.0  -0.3574
  N  N214  1  0.419200  0.919200  0.735000  1.0  -0.3446
  N  N215  1  0.976520  0.366990  0.076200  1.0  -0.3574
  N  N216  1  0.919200  0.419200  0.235000  1.0  -0.3446
  N  N217  1  0.183600  0.750000  0.537000  1.0  -0.3749
  N  N218  1  0.316400  0.250000  0.037000  1.0  -0.3837
  N  N219  1  0.500000  0.933600  0.787000  1.0  -0.3836
  N  N220  1  0.000000  0.433600  0.287000  1.0  -0.3836
  N  N221  1  0.000000  0.066400  0.287000  1.0  -0.3796
  N  N222  1  0.500000  0.566400  0.787000  1.0  -0.3796
  N  N223  1  0.316400  0.750000  0.963000  1.0  -0.3829
  N  N224  1  0.183600  0.250000  0.463000  1.0  -0.3741
  N  N225  1  0.000000  0.933600  0.713000  1.0  -0.3824
  N  N226  1  0.500000  0.433600  0.213000  1.0  -0.3824
  N  N227  1  0.500000  0.066400  0.213000  1.0  -0.3784
  N  N228  1  0.000000  0.566400  0.713000  1.0  -0.3784
  N  N229  1  0.816400  0.250000  0.463000  1.0  -0.3829
  N  N230  1  0.683600  0.750000  0.963000  1.0  -0.3741
  N  N231  1  0.683600  0.250000  0.037000  1.0  -0.3749
  N  N232  1  0.816400  0.750000  0.537000  1.0  -0.3837
