# generated using pymatgen
data_Ag3H12(C2N5)2
_symmetry_space_group_name_H-M   'P 1'
_cell_length_a   3.40990000
_cell_length_b   39.80500000
_cell_length_c   43.60700000
_cell_angle_alpha   90.00000000
_cell_angle_beta   90.00000000
_cell_angle_gamma   90.00000000
_symmetry_Int_Tables_number   1
_chemical_formula_structural   Ag3H12(C2N5)2
_chemical_formula_sum   'Ag48 H192 C64 N160'
_cell_volume   5918.82474769
_cell_formula_units_Z   16
loop_
 _symmetry_equiv_pos_site_id
 _symmetry_equiv_pos_as_xyz
  1  'x, y, z'
loop_
 _atom_site_type_symbol
 _atom_site_label
 _atom_site_symmetry_multiplicity
 _atom_site_fract_x
 _atom_site_fract_y
 _atom_site_fract_z
 _atom_site_occupancy
 _atom_site_charge
  Ag  Ag1  1  0.125000  0.555740  0.125000  1.0  0.251
  Ag  Ag2  1  0.125000  0.055740  0.625000  1.0  0.251
  Ag  Ag3  1  0.625000  0.194260  0.125000  1.0  0.2488
  Ag  Ag4  1  0.625000  0.694260  0.625000  1.0  0.2488
  Ag  Ag5  1  0.625000  0.555740  0.625000  1.0  0.251
  Ag  Ag6  1  0.625000  0.055740  0.125000  1.0  0.251
  Ag  Ag7  1  0.125000  0.194260  0.625000  1.0  0.2488
  Ag  Ag8  1  0.125000  0.694260  0.125000  1.0  0.2488
  Ag  Ag9  1  0.875000  0.444260  0.875000  1.0  0.2488
  Ag  Ag10  1  0.875000  0.944260  0.375000  1.0  0.2488
  Ag  Ag11  1  0.375000  0.805740  0.875000  1.0  0.251
  Ag  Ag12  1  0.375000  0.305740  0.375000  1.0  0.251
  Ag  Ag13  1  0.375000  0.444260  0.375000  1.0  0.2488
  Ag  Ag14  1  0.375000  0.944260  0.875000  1.0  0.2488
  Ag  Ag15  1  0.875000  0.805740  0.375000  1.0  0.251
  Ag  Ag16  1  0.875000  0.305740  0.875000  1.0  0.251
  Ag  Ag17  1  0.125000  0.625000  0.072250  1.0  0.2159
  Ag  Ag18  1  0.125000  0.125000  0.572250  1.0  0.2159
  Ag  Ag19  1  0.625000  0.125000  0.072250  1.0  0.2159
  Ag  Ag20  1  0.625000  0.625000  0.572250  1.0  0.2159
  Ag  Ag21  1  0.625000  0.625000  0.677750  1.0  0.2141
  Ag  Ag22  1  0.625000  0.125000  0.177750  1.0  0.2141
  Ag  Ag23  1  0.125000  0.125000  0.677750  1.0  0.2141
  Ag  Ag24  1  0.125000  0.625000  0.177750  1.0  0.2141
  Ag  Ag25  1  0.875000  0.375000  0.927750  1.0  0.2141
  Ag  Ag26  1  0.875000  0.875000  0.427750  1.0  0.2141
  Ag  Ag27  1  0.375000  0.875000  0.927750  1.0  0.2141
  Ag  Ag28  1  0.375000  0.375000  0.427750  1.0  0.2141
  Ag  Ag29  1  0.375000  0.375000  0.322250  1.0  0.2159
  Ag  Ag30  1  0.375000  0.875000  0.822250  1.0  0.2159
  Ag  Ag31  1  0.875000  0.875000  0.322250  1.0  0.2159
  Ag  Ag32  1  0.875000  0.375000  0.822250  1.0  0.2159
  Ag  Ag33  1  0.500000  0.500000  0.000000  1.0  0.2633
  Ag  Ag34  1  0.500000  0.000000  0.500000  1.0  0.2633
  Ag  Ag35  1  0.000000  0.500000  0.500000  1.0  0.2633
  Ag  Ag36  1  0.000000  0.000000  0.000000  1.0  0.2633
  Ag  Ag37  1  0.250000  0.250000  0.000000  1.0  0.2633
  Ag  Ag38  1  0.250000  0.750000  0.500000  1.0  0.2633
  Ag  Ag39  1  0.250000  0.500000  0.750000  1.0  0.2633
  Ag  Ag40  1  0.250000  0.000000  0.250000  1.0  0.2633
  Ag  Ag41  1  0.500000  0.250000  0.750000  1.0  0.2633
  Ag  Ag42  1  0.000000  0.250000  0.250000  1.0  0.2633
  Ag  Ag43  1  0.750000  0.750000  0.000000  1.0  0.2633
  Ag  Ag44  1  0.750000  0.250000  0.500000  1.0  0.2633
  Ag  Ag45  1  0.750000  0.500000  0.250000  1.0  0.2633
  Ag  Ag46  1  0.750000  0.000000  0.750000  1.0  0.2633
  Ag  Ag47  1  0.500000  0.750000  0.250000  1.0  0.2633
  Ag  Ag48  1  0.000000  0.750000  0.750000  1.0  0.2633
  H  H49  1  0.693200  0.473000  0.064900  1.0  0.2479
  H  H50  1  0.822500  0.487100  0.096800  1.0  0.2584
  H  H51  1  0.704000  0.575800  0.987900  1.0  0.2428
  H  H52  1  0.841500  0.606900  0.006900  1.0  0.108
  H  H53  1  0.761600  0.577300  0.015200  1.0  0.1996
  H  H54  1  0.755300  0.501300  0.072700  1.0  0.2096
  H  H55  1  0.693200  0.973000  0.564900  1.0  0.2479
  H  H56  1  0.822500  0.987100  0.596800  1.0  0.2584
  H  H57  1  0.704000  0.075800  0.487900  1.0  0.2428
  H  H58  1  0.841500  0.106900  0.506900  1.0  0.108
  H  H59  1  0.761600  0.077300  0.515200  1.0  0.1996
  H  H60  1  0.755300  0.001300  0.572700  1.0  0.2096
  H  H61  1  0.193200  0.473000  0.564900  1.0  0.2479
  H  H62  1  0.322500  0.487100  0.596800  1.0  0.2584
  H  H63  1  0.204000  0.575800  0.487900  1.0  0.2428
  H  H64  1  0.341500  0.606900  0.506900  1.0  0.108
  H  H65  1  0.261600  0.577300  0.515200  1.0  0.1996
  H  H66  1  0.255300  0.501300  0.572700  1.0  0.2096
  H  H67  1  0.193200  0.973000  0.064900  1.0  0.2479
  H  H68  1  0.322500  0.987100  0.096800  1.0  0.2584
  H  H69  1  0.204000  0.075800  0.987900  1.0  0.2428
  H  H70  1  0.341500  0.106900  0.006900  1.0  0.108
  H  H71  1  0.261600  0.077300  0.015200  1.0  0.1996
  H  H72  1  0.255300  0.001300  0.072700  1.0  0.2096
  H  H73  1  0.056800  0.277000  0.064900  1.0  0.2519
  H  H74  1  0.927500  0.262900  0.096800  1.0  0.2575
  H  H75  1  0.046000  0.174200  0.987900  1.0  0.2431
  H  H76  1  0.908500  0.143100  0.006900  1.0  0.1054
  H  H77  1  0.988400  0.172700  0.015200  1.0  0.2034
  H  H78  1  0.994700  0.248700  0.072700  1.0  0.2098
  H  H79  1  0.056800  0.777000  0.564900  1.0  0.2519
  H  H80  1  0.927500  0.762900  0.596800  1.0  0.2575
  H  H81  1  0.046000  0.674200  0.487900  1.0  0.2431
  H  H82  1  0.908500  0.643100  0.506900  1.0  0.1054
  H  H83  1  0.988400  0.672700  0.515200  1.0  0.2034
  H  H84  1  0.994700  0.748700  0.572700  1.0  0.2098
  H  H85  1  0.556800  0.277000  0.564900  1.0  0.2519
  H  H86  1  0.427500  0.262900  0.596800  1.0  0.2575
  H  H87  1  0.546000  0.174200  0.487900  1.0  0.2431
  H  H88  1  0.408500  0.143100  0.506900  1.0  0.1054
  H  H89  1  0.488400  0.172700  0.515200  1.0  0.2034
  H  H90  1  0.494700  0.248700  0.572700  1.0  0.2098
  H  H91  1  0.556800  0.777000  0.064900  1.0  0.2519
  H  H92  1  0.427500  0.762900  0.096800  1.0  0.2575
  H  H93  1  0.546000  0.674200  0.987900  1.0  0.2431
  H  H94  1  0.408500  0.643100  0.006900  1.0  0.1054
  H  H95  1  0.488400  0.672700  0.015200  1.0  0.2034
  H  H96  1  0.494700  0.748700  0.072700  1.0  0.2098
  H  H97  1  0.056800  0.473000  0.685100  1.0  0.2473
  H  H98  1  0.927500  0.487100  0.653200  1.0  0.2566
  H  H99  1  0.046000  0.575800  0.762100  1.0  0.2483
  H  H100  1  0.908500  0.606900  0.743100  1.0  0.1073
  H  H101  1  0.988400  0.577300  0.734800  1.0  0.2044
  H  H102  1  0.994700  0.501300  0.677300  1.0  0.2092
  H  H103  1  0.056800  0.973000  0.185100  1.0  0.2473
  H  H104  1  0.927500  0.987100  0.153200  1.0  0.2566
  H  H105  1  0.046000  0.075800  0.262100  1.0  0.2483
  H  H106  1  0.908500  0.106900  0.243100  1.0  0.1073
  H  H107  1  0.988400  0.077300  0.234800  1.0  0.2044
  H  H108  1  0.994700  0.001300  0.177300  1.0  0.2092
  H  H109  1  0.556800  0.473000  0.185100  1.0  0.2473
  H  H110  1  0.427500  0.487100  0.153200  1.0  0.2566
  H  H111  1  0.546000  0.575800  0.262100  1.0  0.2483
  H  H112  1  0.408500  0.606900  0.243100  1.0  0.1073
  H  H113  1  0.488400  0.577300  0.234800  1.0  0.2044
  H  H114  1  0.494700  0.501300  0.177300  1.0  0.2092
  H  H115  1  0.556800  0.973000  0.685100  1.0  0.2473
  H  H116  1  0.427500  0.987100  0.653200  1.0  0.2566
  H  H117  1  0.546000  0.075800  0.762100  1.0  0.2483
  H  H118  1  0.408500  0.106900  0.743100  1.0  0.1073
  H  H119  1  0.488400  0.077300  0.734800  1.0  0.2044
  H  H120  1  0.494700  0.001300  0.677300  1.0  0.2092
  H  H121  1  0.693200  0.277000  0.685100  1.0  0.2505
  H  H122  1  0.822500  0.262900  0.653200  1.0  0.2567
  H  H123  1  0.704000  0.174200  0.762100  1.0  0.246
  H  H124  1  0.841500  0.143100  0.743100  1.0  0.1074
  H  H125  1  0.761600  0.172700  0.734800  1.0  0.2068
  H  H126  1  0.755300  0.248700  0.677300  1.0  0.2079
  H  H127  1  0.693200  0.777000  0.185100  1.0  0.2505
  H  H128  1  0.822500  0.762900  0.153200  1.0  0.2567
  H  H129  1  0.704000  0.674200  0.262100  1.0  0.246
  H  H130  1  0.841500  0.643100  0.243100  1.0  0.1074
  H  H131  1  0.761600  0.672700  0.234800  1.0  0.2068
  H  H132  1  0.755300  0.748700  0.177300  1.0  0.2079
  H  H133  1  0.193200  0.277000  0.185100  1.0  0.2505
  H  H134  1  0.322500  0.262900  0.153200  1.0  0.2567
  H  H135  1  0.204000  0.174200  0.262100  1.0  0.246
  H  H136  1  0.341500  0.143100  0.243100  1.0  0.1074
  H  H137  1  0.261600  0.172700  0.234800  1.0  0.2068
  H  H138  1  0.255300  0.248700  0.177300  1.0  0.2079
  H  H139  1  0.193200  0.777000  0.685100  1.0  0.2505
  H  H140  1  0.322500  0.762900  0.653200  1.0  0.2567
  H  H141  1  0.204000  0.674200  0.762100  1.0  0.246
  H  H142  1  0.341500  0.643100  0.743100  1.0  0.1074
  H  H143  1  0.261600  0.672700  0.734800  1.0  0.2068
  H  H144  1  0.255300  0.748700  0.677300  1.0  0.2079
  H  H145  1  0.306800  0.527000  0.935100  1.0  0.2504
  H  H146  1  0.177500  0.512900  0.903200  1.0  0.2563
  H  H147  1  0.296000  0.424200  0.012100  1.0  0.2471
  H  H148  1  0.158500  0.393100  0.993100  1.0  0.1061
  H  H149  1  0.238400  0.422700  0.984800  1.0  0.2068
  H  H150  1  0.244700  0.498700  0.927300  1.0  0.209
  H  H151  1  0.306800  0.027000  0.435100  1.0  0.2504
  H  H152  1  0.177500  0.012900  0.403200  1.0  0.2563
  H  H153  1  0.296000  0.924200  0.512100  1.0  0.2471
  H  H154  1  0.158500  0.893100  0.493100  1.0  0.1061
  H  H155  1  0.238400  0.922700  0.484800  1.0  0.2068
  H  H156  1  0.244700  0.998700  0.427300  1.0  0.209
  H  H157  1  0.806800  0.527000  0.435100  1.0  0.2504
  H  H158  1  0.677500  0.512900  0.403200  1.0  0.2563
  H  H159  1  0.796000  0.424200  0.512100  1.0  0.2471
  H  H160  1  0.658500  0.393100  0.493100  1.0  0.1061
  H  H161  1  0.738400  0.422700  0.484800  1.0  0.2068
  H  H162  1  0.744700  0.498700  0.427300  1.0  0.209
  H  H163  1  0.806800  0.027000  0.935100  1.0  0.2504
  H  H164  1  0.677500  0.012900  0.903200  1.0  0.2563
  H  H165  1  0.796000  0.924200  0.012100  1.0  0.2471
  H  H166  1  0.658500  0.893100  0.993100  1.0  0.1061
  H  H167  1  0.738400  0.922700  0.984800  1.0  0.2068
  H  H168  1  0.744700  0.998700  0.927300  1.0  0.209
  H  H169  1  0.943200  0.723000  0.935100  1.0  0.2468
  H  H170  1  0.072500  0.737100  0.903200  1.0  0.2569
  H  H171  1  0.954000  0.825800  0.012100  1.0  0.2473
  H  H172  1  0.091500  0.856900  0.993100  1.0  0.109
  H  H173  1  0.011600  0.827300  0.984800  1.0  0.2035
  H  H174  1  0.005300  0.751300  0.927300  1.0  0.2084
  H  H175  1  0.943200  0.223000  0.435100  1.0  0.2468
  H  H176  1  0.072500  0.237100  0.403200  1.0  0.2569
  H  H177  1  0.954000  0.325800  0.512100  1.0  0.2473
  H  H178  1  0.091500  0.356900  0.493100  1.0  0.109
  H  H179  1  0.011600  0.327300  0.484800  1.0  0.2035
  H  H180  1  0.005300  0.251300  0.427300  1.0  0.2084
  H  H181  1  0.443200  0.723000  0.435100  1.0  0.2468
  H  H182  1  0.572500  0.737100  0.403200  1.0  0.2569
  H  H183  1  0.454000  0.825800  0.512100  1.0  0.2473
  H  H184  1  0.591500  0.856900  0.493100  1.0  0.109
  H  H185  1  0.511600  0.827300  0.484800  1.0  0.2035
  H  H186  1  0.505300  0.751300  0.427300  1.0  0.2084
  H  H187  1  0.443200  0.223000  0.935100  1.0  0.2468
  H  H188  1  0.572500  0.237100  0.903200  1.0  0.2569
  H  H189  1  0.454000  0.325800  0.012100  1.0  0.2473
  H  H190  1  0.591500  0.356900  0.993100  1.0  0.109
  H  H191  1  0.511600  0.327300  0.984800  1.0  0.2035
  H  H192  1  0.505300  0.251300  0.927300  1.0  0.2084
  H  H193  1  0.943200  0.527000  0.314900  1.0  0.2525
  H  H194  1  0.072500  0.512900  0.346800  1.0  0.2579
  H  H195  1  0.954000  0.424200  0.237900  1.0  0.2425
  H  H196  1  0.091500  0.393100  0.256900  1.0  0.1067
  H  H197  1  0.011600  0.422700  0.265200  1.0  0.2028
  H  H198  1  0.005300  0.498700  0.322700  1.0  0.2089
  H  H199  1  0.943200  0.027000  0.814900  1.0  0.2525
  H  H200  1  0.072500  0.012900  0.846800  1.0  0.2579
  H  H201  1  0.954000  0.924200  0.737900  1.0  0.2425
  H  H202  1  0.091500  0.893100  0.756900  1.0  0.1067
  H  H203  1  0.011600  0.922700  0.765200  1.0  0.2028
  H  H204  1  0.005300  0.998700  0.822700  1.0  0.2089
  H  H205  1  0.443200  0.527000  0.814900  1.0  0.2525
  H  H206  1  0.572500  0.512900  0.846800  1.0  0.2579
  H  H207  1  0.454000  0.424200  0.737900  1.0  0.2425
  H  H208  1  0.591500  0.393100  0.756900  1.0  0.1067
  H  H209  1  0.511600  0.422700  0.765200  1.0  0.2028
  H  H210  1  0.505300  0.498700  0.822700  1.0  0.2089
  H  H211  1  0.443200  0.027000  0.314900  1.0  0.2525
  H  H212  1  0.572500  0.012900  0.346800  1.0  0.2579
  H  H213  1  0.454000  0.924200  0.237900  1.0  0.2425
  H  H214  1  0.591500  0.893100  0.256900  1.0  0.1067
  H  H215  1  0.511600  0.922700  0.265200  1.0  0.2028
  H  H216  1  0.505300  0.998700  0.322700  1.0  0.2089
  H  H217  1  0.306800  0.723000  0.314900  1.0  0.248
  H  H218  1  0.177500  0.737100  0.346800  1.0  0.2581
  H  H219  1  0.296000  0.825800  0.237900  1.0  0.2432
  H  H220  1  0.158500  0.856900  0.256900  1.0  0.1066
  H  H221  1  0.238400  0.827300  0.265200  1.0  0.2009
  H  H222  1  0.244700  0.751300  0.322700  1.0  0.2102
  H  H223  1  0.306800  0.223000  0.814900  1.0  0.248
  H  H224  1  0.177500  0.237100  0.846800  1.0  0.2581
  H  H225  1  0.296000  0.325800  0.737900  1.0  0.2432
  H  H226  1  0.158500  0.356900  0.756900  1.0  0.1066
  H  H227  1  0.238400  0.327300  0.765200  1.0  0.2009
  H  H228  1  0.244700  0.251300  0.822700  1.0  0.2102
  H  H229  1  0.806800  0.723000  0.814900  1.0  0.248
  H  H230  1  0.677500  0.737100  0.846800  1.0  0.2581
  H  H231  1  0.796000  0.825800  0.737900  1.0  0.2432
  H  H232  1  0.658500  0.856900  0.756900  1.0  0.1066
  H  H233  1  0.738400  0.827300  0.765200  1.0  0.2009
  H  H234  1  0.744700  0.751300  0.822700  1.0  0.2102
  H  H235  1  0.806800  0.223000  0.314900  1.0  0.248
  H  H236  1  0.677500  0.237100  0.346800  1.0  0.2581
  H  H237  1  0.796000  0.325800  0.237900  1.0  0.2432
  H  H238  1  0.658500  0.356900  0.256900  1.0  0.1066
  H  H239  1  0.738400  0.327300  0.265200  1.0  0.2009
  H  H240  1  0.744700  0.251300  0.322700  1.0  0.2102
  C  C241  1  0.797000  0.564000  0.033300  1.0  0.0527
  C  C242  1  0.794000  0.523200  0.064100  1.0  0.0547
  C  C243  1  0.797000  0.064000  0.533300  1.0  0.0527
  C  C244  1  0.794000  0.023200  0.564100  1.0  0.0547
  C  C245  1  0.297000  0.564000  0.533300  1.0  0.0527
  C  C246  1  0.294000  0.523200  0.564100  1.0  0.0547
  C  C247  1  0.297000  0.064000  0.033300  1.0  0.0527
  C  C248  1  0.294000  0.023200  0.064100  1.0  0.0547
  C  C249  1  0.953000  0.186000  0.033300  1.0  0.0514
  C  C250  1  0.956000  0.226800  0.064100  1.0  0.0519
  C  C251  1  0.953000  0.686000  0.533300  1.0  0.0514
  C  C252  1  0.956000  0.726800  0.564100  1.0  0.0519
  C  C253  1  0.453000  0.186000  0.533300  1.0  0.0514
  C  C254  1  0.456000  0.226800  0.564100  1.0  0.0519
  C  C255  1  0.453000  0.686000  0.033300  1.0  0.0514
  C  C256  1  0.456000  0.726800  0.064100  1.0  0.0519
  C  C257  1  0.953000  0.564000  0.716700  1.0  0.055
  C  C258  1  0.956000  0.523200  0.685900  1.0  0.0537
  C  C259  1  0.953000  0.064000  0.216700  1.0  0.055
  C  C260  1  0.956000  0.023200  0.185900  1.0  0.0537
  C  C261  1  0.453000  0.564000  0.216700  1.0  0.055
  C  C262  1  0.456000  0.523200  0.185900  1.0  0.0537
  C  C263  1  0.453000  0.064000  0.716700  1.0  0.055
  C  C264  1  0.456000  0.023200  0.685900  1.0  0.0537
  C  C265  1  0.797000  0.186000  0.716700  1.0  0.055
  C  C266  1  0.794000  0.226800  0.685900  1.0  0.0505
  C  C267  1  0.797000  0.686000  0.216700  1.0  0.055
  C  C268  1  0.794000  0.726800  0.185900  1.0  0.0505
  C  C269  1  0.297000  0.186000  0.216700  1.0  0.055
  C  C270  1  0.294000  0.226800  0.185900  1.0  0.0505
  C  C271  1  0.297000  0.686000  0.716700  1.0  0.055
  C  C272  1  0.294000  0.726800  0.685900  1.0  0.0505
  C  C273  1  0.203000  0.436000  0.966700  1.0  0.0548
  C  C274  1  0.206000  0.476800  0.935900  1.0  0.051
  C  C275  1  0.203000  0.936000  0.466700  1.0  0.0548
  C  C276  1  0.206000  0.976800  0.435900  1.0  0.051
  C  C277  1  0.703000  0.436000  0.466700  1.0  0.0548
  C  C278  1  0.706000  0.476800  0.435900  1.0  0.051
  C  C279  1  0.703000  0.936000  0.966700  1.0  0.0548
  C  C280  1  0.706000  0.976800  0.935900  1.0  0.051
  C  C281  1  0.047000  0.814000  0.966700  1.0  0.0552
  C  C282  1  0.044000  0.773200  0.935900  1.0  0.0538
  C  C283  1  0.047000  0.314000  0.466700  1.0  0.0552
  C  C284  1  0.044000  0.273200  0.435900  1.0  0.0538
  C  C285  1  0.547000  0.814000  0.466700  1.0  0.0552
  C  C286  1  0.544000  0.773200  0.435900  1.0  0.0538
  C  C287  1  0.547000  0.314000  0.966700  1.0  0.0552
  C  C288  1  0.544000  0.273200  0.935900  1.0  0.0538
  C  C289  1  0.047000  0.436000  0.283300  1.0  0.0518
  C  C290  1  0.044000  0.476800  0.314100  1.0  0.0511
  C  C291  1  0.047000  0.936000  0.783300  1.0  0.0518
  C  C292  1  0.044000  0.976800  0.814100  1.0  0.0511
  C  C293  1  0.547000  0.436000  0.783300  1.0  0.0518
  C  C294  1  0.544000  0.476800  0.814100  1.0  0.0511
  C  C295  1  0.547000  0.936000  0.283300  1.0  0.0518
  C  C296  1  0.544000  0.976800  0.314100  1.0  0.0511
  C  C297  1  0.203000  0.814000  0.283300  1.0  0.0523
  C  C298  1  0.206000  0.773200  0.314100  1.0  0.0549
  C  C299  1  0.203000  0.314000  0.783300  1.0  0.0523
  C  C300  1  0.206000  0.273200  0.814100  1.0  0.0549
  C  C301  1  0.703000  0.814000  0.783300  1.0  0.0523
  C  C302  1  0.706000  0.773200  0.814100  1.0  0.0549
  C  C303  1  0.703000  0.314000  0.283300  1.0  0.0523
  C  C304  1  0.706000  0.273200  0.314100  1.0  0.0549
  N  N305  1  0.928000  0.549350  0.079610  1.0  -0.3328
  N  N306  1  0.934000  0.575990  0.059350  1.0  -0.356
  N  N307  1  0.712000  0.531100  0.034800  1.0  -0.4261
  N  N308  1  0.765000  0.490400  0.076800  1.0  -0.3477
  N  N309  1  0.779000  0.584900  0.005900  1.0  -0.282
  N  N310  1  0.928000  0.049350  0.579610  1.0  -0.3328
  N  N311  1  0.934000  0.075990  0.559350  1.0  -0.356
  N  N312  1  0.712000  0.031100  0.534800  1.0  -0.4261
  N  N313  1  0.765000  0.990400  0.576800  1.0  -0.3477
  N  N314  1  0.779000  0.084900  0.505900  1.0  -0.282
  N  N315  1  0.428000  0.549350  0.579610  1.0  -0.3328
  N  N316  1  0.434000  0.575990  0.559350  1.0  -0.356
  N  N317  1  0.212000  0.531100  0.534800  1.0  -0.4261
  N  N318  1  0.265000  0.490400  0.576800  1.0  -0.3477
  N  N319  1  0.279000  0.584900  0.505900  1.0  -0.282
  N  N320  1  0.428000  0.049350  0.079610  1.0  -0.3328
  N  N321  1  0.434000  0.075990  0.059350  1.0  -0.356
  N  N322  1  0.212000  0.031100  0.034800  1.0  -0.4261
  N  N323  1  0.265000  0.990400  0.076800  1.0  -0.3477
  N  N324  1  0.279000  0.084900  0.005900  1.0  -0.282
  N  N325  1  0.822000  0.200650  0.079610  1.0  -0.3311
  N  N326  1  0.816000  0.174010  0.059350  1.0  -0.3543
  N  N327  1  0.038000  0.218900  0.034800  1.0  -0.4247
  N  N328  1  0.985000  0.259600  0.076800  1.0  -0.3506
  N  N329  1  0.971000  0.165100  0.005900  1.0  -0.2827
  N  N330  1  0.822000  0.700650  0.579610  1.0  -0.3311
  N  N331  1  0.816000  0.674010  0.559350  1.0  -0.3543
  N  N332  1  0.038000  0.718900  0.534800  1.0  -0.4247
  N  N333  1  0.985000  0.759600  0.576800  1.0  -0.3506
  N  N334  1  0.971000  0.665100  0.505900  1.0  -0.2827
  N  N335  1  0.322000  0.200650  0.579610  1.0  -0.3311
  N  N336  1  0.316000  0.174010  0.559350  1.0  -0.3543
  N  N337  1  0.538000  0.218900  0.534800  1.0  -0.4247
  N  N338  1  0.485000  0.259600  0.576800  1.0  -0.3506
  N  N339  1  0.471000  0.165100  0.505900  1.0  -0.2827
  N  N340  1  0.322000  0.700650  0.079610  1.0  -0.3311
  N  N341  1  0.316000  0.674010  0.059350  1.0  -0.3543
  N  N342  1  0.538000  0.718900  0.034800  1.0  -0.4247
  N  N343  1  0.485000  0.759600  0.076800  1.0  -0.3506
  N  N344  1  0.471000  0.665100  0.005900  1.0  -0.2827
  N  N345  1  0.822000  0.549350  0.670390  1.0  -0.333
  N  N346  1  0.816000  0.575990  0.690650  1.0  -0.356
  N  N347  1  0.038000  0.531100  0.715200  1.0  -0.4214
  N  N348  1  0.985000  0.490400  0.673200  1.0  -0.3477
  N  N349  1  0.971000  0.584900  0.744100  1.0  -0.2826
  N  N350  1  0.822000  0.049350  0.170390  1.0  -0.333
  N  N351  1  0.816000  0.075990  0.190650  1.0  -0.356
  N  N352  1  0.038000  0.031100  0.215200  1.0  -0.4214
  N  N353  1  0.985000  0.990400  0.173200  1.0  -0.3477
  N  N354  1  0.971000  0.084900  0.244100  1.0  -0.2826
  N  N355  1  0.322000  0.549350  0.170390  1.0  -0.333
  N  N356  1  0.316000  0.575990  0.190650  1.0  -0.356
  N  N357  1  0.538000  0.531100  0.215200  1.0  -0.4214
  N  N358  1  0.485000  0.490400  0.173200  1.0  -0.3477
  N  N359  1  0.471000  0.584900  0.244100  1.0  -0.2826
  N  N360  1  0.322000  0.049350  0.670390  1.0  -0.333
  N  N361  1  0.316000  0.075990  0.690650  1.0  -0.356
  N  N362  1  0.538000  0.031100  0.715200  1.0  -0.4214
  N  N363  1  0.485000  0.990400  0.673200  1.0  -0.3477
  N  N364  1  0.471000  0.084900  0.744100  1.0  -0.2826
  N  N365  1  0.928000  0.200650  0.670390  1.0  -0.3323
  N  N366  1  0.934000  0.174010  0.690650  1.0  -0.3543
  N  N367  1  0.712000  0.218900  0.715200  1.0  -0.4235
  N  N368  1  0.765000  0.259600  0.673200  1.0  -0.3484
  N  N369  1  0.779000  0.165100  0.744100  1.0  -0.2803
  N  N370  1  0.928000  0.700650  0.170390  1.0  -0.3323
  N  N371  1  0.934000  0.674010  0.190650  1.0  -0.3543
  N  N372  1  0.712000  0.718900  0.215200  1.0  -0.4235
  N  N373  1  0.765000  0.759600  0.173200  1.0  -0.3484
  N  N374  1  0.779000  0.665100  0.244100  1.0  -0.2803
  N  N375  1  0.428000  0.200650  0.170390  1.0  -0.3323
  N  N376  1  0.434000  0.174010  0.190650  1.0  -0.3543
  N  N377  1  0.212000  0.218900  0.215200  1.0  -0.4235
  N  N378  1  0.265000  0.259600  0.173200  1.0  -0.3484
  N  N379  1  0.279000  0.165100  0.244100  1.0  -0.2803
  N  N380  1  0.428000  0.700650  0.670390  1.0  -0.3323
  N  N381  1  0.434000  0.674010  0.690650  1.0  -0.3543
  N  N382  1  0.212000  0.718900  0.715200  1.0  -0.4235
  N  N383  1  0.265000  0.759600  0.673200  1.0  -0.3484
  N  N384  1  0.279000  0.665100  0.744100  1.0  -0.2803
  N  N385  1  0.072000  0.450650  0.920390  1.0  -0.3331
  N  N386  1  0.066000  0.424010  0.940650  1.0  -0.3552
  N  N387  1  0.288000  0.468900  0.965200  1.0  -0.4231
  N  N388  1  0.235000  0.509600  0.923200  1.0  -0.3497
  N  N389  1  0.221000  0.415100  0.994100  1.0  -0.2813
  N  N390  1  0.072000  0.950650  0.420390  1.0  -0.3331
  N  N391  1  0.066000  0.924010  0.440650  1.0  -0.3552
  N  N392  1  0.288000  0.968900  0.465200  1.0  -0.4231
  N  N393  1  0.235000  0.009600  0.423200  1.0  -0.3497
  N  N394  1  0.221000  0.915100  0.494100  1.0  -0.2813
  N  N395  1  0.572000  0.450650  0.420390  1.0  -0.3331
  N  N396  1  0.566000  0.424010  0.440650  1.0  -0.3552
  N  N397  1  0.788000  0.468900  0.465200  1.0  -0.4231
  N  N398  1  0.735000  0.509600  0.423200  1.0  -0.3497
  N  N399  1  0.721000  0.415100  0.494100  1.0  -0.2813
  N  N400  1  0.572000  0.950650  0.920390  1.0  -0.3331
  N  N401  1  0.566000  0.924010  0.940650  1.0  -0.3552
  N  N402  1  0.788000  0.968900  0.965200  1.0  -0.4231
  N  N403  1  0.735000  0.009600  0.923200  1.0  -0.3497
  N  N404  1  0.721000  0.915100  0.994100  1.0  -0.2813
  N  N405  1  0.178000  0.799350  0.920390  1.0  -0.3333
  N  N406  1  0.184000  0.825990  0.940650  1.0  -0.3556
  N  N407  1  0.962000  0.781100  0.965200  1.0  -0.4224
  N  N408  1  0.015000  0.740400  0.923200  1.0  -0.3467
  N  N409  1  0.029000  0.834900  0.994100  1.0  -0.2819
  N  N410  1  0.178000  0.299350  0.420390  1.0  -0.3333
  N  N411  1  0.184000  0.325990  0.440650  1.0  -0.3556
  N  N412  1  0.962000  0.281100  0.465200  1.0  -0.4224
  N  N413  1  0.015000  0.240400  0.423200  1.0  -0.3467
  N  N414  1  0.029000  0.334900  0.494100  1.0  -0.2819
  N  N415  1  0.678000  0.799350  0.420390  1.0  -0.3333
  N  N416  1  0.684000  0.825990  0.440650  1.0  -0.3556
  N  N417  1  0.462000  0.781100  0.465200  1.0  -0.4224
  N  N418  1  0.515000  0.740400  0.423200  1.0  -0.3467
  N  N419  1  0.529000  0.834900  0.494100  1.0  -0.2819
  N  N420  1  0.678000  0.299350  0.920390  1.0  -0.3333
  N  N421  1  0.684000  0.325990  0.940650  1.0  -0.3556
  N  N422  1  0.462000  0.281100  0.965200  1.0  -0.4224
  N  N423  1  0.515000  0.240400  0.923200  1.0  -0.3467
  N  N424  1  0.529000  0.334900  0.994100  1.0  -0.2819
  N  N425  1  0.178000  0.450650  0.329610  1.0  -0.3304
  N  N426  1  0.184000  0.424010  0.309350  1.0  -0.3528
  N  N427  1  0.962000  0.468900  0.284800  1.0  -0.4248
  N  N428  1  0.015000  0.509600  0.326800  1.0  -0.349
  N  N429  1  0.029000  0.415100  0.255900  1.0  -0.2818
  N  N430  1  0.178000  0.950650  0.829610  1.0  -0.3304
  N  N431  1  0.184000  0.924010  0.809350  1.0  -0.3528
  N  N432  1  0.962000  0.968900  0.784800  1.0  -0.4248
  N  N433  1  0.015000  0.009600  0.826800  1.0  -0.349
  N  N434  1  0.029000  0.915100  0.755900  1.0  -0.2818
  N  N435  1  0.678000  0.450650  0.829610  1.0  -0.3304
  N  N436  1  0.684000  0.424010  0.809350  1.0  -0.3528
  N  N437  1  0.462000  0.468900  0.784800  1.0  -0.4248
  N  N438  1  0.515000  0.509600  0.826800  1.0  -0.349
  N  N439  1  0.529000  0.415100  0.755900  1.0  -0.2818
  N  N440  1  0.678000  0.950650  0.329610  1.0  -0.3304
  N  N441  1  0.684000  0.924010  0.309350  1.0  -0.3528
  N  N442  1  0.462000  0.968900  0.284800  1.0  -0.4248
  N  N443  1  0.515000  0.009600  0.326800  1.0  -0.349
  N  N444  1  0.529000  0.915100  0.255900  1.0  -0.2818
  N  N445  1  0.072000  0.799350  0.329610  1.0  -0.3327
  N  N446  1  0.066000  0.825990  0.309350  1.0  -0.3567
  N  N447  1  0.288000  0.781100  0.284800  1.0  -0.4254
  N  N448  1  0.235000  0.740400  0.326800  1.0  -0.3487
  N  N449  1  0.221000  0.834900  0.255900  1.0  -0.2827
  N  N450  1  0.072000  0.299350  0.829610  1.0  -0.3327
  N  N451  1  0.066000  0.325990  0.809350  1.0  -0.3567
  N  N452  1  0.288000  0.281100  0.784800  1.0  -0.4254
  N  N453  1  0.235000  0.240400  0.826800  1.0  -0.3487
  N  N454  1  0.221000  0.334900  0.755900  1.0  -0.2827
  N  N455  1  0.572000  0.799350  0.829610  1.0  -0.3327
  N  N456  1  0.566000  0.825990  0.809350  1.0  -0.3567
  N  N457  1  0.788000  0.781100  0.784800  1.0  -0.4254
  N  N458  1  0.735000  0.740400  0.826800  1.0  -0.3487
  N  N459  1  0.721000  0.834900  0.755900  1.0  -0.2827
  N  N460  1  0.572000  0.299350  0.329610  1.0  -0.3327
  N  N461  1  0.566000  0.325990  0.309350  1.0  -0.3567
  N  N462  1  0.788000  0.281100  0.284800  1.0  -0.4254
  N  N463  1  0.735000  0.240400  0.326800  1.0  -0.3487
  N  N464  1  0.721000  0.334900  0.255900  1.0  -0.2827
