# generated using pymatgen
data_CeP2H4C2O7
_symmetry_space_group_name_H-M   'P 1'
_cell_length_a   8.69120000
_cell_length_b   10.39350000
_cell_length_c   10.81800000
_cell_angle_alpha   90.00000000
_cell_angle_beta   90.00000000
_cell_angle_gamma   90.00000000
_symmetry_Int_Tables_number   1
_chemical_formula_structural   CeP2H4C2O7
_chemical_formula_sum   'Ce4 P8 H16 C8 O28'
_cell_volume   977.21143753
_cell_formula_units_Z   4
loop_
 _symmetry_equiv_pos_site_id
 _symmetry_equiv_pos_as_xyz
  1  'x, y, z'
loop_
 _atom_site_type_symbol
 _atom_site_label
 _atom_site_symmetry_multiplicity
 _atom_site_fract_x
 _atom_site_fract_y
 _atom_site_fract_z
 _atom_site_occupancy
 _atom_site_charge
  Ce  Ce1  1  0.992350  0.601310  0.387330  1.0  2.311
  Ce  Ce2  1  0.507650  0.398690  0.887330  1.0  2.3111
  Ce  Ce3  1  0.007650  0.101310  0.112670  1.0  2.3109
  Ce  Ce4  1  0.492350  0.898690  0.612670  1.0  2.3114
  P  P5  1  0.843700  0.416000  0.106610  1.0  1.4987
  P  P6  1  0.194000  0.418400  0.138980  1.0  1.4915
  P  P7  1  0.656300  0.584000  0.606610  1.0  1.5015
  P  P8  1  0.306000  0.581600  0.638980  1.0  1.4914
  P  P9  1  0.156300  0.916000  0.393390  1.0  1.5001
  P  P10  1  0.806000  0.918400  0.361020  1.0  1.4915
  P  P11  1  0.343700  0.084000  0.893390  1.0  1.4981
  P  P12  1  0.694000  0.081600  0.861020  1.0  1.491
  H  H13  1  0.979500  0.305300  0.898900  1.0  0.4481
  H  H14  1  0.956200  0.544300  0.890200  1.0  0.1719
  H  H15  1  0.136200  0.540300  0.899300  1.0  0.1739
  H  H16  1  0.040700  0.620000  0.995600  1.0  0.1772
  H  H17  1  0.520500  0.694700  0.398900  1.0  0.4472
  H  H18  1  0.543800  0.455700  0.390200  1.0  0.1716
  H  H19  1  0.363800  0.459700  0.399300  1.0  0.1734
  H  H20  1  0.459300  0.380000  0.495600  1.0  0.1765
  H  H21  1  0.020500  0.805300  0.601100  1.0  0.4462
  H  H22  1  0.043800  0.044300  0.609800  1.0  0.1723
  H  H23  1  0.863800  0.040300  0.600700  1.0  0.1735
  H  H24  1  0.959300  0.120000  0.504400  1.0  0.1779
  H  H25  1  0.479500  0.194700  0.101100  1.0  0.4472
  H  H26  1  0.456200  0.955700  0.109800  1.0  0.1729
  H  H27  1  0.636200  0.959700  0.100700  1.0  0.1731
  H  H28  1  0.540700  0.880000  0.004400  1.0  0.1758
  C  C29  1  0.031900  0.425200  0.029600  1.0  -0.2708
  C  C30  1  0.042200  0.543400  0.945900  1.0  -0.3074
  C  C31  1  0.468100  0.574800  0.529600  1.0  -0.2705
  C  C32  1  0.457800  0.456600  0.445900  1.0  -0.3075
  C  C33  1  0.968100  0.925200  0.470400  1.0  -0.2713
  C  C34  1  0.957800  0.043400  0.554100  1.0  -0.3076
  C  C35  1  0.531900  0.074800  0.970400  1.0  -0.2718
  C  C36  1  0.542200  0.956600  0.054100  1.0  -0.3073
  O  O37  1  0.846500  0.504000  0.219100  1.0  -0.8612
  O  O38  1  0.721200  0.458300  0.015300  1.0  -0.8779
  O  O39  1  0.824500  0.274500  0.141000  1.0  -0.8559
  O  O40  1  0.178600  0.529900  0.230400  1.0  -0.8393
  O  O41  1  0.174300  0.285100  0.199200  1.0  -0.7814
  O  O42  1  0.341700  0.429400  0.064900  1.0  -0.8565
  O  O43  1  0.047500  0.306800  0.955400  1.0  -0.6216
  O  O44  1  0.653500  0.496000  0.719100  1.0  -0.8609
  O  O45  1  0.778800  0.541700  0.515300  1.0  -0.8771
  O  O46  1  0.675500  0.725500  0.641000  1.0  -0.8541
  O  O47  1  0.321400  0.470100  0.730400  1.0  -0.8395
  O  O48  1  0.325700  0.714900  0.699200  1.0  -0.7807
  O  O49  1  0.158300  0.570600  0.564900  1.0  -0.8551
  O  O50  1  0.452500  0.693200  0.455400  1.0  -0.6223
  O  O51  1  0.153500  0.004000  0.280900  1.0  -0.861
  O  O52  1  0.278800  0.958300  0.484700  1.0  -0.8796
  O  O53  1  0.175500  0.774500  0.359000  1.0  -0.8543
  O  O54  1  0.821400  0.029900  0.269600  1.0  -0.8391
  O  O55  1  0.825700  0.785100  0.300800  1.0  -0.7815
  O  O56  1  0.658300  0.929400  0.435100  1.0  -0.8553
  O  O57  1  0.952500  0.806800  0.544600  1.0  -0.6239
  O  O58  1  0.346500  0.996000  0.780900  1.0  -0.8612
  O  O59  1  0.221200  0.041700  0.984700  1.0  -0.8781
  O  O60  1  0.324500  0.225500  0.859000  1.0  -0.8541
  O  O61  1  0.678600  0.970100  0.769600  1.0  -0.8393
  O  O62  1  0.674300  0.214900  0.800800  1.0  -0.7817
  O  O63  1  0.841700  0.070600  0.935100  1.0  -0.8575
  O  O64  1  0.547500  0.193200  0.044600  1.0  -0.6229
