# generated using pymatgen
data_SmP2H5C2O7
_symmetry_space_group_name_H-M   'P 1'
_cell_length_a   10.38480000
_cell_length_b   8.34200000
_cell_length_c   10.57740000
_cell_angle_alpha   90.00000000
_cell_angle_beta   90.00000000
_cell_angle_gamma   90.00000000
_symmetry_Int_Tables_number   1
_chemical_formula_structural   SmP2H5C2O7
_chemical_formula_sum   'Sm4 P8 H20 C8 O28'
_cell_volume   916.32017892
_cell_formula_units_Z   4
loop_
 _symmetry_equiv_pos_site_id
 _symmetry_equiv_pos_as_xyz
  1  'x, y, z'
loop_
 _atom_site_type_symbol
 _atom_site_label
 _atom_site_symmetry_multiplicity
 _atom_site_fract_x
 _atom_site_fract_y
 _atom_site_fract_z
 _atom_site_occupancy
 _atom_site_charge
  Sm  Sm1  1  0.360750  0.250000  0.120590  1.0  2.3442
  Sm  Sm2  1  0.139250  0.750000  0.620590  1.0  2.3437
  Sm  Sm3  1  0.639250  0.750000  0.879410  1.0  2.3435
  Sm  Sm4  1  0.860750  0.250000  0.379410  1.0  2.3439
  P  P5  1  0.167800  0.067300  0.373100  1.0  1.51
  P  P6  1  0.332200  0.932700  0.873100  1.0  1.5105
  P  P7  1  0.832200  0.567300  0.626900  1.0  1.5101
  P  P8  1  0.667800  0.432700  0.126900  1.0  1.5115
  P  P9  1  0.832200  0.932700  0.626900  1.0  1.51
  P  P10  1  0.667800  0.067300  0.126900  1.0  1.5105
  P  P11  1  0.167800  0.432700  0.373100  1.0  1.5115
  P  P12  1  0.332200  0.567300  0.873100  1.0  1.5096
  H  H13  1  0.556300  0.332800  0.910700  1.0  0.3368
  H  H14  1  0.300600  0.152400  0.599600  1.0  0.1355
  H  H15  1  0.943700  0.667200  0.410700  1.0  0.3369
  H  H16  1  0.199400  0.847600  0.099600  1.0  0.1357
  H  H17  1  0.443700  0.832800  0.089300  1.0  0.3373
  H  H18  1  0.699400  0.652400  0.400400  1.0  0.1356
  H  H19  1  0.056300  0.167200  0.589300  1.0  0.3364
  H  H20  1  0.800600  0.347600  0.900400  1.0  0.1367
  H  H21  1  0.443700  0.667200  0.089300  1.0  0.3372
  H  H22  1  0.699400  0.847600  0.400400  1.0  0.1368
  H  H23  1  0.056300  0.332800  0.589300  1.0  0.3364
  H  H24  1  0.800600  0.152400  0.900400  1.0  0.1354
  H  H25  1  0.556300  0.167200  0.910700  1.0  0.3358
  H  H26  1  0.300600  0.347600  0.599600  1.0  0.1354
  H  H27  1  0.943700  0.832800  0.410700  1.0  0.338
  H  H28  1  0.199400  0.652400  0.099600  1.0  0.1358
  H  H29  1  0.374100  0.250000  0.500200  1.0  0.13
  H  H30  1  0.125900  0.750000  0.000200  1.0  0.1306
  H  H31  1  0.625900  0.750000  0.499800  1.0  0.1295
  H  H32  1  0.874100  0.250000  0.999800  1.0  0.1291
  C  C33  1  0.179400  0.250000  0.467000  1.0  -0.1663
  C  C34  1  0.298000  0.250000  0.552000  1.0  -0.3267
  C  C35  1  0.320600  0.750000  0.967000  1.0  -0.1674
  C  C36  1  0.202000  0.750000  0.052000  1.0  -0.3265
  C  C37  1  0.820600  0.750000  0.533000  1.0  -0.1716
  C  C38  1  0.702000  0.750000  0.448000  1.0  -0.3262
  C  C39  1  0.679400  0.250000  0.033000  1.0  -0.171
  C  C40  1  0.798000  0.250000  0.948000  1.0  -0.3272
  O  O41  1  0.270800  0.072700  0.271000  1.0  -0.8921
  O  O42  1  0.188400  0.930600  0.463000  1.0  -0.9093
  O  O43  1  0.031700  0.068800  0.317200  1.0  -0.8756
  O  O44  1  0.229200  0.927300  0.771000  1.0  -0.8921
  O  O45  1  0.311600  0.069400  0.963000  1.0  -0.9118
  O  O46  1  0.468300  0.931200  0.817200  1.0  -0.8758
  O  O47  1  0.729200  0.572700  0.729000  1.0  -0.8926
  O  O48  1  0.811600  0.430600  0.537000  1.0  -0.909
  O  O49  1  0.968300  0.568800  0.682800  1.0  -0.8768
  O  O50  1  0.770800  0.427300  0.229000  1.0  -0.8921
  O  O51  1  0.688400  0.569400  0.037000  1.0  -0.9102
  O  O52  1  0.531700  0.431200  0.182800  1.0  -0.8761
  O  O53  1  0.729200  0.927300  0.729000  1.0  -0.8924
  O  O54  1  0.811600  0.069400  0.537000  1.0  -0.9108
  O  O55  1  0.968300  0.931200  0.682800  1.0  -0.8763
  O  O56  1  0.770800  0.072700  0.229000  1.0  -0.8922
  O  O57  1  0.688400  0.930600  0.037000  1.0  -0.9084
  O  O58  1  0.531700  0.068800  0.182800  1.0  -0.8765
  O  O59  1  0.270800  0.427300  0.271000  1.0  -0.8919
  O  O60  1  0.188400  0.569400  0.463000  1.0  -0.911
  O  O61  1  0.031700  0.431200  0.317200  1.0  -0.8752
  O  O62  1  0.229200  0.572700  0.771000  1.0  -0.8923
  O  O63  1  0.311600  0.430600  0.963000  1.0  -0.9097
  O  O64  1  0.468300  0.568800  0.817200  1.0  -0.8764
  O  O65  1  0.057700  0.250000  0.542400  1.0  -0.5888
  O  O66  1  0.442300  0.750000  0.042400  1.0  -0.5903
  O  O67  1  0.942300  0.750000  0.457600  1.0  -0.5842
  O  O68  1  0.557700  0.250000  0.957600  1.0  -0.5871
