# generated using pymatgen
data_NdP2H4C2O7
_symmetry_space_group_name_H-M   'P 1'
_cell_length_a   8.64900000
_cell_length_b   10.32300000
_cell_length_c   10.73800000
_cell_angle_alpha   90.00000000
_cell_angle_beta   90.00000000
_cell_angle_gamma   90.00000000
_symmetry_Int_Tables_number   1
_chemical_formula_structural   NdP2H4C2O7
_chemical_formula_sum   'Nd4 P8 H16 C8 O28'
_cell_volume   958.72758673
_cell_formula_units_Z   4
loop_
 _symmetry_equiv_pos_site_id
 _symmetry_equiv_pos_as_xyz
  1  'x, y, z'
loop_
 _atom_site_type_symbol
 _atom_site_label
 _atom_site_symmetry_multiplicity
 _atom_site_fract_x
 _atom_site_fract_y
 _atom_site_fract_z
 _atom_site_occupancy
 _atom_site_charge
  Nd  Nd1  1  0.492910  0.398260  0.613020  1.0  2.3701
  Nd  Nd2  1  0.007090  0.601740  0.113020  1.0  2.3689
  Nd  Nd3  1  0.507090  0.898260  0.886980  1.0  2.3759
  Nd  Nd4  1  0.992910  0.101740  0.386980  1.0  2.3767
  P  P5  1  0.693500  0.581700  0.861700  1.0  1.487
  P  P6  1  0.342600  0.584700  0.892800  1.0  1.4591
  P  P7  1  0.806500  0.418300  0.361700  1.0  1.4854
  P  P8  1  0.157400  0.415300  0.392800  1.0  1.4619
  P  P9  1  0.306500  0.081700  0.638300  1.0  1.4846
  P  P10  1  0.657400  0.084700  0.607200  1.0  1.4628
  P  P11  1  0.193500  0.918300  0.138300  1.0  1.4867
  P  P12  1  0.842600  0.915300  0.107200  1.0  1.4608
  H  H13  1  0.631500  0.698100  0.079500  1.0  0.4097
  H  H14  1  0.638700  0.453800  0.096100  1.0  0.1656
  H  H15  1  0.523600  0.379500  0.008800  1.0  0.1671
  H  H16  1  0.460100  0.463700  0.119000  1.0  0.1747
  H  H17  1  0.868500  0.301900  0.579500  1.0  0.4092
  H  H18  1  0.861300  0.546200  0.596100  1.0  0.1655
  H  H19  1  0.976400  0.620500  0.508800  1.0  0.1688
  H  H20  1  0.039900  0.536300  0.619000  1.0  0.1744
  H  H21  1  0.368500  0.198100  0.420500  1.0  0.412
  H  H22  1  0.361300  0.953800  0.403900  1.0  0.1657
  H  H23  1  0.476400  0.879500  0.491200  1.0  0.1684
  H  H24  1  0.539900  0.963700  0.381000  1.0  0.1737
  H  H25  1  0.131500  0.801900  0.920500  1.0  0.4097
  H  H26  1  0.138700  0.046200  0.903900  1.0  0.1653
  H  H27  1  0.023600  0.120500  0.991200  1.0  0.1687
  H  H28  1  0.960100  0.036300  0.881000  1.0  0.1731
  C  C29  1  0.531600  0.574700  0.970600  1.0  -0.2775
  C  C30  1  0.539200  0.457000  0.056600  1.0  -0.3257
  C  C31  1  0.968400  0.425300  0.470600  1.0  -0.2767
  C  C32  1  0.960800  0.543000  0.556600  1.0  -0.3255
  C  C33  1  0.468400  0.074700  0.529400  1.0  -0.2755
  C  C34  1  0.460800  0.957000  0.443400  1.0  -0.3265
  C  C35  1  0.031600  0.925300  0.029400  1.0  -0.2766
  C  C36  1  0.039200  0.043000  0.943400  1.0  -0.3255
  O  O37  1  0.675800  0.470600  0.769500  1.0  -0.8239
  O  O38  1  0.671200  0.715300  0.801500  1.0  -0.8102
  O  O39  1  0.841900  0.569900  0.935900  1.0  -0.9096
  O  O40  1  0.217600  0.543300  0.985200  1.0  -0.886
  O  O41  1  0.325800  0.726500  0.857500  1.0  -0.7844
  O  O42  1  0.343900  0.494200  0.780500  1.0  -0.8776
  O  O43  1  0.543300  0.695000  0.045800  1.0  -0.5437
  O  O44  1  0.824200  0.529400  0.269500  1.0  -0.824
  O  O45  1  0.828800  0.284700  0.301500  1.0  -0.8099
  O  O46  1  0.658100  0.430100  0.435900  1.0  -0.91
  O  O47  1  0.282400  0.456700  0.485200  1.0  -0.8876
  O  O48  1  0.174200  0.273500  0.357500  1.0  -0.7848
  O  O49  1  0.156100  0.505800  0.280500  1.0  -0.8778
  O  O50  1  0.956700  0.305000  0.545800  1.0  -0.5433
  O  O51  1  0.324200  0.970600  0.730500  1.0  -0.8242
  O  O52  1  0.328800  0.215300  0.698500  1.0  -0.8102
  O  O53  1  0.158100  0.069900  0.564100  1.0  -0.9089
  O  O54  1  0.782400  0.043300  0.514800  1.0  -0.8842
  O  O55  1  0.674200  0.226500  0.642500  1.0  -0.7835
  O  O56  1  0.656100  0.994200  0.719500  1.0  -0.8785
  O  O57  1  0.456700  0.195000  0.454200  1.0  -0.543
  O  O58  1  0.175800  0.029400  0.230500  1.0  -0.8239
  O  O59  1  0.171200  0.784700  0.198500  1.0  -0.8098
  O  O60  1  0.341900  0.930100  0.064100  1.0  -0.9101
  O  O61  1  0.717600  0.956700  0.014800  1.0  -0.8867
  O  O62  1  0.825800  0.773500  0.142500  1.0  -0.7833
  O  O63  1  0.843900  0.005800  0.219500  1.0  -0.8789
  O  O64  1  0.043300  0.805000  0.954200  1.0  -0.5441
