# generated using pymatgen
data_DyP2H5C2O7
_symmetry_space_group_name_H-M   'P 1'
_cell_length_a   10.25650000
_cell_length_b   8.28920000
_cell_length_c   10.45950000
_cell_angle_alpha   90.00000000
_cell_angle_beta   90.00000000
_cell_angle_gamma   90.00000000
_symmetry_Int_Tables_number   1
_chemical_formula_structural   DyP2H5C2O7
_chemical_formula_sum   'Dy4 P8 H20 C8 O28'
_cell_volume   889.24765162
_cell_formula_units_Z   4
loop_
 _symmetry_equiv_pos_site_id
 _symmetry_equiv_pos_as_xyz
  1  'x, y, z'
loop_
 _atom_site_type_symbol
 _atom_site_label
 _atom_site_symmetry_multiplicity
 _atom_site_fract_x
 _atom_site_fract_y
 _atom_site_fract_z
 _atom_site_occupancy
 _atom_site_charge
  Dy  Dy1  1  0.860000  0.250000  0.120220  1.0  2.2841
  Dy  Dy2  1  0.640000  0.750000  0.620220  1.0  2.2785
  Dy  Dy3  1  0.140000  0.750000  0.879780  1.0  2.2775
  Dy  Dy4  1  0.360000  0.250000  0.379780  1.0  2.2831
  P  P5  1  0.667300  0.066900  0.373900  1.0  1.5516
  P  P6  1  0.832700  0.933100  0.873900  1.0  1.5518
  P  P7  1  0.332700  0.566900  0.626100  1.0  1.5518
  P  P8  1  0.167300  0.433100  0.126100  1.0  1.5519
  P  P9  1  0.332700  0.933100  0.626100  1.0  1.5513
  P  P10  1  0.167300  0.066900  0.126100  1.0  1.5523
  P  P11  1  0.667300  0.433100  0.373900  1.0  1.5514
  P  P12  1  0.832700  0.566900  0.873900  1.0  1.5513
  H  H13  1  0.006600  0.183200  0.982900  1.0  0.1812
  H  H14  1  0.802900  0.152200  0.605300  1.0  0.149
  H  H15  1  0.493400  0.816800  0.482900  1.0  0.1823
  H  H16  1  0.697100  0.847800  0.105300  1.0  0.1484
  H  H17  1  0.993400  0.683200  0.017100  1.0  0.1816
  H  H18  1  0.197100  0.652200  0.394700  1.0  0.1497
  H  H19  1  0.506600  0.316800  0.517100  1.0  0.1828
  H  H20  1  0.302900  0.347800  0.894700  1.0  0.1487
  H  H21  1  0.993400  0.816800  0.017100  1.0  0.1828
  H  H22  1  0.197100  0.847800  0.394700  1.0  0.1501
  H  H23  1  0.506600  0.183200  0.517100  1.0  0.1816
  H  H24  1  0.302900  0.152200  0.894700  1.0  0.1487
  H  H25  1  0.006600  0.316800  0.982900  1.0  0.182
  H  H26  1  0.802900  0.347800  0.605300  1.0  0.1474
  H  H27  1  0.493400  0.683200  0.482900  1.0  0.1819
  H  H28  1  0.697100  0.652200  0.105300  1.0  0.1497
  H  H29  1  0.876700  0.250000  0.503600  1.0  0.1361
  H  H30  1  0.623300  0.750000  0.003600  1.0  0.1376
  H  H31  1  0.123300  0.750000  0.496400  1.0  0.1373
  H  H32  1  0.376700  0.250000  0.996400  1.0  0.1363
  C  C33  1  0.678900  0.250000  0.468500  1.0  -0.1149
  C  C34  1  0.800000  0.250000  0.556000  1.0  -0.3244
  C  C35  1  0.821100  0.750000  0.968500  1.0  -0.1158
  C  C36  1  0.700000  0.750000  0.056000  1.0  -0.3244
  C  C37  1  0.321100  0.750000  0.531500  1.0  -0.1185
  C  C38  1  0.200000  0.750000  0.444000  1.0  -0.3243
  C  C39  1  0.178900  0.250000  0.031500  1.0  -0.1178
  C  C40  1  0.300000  0.250000  0.944000  1.0  -0.3248
  O  O41  1  0.770900  0.074900  0.270100  1.0  -0.901
  O  O42  1  0.529200  0.069500  0.317700  1.0  -0.836
  O  O43  1  0.688500  0.928800  0.463500  1.0  -0.8206
  O  O44  1  0.729100  0.925100  0.770100  1.0  -0.9018
  O  O45  1  0.970800  0.930500  0.817700  1.0  -0.8359
  O  O46  1  0.811500  0.071200  0.963500  1.0  -0.8198
  O  O47  1  0.229100  0.574900  0.729900  1.0  -0.9012
  O  O48  1  0.470800  0.569500  0.682300  1.0  -0.836
  O  O49  1  0.311500  0.428800  0.536500  1.0  -0.8203
  O  O50  1  0.270900  0.425100  0.229900  1.0  -0.9019
  O  O51  1  0.029200  0.430500  0.182300  1.0  -0.836
  O  O52  1  0.188500  0.571200  0.036500  1.0  -0.82
  O  O53  1  0.229100  0.925100  0.729900  1.0  -0.9018
  O  O54  1  0.470800  0.930500  0.682300  1.0  -0.836
  O  O55  1  0.311500  0.071200  0.536500  1.0  -0.8198
  O  O56  1  0.270900  0.074900  0.229900  1.0  -0.9017
  O  O57  1  0.029200  0.069500  0.182300  1.0  -0.836
  O  O58  1  0.188500  0.928800  0.036500  1.0  -0.8202
  O  O59  1  0.770900  0.425100  0.270100  1.0  -0.9018
  O  O60  1  0.529200  0.430500  0.317700  1.0  -0.8363
  O  O61  1  0.688500  0.571200  0.463500  1.0  -0.8201
  O  O62  1  0.729100  0.574900  0.770100  1.0  -0.901
  O  O63  1  0.970800  0.569500  0.817700  1.0  -0.8355
  O  O64  1  0.811500  0.428800  0.963500  1.0  -0.8204
  O  O65  1  0.557600  0.250000  0.546100  1.0  -0.6244
  O  O66  1  0.942400  0.750000  0.046100  1.0  -0.6271
  O  O67  1  0.442400  0.750000  0.453900  1.0  -0.6284
  O  O68  1  0.057600  0.250000  0.953900  1.0  -0.6258
