# generated using pymatgen
data_EuP2H5C2O7
_symmetry_space_group_name_H-M   'P 1'
_cell_length_a   10.35130000
_cell_length_b   8.32640000
_cell_length_c   10.55840000
_cell_angle_alpha   90.00000000
_cell_angle_beta   90.00000000
_cell_angle_gamma   90.00000000
_symmetry_Int_Tables_number   1
_chemical_formula_structural   EuP2H5C2O7
_chemical_formula_sum   'Eu4 P8 H20 C8 O28'
_cell_volume   910.01861672
_cell_formula_units_Z   4
loop_
 _symmetry_equiv_pos_site_id
 _symmetry_equiv_pos_as_xyz
  1  'x, y, z'
loop_
 _atom_site_type_symbol
 _atom_site_label
 _atom_site_symmetry_multiplicity
 _atom_site_fract_x
 _atom_site_fract_y
 _atom_site_fract_z
 _atom_site_occupancy
 _atom_site_charge
  Eu  Eu1  1  0.360410  0.250000  0.120580  1.0  2.1544
  Eu  Eu2  1  0.139590  0.750000  0.620580  1.0  2.153
  Eu  Eu3  1  0.639590  0.750000  0.879420  1.0  2.1529
  Eu  Eu4  1  0.860410  0.250000  0.379420  1.0  2.1518
  P  P5  1  0.167500  0.432800  0.373200  1.0  1.5652
  P  P6  1  0.332500  0.567200  0.873200  1.0  1.565
  P  P7  1  0.832500  0.932800  0.626800  1.0  1.5654
  P  P8  1  0.667500  0.067200  0.126800  1.0  1.5661
  P  P9  1  0.832500  0.567200  0.626800  1.0  1.5658
  P  P10  1  0.667500  0.432800  0.126800  1.0  1.5656
  P  P11  1  0.167500  0.067200  0.373200  1.0  1.5654
  P  P12  1  0.332500  0.932800  0.873200  1.0  1.5656
  H  H13  1  0.006900  0.319100  0.514200  1.0  0.1931
  H  H14  1  0.299200  0.156100  0.604500  1.0  0.1541
  H  H15  1  0.493100  0.680900  0.014200  1.0  0.1913
  H  H16  1  0.200800  0.843900  0.104500  1.0  0.1538
  H  H17  1  0.993100  0.819100  0.485800  1.0  0.1915
  H  H18  1  0.700800  0.656100  0.395500  1.0  0.154
  H  H19  1  0.506900  0.180900  0.985800  1.0  0.1905
  H  H20  1  0.799200  0.343900  0.895500  1.0  0.1537
  H  H21  1  0.993100  0.680900  0.485800  1.0  0.1909
  H  H22  1  0.700800  0.843900  0.395500  1.0  0.1546
  H  H23  1  0.506900  0.319100  0.985800  1.0  0.1922
  H  H24  1  0.799200  0.156100  0.895500  1.0  0.1531
  H  H25  1  0.006900  0.180900  0.514200  1.0  0.1914
  H  H26  1  0.299200  0.343900  0.604500  1.0  0.1535
  H  H27  1  0.493100  0.819100  0.014200  1.0  0.1923
  H  H28  1  0.200800  0.656100  0.104500  1.0  0.1543
  H  H29  1  0.374600  0.250000  0.499700  1.0  0.1708
  H  H30  1  0.125400  0.750000  0.999700  1.0  0.1698
  H  H31  1  0.625400  0.750000  0.500300  1.0  0.1696
  H  H32  1  0.874600  0.250000  0.000300  1.0  0.1711
  C  C33  1  0.178000  0.250000  0.466800  1.0  -0.105
  C  C34  1  0.299000  0.250000  0.552100  1.0  -0.3211
  C  C35  1  0.322000  0.750000  0.966800  1.0  -0.1049
  C  C36  1  0.201000  0.750000  0.052100  1.0  -0.3219
  C  C37  1  0.822000  0.750000  0.533200  1.0  -0.1078
  C  C38  1  0.701000  0.750000  0.447900  1.0  -0.3209
  C  C39  1  0.678000  0.250000  0.033200  1.0  -0.108
  C  C40  1  0.799000  0.250000  0.947900  1.0  -0.3208
  O  O41  1  0.270900  0.426000  0.270900  1.0  -0.9048
  O  O42  1  0.031400  0.430100  0.318100  1.0  -0.8309
  O  O43  1  0.188900  0.569500  0.462700  1.0  -0.8052
  O  O44  1  0.229100  0.574000  0.770900  1.0  -0.9038
  O  O45  1  0.468600  0.569900  0.818100  1.0  -0.8297
  O  O46  1  0.311100  0.430500  0.962700  1.0  -0.8065
  O  O47  1  0.729100  0.926000  0.729100  1.0  -0.9045
  O  O48  1  0.968600  0.930100  0.681900  1.0  -0.8339
  O  O49  1  0.811100  0.069500  0.537300  1.0  -0.8059
  O  O50  1  0.770900  0.074000  0.229100  1.0  -0.9052
  O  O51  1  0.531400  0.069900  0.181900  1.0  -0.8344
  O  O52  1  0.688900  0.930500  0.037300  1.0  -0.8047
  O  O53  1  0.729100  0.574000  0.729100  1.0  -0.9041
  O  O54  1  0.968600  0.569900  0.681900  1.0  -0.8335
  O  O55  1  0.811100  0.430500  0.537300  1.0  -0.8063
  O  O56  1  0.770900  0.426000  0.229100  1.0  -0.9053
  O  O57  1  0.531400  0.430100  0.181900  1.0  -0.8348
  O  O58  1  0.688900  0.569500  0.037300  1.0  -0.8046
  O  O59  1  0.270900  0.074000  0.270900  1.0  -0.9045
  O  O60  1  0.031400  0.069900  0.318100  1.0  -0.83
  O  O61  1  0.188900  0.930500  0.462700  1.0  -0.8054
  O  O62  1  0.229100  0.926000  0.770900  1.0  -0.9041
  O  O63  1  0.468600  0.930100  0.818100  1.0  -0.8303
  O  O64  1  0.311100  0.069500  0.962700  1.0  -0.8062
  O  O65  1  0.059300  0.250000  0.543700  1.0  -0.6305
  O  O66  1  0.440700  0.750000  0.043700  1.0  -0.6337
  O  O67  1  0.940700  0.750000  0.456300  1.0  -0.6357
  O  O68  1  0.559300  0.250000  0.956300  1.0  -0.6323
