# generated using pymatgen
data_GdP2H5C2O7
_symmetry_space_group_name_H-M   'P 1'
_cell_length_a   10.32400000
_cell_length_b   8.31300000
_cell_length_c   10.53400000
_cell_angle_alpha   90.00000000
_cell_angle_beta   90.00000000
_cell_angle_gamma   90.00000000
_symmetry_Int_Tables_number   1
_chemical_formula_structural   GdP2H5C2O7
_chemical_formula_sum   'Gd4 P8 H20 C8 O28'
_cell_volume   904.06382201
_cell_formula_units_Z   4
loop_
 _symmetry_equiv_pos_site_id
 _symmetry_equiv_pos_as_xyz
  1  'x, y, z'
loop_
 _atom_site_type_symbol
 _atom_site_label
 _atom_site_symmetry_multiplicity
 _atom_site_fract_x
 _atom_site_fract_y
 _atom_site_fract_z
 _atom_site_occupancy
 _atom_site_charge
  Gd  Gd1  1  0.639740  0.250000  0.120520  1.0  2.21
  Gd  Gd2  1  0.860260  0.750000  0.620520  1.0  2.2169
  Gd  Gd3  1  0.360260  0.750000  0.879480  1.0  2.213
  Gd  Gd4  1  0.139740  0.250000  0.379480  1.0  2.2069
  P  P5  1  0.832400  0.067200  0.373600  1.0  1.5384
  P  P6  1  0.667600  0.932800  0.873600  1.0  1.5385
  P  P7  1  0.167600  0.567200  0.626400  1.0  1.54
  P  P8  1  0.332400  0.432800  0.126400  1.0  1.5387
  P  P9  1  0.167600  0.932800  0.626400  1.0  1.5389
  P  P10  1  0.332400  0.067200  0.126400  1.0  1.5393
  P  P11  1  0.832400  0.432800  0.373600  1.0  1.5384
  P  P12  1  0.667600  0.567200  0.873600  1.0  1.539
  H  H13  1  0.492000  0.318000  0.984900  1.0  0.1968
  H  H14  1  0.700900  0.342300  0.607000  1.0  0.136
  H  H15  1  0.008000  0.682000  0.484900  1.0  0.1934
  H  H16  1  0.799100  0.657700  0.107000  1.0  0.1358
  H  H17  1  0.508000  0.818000  0.015100  1.0  0.1947
  H  H18  1  0.299100  0.842300  0.393000  1.0  0.1354
  H  H19  1  0.992000  0.182000  0.515100  1.0  0.1952
  H  H20  1  0.200900  0.157700  0.893000  1.0  0.1358
  H  H21  1  0.508000  0.682000  0.015100  1.0  0.1935
  H  H22  1  0.299100  0.657700  0.393000  1.0  0.1354
  H  H23  1  0.992000  0.318000  0.515100  1.0  0.1961
  H  H24  1  0.200900  0.342300  0.893000  1.0  0.1362
  H  H25  1  0.492000  0.182000  0.984900  1.0  0.196
  H  H26  1  0.700900  0.157700  0.607000  1.0  0.1368
  H  H27  1  0.008000  0.818000  0.484900  1.0  0.1949
  H  H28  1  0.799100  0.842300  0.107000  1.0  0.1345
  H  H29  1  0.627100  0.250000  0.497500  1.0  0.1544
  H  H30  1  0.872900  0.750000  0.997500  1.0  0.1555
  H  H31  1  0.372900  0.750000  0.502500  1.0  0.1561
  H  H32  1  0.127100  0.250000  0.002500  1.0  0.1539
  C  C33  1  0.824800  0.250000  0.470100  1.0  -0.0828
  C  C34  1  0.701000  0.250000  0.552000  1.0  -0.2971
  C  C35  1  0.675200  0.750000  0.970100  1.0  -0.0811
  C  C36  1  0.799000  0.750000  0.052000  1.0  -0.2965
  C  C37  1  0.175200  0.750000  0.529900  1.0  -0.0852
  C  C38  1  0.299000  0.750000  0.448000  1.0  -0.2961
  C  C39  1  0.324800  0.250000  0.029900  1.0  -0.0867
  C  C40  1  0.201000  0.250000  0.948000  1.0  -0.2965
  O  O41  1  0.729700  0.073900  0.271300  1.0  -0.9046
  O  O42  1  0.811600  0.930100  0.462700  1.0  -0.807
  O  O43  1  0.969000  0.069200  0.317800  1.0  -0.842
  O  O44  1  0.770300  0.926100  0.771300  1.0  -0.9056
  O  O45  1  0.688400  0.069900  0.962700  1.0  -0.8078
  O  O46  1  0.531000  0.930800  0.817800  1.0  -0.8416
  O  O47  1  0.270300  0.573900  0.728700  1.0  -0.9057
  O  O48  1  0.188400  0.430100  0.537300  1.0  -0.8071
  O  O49  1  0.031000  0.569200  0.682200  1.0  -0.8424
  O  O50  1  0.229700  0.426100  0.228700  1.0  -0.9055
  O  O51  1  0.311600  0.569900  0.037300  1.0  -0.8061
  O  O52  1  0.469000  0.430800  0.182200  1.0  -0.8431
  O  O53  1  0.270300  0.926100  0.728700  1.0  -0.906
  O  O54  1  0.188400  0.069900  0.537300  1.0  -0.807
  O  O55  1  0.031000  0.930800  0.682200  1.0  -0.8425
  O  O56  1  0.229700  0.073900  0.228700  1.0  -0.9051
  O  O57  1  0.311600  0.930100  0.037300  1.0  -0.8065
  O  O58  1  0.469000  0.069200  0.182200  1.0  -0.8429
  O  O59  1  0.729700  0.426100  0.271300  1.0  -0.9051
  O  O60  1  0.811600  0.569900  0.462700  1.0  -0.8067
  O  O61  1  0.969000  0.430800  0.317800  1.0  -0.8423
  O  O62  1  0.770300  0.573900  0.771300  1.0  -0.9051
  O  O63  1  0.688400  0.430100  0.962700  1.0  -0.808
  O  O64  1  0.531000  0.569200  0.817800  1.0  -0.8411
  O  O65  1  0.942200  0.250000  0.543600  1.0  -0.6164
  O  O66  1  0.557800  0.750000  0.043600  1.0  -0.614
  O  O67  1  0.057800  0.750000  0.456400  1.0  -0.6166
  O  O68  1  0.442200  0.250000  0.956400  1.0  -0.6185
