# generated using pymatgen
data_TbP2H5C2O7
_symmetry_space_group_name_H-M   'P 1'
_cell_length_a   10.29700000
_cell_length_b   8.30340000
_cell_length_c   10.50000000
_cell_angle_alpha   90.00000000
_cell_angle_beta   90.00000000
_cell_angle_gamma   90.00000000
_symmetry_Int_Tables_number   1
_chemical_formula_structural   TbP2H5C2O7
_chemical_formula_sum   'Tb4 P8 H20 C8 O28'
_cell_volume   897.75115290
_cell_formula_units_Z   4
loop_
 _symmetry_equiv_pos_site_id
 _symmetry_equiv_pos_as_xyz
  1  'x, y, z'
loop_
 _atom_site_type_symbol
 _atom_site_label
 _atom_site_symmetry_multiplicity
 _atom_site_fract_x
 _atom_site_fract_y
 _atom_site_fract_z
 _atom_site_occupancy
 _atom_site_charge
  Tb  Tb1  1  0.860000  0.250000  0.120430  1.0  2.2881
  Tb  Tb2  1  0.640000  0.750000  0.620430  1.0  2.2881
  Tb  Tb3  1  0.140000  0.750000  0.879570  1.0  2.2892
  Tb  Tb4  1  0.360000  0.250000  0.379570  1.0  2.2886
  P  P5  1  0.667200  0.067300  0.373300  1.0  1.5295
  P  P6  1  0.832800  0.932700  0.873300  1.0  1.5299
  P  P7  1  0.332800  0.567300  0.626700  1.0  1.5309
  P  P8  1  0.167200  0.432700  0.126700  1.0  1.5291
  P  P9  1  0.332800  0.932700  0.626700  1.0  1.5294
  P  P10  1  0.167200  0.067300  0.126700  1.0  1.5307
  P  P11  1  0.667200  0.432700  0.373300  1.0  1.5289
  P  P12  1  0.832800  0.567300  0.873300  1.0  1.5301
  H  H13  1  0.003400  0.173500  0.961800  1.0  0.2959
  H  H14  1  0.798200  0.156400  0.607500  1.0  0.1348
  H  H15  1  0.496600  0.826500  0.461800  1.0  0.2961
  H  H16  1  0.701800  0.843600  0.107500  1.0  0.1343
  H  H17  1  0.996600  0.673500  0.038200  1.0  0.2965
  H  H18  1  0.201800  0.656400  0.392500  1.0  0.135
  H  H19  1  0.503400  0.326500  0.538200  1.0  0.2958
  H  H20  1  0.298200  0.343600  0.892500  1.0  0.1342
  H  H21  1  0.996600  0.826500  0.038200  1.0  0.2959
  H  H22  1  0.201800  0.843600  0.392500  1.0  0.1352
  H  H23  1  0.503400  0.173500  0.538200  1.0  0.2965
  H  H24  1  0.298200  0.156400  0.892500  1.0  0.1341
  H  H25  1  0.003400  0.326500  0.961800  1.0  0.296
  H  H26  1  0.798200  0.343600  0.607500  1.0  0.1334
  H  H27  1  0.496600  0.673500  0.461800  1.0  0.296
  H  H28  1  0.701800  0.656400  0.107500  1.0  0.1356
  H  H29  1  0.875700  0.250000  0.501400  1.0  0.1618
  H  H30  1  0.624300  0.750000  0.001400  1.0  0.1611
  H  H31  1  0.124300  0.750000  0.498600  1.0  0.1608
  H  H32  1  0.375700  0.250000  0.998600  1.0  0.1622
  C  C33  1  0.677300  0.250000  0.468000  1.0  -0.1976
  C  C34  1  0.799700  0.250000  0.554000  1.0  -0.3451
  C  C35  1  0.822700  0.750000  0.968000  1.0  -0.1986
  C  C36  1  0.700300  0.750000  0.054000  1.0  -0.3453
  C  C37  1  0.322700  0.750000  0.532000  1.0  -0.1983
  C  C38  1  0.200300  0.750000  0.446000  1.0  -0.3445
  C  C39  1  0.177300  0.250000  0.032000  1.0  -0.1983
  C  C40  1  0.299700  0.250000  0.946000  1.0  -0.3448
  O  O41  1  0.770400  0.074000  0.270300  1.0  -0.9126
  O  O42  1  0.529500  0.069300  0.317800  1.0  -0.8639
  O  O43  1  0.688300  0.929400  0.463300  1.0  -0.8093
  O  O44  1  0.729600  0.926000  0.770300  1.0  -0.9133
  O  O45  1  0.970500  0.930700  0.817800  1.0  -0.8643
  O  O46  1  0.811700  0.070600  0.963300  1.0  -0.8096
  O  O47  1  0.229600  0.574000  0.729700  1.0  -0.9135
  O  O48  1  0.470500  0.569300  0.682200  1.0  -0.8654
  O  O49  1  0.311700  0.429400  0.536700  1.0  -0.8091
  O  O50  1  0.270400  0.426000  0.229700  1.0  -0.9143
  O  O51  1  0.029500  0.430700  0.182200  1.0  -0.8657
  O  O52  1  0.188300  0.570600  0.036700  1.0  -0.81
  O  O53  1  0.229600  0.926000  0.729700  1.0  -0.9134
  O  O54  1  0.470500  0.930700  0.682200  1.0  -0.8657
  O  O55  1  0.311700  0.070600  0.536700  1.0  -0.8095
  O  O56  1  0.270400  0.074000  0.229700  1.0  -0.9133
  O  O57  1  0.029500  0.069300  0.182200  1.0  -0.8654
  O  O58  1  0.188300  0.929400  0.036700  1.0  -0.8091
  O  O59  1  0.770400  0.426000  0.270300  1.0  -0.9126
  O  O60  1  0.529500  0.430700  0.317800  1.0  -0.8638
  O  O61  1  0.688300  0.570600  0.463300  1.0  -0.8099
  O  O62  1  0.729600  0.574000  0.770300  1.0  -0.9122
  O  O63  1  0.970500  0.569300  0.817800  1.0  -0.8646
  O  O64  1  0.811700  0.429400  0.963300  1.0  -0.8094
  O  O65  1  0.557800  0.250000  0.544900  1.0  -0.6518
  O  O66  1  0.942200  0.750000  0.044900  1.0  -0.6548
  O  O67  1  0.442200  0.750000  0.455100  1.0  -0.6533
  O  O68  1  0.057800  0.250000  0.955100  1.0  -0.6512
