# generated using pymatgen
data_Fe2P2H2C3O14
_symmetry_space_group_name_H-M   'P 1'
_cell_length_a   9.21370000
_cell_length_b   15.20140000
_cell_length_c   12.04570000
_cell_angle_alpha   90.00000000
_cell_angle_beta   101.89300000
_cell_angle_gamma   90.00000000
_symmetry_Int_Tables_number   1
_chemical_formula_structural   Fe2P2H2C3O14
_chemical_formula_sum   'Fe8 P8 H8 C12 O56'
_cell_volume   1650.91872329
_cell_formula_units_Z   4
loop_
 _symmetry_equiv_pos_site_id
 _symmetry_equiv_pos_as_xyz
  1  'x, y, z'
loop_
 _atom_site_type_symbol
 _atom_site_label
 _atom_site_symmetry_multiplicity
 _atom_site_fract_x
 _atom_site_fract_y
 _atom_site_fract_z
 _atom_site_occupancy
 _atom_site_charge
  Fe  Fe1  1  0.634760  0.112550  0.664520  1.0  1.3432
  Fe  Fe2  1  0.752200  0.938070  0.997950  1.0  1.2362
  Fe  Fe3  1  0.865240  0.612550  0.835480  1.0  1.3442
  Fe  Fe4  1  0.747800  0.438070  0.502050  1.0  1.2376
  Fe  Fe5  1  0.365240  0.887450  0.335480  1.0  1.3443
  Fe  Fe6  1  0.247800  0.061930  0.002050  1.0  1.237
  Fe  Fe7  1  0.134760  0.387450  0.164520  1.0  1.3428
  Fe  Fe8  1  0.252200  0.561930  0.497950  1.0  1.2361
  P  P9  1  0.894500  0.107300  0.890800  1.0  1.7636
  P  P10  1  0.448800  0.003000  0.816700  1.0  1.9301
  P  P11  1  0.605500  0.607300  0.609200  1.0  1.7628
  P  P12  1  0.051200  0.503000  0.683300  1.0  1.9318
  P  P13  1  0.105500  0.892700  0.109200  1.0  1.7615
  P  P14  1  0.551200  0.997000  0.183300  1.0  1.932
  P  P15  1  0.394500  0.392700  0.390800  1.0  1.7622
  P  P16  1  0.948800  0.497000  0.316700  1.0  1.9304
  H  H17  1  0.919700  0.237500  0.892000  1.0  0.474
  H  H18  1  0.340600  0.903000  0.729500  1.0  0.5058
  H  H19  1  0.580300  0.737500  0.608000  1.0  0.4737
  H  H20  1  0.159400  0.403000  0.770500  1.0  0.505
  H  H21  1  0.080300  0.762500  0.108000  1.0  0.4736
  H  H22  1  0.659400  0.097000  0.270500  1.0  0.5089
  H  H23  1  0.419700  0.262500  0.392000  1.0  0.4743
  H  H24  1  0.840600  0.597000  0.229500  1.0  0.5091
  C  C25  1  0.564800  0.967600  0.518300  1.0  0.6729
  C  C26  1  0.738600  0.252000  0.544800  1.0  0.6465
  C  C27  1  0.657800  0.295700  0.631100  1.0  0.6319
  C  C28  1  0.935200  0.467600  0.981700  1.0  0.671
  C  C29  1  0.761400  0.752000  0.955200  1.0  0.6464
  C  C30  1  0.842200  0.795700  0.868900  1.0  0.6341
  C  C31  1  0.435200  0.032400  0.481700  1.0  0.6713
  C  C32  1  0.261400  0.748000  0.455200  1.0  0.6465
  C  C33  1  0.342200  0.704300  0.368900  1.0  0.6422
  C  C34  1  0.064800  0.532400  0.018300  1.0  0.6728
  C  C35  1  0.238600  0.248000  0.044800  1.0  0.6466
  C  C36  1  0.157800  0.204300  0.131100  1.0  0.6413
  O  O37  1  0.519500  0.082900  0.774700  1.0  -0.7779
  O  O38  1  0.824300  0.100500  0.764300  1.0  -0.8005
  O  O39  1  0.600100  0.243200  0.690600  1.0  -0.5087
  O  O40  1  0.667500  0.992600  0.597800  1.0  -0.5128
  O  O41  1  0.738300  0.169300  0.543600  1.0  -0.5231
  O  O42  1  0.444100  0.104600  0.534700  1.0  -0.5169
  O  O43  1  0.815300  0.052100  0.963400  1.0  -0.8474
  O  O44  1  0.318300  0.031800  0.867000  1.0  -0.8171
  O  O45  1  0.557800  0.946800  0.898100  1.0  -0.8596
  O  O46  1  0.054000  0.084900  0.899600  1.0  -0.7769
  O  O47  1  0.793600  0.303100  0.483400  1.0  -0.5054
  O  O48  1  0.657100  0.378600  0.633700  1.0  -0.5087
  O  O49  1  0.882800  0.204100  0.931900  1.0  -0.6743
  O  O50  1  0.383000  0.946000  0.710000  1.0  -0.5873
  O  O51  1  0.980500  0.582900  0.725300  1.0  -0.7775
  O  O52  1  0.675700  0.600500  0.735700  1.0  -0.7992
  O  O53  1  0.899900  0.743200  0.809400  1.0  -0.5124
  O  O54  1  0.832500  0.492600  0.902200  1.0  -0.5149
  O  O55  1  0.761700  0.669300  0.956400  1.0  -0.5222
  O  O56  1  0.055900  0.604600  0.965300  1.0  -0.5163
  O  O57  1  0.684700  0.552100  0.536600  1.0  -0.8452
  O  O58  1  0.181700  0.531800  0.633000  1.0  -0.8163
  O  O59  1  0.942200  0.446800  0.601900  1.0  -0.8585
  O  O60  1  0.446000  0.584900  0.600400  1.0  -0.778
  O  O61  1  0.706400  0.803100  0.016600  1.0  -0.5042
  O  O62  1  0.842900  0.878600  0.866300  1.0  -0.5096
  O  O63  1  0.617200  0.704100  0.568100  1.0  -0.6742
  O  O64  1  0.117000  0.446000  0.790000  1.0  -0.5813
  O  O65  1  0.480500  0.917100  0.225300  1.0  -0.7779
  O  O66  1  0.175700  0.899500  0.235700  1.0  -0.7989
  O  O67  1  0.399900  0.756800  0.309400  1.0  -0.5117
  O  O68  1  0.332500  0.007400  0.402200  1.0  -0.514
  O  O69  1  0.261700  0.830700  0.456400  1.0  -0.5245
  O  O70  1  0.555900  0.895400  0.465300  1.0  -0.516
  O  O71  1  0.184700  0.947900  0.036600  1.0  -0.8455
  O  O72  1  0.681700  0.968200  0.133000  1.0  -0.8166
  O  O73  1  0.442200  0.053200  0.101900  1.0  -0.8581
  O  O74  1  0.946000  0.915100  0.100400  1.0  -0.7779
  O  O75  1  0.206400  0.696900  0.516600  1.0  -0.5046
  O  O76  1  0.342900  0.621400  0.366300  1.0  -0.5096
  O  O77  1  0.117200  0.795900  0.068100  1.0  -0.6716
  O  O78  1  0.617000  0.054000  0.290000  1.0  -0.5838
  O  O79  1  0.019500  0.417100  0.274700  1.0  -0.778
  O  O80  1  0.324300  0.399500  0.264300  1.0  -0.7999
  O  O81  1  0.100100  0.256800  0.190600  1.0  -0.508
  O  O82  1  0.167500  0.507400  0.097800  1.0  -0.5105
  O  O83  1  0.238300  0.330700  0.043600  1.0  -0.5209
  O  O84  1  0.944100  0.395400  0.034700  1.0  -0.5151
  O  O85  1  0.315300  0.447900  0.463400  1.0  -0.847
  O  O86  1  0.818300  0.468200  0.367000  1.0  -0.8175
  O  O87  1  0.057800  0.553200  0.398100  1.0  -0.8597
  O  O88  1  0.554000  0.415100  0.399600  1.0  -0.7764
  O  O89  1  0.293600  0.196900  0.983400  1.0  -0.5058
  O  O90  1  0.157100  0.121400  0.133700  1.0  -0.5093
  O  O91  1  0.382800  0.295900  0.431900  1.0  -0.6721
  O  O92  1  0.883000  0.554000  0.210000  1.0  -0.5866
