# generated using pymatgen
data_Fe2P2H2C3O14
_symmetry_space_group_name_H-M   'P 1'
_cell_length_a   9.26640000
_cell_length_b   15.20430000
_cell_length_c   11.98400000
_cell_angle_alpha   90.00000000
_cell_angle_beta   102.16700000
_cell_angle_gamma   90.00000000
_symmetry_Int_Tables_number   1
_chemical_formula_structural   Fe2P2H2C3O14
_chemical_formula_sum   'Fe8 P8 H8 C12 O56'
_cell_volume   1650.48916168
_cell_formula_units_Z   4
loop_
 _symmetry_equiv_pos_site_id
 _symmetry_equiv_pos_as_xyz
  1  'x, y, z'
loop_
 _atom_site_type_symbol
 _atom_site_label
 _atom_site_symmetry_multiplicity
 _atom_site_fract_x
 _atom_site_fract_y
 _atom_site_fract_z
 _atom_site_occupancy
 _atom_site_charge
  Fe  Fe1  1  0.632000  0.114280  0.665200  1.0  1.3707
  Fe  Fe2  1  0.752000  0.938360  0.999800  1.0  1.2324
  Fe  Fe3  1  0.868000  0.614280  0.834800  1.0  1.3712
  Fe  Fe4  1  0.748000  0.438360  0.500200  1.0  1.2317
  Fe  Fe5  1  0.368000  0.885720  0.334800  1.0  1.3714
  Fe  Fe6  1  0.248000  0.061640  0.000200  1.0  1.2314
  Fe  Fe7  1  0.132000  0.385720  0.165200  1.0  1.3709
  Fe  Fe8  1  0.252000  0.561640  0.499800  1.0  1.2324
  P  P9  1  0.894500  0.108000  0.890400  1.0  1.8507
  P  P10  1  0.449200  0.002700  0.816300  1.0  1.8622
  P  P11  1  0.605500  0.608000  0.609600  1.0  1.8503
  P  P12  1  0.050800  0.502700  0.683700  1.0  1.862
  P  P13  1  0.105500  0.892000  0.109600  1.0  1.8483
  P  P14  1  0.550800  0.997300  0.183700  1.0  1.8623
  P  P15  1  0.394500  0.392000  0.390400  1.0  1.8489
  P  P16  1  0.949200  0.497300  0.316300  1.0  1.8624
  H  H17  1  0.922500  0.237500  0.894200  1.0  0.4654
  H  H18  1  0.345700  0.901900  0.726500  1.0  0.5045
  H  H19  1  0.577500  0.737500  0.605800  1.0  0.4665
  H  H20  1  0.154300  0.401900  0.773500  1.0  0.5042
  H  H21  1  0.077500  0.762500  0.105800  1.0  0.4658
  H  H22  1  0.654300  0.098100  0.273500  1.0  0.5072
  H  H23  1  0.422500  0.262500  0.394200  1.0  0.4652
  H  H24  1  0.845700  0.598100  0.226500  1.0  0.5069
  C  C25  1  0.563300  0.968900  0.518800  1.0  0.6678
  C  C26  1  0.738200  0.253800  0.544400  1.0  0.6563
  C  C27  1  0.659100  0.296700  0.630900  1.0  0.6322
  C  C28  1  0.936700  0.468900  0.981200  1.0  0.6662
  C  C29  1  0.761800  0.753800  0.955600  1.0  0.6566
  C  C30  1  0.840900  0.796700  0.869100  1.0  0.6347
  C  C31  1  0.436700  0.031100  0.481200  1.0  0.667
  C  C32  1  0.261800  0.746200  0.455600  1.0  0.6568
  C  C33  1  0.340900  0.703300  0.369100  1.0  0.6426
  C  C34  1  0.063300  0.531100  0.018800  1.0  0.6683
  C  C35  1  0.238200  0.246200  0.044400  1.0  0.6565
  C  C36  1  0.159100  0.203300  0.130900  1.0  0.6408
  O  O37  1  0.518400  0.083800  0.773500  1.0  -0.8149
  O  O38  1  0.820900  0.102400  0.764500  1.0  -0.8148
  O  O39  1  0.599600  0.245400  0.690300  1.0  -0.526
  O  O40  1  0.666300  0.993500  0.598300  1.0  -0.5386
  O  O41  1  0.738100  0.170500  0.544200  1.0  -0.5288
  O  O42  1  0.443800  0.104800  0.533800  1.0  -0.5336
  O  O43  1  0.819400  0.052300  0.964800  1.0  -0.8245
  O  O44  1  0.316000  0.030800  0.863200  1.0  -0.7992
  O  O45  1  0.556500  0.948000  0.901100  1.0  -0.8699
  O  O46  1  0.054700  0.086700  0.898300  1.0  -0.7905
  O  O47  1  0.795000  0.303400  0.482500  1.0  -0.5049
  O  O48  1  0.659000  0.378200  0.633200  1.0  -0.5138
  O  O49  1  0.886100  0.203800  0.934100  1.0  -0.5991
  O  O50  1  0.388000  0.945200  0.708000  1.0  -0.591
  O  O51  1  0.981600  0.583800  0.726500  1.0  -0.8148
  O  O52  1  0.679100  0.602400  0.735500  1.0  -0.8142
  O  O53  1  0.900400  0.745400  0.809700  1.0  -0.529
  O  O54  1  0.833700  0.493500  0.901700  1.0  -0.5418
  O  O55  1  0.761900  0.670500  0.955800  1.0  -0.5271
  O  O56  1  0.056200  0.604800  0.966200  1.0  -0.5331
  O  O57  1  0.680600  0.552300  0.535200  1.0  -0.8259
  O  O58  1  0.184000  0.530800  0.636800  1.0  -0.7974
  O  O59  1  0.943500  0.448000  0.598900  1.0  -0.8695
  O  O60  1  0.445300  0.586700  0.601700  1.0  -0.792
  O  O61  1  0.705000  0.803400  0.017500  1.0  -0.5031
  O  O62  1  0.841000  0.878200  0.866800  1.0  -0.5158
  O  O63  1  0.613900  0.703800  0.565900  1.0  -0.6004
  O  O64  1  0.112000  0.445200  0.792000  1.0  -0.5863
  O  O65  1  0.481600  0.916200  0.226500  1.0  -0.8153
  O  O66  1  0.179100  0.897600  0.235500  1.0  -0.8136
  O  O67  1  0.400400  0.754600  0.309700  1.0  -0.5281
  O  O68  1  0.333700  0.006500  0.401700  1.0  -0.5421
  O  O69  1  0.261900  0.829500  0.455800  1.0  -0.5286
  O  O70  1  0.556200  0.895200  0.466200  1.0  -0.5336
  O  O71  1  0.180600  0.947700  0.035200  1.0  -0.8254
  O  O72  1  0.684000  0.969200  0.136800  1.0  -0.7976
  O  O73  1  0.443500  0.052000  0.098900  1.0  -0.8687
  O  O74  1  0.945300  0.913300  0.101700  1.0  -0.7917
  O  O75  1  0.205000  0.696600  0.517500  1.0  -0.5037
  O  O76  1  0.341000  0.621800  0.366800  1.0  -0.5153
  O  O77  1  0.113900  0.796200  0.065900  1.0  -0.5992
  O  O78  1  0.612000  0.054800  0.292000  1.0  -0.5886
  O  O79  1  0.018400  0.416200  0.273500  1.0  -0.814
  O  O80  1  0.320900  0.397600  0.264500  1.0  -0.8139
  O  O81  1  0.099600  0.254600  0.190300  1.0  -0.525
  O  O82  1  0.166300  0.506500  0.098300  1.0  -0.538
  O  O83  1  0.238100  0.329500  0.044200  1.0  -0.5253
  O  O84  1  0.943800  0.395200  0.033800  1.0  -0.5329
  O  O85  1  0.319400  0.447700  0.464800  1.0  -0.8243
  O  O86  1  0.816000  0.469200  0.363200  1.0  -0.7993
  O  O87  1  0.056500  0.552000  0.401100  1.0  -0.8697
  O  O88  1  0.554700  0.413300  0.398300  1.0  -0.7903
  O  O89  1  0.295000  0.196600  0.982500  1.0  -0.5051
  O  O90  1  0.159000  0.121800  0.133200  1.0  -0.5146
  O  O91  1  0.386100  0.296200  0.434100  1.0  -0.5973
  O  O92  1  0.888000  0.554800  0.208000  1.0  -0.5896
