# generated using pymatgen
data_InH5C8O5
_symmetry_space_group_name_H-M   'P 1'
_cell_length_a   18.22800000
_cell_length_b   11.97010000
_cell_length_c   34.06200000
_cell_angle_alpha   90.00000000
_cell_angle_beta   122.35500000
_cell_angle_gamma   90.00000000
_symmetry_Int_Tables_number   1
_chemical_formula_structural   InH5C8O5
_chemical_formula_sum   'In16 H80 C128 O80'
_cell_volume   6278.18882613
_cell_formula_units_Z   16
loop_
 _symmetry_equiv_pos_site_id
 _symmetry_equiv_pos_as_xyz
  1  'x, y, z'
loop_
 _atom_site_type_symbol
 _atom_site_label
 _atom_site_symmetry_multiplicity
 _atom_site_fract_x
 _atom_site_fract_y
 _atom_site_fract_z
 _atom_site_occupancy
 _atom_site_charge
  In  In1  1  0.124940  0.994470  0.124660  1.0  1.7053
  In  In2  1  0.250820  0.992810  0.250320  1.0  1.6677
  In  In3  1  0.624720  0.495300  0.125140  1.0  1.7179
  In  In4  1  0.875060  0.494470  0.375340  1.0  1.7054
  In  In5  1  0.749180  0.492810  0.249680  1.0  1.6676
  In  In6  1  0.375280  0.995300  0.374860  1.0  1.7176
  In  In7  1  0.875060  0.005530  0.875340  1.0  1.7054
  In  In8  1  0.749180  0.007190  0.749680  1.0  1.6675
  In  In9  1  0.375280  0.504700  0.874860  1.0  1.7177
  In  In10  1  0.124940  0.505530  0.624660  1.0  1.7054
  In  In11  1  0.250820  0.507190  0.750320  1.0  1.6676
  In  In12  1  0.624720  0.004700  0.625140  1.0  1.7179
  In  In13  1  0.500000  0.500000  0.000000  1.0  1.7118
  In  In14  1  0.500000  0.000000  0.500000  1.0  1.7118
  In  In15  1  0.000000  0.000000  0.000000  1.0  1.705
  In  In16  1  0.000000  0.500000  0.500000  1.0  1.705
  H  H17  1  0.169300  0.244900  0.994100  1.0  0.1058
  H  H18  1  0.278800  0.333600  0.993100  1.0  0.0995
  H  H19  1  0.433600  0.300000  0.131000  1.0  0.0981
  H  H20  1  0.323100  0.203200  0.132100  1.0  0.1048
  H  H21  1  0.569800  0.709000  0.256900  1.0  0.0989
  H  H22  1  0.460200  0.810100  0.257400  1.0  0.1076
  H  H23  1  0.328400  0.824500  0.117700  1.0  0.1097
  H  H24  1  0.439300  0.731900  0.118400  1.0  0.0971
  H  H25  1  0.796100  0.199500  0.993900  1.0  0.1052
  H  H26  1  0.684400  0.286900  0.992800  1.0  0.1008
  H  H27  1  0.809900  0.263000  0.131400  1.0  0.1069
  H  H28  1  0.920600  0.164600  0.131700  1.0  0.0969
  H  H29  1  0.962300  0.673400  0.257300  1.0  0.1038
  H  H30  1  0.072100  0.774600  0.257000  1.0  0.1004
  H  H31  1  0.928000  0.778100  0.117500  1.0  0.1004
  H  H32  1  0.818800  0.687500  0.118000  1.0  0.105
  H  H33  1  0.194000  0.142000  0.200000  1.0  0.4624
  H  H34  1  0.077000  0.840800  0.060000  1.0  0.4548
  H  H35  1  0.688000  0.339000  0.183000  1.0  0.4503
  H  H36  1  0.589000  0.650000  0.064000  1.0  0.4596
  H  H37  1  0.830700  0.744900  0.505900  1.0  0.1054
  H  H38  1  0.721200  0.833600  0.506900  1.0  0.0996
  H  H39  1  0.566400  0.800000  0.369000  1.0  0.0978
  H  H40  1  0.676900  0.703200  0.367900  1.0  0.1049
  H  H41  1  0.430200  0.209000  0.243100  1.0  0.0986
  H  H42  1  0.539800  0.310100  0.242600  1.0  0.1073
  H  H43  1  0.671600  0.324500  0.382300  1.0  0.1099
  H  H44  1  0.560700  0.231900  0.381600  1.0  0.0967
  H  H45  1  0.203900  0.699500  0.506100  1.0  0.1052
  H  H46  1  0.315600  0.786900  0.507200  1.0  0.1013
  H  H47  1  0.190100  0.763000  0.368600  1.0  0.1071
  H  H48  1  0.079400  0.664600  0.368300  1.0  0.0965
  H  H49  1  0.037700  0.173400  0.242700  1.0  0.1035
  H  H50  1  0.927900  0.274600  0.243000  1.0  0.1
  H  H51  1  0.072000  0.278100  0.382500  1.0  0.1008
  H  H52  1  0.181200  0.187500  0.382000  1.0  0.1049
  H  H53  1  0.806000  0.642000  0.300000  1.0  0.4658
  H  H54  1  0.923000  0.340800  0.440000  1.0  0.4557
  H  H55  1  0.312000  0.839000  0.317000  1.0  0.4549
  H  H56  1  0.411000  0.150000  0.436000  1.0  0.4601
  H  H57  1  0.830700  0.755100  0.005900  1.0  0.1058
  H  H58  1  0.721200  0.666400  0.006900  1.0  0.0995
  H  H59  1  0.566400  0.700000  0.869000  1.0  0.0979
  H  H60  1  0.676900  0.796800  0.867900  1.0  0.1046
  H  H61  1  0.430200  0.291000  0.743100  1.0  0.0983
  H  H62  1  0.539800  0.189900  0.742600  1.0  0.1074
  H  H63  1  0.671600  0.175500  0.882300  1.0  0.1098
  H  H64  1  0.560700  0.268100  0.881600  1.0  0.0972
  H  H65  1  0.203900  0.800500  0.006100  1.0  0.1056
  H  H66  1  0.315600  0.713100  0.007200  1.0  0.1012
  H  H67  1  0.190100  0.737000  0.868600  1.0  0.1073
  H  H68  1  0.079400  0.835400  0.868300  1.0  0.0969
  H  H69  1  0.037700  0.326600  0.742700  1.0  0.1032
  H  H70  1  0.927900  0.225400  0.743000  1.0  0.1001
  H  H71  1  0.072000  0.221900  0.882500  1.0  0.101
  H  H72  1  0.181200  0.312500  0.882000  1.0  0.1051
  H  H73  1  0.806000  0.858000  0.800000  1.0  0.4609
  H  H74  1  0.923000  0.159200  0.940000  1.0  0.4575
  H  H75  1  0.312000  0.661000  0.817000  1.0  0.4509
  H  H76  1  0.411000  0.350000  0.936000  1.0  0.4597
  H  H77  1  0.169300  0.255100  0.494100  1.0  0.106
  H  H78  1  0.278800  0.166400  0.493100  1.0  0.0995
  H  H79  1  0.433600  0.200000  0.631000  1.0  0.0979
  H  H80  1  0.323100  0.296800  0.632100  1.0  0.1047
  H  H81  1  0.569800  0.791000  0.756900  1.0  0.0989
  H  H82  1  0.460200  0.689900  0.757400  1.0  0.1076
  H  H83  1  0.328400  0.675500  0.617700  1.0  0.1095
  H  H84  1  0.439300  0.768100  0.618400  1.0  0.0971
  H  H85  1  0.796100  0.300500  0.493900  1.0  0.1051
  H  H86  1  0.684400  0.213100  0.492800  1.0  0.1009
  H  H87  1  0.809900  0.237000  0.631400  1.0  0.1066
  H  H88  1  0.920600  0.335400  0.631700  1.0  0.097
  H  H89  1  0.962300  0.826600  0.757300  1.0  0.1038
  H  H90  1  0.072100  0.725400  0.757000  1.0  0.1002
  H  H91  1  0.928000  0.721900  0.617500  1.0  0.1006
  H  H92  1  0.818800  0.812500  0.618000  1.0  0.1048
  H  H93  1  0.194000  0.358000  0.700000  1.0  0.4647
  H  H94  1  0.077000  0.659200  0.560000  1.0  0.4563
  H  H95  1  0.688000  0.161000  0.683000  1.0  0.4539
  H  H96  1  0.589000  0.850000  0.564000  1.0  0.4591
  C  C97  1  0.166800  0.146300  0.063430  1.0  0.7123
  C  C98  1  0.236100  0.213200  0.063090  1.0  -0.1338
  C  C99  1  0.222800  0.254300  0.021600  1.0  -0.0564
  C  C100  1  0.287800  0.308100  0.021160  1.0  -0.0538
  C  C101  1  0.368400  0.325900  0.062450  1.0  -0.1207
  C  C102  1  0.380800  0.287600  0.103400  1.0  -0.0471
  C  C103  1  0.314300  0.229800  0.104210  1.0  -0.0588
  C  C104  1  0.440000  0.384000  0.061500  1.0  0.7342
  C  C105  1  0.585500  0.644300  0.187760  1.0  0.7358
  C  C106  1  0.516100  0.712400  0.188070  1.0  -0.1393
  C  C107  1  0.521700  0.733700  0.229090  1.0  -0.055
  C  C108  1  0.455200  0.792700  0.229400  1.0  -0.0635
  C  C109  1  0.382800  0.824100  0.187770  1.0  -0.1418
  C  C110  1  0.377000  0.801800  0.145710  1.0  -0.0711
  C  C111  1  0.443100  0.746700  0.146260  1.0  -0.0541
  C  C112  1  0.308700  0.881900  0.187000  1.0  0.7378
  C  C113  1  0.942700  0.112800  0.063340  1.0  0.7224
  C  C114  1  0.870300  0.172500  0.063330  1.0  -0.1504
  C  C115  1  0.798500  0.210800  0.021580  1.0  -0.0543
  C  C116  1  0.732600  0.264200  0.020990  1.0  -0.0597
  C  C117  1  0.736200  0.285600  0.062130  1.0  -0.1393
  C  C118  1  0.806700  0.249100  0.103630  1.0  -0.0628
  C  C119  1  0.873600  0.190900  0.103800  1.0  -0.0549
  C  C120  1  0.666400  0.350600  0.062140  1.0  0.7167
  C  C121  1  0.807400  0.611100  0.187790  1.0  0.745
  C  C122  1  0.879900  0.671800  0.188160  1.0  -0.1238
  C  C123  1  0.955200  0.695900  0.229360  1.0  -0.0535
  C  C124  1  0.021800  0.755000  0.229090  1.0  -0.0548
  C  C125  1  0.012300  0.783700  0.187360  1.0  -0.1443
  C  C126  1  0.934900  0.757800  0.145650  1.0  -0.0588
  C  C127  1  0.870100  0.703700  0.145950  1.0  -0.0539
  C  C128  1  0.083700  0.847600  0.187500  1.0  0.7353
  C  C129  1  0.833200  0.646300  0.436570  1.0  0.7122
  C  C130  1  0.763900  0.713200  0.436910  1.0  -0.1334
  C  C131  1  0.777200  0.754300  0.478400  1.0  -0.0561
  C  C132  1  0.712200  0.808100  0.478840  1.0  -0.0548
  C  C133  1  0.631600  0.825900  0.437550  1.0  -0.1212
  C  C134  1  0.619200  0.787600  0.396600  1.0  -0.0462
  C  C135  1  0.685700  0.729800  0.395790  1.0  -0.058
  C  C136  1  0.560000  0.884000  0.438500  1.0  0.7347
  C  C137  1  0.414500  0.144300  0.312240  1.0  0.7352
  C  C138  1  0.483900  0.212400  0.311930  1.0  -0.1387
  C  C139  1  0.478300  0.233700  0.270910  1.0  -0.0535
  C  C140  1  0.544800  0.292700  0.270600  1.0  -0.0627
  C  C141  1  0.617200  0.324100  0.312230  1.0  -0.1411
  C  C142  1  0.623000  0.301800  0.354290  1.0  -0.0711
  C  C143  1  0.556900  0.246700  0.353740  1.0  -0.0539
  C  C144  1  0.691300  0.381900  0.313000  1.0  0.7377
  C  C145  1  0.057300  0.612800  0.436660  1.0  0.7229
  C  C146  1  0.129700  0.672500  0.436670  1.0  -0.15
  C  C147  1  0.201500  0.710800  0.478420  1.0  -0.0548
  C  C148  1  0.267400  0.764200  0.479010  1.0  -0.0602
  C  C149  1  0.263800  0.785600  0.437870  1.0  -0.1389
  C  C150  1  0.193300  0.749100  0.396370  1.0  -0.0639
  C  C151  1  0.126400  0.690900  0.396200  1.0  -0.0549
  C  C152  1  0.333600  0.850600  0.437860  1.0  0.7166
  C  C153  1  0.192600  0.111100  0.312210  1.0  0.7446
  C  C154  1  0.120100  0.171800  0.311840  1.0  -0.124
  C  C155  1  0.044800  0.195900  0.270640  1.0  -0.0527
  C  C156  1  0.978200  0.255000  0.270910  1.0  -0.0539
  C  C157  1  0.987700  0.283700  0.312640  1.0  -0.144
  C  C158  1  0.065100  0.257800  0.354350  1.0  -0.06
  C  C159  1  0.129900  0.203700  0.354050  1.0  -0.0542
  C  C160  1  0.916300  0.347600  0.312500  1.0  0.7354
  C  C161  1  0.833200  0.853700  0.936570  1.0  0.7129
  C  C162  1  0.763900  0.786800  0.936910  1.0  -0.1336
  C  C163  1  0.777200  0.745700  0.978400  1.0  -0.0559
  C  C164  1  0.712200  0.691900  0.978840  1.0  -0.0544
  C  C165  1  0.631600  0.674100  0.937550  1.0  -0.1207
  C  C166  1  0.619200  0.712400  0.896600  1.0  -0.0458
  C  C167  1  0.685700  0.770200  0.895790  1.0  -0.0582
  C  C168  1  0.560000  0.616000  0.938500  1.0  0.7346
  C  C169  1  0.414500  0.355700  0.812240  1.0  0.7361
  C  C170  1  0.483900  0.287600  0.811930  1.0  -0.1382
  C  C171  1  0.478300  0.266300  0.770910  1.0  -0.054
  C  C172  1  0.544800  0.207300  0.770600  1.0  -0.0624
  C  C173  1  0.617200  0.175900  0.812230  1.0  -0.1411
  C  C174  1  0.623000  0.198200  0.854290  1.0  -0.0712
  C  C175  1  0.556900  0.253300  0.853740  1.0  -0.0539
  C  C176  1  0.691300  0.118100  0.813000  1.0  0.7374
  C  C177  1  0.057300  0.887200  0.936660  1.0  0.7234
  C  C178  1  0.129700  0.827500  0.936670  1.0  -0.15
  C  C179  1  0.201500  0.789200  0.978420  1.0  -0.0551
  C  C180  1  0.267400  0.735800  0.979010  1.0  -0.0605
  C  C181  1  0.263800  0.714400  0.937870  1.0  -0.1383
  C  C182  1  0.193300  0.750900  0.896370  1.0  -0.0638
  C  C183  1  0.126400  0.809100  0.896200  1.0  -0.0555
  C  C184  1  0.333600  0.649400  0.937860  1.0  0.7163
  C  C185  1  0.192600  0.388900  0.812210  1.0  0.7453
  C  C186  1  0.120100  0.328200  0.811840  1.0  -0.1237
  C  C187  1  0.044800  0.304100  0.770640  1.0  -0.0534
  C  C188  1  0.978200  0.245000  0.770910  1.0  -0.0534
  C  C189  1  0.987700  0.216300  0.812640  1.0  -0.1438
  C  C190  1  0.065100  0.242200  0.854350  1.0  -0.0599
  C  C191  1  0.129900  0.296300  0.854050  1.0  -0.0543
  C  C192  1  0.916300  0.152400  0.812500  1.0  0.7348
  C  C193  1  0.166800  0.353700  0.563430  1.0  0.7131
  C  C194  1  0.236100  0.286800  0.563090  1.0  -0.1342
  C  C195  1  0.222800  0.245700  0.521600  1.0  -0.0562
  C  C196  1  0.287800  0.191900  0.521160  1.0  -0.053
  C  C197  1  0.368400  0.174100  0.562450  1.0  -0.1205
  C  C198  1  0.380800  0.212400  0.603400  1.0  -0.0467
  C  C199  1  0.314300  0.270200  0.604210  1.0  -0.0594
  C  C200  1  0.440000  0.116000  0.561500  1.0  0.734
  C  C201  1  0.585500  0.855700  0.687760  1.0  0.7367
  C  C202  1  0.516100  0.787600  0.688070  1.0  -0.139
  C  C203  1  0.521700  0.766300  0.729090  1.0  -0.0554
  C  C204  1  0.455200  0.707300  0.729400  1.0  -0.0633
  C  C205  1  0.382800  0.675900  0.687770  1.0  -0.1417
  C  C206  1  0.377000  0.698200  0.645710  1.0  -0.071
  C  C207  1  0.443100  0.753300  0.646260  1.0  -0.0543
  C  C208  1  0.308700  0.618100  0.687000  1.0  0.7374
  C  C209  1  0.942700  0.387200  0.563340  1.0  0.723
  C  C210  1  0.870300  0.327500  0.563330  1.0  -0.1505
  C  C211  1  0.798500  0.289200  0.521580  1.0  -0.0546
  C  C212  1  0.732600  0.235800  0.520990  1.0  -0.0599
  C  C213  1  0.736200  0.214400  0.562130  1.0  -0.1388
  C  C214  1  0.806700  0.250900  0.603630  1.0  -0.0627
  C  C215  1  0.873600  0.309100  0.603800  1.0  -0.0553
  C  C216  1  0.666400  0.149400  0.562140  1.0  0.7164
  C  C217  1  0.807400  0.888900  0.687790  1.0  0.7456
  C  C218  1  0.879900  0.828200  0.688160  1.0  -0.1235
  C  C219  1  0.955200  0.804100  0.729360  1.0  -0.0536
  C  C220  1  0.021800  0.745000  0.729090  1.0  -0.0542
  C  C221  1  0.012300  0.716300  0.687360  1.0  -0.1444
  C  C222  1  0.934900  0.742200  0.645650  1.0  -0.058
  C  C223  1  0.870100  0.796300  0.645950  1.0  -0.0541
  C  C224  1  0.083700  0.652400  0.687500  1.0  0.735
  O  O225  1  0.179900  0.078900  0.187700  1.0  -0.9932
  O  O226  1  0.068800  0.909900  0.061680  1.0  -1.0581
  O  O227  1  0.679600  0.405900  0.187110  1.0  -0.977
  O  O228  1  0.570400  0.583900  0.063250  1.0  -1.0656
  O  O229  1  0.100600  0.122900  0.024400  1.0  -0.6329
  O  O230  1  0.179200  0.120100  0.102270  1.0  -0.6296
  O  O231  1  0.427400  0.409800  0.022930  1.0  -0.6159
  O  O232  1  0.508200  0.402100  0.100360  1.0  -0.6191
  O  O233  1  0.573100  0.618600  0.149240  1.0  -0.6159
  O  O234  1  0.649500  0.617400  0.226810  1.0  -0.6192
  O  O235  1  0.319000  0.900600  0.225830  1.0  -0.622
  O  O236  1  0.243600  0.904700  0.148500  1.0  -0.6247
  O  O237  1  0.008600  0.088000  0.102720  1.0  -0.6451
  O  O238  1  0.932200  0.093400  0.024600  1.0  -0.6182
  O  O239  1  0.677900  0.373700  0.100940  1.0  -0.6195
  O  O240  1  0.599700  0.374700  0.023170  1.0  -0.6426
  O  O241  1  0.741600  0.589800  0.149460  1.0  -0.6328
  O  O242  1  0.819300  0.587900  0.226800  1.0  -0.627
  O  O243  1  0.148500  0.871300  0.226150  1.0  -0.6149
  O  O244  1  0.071600  0.871000  0.148640  1.0  -0.6345
  O  O245  1  0.820100  0.578900  0.312300  1.0  -0.9927
  O  O246  1  0.931200  0.409900  0.438320  1.0  -1.058
  O  O247  1  0.320400  0.905900  0.312890  1.0  -0.9764
  O  O248  1  0.429600  0.083900  0.436750  1.0  -1.0647
  O  O249  1  0.899400  0.622900  0.475600  1.0  -0.6336
  O  O250  1  0.820800  0.620100  0.397730  1.0  -0.6299
  O  O251  1  0.572600  0.909800  0.477070  1.0  -0.6137
  O  O252  1  0.491800  0.902100  0.399640  1.0  -0.6187
  O  O253  1  0.426900  0.118600  0.350760  1.0  -0.6156
  O  O254  1  0.350500  0.117400  0.273190  1.0  -0.6179
  O  O255  1  0.681000  0.400600  0.274170  1.0  -0.6228
  O  O256  1  0.756400  0.404700  0.351500  1.0  -0.6242
  O  O257  1  0.991400  0.588000  0.397280  1.0  -0.6436
  O  O258  1  0.067800  0.593400  0.475400  1.0  -0.6159
  O  O259  1  0.322100  0.873700  0.399060  1.0  -0.6206
  O  O260  1  0.400300  0.874700  0.476830  1.0  -0.6415
  O  O261  1  0.258400  0.089800  0.350540  1.0  -0.6335
  O  O262  1  0.180700  0.087900  0.273200  1.0  -0.6274
  O  O263  1  0.851500  0.371300  0.273850  1.0  -0.6154
  O  O264  1  0.928400  0.371000  0.351360  1.0  -0.6337
  O  O265  1  0.820100  0.921100  0.812300  1.0  -0.9949
  O  O266  1  0.931200  0.090100  0.938320  1.0  -1.0581
  O  O267  1  0.320400  0.594100  0.812890  1.0  -0.9779
  O  O268  1  0.429600  0.416100  0.936750  1.0  -1.0679
  O  O269  1  0.899400  0.877100  0.975600  1.0  -0.6338
  O  O270  1  0.820800  0.879900  0.897730  1.0  -0.6298
  O  O271  1  0.572600  0.590200  0.977070  1.0  -0.6143
  O  O272  1  0.491800  0.597900  0.899640  1.0  -0.6189
  O  O273  1  0.426900  0.381400  0.850760  1.0  -0.6155
  O  O274  1  0.350500  0.382600  0.773190  1.0  -0.6181
  O  O275  1  0.681000  0.099400  0.774170  1.0  -0.6233
  O  O276  1  0.756400  0.095300  0.851500  1.0  -0.6252
  O  O277  1  0.991400  0.912000  0.897280  1.0  -0.6444
  O  O278  1  0.067800  0.906600  0.975400  1.0  -0.6155
  O  O279  1  0.322100  0.626300  0.899060  1.0  -0.6203
  O  O280  1  0.400300  0.625300  0.976830  1.0  -0.6406
  O  O281  1  0.258400  0.410200  0.850540  1.0  -0.6328
  O  O282  1  0.180700  0.412100  0.773200  1.0  -0.6276
  O  O283  1  0.851500  0.128700  0.773850  1.0  -0.6158
  O  O284  1  0.928400  0.129000  0.851360  1.0  -0.6336
  O  O285  1  0.179900  0.421100  0.687700  1.0  -0.9952
  O  O286  1  0.068800  0.590100  0.561680  1.0  -1.058
  O  O287  1  0.679600  0.094100  0.687110  1.0  -0.9781
  O  O288  1  0.570400  0.916100  0.563250  1.0  -1.0686
  O  O289  1  0.100600  0.377100  0.524400  1.0  -0.6336
  O  O290  1  0.179200  0.379900  0.602270  1.0  -0.629
  O  O291  1  0.427400  0.090200  0.522930  1.0  -0.6156
  O  O292  1  0.508200  0.097900  0.600360  1.0  -0.6201
  O  O293  1  0.573100  0.881400  0.649240  1.0  -0.6169
  O  O294  1  0.649500  0.882600  0.726810  1.0  -0.6191
  O  O295  1  0.319000  0.599400  0.725830  1.0  -0.6227
  O  O296  1  0.243600  0.595300  0.648500  1.0  -0.6251
  O  O297  1  0.008600  0.412000  0.602720  1.0  -0.645
  O  O298  1  0.932200  0.406600  0.524600  1.0  -0.6181
  O  O299  1  0.677900  0.126300  0.600940  1.0  -0.62
  O  O300  1  0.599700  0.125300  0.523170  1.0  -0.6416
  O  O301  1  0.741600  0.910200  0.649460  1.0  -0.6331
  O  O302  1  0.819300  0.912100  0.726800  1.0  -0.6264
  O  O303  1  0.148500  0.628700  0.726150  1.0  -0.6157
  O  O304  1  0.071600  0.629000  0.648640  1.0  -0.6338
