# generated using pymatgen
data_Cu3H34C48(NO6)2
_symmetry_space_group_name_H-M   'P 1'
_cell_length_a   19.15600000
_cell_length_b   19.15600000
_cell_length_c   33.50600000
_cell_angle_alpha   73.38980000
_cell_angle_beta   73.38980000
_cell_angle_gamma   89.99990000
_symmetry_Int_Tables_number   1
_chemical_formula_structural   Cu3H34C48(NO6)2
_chemical_formula_sum   'Cu12 H136 C192 N8 O48'
_cell_volume   11245.61670586
_cell_formula_units_Z   4
loop_
 _symmetry_equiv_pos_site_id
 _symmetry_equiv_pos_as_xyz
  1  'x, y, z'
loop_
 _atom_site_type_symbol
 _atom_site_label
 _atom_site_symmetry_multiplicity
 _atom_site_fract_x
 _atom_site_fract_y
 _atom_site_fract_z
 _atom_site_occupancy
 _atom_site_charge
  Cu  Cu1  1  0.002230  0.070930  0.495540  1.0  0.8306
  Cu  Cu2  1  0.002230  0.433530  0.495540  1.0  0.8307
  Cu  Cu3  1  0.570930  0.502230  0.995540  1.0  0.8301
  Cu  Cu4  1  0.933530  0.502230  0.995540  1.0  0.8287
  Cu  Cu5  1  0.997770  0.929070  0.504460  1.0  0.8303
  Cu  Cu6  1  0.997770  0.566470  0.504460  1.0  0.8303
  Cu  Cu7  1  0.066470  0.497770  0.004460  1.0  0.8298
  Cu  Cu8  1  0.429070  0.497770  0.004460  1.0  0.8286
  Cu  Cu9  1  0.396430  0.146430  0.707140  1.0  0.9129
  Cu  Cu10  1  0.646430  0.896430  0.207140  1.0  0.9129
  Cu  Cu11  1  0.603570  0.853570  0.292860  1.0  0.9116
  Cu  Cu12  1  0.353570  0.103570  0.792860  1.0  0.9115
  H  H13  1  0.801800  0.854800  0.614400  1.0  0.0985
  H  H14  1  0.703300  0.837200  0.676200  1.0  0.1079
  H  H15  1  0.708000  0.053000  0.656400  1.0  0.108
  H  H16  1  0.807000  0.071000  0.595200  1.0  0.1039
  H  H17  1  0.583400  0.021700  0.687400  1.0  0.1117
  H  H18  1  0.968600  0.221300  0.443000  1.0  0.065
  H  H19  1  0.905700  0.199100  0.487400  1.0  0.064
  H  H20  1  0.014600  0.166200  0.552000  1.0  0.0693
  H  H21  1  0.083800  0.530800  0.614400  1.0  0.0993
  H  H22  1  0.120500  0.486600  0.676200  1.0  0.1147
  H  H23  1  0.135600  0.290600  0.656400  1.0  0.1101
  H  H24  1  0.097800  0.333800  0.595200  1.0  0.1041
  H  H25  1  0.229200  0.290900  0.687400  1.0  0.1113
  H  H26  1  0.088400  0.335700  0.443000  1.0  0.0651
  H  H27  1  0.106900  0.313500  0.487400  1.0  0.0689
  H  H28  1  0.933400  0.281800  0.552000  1.0  0.0712
  H  H29  1  0.354800  0.583800  0.114400  1.0  0.0986
  H  H30  1  0.337200  0.620500  0.176200  1.0  0.1123
  H  H31  1  0.553000  0.635600  0.156400  1.0  0.1092
  H  H32  1  0.571000  0.597800  0.095200  1.0  0.1057
  H  H33  1  0.521700  0.729200  0.187400  1.0  0.1113
  H  H34  1  0.721300  0.588400  0.943000  1.0  0.0715
  H  H35  1  0.699100  0.606900  0.987400  1.0  0.0684
  H  H36  1  0.666200  0.433400  0.052000  1.0  0.0741
  H  H37  1  0.030800  0.301800  0.114400  1.0  0.1001
  H  H38  1  0.986600  0.203300  0.176200  1.0  0.113
  H  H39  1  0.790600  0.208000  0.156400  1.0  0.109
  H  H40  1  0.833800  0.307000  0.095200  1.0  0.1039
  H  H41  1  0.790900  0.083400  0.187400  1.0  0.113
  H  H42  1  0.835700  0.468600  0.943000  1.0  0.0713
  H  H43  1  0.813500  0.405700  0.987400  1.0  0.0682
  H  H44  1  0.781800  0.514600  0.052000  1.0  0.0704
  H  H45  1  0.916200  0.145200  0.385600  1.0  0.0977
  H  H46  1  0.879500  0.162800  0.323800  1.0  0.1119
  H  H47  1  0.864400  0.947000  0.343600  1.0  0.1082
  H  H48  1  0.902200  0.929000  0.404800  1.0  0.1054
  H  H49  1  0.770800  0.978300  0.312600  1.0  0.111
  H  H50  1  0.911600  0.778700  0.557000  1.0  0.0721
  H  H51  1  0.893100  0.800900  0.512600  1.0  0.0646
  H  H52  1  0.066600  0.833800  0.448000  1.0  0.0737
  H  H53  1  0.198200  0.469200  0.385600  1.0  0.0999
  H  H54  1  0.296700  0.513400  0.323800  1.0  0.1117
  H  H55  1  0.292000  0.709400  0.343600  1.0  0.109
  H  H56  1  0.193000  0.666200  0.404800  1.0  0.1045
  H  H57  1  0.416600  0.709100  0.312600  1.0  0.1119
  H  H58  1  0.031400  0.664300  0.557000  1.0  0.0719
  H  H59  1  0.094300  0.686500  0.512600  1.0  0.0644
  H  H60  1  0.985400  0.718200  0.448000  1.0  0.0708
  H  H61  1  0.969200  0.416200  0.885600  1.0  0.1011
  H  H62  1  0.013400  0.379500  0.823800  1.0  0.1098
  H  H63  1  0.209400  0.364400  0.843600  1.0  0.1104
  H  H64  1  0.166200  0.402200  0.904800  1.0  0.1046
  H  H65  1  0.209100  0.270800  0.812600  1.0  0.1111
  H  H66  1  0.164300  0.411600  0.057000  1.0  0.0645
  H  H67  1  0.186500  0.393100  0.012600  1.0  0.0658
  H  H68  1  0.218200  0.566600  0.948000  1.0  0.0751
  H  H69  1  0.645200  0.698200  0.885600  1.0  0.0993
  H  H70  1  0.662800  0.796700  0.823800  1.0  0.1125
  H  H71  1  0.447000  0.792000  0.843600  1.0  0.1088
  H  H72  1  0.429000  0.693000  0.904800  1.0  0.1043
  H  H73  1  0.478300  0.916600  0.812600  1.0  0.1124
  H  H74  1  0.278700  0.531400  0.057000  1.0  0.0657
  H  H75  1  0.300900  0.594300  0.012600  1.0  0.0713
  H  H76  1  0.333800  0.485400  0.948000  1.0  0.0688
  H  H77  1  0.198200  0.145200  0.385600  1.0  0.0984
  H  H78  1  0.296700  0.162800  0.323800  1.0  0.1083
  H  H79  1  0.292000  0.947000  0.343600  1.0  0.1078
  H  H80  1  0.193000  0.929000  0.404800  1.0  0.1045
  H  H81  1  0.416600  0.978300  0.312600  1.0  0.1118
  H  H82  1  0.031400  0.778700  0.557000  1.0  0.0658
  H  H83  1  0.094300  0.800900  0.512600  1.0  0.0638
  H  H84  1  0.985400  0.833800  0.448000  1.0  0.069
  H  H85  1  0.916200  0.469200  0.385600  1.0  0.0997
  H  H86  1  0.879500  0.513400  0.323800  1.0  0.1139
  H  H87  1  0.864400  0.709400  0.343600  1.0  0.1102
  H  H88  1  0.902200  0.666200  0.404800  1.0  0.1038
  H  H89  1  0.770800  0.709100  0.312600  1.0  0.1105
  H  H90  1  0.911600  0.664300  0.557000  1.0  0.0653
  H  H91  1  0.893100  0.686500  0.512600  1.0  0.0665
  H  H92  1  0.066600  0.718200  0.448000  1.0  0.0726
  H  H93  1  0.645200  0.416200  0.885600  1.0  0.0989
  H  H94  1  0.662800  0.379500  0.823800  1.0  0.1123
  H  H95  1  0.447000  0.364400  0.843600  1.0  0.1093
  H  H96  1  0.429000  0.402200  0.904800  1.0  0.1055
  H  H97  1  0.478300  0.270800  0.812600  1.0  0.1115
  H  H98  1  0.278700  0.411600  0.057000  1.0  0.0733
  H  H99  1  0.300900  0.393100  0.012600  1.0  0.0657
  H  H100  1  0.333800  0.566600  0.948000  1.0  0.0736
  H  H101  1  0.969200  0.698200  0.885600  1.0  0.0998
  H  H102  1  0.013400  0.796700  0.823800  1.0  0.1129
  H  H103  1  0.209400  0.792000  0.843600  1.0  0.1094
  H  H104  1  0.166200  0.693000  0.904800  1.0  0.1036
  H  H105  1  0.209100  0.916600  0.812600  1.0  0.1119
  H  H106  1  0.164300  0.531400  0.057000  1.0  0.0693
  H  H107  1  0.186500  0.594300  0.012600  1.0  0.0677
  H  H108  1  0.218200  0.485400  0.948000  1.0  0.0709
  H  H109  1  0.083800  0.854800  0.614400  1.0  0.0986
  H  H110  1  0.120500  0.837200  0.676200  1.0  0.1117
  H  H111  1  0.135600  0.053000  0.656400  1.0  0.1081
  H  H112  1  0.097800  0.071000  0.595200  1.0  0.1055
  H  H113  1  0.229200  0.021700  0.687400  1.0  0.1111
  H  H114  1  0.088400  0.221300  0.443000  1.0  0.0718
  H  H115  1  0.106900  0.199100  0.487400  1.0  0.0626
  H  H116  1  0.933400  0.166200  0.552000  1.0  0.0733
  H  H117  1  0.801800  0.530800  0.614400  1.0  0.0989
  H  H118  1  0.703300  0.486600  0.676200  1.0  0.1122
  H  H119  1  0.708000  0.290600  0.656400  1.0  0.1085
  H  H120  1  0.807000  0.333800  0.595200  1.0  0.1046
  H  H121  1  0.583400  0.290900  0.687400  1.0  0.1129
  H  H122  1  0.968600  0.335700  0.443000  1.0  0.0711
  H  H123  1  0.905700  0.313500  0.487400  1.0  0.0634
  H  H124  1  0.014600  0.281800  0.552000  1.0  0.0702
  H  H125  1  0.030800  0.583800  0.114400  1.0  0.0995
  H  H126  1  0.986600  0.620500  0.176200  1.0  0.1096
  H  H127  1  0.790600  0.635600  0.156400  1.0  0.1125
  H  H128  1  0.833800  0.597800  0.095200  1.0  0.1044
  H  H129  1  0.790900  0.729200  0.187400  1.0  0.111
  H  H130  1  0.835700  0.588400  0.943000  1.0  0.0649
  H  H131  1  0.813500  0.606900  0.987400  1.0  0.065
  H  H132  1  0.781800  0.433400  0.052000  1.0  0.0746
  H  H133  1  0.354800  0.301800  0.114400  1.0  0.0988
  H  H134  1  0.337200  0.203300  0.176200  1.0  0.1124
  H  H135  1  0.553000  0.208000  0.156400  1.0  0.1084
  H  H136  1  0.571000  0.307000  0.095200  1.0  0.1047
  H  H137  1  0.521700  0.083400  0.187400  1.0  0.1124
  H  H138  1  0.721300  0.468600  0.943000  1.0  0.0647
  H  H139  1  0.699100  0.405700  0.987400  1.0  0.0686
  H  H140  1  0.666200  0.514600  0.052000  1.0  0.0684
  H  H141  1  0.658900  0.841100  0.750000  1.0  0.1066
  H  H142  1  0.091100  0.408900  0.750000  1.0  0.11
  H  H143  1  0.341100  0.591100  0.250000  1.0  0.1086
  H  H144  1  0.908900  0.158900  0.250000  1.0  0.1079
  H  H145  1  0.341100  0.158900  0.250000  1.0  0.1066
  H  H146  1  0.908900  0.591100  0.250000  1.0  0.1101
  H  H147  1  0.658900  0.408900  0.750000  1.0  0.1079
  H  H148  1  0.091100  0.841100  0.750000  1.0  0.1086
  C  C149  1  0.880500  0.976370  0.559840  1.0  0.6869
  C  C150  1  0.814740  0.964670  0.598560  1.0  -0.1424
  C  C151  1  0.783160  0.894900  0.622900  1.0  -0.0556
  C  C152  1  0.723880  0.884370  0.659880  1.0  -0.118
  C  C153  1  0.694940  0.943350  0.672840  1.0  0.0557
  C  C154  1  0.726850  0.012800  0.648120  1.0  -0.1471
  C  C155  1  0.786220  0.023830  0.611360  1.0  -0.0578
  C  C156  1  0.632170  0.933750  0.712400  1.0  0.0219
  C  C157  1  0.580000  0.983620  0.712580  1.0  -0.0605
  C  C158  1  0.954710  0.223200  0.472780  1.0  0.0076
  C  C159  1  0.059660  0.463790  0.559840  1.0  0.6883
  C  C160  1  0.086700  0.436770  0.598560  1.0  -0.1429
  C  C161  1  0.093940  0.482200  0.622900  1.0  -0.0548
  C  C162  1  0.116240  0.455750  0.659880  1.0  -0.1309
  C  C163  1  0.132220  0.383810  0.672840  1.0  0.0551
  C  C164  1  0.125030  0.339080  0.648120  1.0  -0.1457
  C  C165  1  0.102420  0.364810  0.611360  1.0  -0.0584
  C  C166  1  0.155430  0.353850  0.712400  1.0  0.0224
  C  C167  1  0.207420  0.303800  0.712580  1.0  -0.0583
  C  C168  1  0.072510  0.304020  0.472780  1.0  -0.005
  C  C169  1  0.476370  0.559660  0.059840  1.0  0.685
  C  C170  1  0.464670  0.586700  0.098560  1.0  -0.1432
  C  C171  1  0.394900  0.593940  0.122900  1.0  -0.0533
  C  C172  1  0.384370  0.616240  0.159880  1.0  -0.125
  C  C173  1  0.443350  0.632220  0.172840  1.0  0.0588
  C  C174  1  0.512800  0.625030  0.148120  1.0  -0.1465
  C  C175  1  0.523830  0.602420  0.111360  1.0  -0.0596
  C  C176  1  0.433750  0.655430  0.212400  1.0  0.0225
  C  C177  1  0.483620  0.707420  0.212580  1.0  -0.0534
  C  C178  1  0.723200  0.572510  0.972780  1.0  -0.0105
  C  C179  1  0.963790  0.380500  0.059840  1.0  0.6868
  C  C180  1  0.936770  0.314740  0.098560  1.0  -0.1384
  C  C181  1  0.982200  0.283160  0.122900  1.0  -0.0535
  C  C182  1  0.955750  0.223880  0.159880  1.0  -0.1265
  C  C183  1  0.883810  0.194940  0.172840  1.0  0.0581
  C  C184  1  0.839080  0.226850  0.148120  1.0  -0.1474
  C  C185  1  0.864810  0.286220  0.111360  1.0  -0.0611
  C  C186  1  0.853850  0.132170  0.212400  1.0  0.0223
  C  C187  1  0.803800  0.080000  0.212580  1.0  -0.051
  C  C188  1  0.804020  0.454710  0.972780  1.0  -0.0028
  C  C189  1  0.940340  0.023630  0.440160  1.0  0.6862
  C  C190  1  0.913300  0.035330  0.401440  1.0  -0.1431
  C  C191  1  0.906060  0.105100  0.377100  1.0  -0.0548
  C  C192  1  0.883760  0.115630  0.340120  1.0  -0.1252
  C  C193  1  0.867780  0.056650  0.327160  1.0  0.059
  C  C194  1  0.874970  0.987200  0.351880  1.0  -0.1476
  C  C195  1  0.897580  0.976170  0.388640  1.0  -0.0541
  C  C196  1  0.844570  0.066250  0.287600  1.0  0.0223
  C  C197  1  0.792580  0.016380  0.287420  1.0  -0.0512
  C  C198  1  0.927490  0.776800  0.527220  1.0  -0.0112
  C  C199  1  0.119500  0.536210  0.440160  1.0  0.6868
  C  C200  1  0.185260  0.563230  0.401440  1.0  -0.1406
  C  C201  1  0.216840  0.517800  0.377100  1.0  -0.0554
  C  C202  1  0.276120  0.544250  0.340120  1.0  -0.1265
  C  C203  1  0.305060  0.616190  0.327160  1.0  0.0585
  C  C204  1  0.273150  0.660920  0.351880  1.0  -0.1475
  C  C205  1  0.213780  0.635190  0.388640  1.0  -0.0599
  C  C206  1  0.367830  0.646150  0.287600  1.0  0.0218
  C  C207  1  0.420000  0.696200  0.287420  1.0  -0.0516
  C  C208  1  0.045290  0.695980  0.527220  1.0  -0.004
  C  C209  1  0.036210  0.440340  0.940160  1.0  0.6875
  C  C210  1  0.063230  0.413300  0.901440  1.0  -0.142
  C  C211  1  0.017800  0.406060  0.877100  1.0  -0.0528
  C  C212  1  0.044250  0.383760  0.840120  1.0  -0.131
  C  C213  1  0.116190  0.367780  0.827160  1.0  0.0548
  C  C214  1  0.160920  0.374970  0.851880  1.0  -0.1435
  C  C215  1  0.135190  0.397580  0.888640  1.0  -0.0589
  C  C216  1  0.146150  0.344570  0.787600  1.0  0.0215
  C  C217  1  0.196200  0.292580  0.787420  1.0  -0.056
  C  C218  1  0.195980  0.427490  0.027220  1.0  -0.0036
  C  C219  1  0.523630  0.619500  0.940160  1.0  0.6867
  C  C220  1  0.535330  0.685260  0.901440  1.0  -0.1401
  C  C221  1  0.605100  0.716840  0.877100  1.0  -0.0531
  C  C222  1  0.615630  0.776120  0.840120  1.0  -0.1287
  C  C223  1  0.556650  0.805060  0.827160  1.0  0.0564
  C  C224  1  0.487200  0.773150  0.851880  1.0  -0.144
  C  C225  1  0.476170  0.713780  0.888640  1.0  -0.0605
  C  C226  1  0.566250  0.867830  0.787600  1.0  0.0222
  C  C227  1  0.516380  0.920000  0.787420  1.0  -0.0617
  C  C228  1  0.276800  0.545290  0.027220  1.0  0.0056
  C  C229  1  0.119500  0.023630  0.440160  1.0  0.6872
  C  C230  1  0.185260  0.035330  0.401440  1.0  -0.1425
  C  C231  1  0.216840  0.105100  0.377100  1.0  -0.0555
  C  C232  1  0.276120  0.115630  0.340120  1.0  -0.1168
  C  C233  1  0.305060  0.056650  0.327160  1.0  0.0556
  C  C234  1  0.273150  0.987200  0.351880  1.0  -0.1449
  C  C235  1  0.213780  0.976170  0.388640  1.0  -0.0565
  C  C236  1  0.367830  0.066250  0.287600  1.0  0.0216
  C  C237  1  0.420000  0.016380  0.287420  1.0  -0.0586
  C  C238  1  0.045290  0.776800  0.527220  1.0  0.0081
  C  C239  1  0.940340  0.536210  0.440160  1.0  0.6871
  C  C240  1  0.913300  0.563230  0.401440  1.0  -0.1434
  C  C241  1  0.906060  0.517800  0.377100  1.0  -0.0526
  C  C242  1  0.883760  0.544250  0.340120  1.0  -0.1305
  C  C243  1  0.867780  0.616190  0.327160  1.0  0.0552
  C  C244  1  0.874970  0.660920  0.351880  1.0  -0.1465
  C  C245  1  0.897580  0.635190  0.388640  1.0  -0.0581
  C  C246  1  0.844570  0.646150  0.287600  1.0  0.0224
  C  C247  1  0.792580  0.696200  0.287420  1.0  -0.059
  C  C248  1  0.927490  0.695980  0.527220  1.0  -0.0053
  C  C249  1  0.523630  0.440340  0.940160  1.0  0.685
  C  C250  1  0.535330  0.413300  0.901440  1.0  -0.1424
  C  C251  1  0.605100  0.406060  0.877100  1.0  -0.0529
  C  C252  1  0.615630  0.383760  0.840120  1.0  -0.1226
  C  C253  1  0.556650  0.367780  0.827160  1.0  0.0594
  C  C254  1  0.487200  0.374970  0.851880  1.0  -0.1474
  C  C255  1  0.476170  0.397580  0.888640  1.0  -0.0586
  C  C256  1  0.566250  0.344570  0.787600  1.0  0.0222
  C  C257  1  0.516380  0.292580  0.787420  1.0  -0.0528
  C  C258  1  0.276800  0.427490  0.027220  1.0  -0.008
  C  C259  1  0.036210  0.619500  0.940160  1.0  0.6876
  C  C260  1  0.063230  0.685260  0.901440  1.0  -0.1389
  C  C261  1  0.017800  0.716840  0.877100  1.0  -0.0538
  C  C262  1  0.044250  0.776120  0.840120  1.0  -0.1282
  C  C263  1  0.116190  0.805060  0.827160  1.0  0.0584
  C  C264  1  0.160920  0.773150  0.851880  1.0  -0.146
  C  C265  1  0.135190  0.713780  0.888640  1.0  -0.0607
  C  C266  1  0.146150  0.867830  0.787600  1.0  0.022
  C  C267  1  0.196200  0.920000  0.787420  1.0  -0.0522
  C  C268  1  0.195980  0.545290  0.027220  1.0  -0.0059
  C  C269  1  0.059660  0.976370  0.559840  1.0  0.6866
  C  C270  1  0.086700  0.964670  0.598560  1.0  -0.1432
  C  C271  1  0.093940  0.894900  0.622900  1.0  -0.055
  C  C272  1  0.116240  0.884370  0.659880  1.0  -0.1255
  C  C273  1  0.132220  0.943350  0.672840  1.0  0.0591
  C  C274  1  0.125030  0.012800  0.648120  1.0  -0.1476
  C  C275  1  0.102420  0.023830  0.611360  1.0  -0.058
  C  C276  1  0.155430  0.933750  0.712400  1.0  0.0225
  C  C277  1  0.207420  0.983620  0.712580  1.0  -0.0532
  C  C278  1  0.072510  0.223200  0.472780  1.0  -0.0125
  C  C279  1  0.880500  0.463790  0.559840  1.0  0.6858
  C  C280  1  0.814740  0.436770  0.598560  1.0  -0.1408
  C  C281  1  0.783160  0.482200  0.622900  1.0  -0.0562
  C  C282  1  0.723880  0.455750  0.659880  1.0  -0.1278
  C  C283  1  0.694940  0.383810  0.672840  1.0  0.0584
  C  C284  1  0.726850  0.339080  0.648120  1.0  -0.1492
  C  C285  1  0.786220  0.364810  0.611360  1.0  -0.0586
  C  C286  1  0.632170  0.353850  0.712400  1.0  0.0222
  C  C287  1  0.580000  0.303800  0.712580  1.0  -0.0503
  C  C288  1  0.954710  0.304020  0.472780  1.0  -0.0029
  C  C289  1  0.963790  0.559660  0.059840  1.0  0.6876
  C  C290  1  0.936770  0.586700  0.098560  1.0  -0.1414
  C  C291  1  0.982200  0.593940  0.122900  1.0  -0.051
  C  C292  1  0.955750  0.616240  0.159880  1.0  -0.13
  C  C293  1  0.883810  0.632220  0.172840  1.0  0.0546
  C  C294  1  0.839080  0.625030  0.148120  1.0  -0.146
  C  C295  1  0.864810  0.602420  0.111360  1.0  -0.0603
  C  C296  1  0.853850  0.655430  0.212400  1.0  0.0217
  C  C297  1  0.803800  0.707420  0.212580  1.0  -0.0579
  C  C298  1  0.804020  0.572510  0.972780  1.0  -0.0041
  C  C299  1  0.476370  0.380500  0.059840  1.0  0.6863
  C  C300  1  0.464670  0.314740  0.098560  1.0  -0.1394
  C  C301  1  0.394900  0.283160  0.122900  1.0  -0.0544
  C  C302  1  0.384370  0.223880  0.159880  1.0  -0.129
  C  C303  1  0.443350  0.194940  0.172840  1.0  0.0558
  C  C304  1  0.512800  0.226850  0.148120  1.0  -0.143
  C  C305  1  0.523830  0.286220  0.111360  1.0  -0.0605
  C  C306  1  0.433750  0.132170  0.212400  1.0  0.0223
  C  C307  1  0.483620  0.080000  0.212580  1.0  -0.0614
  C  C308  1  0.723200  0.454710  0.972780  1.0  0.0089
  C  C309  1  0.981640  0.190640  0.536720  1.0  -0.0283
  C  C310  1  0.981640  0.272640  0.536720  1.0  -0.0187
  C  C311  1  0.690640  0.481640  0.036720  1.0  -0.0272
  C  C312  1  0.772640  0.481640  0.036720  1.0  -0.0193
  C  C313  1  0.018360  0.809360  0.463280  1.0  -0.0277
  C  C314  1  0.018360  0.727360  0.463280  1.0  -0.0187
  C  C315  1  0.227360  0.518360  0.963280  1.0  -0.0208
  C  C316  1  0.309360  0.518360  0.963280  1.0  -0.0233
  C  C317  1  0.624610  0.875390  0.750000  1.0  -0.087
  C  C318  1  0.522710  0.977290  0.750000  1.0  -0.1613
  C  C319  1  0.467470  0.032530  0.750000  1.0  0.6709
  C  C320  1  0.125390  0.374610  0.750000  1.0  -0.0879
  C  C321  1  0.227290  0.272710  0.750000  1.0  -0.1609
  C  C322  1  0.282530  0.217470  0.750000  1.0  0.669
  C  C323  1  0.375390  0.625390  0.250000  1.0  -0.0888
  C  C324  1  0.477290  0.727290  0.250000  1.0  -0.1645
  C  C325  1  0.532530  0.782530  0.250000  1.0  0.6772
  C  C326  1  0.874610  0.124610  0.250000  1.0  -0.0873
  C  C327  1  0.772710  0.022710  0.250000  1.0  -0.1642
  C  C328  1  0.717470  0.967470  0.250000  1.0  0.6768
  C  C329  1  0.375390  0.124610  0.250000  1.0  -0.0879
  C  C330  1  0.477290  0.022710  0.250000  1.0  -0.1611
  C  C331  1  0.532530  0.967470  0.250000  1.0  0.6705
  C  C332  1  0.874610  0.625390  0.250000  1.0  -0.087
  C  C333  1  0.772710  0.727290  0.250000  1.0  -0.1623
  C  C334  1  0.717470  0.782530  0.250000  1.0  0.6691
  C  C335  1  0.624610  0.374610  0.750000  1.0  -0.0873
  C  C336  1  0.522710  0.272710  0.750000  1.0  -0.1642
  C  C337  1  0.467470  0.217470  0.750000  1.0  0.6768
  C  C338  1  0.125390  0.875390  0.750000  1.0  -0.0888
  C  C339  1  0.227290  0.977290  0.750000  1.0  -0.1645
  C  C340  1  0.282530  0.032530  0.750000  1.0  0.6772
  N  N341  1  0.003060  0.185860  0.493880  1.0  -0.1567
  N  N342  1  0.003060  0.320260  0.493880  1.0  -0.1519
  N  N343  1  0.685860  0.503060  0.993880  1.0  -0.1622
  N  N344  1  0.820260  0.503060  0.993880  1.0  -0.1512
  N  N345  1  0.996940  0.814140  0.506120  1.0  -0.1575
  N  N346  1  0.996940  0.679740  0.506120  1.0  -0.1515
  N  N347  1  0.179740  0.496940  0.006120  1.0  -0.1571
  N  N348  1  0.314140  0.496940  0.006120  1.0  -0.1561
  O  O349  1  0.908140  0.040870  0.540960  1.0  -0.5954
  O  O350  1  0.904460  0.921060  0.549580  1.0  -0.5802
  O  O351  1  0.465050  0.072100  0.713460  1.0  -0.5683
  O  O352  1  0.050900  0.418170  0.540960  1.0  -0.5934
  O  O353  1  0.045960  0.529360  0.549580  1.0  -0.584
  O  O354  1  0.321490  0.214440  0.713460  1.0  -0.5671
  O  O355  1  0.540870  0.550900  0.040960  1.0  -0.5893
  O  O356  1  0.421060  0.545960  0.049580  1.0  -0.5814
  O  O357  1  0.572100  0.821490  0.213460  1.0  -0.5688
  O  O358  1  0.918170  0.408140  0.040960  1.0  -0.5927
  O  O359  1  0.029360  0.404460  0.049580  1.0  -0.578
  O  O360  1  0.714440  0.965050  0.213460  1.0  -0.5683
  O  O361  1  0.949100  0.959130  0.459040  1.0  -0.5933
  O  O362  1  0.954040  0.078940  0.450420  1.0  -0.5808
  O  O363  1  0.678510  0.927900  0.286540  1.0  -0.5685
  O  O364  1  0.091860  0.581830  0.459040  1.0  -0.593
  O  O365  1  0.095540  0.470640  0.450420  1.0  -0.5804
  O  O366  1  0.534950  0.785560  0.286540  1.0  -0.5691
  O  O367  1  0.081830  0.449100  0.959040  1.0  -0.5938
  O  O368  1  0.970640  0.454040  0.950420  1.0  -0.5816
  O  O369  1  0.285560  0.178510  0.786540  1.0  -0.5678
  O  O370  1  0.459130  0.591860  0.959040  1.0  -0.5924
  O  O371  1  0.578940  0.595540  0.950420  1.0  -0.5807
  O  O372  1  0.427900  0.034950  0.786540  1.0  -0.5672
  O  O373  1  0.091860  0.959130  0.459040  1.0  -0.5961
  O  O374  1  0.095540  0.078940  0.450420  1.0  -0.5812
  O  O375  1  0.534950  0.927900  0.286540  1.0  -0.5687
  O  O376  1  0.949100  0.581830  0.459040  1.0  -0.594
  O  O377  1  0.954040  0.470640  0.450420  1.0  -0.5835
  O  O378  1  0.678510  0.785560  0.286540  1.0  -0.5672
  O  O379  1  0.459130  0.449100  0.959040  1.0  -0.591
  O  O380  1  0.578940  0.454040  0.950420  1.0  -0.5805
  O  O381  1  0.427900  0.178510  0.786540  1.0  -0.5681
  O  O382  1  0.081830  0.591860  0.959040  1.0  -0.5919
  O  O383  1  0.970640  0.595540  0.950420  1.0  -0.5783
  O  O384  1  0.285560  0.034950  0.786540  1.0  -0.569
  O  O385  1  0.050900  0.040870  0.540960  1.0  -0.5919
  O  O386  1  0.045960  0.921060  0.549580  1.0  -0.5814
  O  O387  1  0.321490  0.072100  0.713460  1.0  -0.5689
  O  O388  1  0.908140  0.418170  0.540960  1.0  -0.5937
  O  O389  1  0.904460  0.529360  0.549580  1.0  -0.579
  O  O390  1  0.465050  0.214440  0.713460  1.0  -0.5685
  O  O391  1  0.918170  0.550900  0.040960  1.0  -0.5918
  O  O392  1  0.029360  0.545960  0.049580  1.0  -0.5825
  O  O393  1  0.714440  0.821490  0.213460  1.0  -0.5675
  O  O394  1  0.540870  0.408140  0.040960  1.0  -0.5934
  O  O395  1  0.421060  0.404460  0.049580  1.0  -0.5823
  O  O396  1  0.572100  0.965050  0.213460  1.0  -0.5676
