# generated using pymatgen
data_Ag2H14C17(SO3)2
_symmetry_space_group_name_H-M   'P 1'
_cell_length_a   6.87270000
_cell_length_b   11.46200000
_cell_length_c   24.98600000
_cell_angle_alpha   98.79000000
_cell_angle_beta   90.00000000
_cell_angle_gamma   90.00000000
_symmetry_Int_Tables_number   1
_chemical_formula_structural   Ag2H14C17(SO3)2
_chemical_formula_sum   'Ag8 H56 C68 S8 O24'
_cell_volume   1945.15214600
_cell_formula_units_Z   4
loop_
 _symmetry_equiv_pos_site_id
 _symmetry_equiv_pos_as_xyz
  1  'x, y, z'
loop_
 _atom_site_type_symbol
 _atom_site_label
 _atom_site_symmetry_multiplicity
 _atom_site_fract_x
 _atom_site_fract_y
 _atom_site_fract_z
 _atom_site_occupancy
 _atom_site_charge
  Ag  Ag1  1  0.136260  0.917740  0.451800  1.0  0.6845
  Ag  Ag2  1  0.504730  0.822810  0.551330  1.0  0.704
  Ag  Ag3  1  0.136260  0.082260  0.048200  1.0  0.6848
  Ag  Ag4  1  0.504730  0.177190  0.948670  1.0  0.7033
  Ag  Ag5  1  0.863740  0.082260  0.548200  1.0  0.6862
  Ag  Ag6  1  0.495270  0.177190  0.448670  1.0  0.7035
  Ag  Ag7  1  0.863740  0.917740  0.951800  1.0  0.6861
  Ag  Ag8  1  0.495270  0.822810  0.051330  1.0  0.7041
  H  H9  1  0.285400  0.139200  0.683400  1.0  0.1136
  H  H10  1  0.056900  0.255300  0.735200  1.0  0.1046
  H  H11  1  0.106000  0.272000  0.550300  1.0  0.1164
  H  H12  1  0.866500  0.381800  0.602000  1.0  0.1165
  H  H13  1  0.010100  0.546100  0.729000  1.0  0.0947
  H  H14  1  0.756100  0.535900  0.657200  1.0  0.1022
  H  H15  1  0.591000  0.436100  0.652300  1.0  0.1094
  H  H16  1  0.750300  0.295100  0.764800  1.0  0.1086
  H  H17  1  0.585100  0.289500  0.719300  1.0  0.0977
  H  H18  1  0.330100  0.553600  0.774600  1.0  0.0901
  H  H19  1  0.473600  0.808500  0.714500  1.0  0.1167
  H  H20  1  0.283200  0.490900  0.640600  1.0  0.1055
  H  H21  1  0.258300  0.901700  0.663600  1.0  0.1156
  H  H22  1  0.066100  0.583500  0.589500  1.0  0.1206
  H  H23  1  0.285400  0.860800  0.816600  1.0  0.1142
  H  H24  1  0.056900  0.744700  0.764800  1.0  0.1051
  H  H25  1  0.106000  0.728000  0.949700  1.0  0.1167
  H  H26  1  0.866500  0.618200  0.898000  1.0  0.1174
  H  H27  1  0.010100  0.453900  0.771000  1.0  0.0945
  H  H28  1  0.756100  0.464100  0.842800  1.0  0.1041
  H  H29  1  0.591000  0.563900  0.847700  1.0  0.1092
  H  H30  1  0.750300  0.704900  0.735200  1.0  0.1086
  H  H31  1  0.585100  0.710500  0.780700  1.0  0.1003
  H  H32  1  0.330100  0.446400  0.725400  1.0  0.0901
  H  H33  1  0.473600  0.191500  0.785500  1.0  0.1149
  H  H34  1  0.283200  0.509100  0.859400  1.0  0.105
  H  H35  1  0.258300  0.098300  0.836400  1.0  0.1165
  H  H36  1  0.066100  0.416500  0.910500  1.0  0.1206
  H  H37  1  0.714600  0.860800  0.316600  1.0  0.1142
  H  H38  1  0.943100  0.744700  0.264800  1.0  0.105
  H  H39  1  0.894000  0.728000  0.449700  1.0  0.1168
  H  H40  1  0.133500  0.618200  0.398000  1.0  0.117
  H  H41  1  0.989900  0.453900  0.271000  1.0  0.0951
  H  H42  1  0.243900  0.464100  0.342800  1.0  0.1039
  H  H43  1  0.409000  0.563900  0.347700  1.0  0.1092
  H  H44  1  0.249700  0.704900  0.235200  1.0  0.1097
  H  H45  1  0.414900  0.710500  0.280700  1.0  0.0995
  H  H46  1  0.669900  0.446400  0.225400  1.0  0.0894
  H  H47  1  0.526400  0.191500  0.285500  1.0  0.1148
  H  H48  1  0.716800  0.509100  0.359400  1.0  0.1051
  H  H49  1  0.741700  0.098300  0.336400  1.0  0.1162
  H  H50  1  0.933900  0.416500  0.410500  1.0  0.1207
  H  H51  1  0.714600  0.139200  0.183400  1.0  0.113
  H  H52  1  0.943100  0.255300  0.235200  1.0  0.1044
  H  H53  1  0.894000  0.272000  0.050300  1.0  0.1163
  H  H54  1  0.133500  0.381800  0.102000  1.0  0.1158
  H  H55  1  0.989900  0.546100  0.229000  1.0  0.0955
  H  H56  1  0.243900  0.535900  0.157200  1.0  0.103
  H  H57  1  0.409000  0.436100  0.152300  1.0  0.1087
  H  H58  1  0.249700  0.295100  0.264800  1.0  0.109
  H  H59  1  0.414900  0.289500  0.219300  1.0  0.0979
  H  H60  1  0.669900  0.553600  0.274600  1.0  0.0891
  H  H61  1  0.526400  0.808500  0.214500  1.0  0.1172
  H  H62  1  0.716800  0.490900  0.140600  1.0  0.1055
  H  H63  1  0.741700  0.901700  0.163600  1.0  0.1156
  H  H64  1  0.933900  0.583500  0.089500  1.0  0.1207
  C  C65  1  0.218900  0.195400  0.611900  1.0  -0.2198
  C  C66  1  0.202700  0.189800  0.666900  1.0  -0.0213
  C  C67  1  0.065300  0.258600  0.697500  1.0  -0.1254
  C  C68  1  0.094800  0.267900  0.587800  1.0  -0.0762
  C  C69  1  0.937800  0.333000  0.674600  1.0  0.038
  C  C70  1  0.953600  0.334500  0.618900  1.0  -0.1137
  C  C71  1  0.672200  0.489100  0.678200  1.0  -0.2656
  C  C72  1  0.800500  0.414900  0.710800  1.0  0.1467
  C  C73  1  0.539400  0.573300  0.716500  1.0  0.1473
  C  C74  1  0.668500  0.343500  0.744100  1.0  -0.2585
  C  C75  1  0.403300  0.639500  0.683300  1.0  0.0484
  C  C76  1  0.391600  0.762200  0.689000  1.0  -0.1418
  C  C77  1  0.278900  0.574700  0.645300  1.0  -0.1333
  C  C78  1  0.264100  0.818000  0.658600  1.0  -0.0359
  C  C79  1  0.143900  0.751600  0.620700  1.0  -0.249
  C  C80  1  0.150000  0.629400  0.614600  1.0  -0.0209
  C  C81  1  0.218900  0.804600  0.888100  1.0  -0.2207
  C  C82  1  0.202700  0.810200  0.833100  1.0  -0.0195
  C  C83  1  0.065300  0.741400  0.802500  1.0  -0.126
  C  C84  1  0.094800  0.732100  0.912200  1.0  -0.0755
  C  C85  1  0.937800  0.667000  0.825400  1.0  0.039
  C  C86  1  0.953600  0.665500  0.881100  1.0  -0.1218
  C  C87  1  0.672200  0.510900  0.821800  1.0  -0.2655
  C  C88  1  0.800500  0.585100  0.789200  1.0  0.149
  C  C89  1  0.539400  0.426700  0.783500  1.0  0.1485
  C  C90  1  0.668500  0.656500  0.755900  1.0  -0.2603
  C  C91  1  0.403300  0.360500  0.816700  1.0  0.0465
  C  C92  1  0.391600  0.237800  0.811000  1.0  -0.1434
  C  C93  1  0.278900  0.425300  0.854700  1.0  -0.1348
  C  C94  1  0.264100  0.182000  0.841400  1.0  -0.035
  C  C95  1  0.143900  0.248400  0.879300  1.0  -0.2425
  C  C96  1  0.150000  0.370600  0.885400  1.0  -0.024
  C  C97  1  0.781100  0.804600  0.388100  1.0  -0.221
  C  C98  1  0.797300  0.810200  0.333100  1.0  -0.0192
  C  C99  1  0.934700  0.741400  0.302500  1.0  -0.1261
  C  C100  1  0.905200  0.732100  0.412200  1.0  -0.0759
  C  C101  1  0.062200  0.667000  0.325400  1.0  0.0391
  C  C102  1  0.046400  0.665500  0.381100  1.0  -0.1211
  C  C103  1  0.327800  0.510900  0.321800  1.0  -0.2654
  C  C104  1  0.199500  0.585100  0.289200  1.0  0.1488
  C  C105  1  0.460600  0.426700  0.283500  1.0  0.1485
  C  C106  1  0.331500  0.656500  0.255900  1.0  -0.2604
  C  C107  1  0.596700  0.360500  0.316700  1.0  0.0469
  C  C108  1  0.608400  0.237800  0.311000  1.0  -0.1424
  C  C109  1  0.721100  0.425300  0.354700  1.0  -0.1351
  C  C110  1  0.735900  0.182000  0.341400  1.0  -0.0351
  C  C111  1  0.856100  0.248400  0.379300  1.0  -0.2431
  C  C112  1  0.850000  0.370600  0.385400  1.0  -0.0238
  C  C113  1  0.781100  0.195400  0.111900  1.0  -0.2213
  C  C114  1  0.797300  0.189800  0.166900  1.0  -0.0189
  C  C115  1  0.934700  0.258600  0.197500  1.0  -0.126
  C  C116  1  0.905200  0.267900  0.087800  1.0  -0.0762
  C  C117  1  0.062200  0.333000  0.174600  1.0  0.0386
  C  C118  1  0.046400  0.334500  0.118900  1.0  -0.1167
  C  C119  1  0.327800  0.489100  0.178200  1.0  -0.2656
  C  C120  1  0.199500  0.414900  0.210800  1.0  0.1465
  C  C121  1  0.460600  0.573300  0.216500  1.0  0.1472
  C  C122  1  0.331500  0.343500  0.244100  1.0  -0.2587
  C  C123  1  0.596700  0.639500  0.183300  1.0  0.0482
  C  C124  1  0.608400  0.762200  0.189000  1.0  -0.1425
  C  C125  1  0.721100  0.574700  0.145300  1.0  -0.1335
  C  C126  1  0.735900  0.818000  0.158600  1.0  -0.0359
  C  C127  1  0.856100  0.751600  0.120700  1.0  -0.2488
  C  C128  1  0.850000  0.629400  0.114600  1.0  -0.0222
  C  C129  1  0.925300  0.500000  0.750000  1.0  -0.2449
  C  C130  1  0.414900  0.500000  0.750000  1.0  -0.2397
  C  C131  1  0.074700  0.500000  0.250000  1.0  -0.2464
  C  C132  1  0.585100  0.500000  0.250000  1.0  -0.237
  S  S133  1  0.396500  0.112930  0.571160  1.0  1.3834
  S  S134  1  0.999200  0.818220  0.575290  1.0  1.3938
  S  S135  1  0.396500  0.887070  0.928840  1.0  1.3833
  S  S136  1  0.999200  0.181780  0.924710  1.0  1.3939
  S  S137  1  0.603500  0.887070  0.428840  1.0  1.3832
  S  S138  1  0.000800  0.181780  0.424710  1.0  1.3936
  S  S139  1  0.603500  0.112930  0.071160  1.0  1.3835
  S  S140  1  0.000800  0.818220  0.075290  1.0  1.3932
  O  O141  1  0.452700  0.015000  0.598960  1.0  -0.6696
  O  O142  1  0.305000  0.075700  0.519330  1.0  -0.7498
  O  O143  1  0.558800  0.192200  0.567100  1.0  -0.6696
  O  O144  1  0.965400  0.940300  0.599200  1.0  -0.6673
  O  O145  1  0.123000  0.809900  0.527200  1.0  -0.7407
  O  O146  1  0.825300  0.748300  0.565600  1.0  -0.6543
  O  O147  1  0.452700  0.985000  0.901040  1.0  -0.6694
  O  O148  1  0.305000  0.924300  0.980670  1.0  -0.7497
  O  O149  1  0.558800  0.807800  0.932900  1.0  -0.6687
  O  O150  1  0.965400  0.059700  0.900800  1.0  -0.6682
  O  O151  1  0.123000  0.190100  0.972800  1.0  -0.745
  O  O152  1  0.825300  0.251700  0.934400  1.0  -0.6549
  O  O153  1  0.547300  0.985000  0.401040  1.0  -0.6693
  O  O154  1  0.695000  0.924300  0.480670  1.0  -0.7499
  O  O155  1  0.441200  0.807800  0.432900  1.0  -0.6696
  O  O156  1  0.034600  0.059700  0.400800  1.0  -0.6681
  O  O157  1  0.877000  0.190100  0.472800  1.0  -0.7441
  O  O158  1  0.174700  0.251700  0.434400  1.0  -0.6558
  O  O159  1  0.547300  0.015000  0.098960  1.0  -0.6694
  O  O160  1  0.695000  0.075700  0.019330  1.0  -0.7505
  O  O161  1  0.441200  0.192200  0.067100  1.0  -0.6697
  O  O162  1  0.034600  0.940300  0.099200  1.0  -0.6674
  O  O163  1  0.877000  0.809900  0.027200  1.0  -0.739
  O  O164  1  0.174700  0.748300  0.065600  1.0  -0.6556
