# generated using pymatgen
data_ErH6(C2O3)3
_symmetry_space_group_name_H-M   'P 1'
_cell_length_a   5.95650000
_cell_length_b   7.37160000
_cell_length_c   13.17690000
_cell_angle_alpha   102.92500000
_cell_angle_beta   101.63700000
_cell_angle_gamma   90.78500000
_symmetry_Int_Tables_number   1
_chemical_formula_structural   ErH6(C2O3)3
_chemical_formula_sum   'Er2 H12 C12 O18'
_cell_volume   551.28373163
_cell_formula_units_Z   2
loop_
 _symmetry_equiv_pos_site_id
 _symmetry_equiv_pos_as_xyz
  1  'x, y, z'
loop_
 _atom_site_type_symbol
 _atom_site_label
 _atom_site_symmetry_multiplicity
 _atom_site_fract_x
 _atom_site_fract_y
 _atom_site_fract_z
 _atom_site_occupancy
 _atom_site_charge
  Er  Er1  1  0.979610  0.180800  0.320990  1.0  1.4371
  Er  Er2  1  0.020350  0.819430  0.678950  1.0  1.432
  H  H3  1  0.647200  0.042300  0.942700  1.0  0.1277
  H  H4  1  0.348500  0.102400  0.042800  1.0  0.1242
  H  H5  1  0.506100  0.680400  0.434300  1.0  0.1253
  H  H6  1  0.528300  0.721200  0.270000  1.0  0.126
  H  H7  1  0.488300  0.245300  0.566500  1.0  0.1286
  H  H8  1  0.449400  0.402900  0.733200  1.0  0.1344
  H  H9  1  0.796400  0.780400  0.934300  1.0  0.3963
  H  H10  1  0.230100  0.891400  0.104100  1.0  0.42
  H  H11  1  0.759700  0.990600  0.512800  1.0  0.3933
  H  H12  1  0.833600  0.795900  0.243900  1.0  0.3535
  H  H13  1  0.234000  0.489000  0.492100  1.0  0.3911
  H  H14  1  0.144100  0.501700  0.752900  1.0  0.2309
  C  C15  1  0.788000  0.056700  0.102700  1.0  0.6527
  C  C16  1  0.628800  0.969500  0.996400  1.0  0.0806
  C  C17  1  0.379000  0.971200  0.010800  1.0  0.085
  C  C18  1  0.220000  0.911000  0.899400  1.0  0.6533
  C  C19  1  0.842400  0.610900  0.431700  1.0  0.6868
  C  C20  1  0.651600  0.748400  0.433100  1.0  0.0885
  C  C21  1  0.615900  0.821000  0.329900  1.0  0.0545
  C  C22  1  0.484800  0.995100  0.335800  1.0  0.6696
  C  C23  1  0.150700  0.166100  0.565700  1.0  0.6715
  C  C24  1  0.341800  0.309700  0.567700  1.0  0.089
  C  C25  1  0.370900  0.457200  0.673300  1.0  0.0583
  C  C26  1  0.508900  0.629000  0.671400  1.0  0.7185
  O  O27  1  0.743300  0.219200  0.151600  1.0  -0.5616
  O  O28  1  0.956600  0.980200  0.141400  1.0  -0.6154
  O  O29  1  0.675600  0.783500  0.959600  1.0  -0.4795
  O  O30  1  0.352100  0.862700  0.081700  1.0  -0.4726
  O  O31  1  0.251200  0.011900  0.836100  1.0  -0.5967
  O  O32  1  0.079400  0.784200  0.876500  1.0  -0.5576
  O  O33  1  0.821700  0.473300  0.355500  1.0  -0.5949
  O  O34  1  0.016600  0.652700  0.507500  1.0  -0.5769
  O  O35  1  0.712100  0.893700  0.528900  1.0  -0.5425
  O  O36  1  0.836200  0.856600  0.307100  1.0  -0.5521
  O  O37  1  0.592700  0.143200  0.329400  1.0  -0.6242
  O  O38  1  0.282400  0.989000  0.344400  1.0  -0.6278
  O  O39  1  0.975400  0.146300  0.491600  1.0  -0.5817
  O  O40  1  0.176300  0.083100  0.640400  1.0  -0.6585
  O  O41  1  0.283600  0.381300  0.474600  1.0  -0.5453
  O  O42  1  0.149500  0.513400  0.690700  1.0  -0.55
  O  O43  1  0.405100  0.777100  0.672900  1.0  -0.5864
  O  O44  1  0.717400  0.615400  0.668500  1.0  -0.6051
