# generated using pymatgen
data_PrH6(C3O4)2
_symmetry_space_group_name_H-M   'P 1'
_cell_length_a   6.10080000
_cell_length_b   7.58020000
_cell_length_c   28.04400000
_cell_angle_alpha   90.00000000
_cell_angle_beta   90.00000000
_cell_angle_gamma   90.00000000
_symmetry_Int_Tables_number   1
_chemical_formula_structural   PrH6(C3O4)2
_chemical_formula_sum   'Pr4 H24 C24 O32'
_cell_volume   1296.90274898
_cell_formula_units_Z   4
loop_
 _symmetry_equiv_pos_site_id
 _symmetry_equiv_pos_as_xyz
  1  'x, y, z'
loop_
 _atom_site_type_symbol
 _atom_site_label
 _atom_site_symmetry_multiplicity
 _atom_site_fract_x
 _atom_site_fract_y
 _atom_site_fract_z
 _atom_site_occupancy
 _atom_site_charge
  Pr  Pr1  1  0.568220  0.901850  0.668890  1.0  2.1319
  Pr  Pr2  1  0.568220  0.098150  0.331110  1.0  2.137
  Pr  Pr3  1  0.431780  0.598150  0.168890  1.0  2.1332
  Pr  Pr4  1  0.431780  0.401850  0.831110  1.0  2.1386
  H  H5  1  0.471600  0.538200  0.635700  1.0  0.4265
  H  H6  1  0.145900  0.467000  0.645200  1.0  0.1234
  H  H7  1  0.285100  0.627200  0.751100  1.0  0.3812
  H  H8  1  0.045900  0.371000  0.719000  1.0  0.1131
  H  H9  1  0.703300  0.844100  0.499900  1.0  0.1205
  H  H10  1  0.441200  0.843000  0.499200  1.0  0.1263
  H  H11  1  0.471600  0.461800  0.364300  1.0  0.4327
  H  H12  1  0.145900  0.533000  0.354800  1.0  0.1227
  H  H13  1  0.285100  0.372800  0.248900  1.0  0.3805
  H  H14  1  0.045900  0.629000  0.281000  1.0  0.1135
  H  H15  1  0.703300  0.155900  0.500100  1.0  0.1221
  H  H16  1  0.441200  0.157000  0.500800  1.0  0.1266
  H  H17  1  0.528400  0.961800  0.135700  1.0  0.4202
  H  H18  1  0.854100  0.033000  0.145200  1.0  0.1238
  H  H19  1  0.714900  0.872800  0.251100  1.0  0.3809
  H  H20  1  0.954100  0.129000  0.219000  1.0  0.1124
  H  H21  1  0.296700  0.655900  0.999900  1.0  0.1227
  H  H22  1  0.558800  0.657000  0.999200  1.0  0.1276
  H  H23  1  0.528400  0.038200  0.864300  1.0  0.4329
  H  H24  1  0.854100  0.967000  0.854800  1.0  0.1241
  H  H25  1  0.714900  0.127200  0.748900  1.0  0.3811
  H  H26  1  0.954100  0.871000  0.781000  1.0  0.1127
  H  H27  1  0.296700  0.344100  0.000100  1.0  0.1213
  H  H28  1  0.558800  0.343000  0.000800  1.0  0.126
  C  C29  1  0.071700  0.710600  0.675200  1.0  0.6808
  C  C30  1  0.205000  0.540000  0.672000  1.0  0.0506
  C  C31  1  0.190900  0.432500  0.718100  1.0  0.0666
  C  C32  1  0.372800  0.293200  0.716800  1.0  0.6857
  C  C33  1  0.568200  0.910000  0.564600  1.0  0.722
  C  C34  1  0.571000  0.908100  0.510800  1.0  -0.268
  C  C35  1  0.071700  0.289400  0.324800  1.0  0.6803
  C  C36  1  0.205000  0.460000  0.328000  1.0  0.0512
  C  C37  1  0.190900  0.567500  0.281900  1.0  0.067
  C  C38  1  0.372800  0.706800  0.283200  1.0  0.686
  C  C39  1  0.568200  0.090000  0.435400  1.0  0.7217
  C  C40  1  0.571000  0.091900  0.489200  1.0  -0.272
  C  C41  1  0.928300  0.789400  0.175200  1.0  0.6794
  C  C42  1  0.795000  0.960000  0.172000  1.0  0.0503
  C  C43  1  0.809100  0.067500  0.218100  1.0  0.0674
  C  C44  1  0.627200  0.206800  0.216800  1.0  0.6855
  C  C45  1  0.431800  0.590000  0.064600  1.0  0.7223
  C  C46  1  0.429000  0.591900  0.010800  1.0  -0.2697
  C  C47  1  0.928300  0.210600  0.824800  1.0  0.6807
  C  C48  1  0.795000  0.040000  0.828000  1.0  0.0513
  C  C49  1  0.809100  0.932500  0.781900  1.0  0.0671
  C  C50  1  0.627200  0.793200  0.783200  1.0  0.6858
  C  C51  1  0.431800  0.410000  0.935400  1.0  0.7215
  C  C52  1  0.429000  0.408100  0.989200  1.0  -0.2707
  O  O53  1  0.172400  0.854000  0.671600  1.0  -0.6658
  O  O54  1  0.867400  0.695300  0.680900  1.0  -0.6961
  O  O55  1  0.426800  0.587600  0.661110  1.0  -0.6301
  O  O56  1  0.212500  0.537000  0.759720  1.0  -0.6193
  O  O57  1  0.374500  0.186000  0.682840  1.0  -0.6728
  O  O58  1  0.509000  0.294000  0.750600  1.0  -0.679
  O  O59  1  0.678700  0.795800  0.586200  1.0  -0.7107
  O  O60  1  0.453000  0.022500  0.586600  1.0  -0.6871
  O  O61  1  0.172400  0.146000  0.328400  1.0  -0.6648
  O  O62  1  0.867400  0.304700  0.319100  1.0  -0.6967
  O  O63  1  0.426800  0.412400  0.338890  1.0  -0.6313
  O  O64  1  0.212500  0.463000  0.240280  1.0  -0.62
  O  O65  1  0.374500  0.814000  0.317160  1.0  -0.6722
  O  O66  1  0.509000  0.706000  0.249400  1.0  -0.6805
  O  O67  1  0.678700  0.204200  0.413800  1.0  -0.712
  O  O68  1  0.453000  0.977500  0.413400  1.0  -0.6887
  O  O69  1  0.827600  0.646000  0.171600  1.0  -0.6678
  O  O70  1  0.132600  0.804700  0.180900  1.0  -0.6964
  O  O71  1  0.573200  0.912400  0.161110  1.0  -0.6322
  O  O72  1  0.787500  0.963000  0.259720  1.0  -0.6196
  O  O73  1  0.625500  0.314000  0.182840  1.0  -0.6712
  O  O74  1  0.491000  0.206000  0.250600  1.0  -0.6804
  O  O75  1  0.321300  0.704200  0.086200  1.0  -0.7097
  O  O76  1  0.547000  0.477500  0.086600  1.0  -0.6864
  O  O77  1  0.827600  0.354000  0.828400  1.0  -0.666
  O  O78  1  0.132600  0.195300  0.819100  1.0  -0.697
  O  O79  1  0.573200  0.087600  0.838890  1.0  -0.6338
  O  O80  1  0.787500  0.037000  0.740280  1.0  -0.6184
  O  O81  1  0.625500  0.686000  0.817160  1.0  -0.6713
  O  O82  1  0.491000  0.794000  0.749400  1.0  -0.6808
  O  O83  1  0.321300  0.295800  0.913800  1.0  -0.7103
  O  O84  1  0.547000  0.522500  0.913400  1.0  -0.6898
