# generated using pymatgen
data_Gd2H12(C4O5)3
_symmetry_space_group_name_H-M   'P 1'
_cell_length_a   9.01640000
_cell_length_b   9.01640000
_cell_length_c   17.07800000
_cell_angle_alpha   90.00000000
_cell_angle_beta   90.00000000
_cell_angle_gamma   117.03100000
_symmetry_Int_Tables_number   1
_chemical_formula_structural   Gd2H12(C4O5)3
_chemical_formula_sum   'Gd4 H24 C24 O30'
_cell_volume   1236.70019042
_cell_formula_units_Z   2
loop_
 _symmetry_equiv_pos_site_id
 _symmetry_equiv_pos_as_xyz
  1  'x, y, z'
loop_
 _atom_site_type_symbol
 _atom_site_label
 _atom_site_symmetry_multiplicity
 _atom_site_fract_x
 _atom_site_fract_y
 _atom_site_fract_z
 _atom_site_occupancy
 _atom_site_charge
  Gd  Gd1  1  0.000000  0.000000  0.000000  1.0  2.0879
  Gd  Gd2  1  0.000000  0.000000  0.500000  1.0  2.0879
  Gd  Gd3  1  0.349910  0.655090  0.250000  1.0  2.2705
  Gd  Gd4  1  0.655090  0.349910  0.750000  1.0  2.2715
  H  H5  1  0.562000  0.965200  0.084300  1.0  0.1136
  H  H6  1  0.502300  0.819300  0.023300  1.0  0.0972
  H  H7  1  0.583400  0.981200  0.910000  1.0  0.1168
  H  H8  1  0.624600  0.139400  0.961800  1.0  0.0923
  H  H9  1  0.393900  0.401700  0.086500  1.0  0.1074
  H  H10  1  0.316000  0.488800  0.032500  1.0  0.0937
  H  H11  1  0.965200  0.562000  0.915700  1.0  0.1129
  H  H12  1  0.819300  0.502300  0.976700  1.0  0.0973
  H  H13  1  0.981200  0.583400  0.090000  1.0  0.1181
  H  H14  1  0.139400  0.624600  0.038200  1.0  0.0943
  H  H15  1  0.401700  0.393900  0.913500  1.0  0.1096
  H  H16  1  0.488800  0.316000  0.967500  1.0  0.0937
  H  H17  1  0.965200  0.562000  0.584300  1.0  0.1127
  H  H18  1  0.819300  0.502300  0.523300  1.0  0.0968
  H  H19  1  0.981200  0.583400  0.410000  1.0  0.1165
  H  H20  1  0.139400  0.624600  0.461800  1.0  0.0936
  H  H21  1  0.401700  0.393900  0.586500  1.0  0.1098
  H  H22  1  0.488800  0.316000  0.532500  1.0  0.0935
  H  H23  1  0.562000  0.965200  0.415700  1.0  0.1138
  H  H24  1  0.502300  0.819300  0.476700  1.0  0.0975
  H  H25  1  0.583400  0.981200  0.590000  1.0  0.1177
  H  H26  1  0.624600  0.139400  0.538200  1.0  0.0934
  H  H27  1  0.393900  0.401700  0.413500  1.0  0.1069
  H  H28  1  0.316000  0.488800  0.467500  1.0  0.0935
  C  C29  1  0.653500  0.802500  0.105900  1.0  0.7725
  C  C30  1  0.597200  0.896800  0.053200  1.0  -0.0987
  C  C31  1  0.669400  0.068600  0.940200  1.0  -0.0857
  C  C32  1  0.815000  0.169000  0.889400  1.0  0.7738
  C  C33  1  0.151500  0.336500  0.114200  1.0  0.7631
  C  C34  1  0.295000  0.385000  0.057700  1.0  -0.0938
  C  C35  1  0.802500  0.653500  0.894100  1.0  0.7704
  C  C36  1  0.896800  0.597200  0.946800  1.0  -0.0972
  C  C37  1  0.068600  0.669400  0.059800  1.0  -0.085
  C  C38  1  0.169000  0.815000  0.110600  1.0  0.7757
  C  C39  1  0.336500  0.151500  0.885800  1.0  0.7645
  C  C40  1  0.385000  0.295000  0.942300  1.0  -0.0961
  C  C41  1  0.802500  0.653500  0.605900  1.0  0.7726
  C  C42  1  0.896800  0.597200  0.553200  1.0  -0.0964
  C  C43  1  0.068600  0.669400  0.440200  1.0  -0.0851
  C  C44  1  0.169000  0.815000  0.389400  1.0  0.7749
  C  C45  1  0.336500  0.151500  0.614200  1.0  0.7636
  C  C46  1  0.385000  0.295000  0.557700  1.0  -0.0955
  C  C47  1  0.653500  0.802500  0.394100  1.0  0.7692
  C  C48  1  0.597200  0.896800  0.446800  1.0  -0.099
  C  C49  1  0.669400  0.068600  0.559800  1.0  -0.085
  C  C50  1  0.815000  0.169000  0.610600  1.0  0.7753
  C  C51  1  0.151500  0.336500  0.385800  1.0  0.7642
  C  C52  1  0.295000  0.385000  0.442300  1.0  -0.0949
  O  O53  1  0.800800  0.827000  0.096200  1.0  -0.6683
  O  O54  1  0.555800  0.707400  0.156400  1.0  -0.7911
  O  O55  1  0.723900  0.999100  0.001500  1.0  -0.3454
  O  O56  1  0.793700  0.248300  0.835100  1.0  -0.7644
  O  O57  1  0.957100  0.176900  0.904200  1.0  -0.6765
  O  O58  1  0.024400  0.203200  0.097900  1.0  -0.6841
  O  O59  1  0.171000  0.437000  0.167400  1.0  -0.7482
  O  O60  1  0.827000  0.800800  0.903800  1.0  -0.6693
  O  O61  1  0.707400  0.555800  0.843600  1.0  -0.7881
  O  O62  1  0.999100  0.723900  0.998500  1.0  -0.3447
  O  O63  1  0.248300  0.793700  0.164900  1.0  -0.7604
  O  O64  1  0.176900  0.957100  0.095800  1.0  -0.6767
  O  O65  1  0.203200  0.024400  0.902100  1.0  -0.6826
  O  O66  1  0.437000  0.171000  0.832600  1.0  -0.7451
  O  O67  1  0.827000  0.800800  0.596200  1.0  -0.6693
  O  O68  1  0.707400  0.555800  0.656400  1.0  -0.7879
  O  O69  1  0.999100  0.723900  0.501500  1.0  -0.345
  O  O70  1  0.248300  0.793700  0.335100  1.0  -0.761
  O  O71  1  0.176900  0.957100  0.404200  1.0  -0.677
  O  O72  1  0.203200  0.024400  0.597900  1.0  -0.6834
  O  O73  1  0.437000  0.171000  0.667400  1.0  -0.7479
  O  O74  1  0.800800  0.827000  0.403800  1.0  -0.6679
  O  O75  1  0.555800  0.707400  0.343600  1.0  -0.7929
  O  O76  1  0.723900  0.999100  0.498500  1.0  -0.3453
  O  O77  1  0.793700  0.248300  0.664900  1.0  -0.7651
  O  O78  1  0.957100  0.176900  0.595800  1.0  -0.6756
  O  O79  1  0.024400  0.203200  0.402100  1.0  -0.6829
  O  O80  1  0.171000  0.437000  0.332600  1.0  -0.7455
  O  O81  1  0.262000  0.262000  0.000000  1.0  -0.3231
  O  O82  1  0.262000  0.262000  0.500000  1.0  -0.3231
