# generated using pymatgen
data_Eu2H12(C4O5)3
_symmetry_space_group_name_H-M   'P 1'
_cell_length_a   9.04620000
_cell_length_b   9.04620000
_cell_length_c   16.98600000
_cell_angle_alpha   90.00000000
_cell_angle_beta   90.00000000
_cell_angle_gamma   116.36900000
_symmetry_Int_Tables_number   1
_chemical_formula_structural   Eu2H12(C4O5)3
_chemical_formula_sum   'Eu4 H24 C24 O30'
_cell_volume   1245.39847717
_cell_formula_units_Z   2
loop_
 _symmetry_equiv_pos_site_id
 _symmetry_equiv_pos_as_xyz
  1  'x, y, z'
loop_
 _atom_site_type_symbol
 _atom_site_label
 _atom_site_symmetry_multiplicity
 _atom_site_fract_x
 _atom_site_fract_y
 _atom_site_fract_z
 _atom_site_occupancy
 _atom_site_charge
  Eu  Eu1  1  0.999990  0.999990  0.000000  1.0  1.997
  Eu  Eu2  1  0.999990  0.999990  0.500000  1.0  1.997
  Eu  Eu3  1  0.355640  0.652620  0.250000  1.0  2.2118
  Eu  Eu4  1  0.652620  0.355640  0.750000  1.0  2.2133
  H  H5  1  0.546100  0.946900  0.079800  1.0  0.0984
  H  H6  1  0.505700  0.805700  0.017300  1.0  0.0825
  H  H7  1  0.587600  0.978400  0.907400  1.0  0.1126
  H  H8  1  0.617300  0.130700  0.961100  1.0  0.1011
  H  H9  1  0.394500  0.397500  0.088000  1.0  0.1103
  H  H10  1  0.324100  0.490500  0.032800  1.0  0.0972
  H  H11  1  0.946900  0.546100  0.920200  1.0  0.0986
  H  H12  1  0.805700  0.505700  0.982700  1.0  0.0827
  H  H13  1  0.978400  0.587600  0.092600  1.0  0.1144
  H  H14  1  0.130700  0.617300  0.038900  1.0  0.1015
  H  H15  1  0.397500  0.394500  0.912000  1.0  0.1128
  H  H16  1  0.490500  0.324100  0.967200  1.0  0.0971
  H  H17  1  0.946900  0.546100  0.579800  1.0  0.0984
  H  H18  1  0.805700  0.505700  0.517300  1.0  0.0825
  H  H19  1  0.978400  0.587600  0.407400  1.0  0.1124
  H  H20  1  0.130700  0.617300  0.461100  1.0  0.1014
  H  H21  1  0.397500  0.394500  0.588000  1.0  0.1126
  H  H22  1  0.490500  0.324100  0.532800  1.0  0.0971
  H  H23  1  0.546100  0.946900  0.420200  1.0  0.0989
  H  H24  1  0.505700  0.805700  0.482700  1.0  0.0829
  H  H25  1  0.587600  0.978400  0.592600  1.0  0.1142
  H  H26  1  0.617300  0.130700  0.538900  1.0  0.1017
  H  H27  1  0.394500  0.397500  0.412000  1.0  0.1103
  H  H28  1  0.324100  0.490500  0.467200  1.0  0.0966
  C  C29  1  0.658900  0.800700  0.104200  1.0  0.7594
  C  C30  1  0.592300  0.886100  0.049800  1.0  -0.0638
  C  C31  1  0.668600  0.065400  0.939500  1.0  -0.08
  C  C32  1  0.814500  0.172900  0.889700  1.0  0.7418
  C  C33  1  0.153700  0.341100  0.112800  1.0  0.752
  C  C34  1  0.298600  0.385800  0.058100  1.0  -0.0738
  C  C35  1  0.800700  0.658900  0.895800  1.0  0.7589
  C  C36  1  0.886100  0.592300  0.950200  1.0  -0.0613
  C  C37  1  0.065400  0.668600  0.060500  1.0  -0.0789
  C  C38  1  0.172900  0.814500  0.110300  1.0  0.7437
  C  C39  1  0.341100  0.153700  0.887200  1.0  0.7495
  C  C40  1  0.385800  0.298600  0.941900  1.0  -0.0768
  C  C41  1  0.800700  0.658900  0.604200  1.0  0.7599
  C  C42  1  0.886100  0.592300  0.549800  1.0  -0.0611
  C  C43  1  0.065400  0.668600  0.439500  1.0  -0.0784
  C  C44  1  0.172900  0.814500  0.389700  1.0  0.7451
  C  C45  1  0.341100  0.153700  0.612800  1.0  0.7519
  C  C46  1  0.385800  0.298600  0.558100  1.0  -0.0765
  C  C47  1  0.658900  0.800700  0.395800  1.0  0.7563
  C  C48  1  0.592300  0.886100  0.450200  1.0  -0.0645
  C  C49  1  0.668600  0.065400  0.560500  1.0  -0.08
  C  C50  1  0.814500  0.172900  0.610300  1.0  0.7427
  C  C51  1  0.153700  0.341100  0.387200  1.0  0.7504
  C  C52  1  0.298600  0.385800  0.441900  1.0  -0.0748
  O  O53  1  0.806700  0.830900  0.099000  1.0  -0.6617
  O  O54  1  0.558400  0.703800  0.154400  1.0  -0.761
  O  O55  1  0.722500  0.995500  0.001700  1.0  -0.3417
  O  O56  1  0.786900  0.248500  0.835900  1.0  -0.7278
  O  O57  1  0.951900  0.175100  0.904800  1.0  -0.6857
  O  O58  1  0.027100  0.204100  0.099200  1.0  -0.6949
  O  O59  1  0.165900  0.436700  0.166100  1.0  -0.7199
  O  O60  1  0.830900  0.806700  0.901000  1.0  -0.661
  O  O61  1  0.703800  0.558400  0.845600  1.0  -0.7567
  O  O62  1  0.995500  0.722500  0.998300  1.0  -0.3434
  O  O63  1  0.248500  0.786900  0.164100  1.0  -0.7215
  O  O64  1  0.175100  0.951900  0.095200  1.0  -0.6863
  O  O65  1  0.204100  0.027100  0.900800  1.0  -0.6946
  O  O66  1  0.436700  0.165900  0.833900  1.0  -0.7195
  O  O67  1  0.830900  0.806700  0.599000  1.0  -0.6612
  O  O68  1  0.703800  0.558400  0.654400  1.0  -0.7572
  O  O69  1  0.995500  0.722500  0.501700  1.0  -0.3435
  O  O70  1  0.248500  0.786900  0.335900  1.0  -0.7213
  O  O71  1  0.175100  0.951900  0.404800  1.0  -0.6862
  O  O72  1  0.204100  0.027100  0.599200  1.0  -0.695
  O  O73  1  0.436700  0.165900  0.666100  1.0  -0.7205
  O  O74  1  0.806700  0.830900  0.401000  1.0  -0.6619
  O  O75  1  0.558400  0.703800  0.345600  1.0  -0.7608
  O  O76  1  0.722500  0.995500  0.498300  1.0  -0.3415
  O  O77  1  0.786900  0.248500  0.664100  1.0  -0.7268
  O  O78  1  0.951900  0.175100  0.595200  1.0  -0.6854
  O  O79  1  0.027100  0.204100  0.400800  1.0  -0.6938
  O  O80  1  0.165900  0.436700  0.333900  1.0  -0.7188
  O  O81  1  0.260300  0.260300  0.000000  1.0  -0.3147
  O  O82  1  0.260300  0.260300  0.500000  1.0  -0.3147
