# generated using pymatgen
data_Zn3H12C20(N3O4)2
_symmetry_space_group_name_H-M   'P 1'
_cell_length_a   9.17890000
_cell_length_b   10.92670000
_cell_length_c   11.37100000
_cell_angle_alpha   117.84400000
_cell_angle_beta   100.86100000
_cell_angle_gamma   99.34400000
_symmetry_Int_Tables_number   1
_chemical_formula_structural   Zn3H12C20(N3O4)2
_chemical_formula_sum   'Zn3 H12 C20 N6 O8'
_cell_volume   948.29764863
_cell_formula_units_Z   1
loop_
 _symmetry_equiv_pos_site_id
 _symmetry_equiv_pos_as_xyz
  1  'x, y, z'
loop_
 _atom_site_type_symbol
 _atom_site_label
 _atom_site_symmetry_multiplicity
 _atom_site_fract_x
 _atom_site_fract_y
 _atom_site_fract_z
 _atom_site_occupancy
 _atom_site_charge
  Zn  Zn1  1  0.190950  0.623550  0.122110  1.0  0.8459
  Zn  Zn2  1  0.809050  0.376450  0.877890  1.0  0.8462
  Zn  Zn3  1  0.500000  0.500000  0.000000  1.0  0.9612
  H  H4  1  0.625300  0.827800  0.976700  1.0  0.1002
  H  H5  1  0.294200  0.009700  0.088500  1.0  0.1048
  H  H6  1  0.694200  0.390800  0.507100  1.0  0.1073
  H  H7  1  0.386400  0.573300  0.676500  1.0  0.1028
  H  H8  1  0.249600  0.231000  0.703800  1.0  0.1017
  H  H9  1  0.967700  0.177600  0.654000  1.0  0.1261
  H  H10  1  0.374700  0.172200  0.023300  1.0  0.1001
  H  H11  1  0.705800  0.990300  0.911500  1.0  0.1049
  H  H12  1  0.305800  0.609200  0.492900  1.0  0.108
  H  H13  1  0.613600  0.426700  0.323500  1.0  0.1031
  H  H14  1  0.750400  0.769000  0.296200  1.0  0.1024
  H  H15  1  0.032300  0.822400  0.346000  1.0  0.1257
  C  C16  1  0.448400  0.900500  0.037400  1.0  -0.144
  C  C17  1  0.574000  0.897000  0.985700  1.0  -0.0543
  C  C18  1  0.377200  0.005000  0.052100  1.0  -0.0442
  C  C19  1  0.391900  0.790100  0.073100  1.0  0.7054
  C  C20  1  0.546700  0.474200  0.607200  1.0  -0.1275
  C  C21  1  0.615300  0.434000  0.504200  1.0  -0.0501
  C  C22  1  0.431500  0.543000  0.604800  1.0  -0.0591
  C  C23  1  0.598100  0.455100  0.730100  1.0  0.6918
  C  C24  1  0.197600  0.283800  0.763300  1.0  0.0012
  C  C25  1  0.041600  0.253900  0.734700  1.0  -0.0185
  C  C26  1  0.551600  0.099500  0.962600  1.0  -0.1445
  C  C27  1  0.426000  0.103000  0.014300  1.0  -0.0529
  C  C28  1  0.622800  0.995000  0.947900  1.0  -0.042
  C  C29  1  0.608100  0.209900  0.926900  1.0  0.7064
  C  C30  1  0.453300  0.525800  0.392800  1.0  -0.1275
  C  C31  1  0.384700  0.566000  0.495800  1.0  -0.0505
  C  C32  1  0.568500  0.457000  0.395200  1.0  -0.0568
  C  C33  1  0.401900  0.544900  0.269900  1.0  0.69
  C  C34  1  0.802400  0.716200  0.236700  1.0  0.001
  C  C35  1  0.958400  0.746100  0.265300  1.0  -0.0167
  N  N36  1  0.264300  0.399300  0.888500  1.0  -0.1639
  N  N37  1  0.151400  0.443200  0.938200  1.0  -0.0691
  N  N38  1  0.015100  0.356100  0.845700  1.0  -0.1965
  N  N39  1  0.735700  0.600700  0.111500  1.0  -0.1641
  N  N40  1  0.848600  0.556800  0.061800  1.0  -0.066
  N  N41  1  0.984900  0.643900  0.154300  1.0  -0.1954
  O  O42  1  0.270100  0.790800  0.105600  1.0  -0.5943
  O  O43  1  0.466900  0.705100  0.072000  1.0  -0.6446
  O  O44  1  0.536200  0.501800  0.823800  1.0  -0.6033
  O  O45  1  0.702500  0.391000  0.724900  1.0  -0.6044
  O  O46  1  0.729900  0.209200  0.894400  1.0  -0.5963
  O  O47  1  0.533100  0.294900  0.928000  1.0  -0.6442
  O  O48  1  0.463800  0.498200  0.176200  1.0  -0.6021
  O  O49  1  0.297500  0.609000  0.275100  1.0  -0.6035
