# generated using pymatgen
data_BaZnH4(C3O4)2
_symmetry_space_group_name_H-M   'P 1'
_cell_length_a   6.84340000
_cell_length_b   19.01400000
_cell_length_c   9.42030000
_cell_angle_alpha   90.00000000
_cell_angle_beta   90.00000000
_cell_angle_gamma   90.00000000
_symmetry_Int_Tables_number   1
_chemical_formula_structural   BaZnH4(C3O4)2
_chemical_formula_sum   'Ba4 Zn4 H16 C24 O32'
_cell_volume   1225.77327571
_cell_formula_units_Z   4
loop_
 _symmetry_equiv_pos_site_id
 _symmetry_equiv_pos_as_xyz
  1  'x, y, z'
loop_
 _atom_site_type_symbol
 _atom_site_label
 _atom_site_symmetry_multiplicity
 _atom_site_fract_x
 _atom_site_fract_y
 _atom_site_fract_z
 _atom_site_occupancy
 _atom_site_charge
  Ba  Ba1  1  0.750000  0.750000  0.471820  1.0  1.7239
  Ba  Ba2  1  0.250000  0.250000  0.028180  1.0  1.7239
  Ba  Ba3  1  0.250000  0.250000  0.528180  1.0  1.7239
  Ba  Ba4  1  0.750000  0.750000  0.971820  1.0  1.7239
  Zn  Zn5  1  0.000000  0.500000  0.000000  1.0  1.1497
  Zn  Zn6  1  0.500000  0.000000  0.000000  1.0  1.1497
  Zn  Zn7  1  0.500000  0.500000  0.500000  1.0  1.1497
  Zn  Zn8  1  0.000000  0.000000  0.500000  1.0  1.1497
  H  H9  1  0.436000  0.570500  0.835700  1.0  0.192
  H  H10  1  0.644000  0.584500  0.897000  1.0  0.1478
  H  H11  1  0.064000  0.929500  0.835700  1.0  0.1944
  H  H12  1  0.856000  0.915500  0.897000  1.0  0.1489
  H  H13  1  0.936000  0.429500  0.664300  1.0  0.1923
  H  H14  1  0.144000  0.415500  0.603000  1.0  0.1499
  H  H15  1  0.564000  0.070500  0.664300  1.0  0.1933
  H  H16  1  0.356000  0.084500  0.603000  1.0  0.1502
  H  H17  1  0.564000  0.429500  0.164300  1.0  0.1938
  H  H18  1  0.356000  0.415500  0.103000  1.0  0.1499
  H  H19  1  0.936000  0.070500  0.164300  1.0  0.192
  H  H20  1  0.144000  0.084500  0.103000  1.0  0.1498
  H  H21  1  0.064000  0.570500  0.335700  1.0  0.1935
  H  H22  1  0.856000  0.584500  0.397000  1.0  0.1479
  H  H23  1  0.436000  0.929500  0.335700  1.0  0.1927
  H  H24  1  0.644000  0.915500  0.397000  1.0  0.1491
  C  C25  1  0.622400  0.489370  0.800700  1.0  0.7865
  C  C26  1  0.574400  0.566780  0.814700  1.0  -0.5893
  C  C27  1  0.617500  0.615610  0.692100  1.0  0.8439
  C  C28  1  0.877600  0.010630  0.800700  1.0  0.7871
  C  C29  1  0.925600  0.933220  0.814700  1.0  -0.5877
  C  C30  1  0.882500  0.884390  0.692100  1.0  0.8429
  C  C31  1  0.122400  0.510630  0.699300  1.0  0.7872
  C  C32  1  0.074400  0.433220  0.685300  1.0  -0.5871
  C  C33  1  0.117500  0.384390  0.807900  1.0  0.8422
  C  C34  1  0.377600  0.989370  0.699300  1.0  0.7861
  C  C35  1  0.425600  0.066780  0.685300  1.0  -0.5875
  C  C36  1  0.382500  0.115610  0.807900  1.0  0.8426
  C  C37  1  0.377600  0.510630  0.199300  1.0  0.7872
  C  C38  1  0.425600  0.433220  0.185300  1.0  -0.5865
  C  C39  1  0.382500  0.384390  0.307900  1.0  0.8421
  C  C40  1  0.122400  0.989370  0.199300  1.0  0.7862
  C  C41  1  0.074400  0.066780  0.185300  1.0  -0.5883
  C  C42  1  0.117500  0.115610  0.307900  1.0  0.8421
  C  C43  1  0.877600  0.489370  0.300700  1.0  0.7863
  C  C44  1  0.925600  0.566780  0.314700  1.0  -0.5881
  C  C45  1  0.882500  0.615610  0.192100  1.0  0.8439
  C  C46  1  0.622400  0.010630  0.300700  1.0  0.7871
  C  C47  1  0.574400  0.933220  0.314700  1.0  -0.589
  C  C48  1  0.617500  0.884390  0.192100  1.0  0.8435
  O  O49  1  0.709200  0.459890  0.901500  1.0  -0.654
  O  O50  1  0.565800  0.455630  0.690800  1.0  -0.6603
  O  O51  1  0.613800  0.593840  0.564400  1.0  -0.6794
  O  O52  1  0.654600  0.678030  0.722600  1.0  -0.826
  O  O53  1  0.790800  0.040110  0.901500  1.0  -0.6531
  O  O54  1  0.934200  0.044370  0.690800  1.0  -0.6615
  O  O55  1  0.886200  0.906160  0.564400  1.0  -0.6799
  O  O56  1  0.845400  0.821970  0.722600  1.0  -0.8256
  O  O57  1  0.209200  0.540110  0.598500  1.0  -0.6545
  O  O58  1  0.065800  0.544370  0.809200  1.0  -0.6604
  O  O59  1  0.113800  0.406160  0.935600  1.0  -0.6813
  O  O60  1  0.154600  0.321970  0.777400  1.0  -0.8242
  O  O61  1  0.290800  0.959890  0.598500  1.0  -0.6544
  O  O62  1  0.434200  0.955630  0.809200  1.0  -0.6607
  O  O63  1  0.386200  0.093840  0.935600  1.0  -0.6803
  O  O64  1  0.345400  0.178030  0.777400  1.0  -0.826
  O  O65  1  0.290800  0.540110  0.098500  1.0  -0.6538
  O  O66  1  0.434200  0.544370  0.309200  1.0  -0.6618
  O  O67  1  0.386200  0.406160  0.435600  1.0  -0.6816
  O  O68  1  0.345400  0.321970  0.277400  1.0  -0.8257
  O  O69  1  0.209200  0.959890  0.098500  1.0  -0.6548
  O  O70  1  0.065800  0.955630  0.309200  1.0  -0.6604
  O  O71  1  0.113800  0.093840  0.435600  1.0  -0.6801
  O  O72  1  0.154600  0.178030  0.277400  1.0  -0.8257
  O  O73  1  0.790800  0.459890  0.401500  1.0  -0.6535
  O  O74  1  0.934200  0.455630  0.190800  1.0  -0.6615
  O  O75  1  0.886200  0.593840  0.064400  1.0  -0.6796
  O  O76  1  0.845400  0.678030  0.222600  1.0  -0.8265
  O  O77  1  0.709200  0.040110  0.401500  1.0  -0.6538
  O  O78  1  0.565800  0.044370  0.190800  1.0  -0.6611
  O  O79  1  0.613800  0.906160  0.064400  1.0  -0.6796
  O  O80  1  0.654600  0.821970  0.222600  1.0  -0.8241
