# generated using pymatgen
data_KCd(CO2)4
_symmetry_space_group_name_H-M   'P 1'
_cell_length_a   13.01600000
_cell_length_b   11.29100000
_cell_length_c   15.75430000
_cell_angle_alpha   90.00000000
_cell_angle_beta   105.03900000
_cell_angle_gamma   90.00000000
_symmetry_Int_Tables_number   1
_chemical_formula_structural   KCd(CO2)4
_chemical_formula_sum   'K8 Cd8 C32 O64'
_cell_volume   2236.00885474
_cell_formula_units_Z   8
loop_
 _symmetry_equiv_pos_site_id
 _symmetry_equiv_pos_as_xyz
  1  'x, y, z'
loop_
 _atom_site_type_symbol
 _atom_site_label
 _atom_site_symmetry_multiplicity
 _atom_site_fract_x
 _atom_site_fract_y
 _atom_site_fract_z
 _atom_site_occupancy
 _atom_site_charge
  K  K1  1  0.500000  0.000000  0.500000  1.0  0.9972
  K  K2  1  0.000000  0.500000  0.500000  1.0  0.9972
  K  K3  1  0.500000  0.000000  0.000000  1.0  0.9972
  K  K4  1  0.000000  0.500000  0.000000  1.0  0.9972
  K  K5  1  0.000000  0.211970  0.750000  1.0  1.0178
  K  K6  1  0.500000  0.711970  0.750000  1.0  1.0178
  K  K7  1  0.000000  0.788030  0.250000  1.0  1.0181
  K  K8  1  0.500000  0.288030  0.250000  1.0  1.0182
  Cd  Cd9  1  0.697900  0.177120  0.674360  1.0  1.0355
  Cd  Cd10  1  0.197900  0.677120  0.674360  1.0  1.0355
  Cd  Cd11  1  0.302100  0.177120  0.825640  1.0  1.0361
  Cd  Cd12  1  0.802100  0.677120  0.825640  1.0  1.0361
  Cd  Cd13  1  0.302100  0.822880  0.325640  1.0  1.0361
  Cd  Cd14  1  0.802100  0.322880  0.325640  1.0  1.0361
  Cd  Cd15  1  0.697900  0.822880  0.174360  1.0  1.0354
  Cd  Cd16  1  0.197900  0.322880  0.174360  1.0  1.0354
  C  C17  1  0.539800  0.151400  0.796700  1.0  0.6347
  C  C18  1  0.685600  0.446300  0.729700  1.0  0.6283
  C  C19  1  0.790900  0.402100  0.795600  1.0  0.6299
  C  C20  1  0.691300  0.236600  0.474200  1.0  0.669
  C  C21  1  0.039800  0.651400  0.796700  1.0  0.6347
  C  C22  1  0.185600  0.946300  0.729700  1.0  0.6283
  C  C23  1  0.290900  0.902100  0.795600  1.0  0.6299
  C  C24  1  0.191300  0.736600  0.474200  1.0  0.669
  C  C25  1  0.460200  0.151400  0.703300  1.0  0.6343
  C  C26  1  0.314400  0.446300  0.770300  1.0  0.6296
  C  C27  1  0.209100  0.402100  0.704400  1.0  0.6299
  C  C28  1  0.308700  0.236600  0.025800  1.0  0.6682
  C  C29  1  0.960200  0.651400  0.703300  1.0  0.6343
  C  C30  1  0.814400  0.946300  0.770300  1.0  0.6296
  C  C31  1  0.709100  0.902100  0.704400  1.0  0.6299
  C  C32  1  0.808700  0.736600  0.025800  1.0  0.6682
  C  C33  1  0.460200  0.848600  0.203300  1.0  0.6343
  C  C34  1  0.314400  0.553700  0.270300  1.0  0.6295
  C  C35  1  0.209100  0.597900  0.204400  1.0  0.6298
  C  C36  1  0.308700  0.763400  0.525800  1.0  0.6679
  C  C37  1  0.960200  0.348600  0.203300  1.0  0.6343
  C  C38  1  0.814400  0.053700  0.270300  1.0  0.6295
  C  C39  1  0.709100  0.097900  0.204400  1.0  0.6298
  C  C40  1  0.808700  0.263400  0.525800  1.0  0.6679
  C  C41  1  0.539800  0.848600  0.296700  1.0  0.6347
  C  C42  1  0.685600  0.553700  0.229700  1.0  0.628
  C  C43  1  0.790900  0.597900  0.295600  1.0  0.6294
  C  C44  1  0.691300  0.763400  0.974200  1.0  0.6687
  C  C45  1  0.039800  0.348600  0.296700  1.0  0.6347
  C  C46  1  0.185600  0.053700  0.229700  1.0  0.628
  C  C47  1  0.290900  0.097900  0.295600  1.0  0.6294
  C  C48  1  0.191300  0.263400  0.974200  1.0  0.6687
  O  O49  1  0.637200  0.151100  0.799600  1.0  -0.53
  O  O50  1  0.640800  0.375600  0.670600  1.0  -0.511
  O  O51  1  0.836700  0.473400  0.853900  1.0  -0.6016
  O  O52  1  0.632900  0.188500  0.516400  1.0  -0.584
  O  O53  1  0.835800  0.235000  0.604700  1.0  -0.584
  O  O54  1  0.819900  0.298900  0.785900  1.0  -0.6026
  O  O55  1  0.654500  0.548400  0.741600  1.0  -0.5867
  O  O56  1  0.498500  0.149700  0.638400  1.0  -0.6022
  O  O57  1  0.137200  0.651100  0.799600  1.0  -0.53
  O  O58  1  0.140800  0.875600  0.670600  1.0  -0.511
  O  O59  1  0.336700  0.973400  0.853900  1.0  -0.6016
  O  O60  1  0.132900  0.688500  0.516400  1.0  -0.584
  O  O61  1  0.335800  0.735000  0.604700  1.0  -0.584
  O  O62  1  0.319900  0.798900  0.785900  1.0  -0.6026
  O  O63  1  0.154500  0.048400  0.741600  1.0  -0.5867
  O  O64  1  0.998500  0.649700  0.638400  1.0  -0.6022
  O  O65  1  0.362800  0.151100  0.700400  1.0  -0.5285
  O  O66  1  0.359200  0.375600  0.829400  1.0  -0.511
  O  O67  1  0.163300  0.473400  0.646100  1.0  -0.603
  O  O68  1  0.367100  0.188500  0.983600  1.0  -0.5839
  O  O69  1  0.164200  0.235000  0.895300  1.0  -0.588
  O  O70  1  0.180100  0.298900  0.714100  1.0  -0.6043
  O  O71  1  0.345500  0.548400  0.758400  1.0  -0.5864
  O  O72  1  0.501500  0.149700  0.861600  1.0  -0.6037
  O  O73  1  0.862800  0.651100  0.700400  1.0  -0.5285
  O  O74  1  0.859200  0.875600  0.829400  1.0  -0.511
  O  O75  1  0.663300  0.973400  0.646100  1.0  -0.603
  O  O76  1  0.867100  0.688500  0.983600  1.0  -0.5839
  O  O77  1  0.664200  0.735000  0.895300  1.0  -0.588
  O  O78  1  0.680100  0.798900  0.714100  1.0  -0.6043
  O  O79  1  0.845500  0.048400  0.758400  1.0  -0.5864
  O  O80  1  0.001500  0.649700  0.861600  1.0  -0.604
  O  O81  1  0.362800  0.848900  0.200400  1.0  -0.5284
  O  O82  1  0.359200  0.624400  0.329400  1.0  -0.5101
  O  O83  1  0.163300  0.526600  0.146100  1.0  -0.6038
  O  O84  1  0.367100  0.811500  0.483600  1.0  -0.5837
  O  O85  1  0.164200  0.765000  0.395300  1.0  -0.5884
  O  O86  1  0.180100  0.701100  0.214100  1.0  -0.6025
  O  O87  1  0.345500  0.451600  0.258400  1.0  -0.5878
  O  O88  1  0.501500  0.850300  0.361600  1.0  -0.6036
  O  O89  1  0.862800  0.348900  0.200400  1.0  -0.5284
  O  O90  1  0.859200  0.124400  0.329400  1.0  -0.5101
  O  O91  1  0.663300  0.026600  0.146100  1.0  -0.6038
  O  O92  1  0.867100  0.311500  0.483600  1.0  -0.5837
  O  O93  1  0.664200  0.265000  0.395300  1.0  -0.5884
  O  O94  1  0.680100  0.201100  0.214100  1.0  -0.6025
  O  O95  1  0.845500  0.951600  0.258400  1.0  -0.5878
  O  O96  1  0.001500  0.350300  0.361600  1.0  -0.6036
  O  O97  1  0.637200  0.848900  0.299600  1.0  -0.5302
  O  O98  1  0.640800  0.624400  0.170600  1.0  -0.5104
  O  O99  1  0.836700  0.526600  0.353900  1.0  -0.6011
  O  O100  1  0.632900  0.811500  0.016400  1.0  -0.5838
  O  O101  1  0.835800  0.765000  0.104700  1.0  -0.5845
  O  O102  1  0.819900  0.701100  0.285900  1.0  -0.6008
  O  O103  1  0.654500  0.451600  0.241600  1.0  -0.5874
  O  O104  1  0.498500  0.850300  0.138400  1.0  -0.6019
  O  O105  1  0.137200  0.348900  0.299600  1.0  -0.5302
  O  O106  1  0.140800  0.124400  0.170600  1.0  -0.5104
  O  O107  1  0.336700  0.026600  0.353900  1.0  -0.6011
  O  O108  1  0.132900  0.311500  0.016400  1.0  -0.5838
  O  O109  1  0.335800  0.265000  0.104700  1.0  -0.5845
  O  O110  1  0.319900  0.201100  0.285900  1.0  -0.6008
  O  O111  1  0.154500  0.951600  0.241600  1.0  -0.5874
  O  O112  1  0.998500  0.350300  0.138400  1.0  -0.6022
