# generated using pymatgen
data_Ag3H12(C2N5)2
_symmetry_space_group_name_H-M   'P 1'
_cell_length_a   19.34740000
_cell_length_b   19.34740000
_cell_length_c   3.50130000
_cell_angle_alpha   90.00000000
_cell_angle_beta   90.00000000
_cell_angle_gamma   90.00000000
_symmetry_Int_Tables_number   1
_chemical_formula_structural   Ag3H12(C2N5)2
_chemical_formula_sum   'Ag12 H48 C16 N40'
_cell_volume   1310.61322211
_cell_formula_units_Z   4
loop_
 _symmetry_equiv_pos_site_id
 _symmetry_equiv_pos_as_xyz
  1  'x, y, z'
loop_
 _atom_site_type_symbol
 _atom_site_label
 _atom_site_symmetry_multiplicity
 _atom_site_fract_x
 _atom_site_fract_y
 _atom_site_fract_z
 _atom_site_occupancy
 _atom_site_charge
  Ag  Ag1  1  0.544480  0.376940  0.005100  1.0  0.2703
  Ag  Ag2  1  0.455520  0.623060  0.005100  1.0  0.2699
  Ag  Ag3  1  0.376940  0.455520  0.994900  1.0  0.282
  Ag  Ag4  1  0.623060  0.544480  0.994900  1.0  0.2786
  Ag  Ag5  1  0.044480  0.123060  0.505100  1.0  0.2689
  Ag  Ag6  1  0.955520  0.876940  0.505100  1.0  0.2712
  Ag  Ag7  1  0.876940  0.044480  0.494900  1.0  0.281
  Ag  Ag8  1  0.123060  0.955520  0.494900  1.0  0.2793
  Ag  Ag9  1  0.835530  0.335530  0.750000  1.0  0.2185
  Ag  Ag10  1  0.164470  0.664470  0.750000  1.0  0.2208
  Ag  Ag11  1  0.335530  0.164470  0.250000  1.0  0.2205
  Ag  Ag12  1  0.664470  0.835530  0.250000  1.0  0.2193
  H  H13  1  0.765700  0.481500  0.421900  1.0  0.2365
  H  H14  1  0.639800  0.264500  0.340300  1.0  0.1315
  H  H15  1  0.710100  0.257200  0.508500  1.0  0.104
  H  H16  1  0.821400  0.492600  0.477500  1.0  0.2799
  H  H17  1  0.766600  0.540600  0.340400  1.0  0.1524
  H  H18  1  0.679600  0.306200  0.417700  1.0  0.2231
  H  H19  1  0.234300  0.518500  0.421900  1.0  0.2391
  H  H20  1  0.360200  0.735500  0.340300  1.0  0.1341
  H  H21  1  0.289900  0.742800  0.508500  1.0  0.1073
  H  H22  1  0.178600  0.507400  0.477500  1.0  0.2803
  H  H23  1  0.233400  0.459400  0.340400  1.0  0.1476
  H  H24  1  0.320400  0.693800  0.417700  1.0  0.2211
  H  H25  1  0.481500  0.234300  0.578100  1.0  0.2319
  H  H26  1  0.264500  0.360200  0.659700  1.0  0.1281
  H  H27  1  0.257200  0.289900  0.491500  1.0  0.1076
  H  H28  1  0.492600  0.178600  0.522500  1.0  0.2747
  H  H29  1  0.540600  0.233400  0.659600  1.0  0.141
  H  H30  1  0.306200  0.320400  0.582300  1.0  0.2227
  H  H31  1  0.518500  0.765700  0.578100  1.0  0.2335
  H  H32  1  0.735500  0.639800  0.659700  1.0  0.1285
  H  H33  1  0.742800  0.710100  0.491500  1.0  0.1069
  H  H34  1  0.507400  0.821400  0.522500  1.0  0.2809
  H  H35  1  0.459400  0.766600  0.659600  1.0  0.1425
  H  H36  1  0.693800  0.679600  0.582300  1.0  0.221
  H  H37  1  0.265700  0.018500  0.921900  1.0  0.2384
  H  H38  1  0.139800  0.235500  0.840300  1.0  0.1318
  H  H39  1  0.210100  0.242800  0.008500  1.0  0.107
  H  H40  1  0.321400  0.007400  0.977500  1.0  0.2801
  H  H41  1  0.266600  0.959400  0.840400  1.0  0.149
  H  H42  1  0.179600  0.193800  0.917700  1.0  0.2208
  H  H43  1  0.734300  0.981500  0.921900  1.0  0.2377
  H  H44  1  0.860200  0.764500  0.840300  1.0  0.1339
  H  H45  1  0.789900  0.757200  0.008500  1.0  0.104
  H  H46  1  0.678600  0.992600  0.977500  1.0  0.2807
  H  H47  1  0.733400  0.040600  0.840400  1.0  0.1506
  H  H48  1  0.820400  0.806200  0.917700  1.0  0.2225
  H  H49  1  0.981500  0.265700  0.078100  1.0  0.2324
  H  H50  1  0.764500  0.139800  0.159700  1.0  0.1259
  H  H51  1  0.757200  0.210100  0.991500  1.0  0.1067
  H  H52  1  0.992600  0.321400  0.022500  1.0  0.2811
  H  H53  1  0.040600  0.266600  0.159600  1.0  0.1404
  H  H54  1  0.806200  0.179600  0.082300  1.0  0.2224
  H  H55  1  0.018500  0.734300  0.078100  1.0  0.2331
  H  H56  1  0.235500  0.860200  0.159700  1.0  0.1308
  H  H57  1  0.242800  0.789900  0.991500  1.0  0.1074
  H  H58  1  0.007400  0.678600  0.022500  1.0  0.2732
  H  H59  1  0.959400  0.733400  0.159600  1.0  0.1417
  H  H60  1  0.193800  0.820400  0.082300  1.0  0.2224
  C  C61  1  0.688600  0.352700  0.372000  1.0  0.0621
  C  C62  1  0.735100  0.445700  0.368000  1.0  0.1161
  C  C63  1  0.311400  0.647300  0.372000  1.0  0.061
  C  C64  1  0.264900  0.554300  0.368000  1.0  0.1156
  C  C65  1  0.352700  0.311400  0.628000  1.0  0.0639
  C  C66  1  0.445700  0.264900  0.632000  1.0  0.1176
  C  C67  1  0.647300  0.688600  0.628000  1.0  0.0713
  C  C68  1  0.554300  0.735100  0.632000  1.0  0.1171
  C  C69  1  0.188600  0.147300  0.872000  1.0  0.0608
  C  C70  1  0.235100  0.054300  0.868000  1.0  0.1181
  C  C71  1  0.811400  0.852700  0.872000  1.0  0.0628
  C  C72  1  0.764900  0.945700  0.868000  1.0  0.1147
  C  C73  1  0.852700  0.188600  0.128000  1.0  0.0657
  C  C74  1  0.945700  0.235100  0.132000  1.0  0.1154
  C  C75  1  0.147300  0.811400  0.128000  1.0  0.069
  C  C76  1  0.054300  0.764900  0.132000  1.0  0.1176
  N  N77  1  0.751300  0.381600  0.452000  1.0  -0.3792
  N  N78  1  0.641400  0.394400  0.225000  1.0  -0.385
  N  N79  1  0.674700  0.458500  0.207000  1.0  -0.383
  N  N80  1  0.678000  0.283000  0.410000  1.0  -0.2445
  N  N81  1  0.780000  0.500000  0.399000  1.0  -0.2961
  N  N82  1  0.248700  0.618400  0.452000  1.0  -0.3811
  N  N83  1  0.358600  0.605600  0.225000  1.0  -0.3773
  N  N84  1  0.325300  0.541500  0.207000  1.0  -0.3785
  N  N85  1  0.322000  0.717000  0.410000  1.0  -0.2439
  N  N86  1  0.220000  0.500000  0.399000  1.0  -0.2991
  N  N87  1  0.381600  0.248700  0.548000  1.0  -0.3791
  N  N88  1  0.394400  0.358600  0.775000  1.0  -0.3798
  N  N89  1  0.458500  0.325300  0.793000  1.0  -0.3811
  N  N90  1  0.283000  0.322000  0.590000  1.0  -0.2483
  N  N91  1  0.500000  0.220000  0.601000  1.0  -0.2981
  N  N92  1  0.618400  0.751300  0.548000  1.0  -0.3786
  N  N93  1  0.605600  0.641400  0.775000  1.0  -0.379
  N  N94  1  0.541500  0.674700  0.793000  1.0  -0.3814
  N  N95  1  0.717000  0.678000  0.590000  1.0  -0.2446
  N  N96  1  0.500000  0.780000  0.601000  1.0  -0.2998
  N  N97  1  0.251300  0.118400  0.952000  1.0  -0.3788
  N  N98  1  0.141400  0.105600  0.725000  1.0  -0.3851
  N  N99  1  0.174700  0.041500  0.707000  1.0  -0.3835
  N  N100  1  0.178000  0.217000  0.910000  1.0  -0.2445
  N  N101  1  0.280000  0.000000  0.899000  1.0  -0.2991
  N  N102  1  0.748700  0.881600  0.952000  1.0  -0.3823
  N  N103  1  0.858600  0.894400  0.725000  1.0  -0.3784
  N  N104  1  0.825300  0.958500  0.707000  1.0  -0.3813
  N  N105  1  0.822000  0.783000  0.910000  1.0  -0.2427
  N  N106  1  0.720000  0.000000  0.899000  1.0  -0.2975
  N  N107  1  0.881600  0.251300  0.048000  1.0  -0.378
  N  N108  1  0.894400  0.141400  0.275000  1.0  -0.3789
  N  N109  1  0.958500  0.174700  0.293000  1.0  -0.3777
  N  N110  1  0.783000  0.178000  0.090000  1.0  -0.2484
  N  N111  1  0.000000  0.280000  0.101000  1.0  -0.2987
  N  N112  1  0.118400  0.748700  0.048000  1.0  -0.3782
  N  N113  1  0.105600  0.858600  0.275000  1.0  -0.3809
  N  N114  1  0.041500  0.825300  0.293000  1.0  -0.3829
  N  N115  1  0.217000  0.822000  0.090000  1.0  -0.2452
  N  N116  1  0.000000  0.720000  0.101000  1.0  -0.2996
