# generated using pymatgen
data_Al2P2O8F
_symmetry_space_group_name_H-M   'P 1'
_cell_length_a   14.26040000
_cell_length_b   11.59990000
_cell_length_c   18.32490000
_cell_angle_alpha   90.00000000
_cell_angle_beta   90.32400000
_cell_angle_gamma   90.00000000
_symmetry_Int_Tables_number   1
_chemical_formula_structural   Al2P2O8F
_chemical_formula_sum   'Al24 P24 O96 F12'
_cell_volume   3031.24208745
_cell_formula_units_Z   12
loop_
 _symmetry_equiv_pos_site_id
 _symmetry_equiv_pos_as_xyz
  1  'x, y, z'
loop_
 _atom_site_type_symbol
 _atom_site_label
 _atom_site_symmetry_multiplicity
 _atom_site_fract_x
 _atom_site_fract_y
 _atom_site_fract_z
 _atom_site_occupancy
 _atom_site_charge
  Al  Al1  1  0.229850  0.362370  0.531000  1.0  1.8138
  Al  Al2  1  0.126450  0.721710  0.566620  1.0  1.9534
  Al  Al3  1  0.084170  0.538960  0.818350  1.0  1.8771
  Al  Al4  1  0.729850  0.862370  0.531000  1.0  1.8138
  Al  Al5  1  0.626450  0.221710  0.566620  1.0  1.9534
  Al  Al6  1  0.584170  0.038960  0.818350  1.0  1.8771
  Al  Al7  1  0.770150  0.362370  0.969000  1.0  1.8141
  Al  Al8  1  0.873550  0.721710  0.933380  1.0  1.9528
  Al  Al9  1  0.915830  0.538960  0.681650  1.0  1.8766
  Al  Al10  1  0.270150  0.862370  0.969000  1.0  1.8141
  Al  Al11  1  0.373550  0.221710  0.933380  1.0  1.9528
  Al  Al12  1  0.415830  0.038960  0.681650  1.0  1.8766
  Al  Al13  1  0.770150  0.637630  0.469000  1.0  1.8142
  Al  Al14  1  0.873550  0.278290  0.433380  1.0  1.9514
  Al  Al15  1  0.915830  0.461040  0.181650  1.0  1.8737
  Al  Al16  1  0.270150  0.137630  0.469000  1.0  1.8142
  Al  Al17  1  0.373550  0.778290  0.433380  1.0  1.9514
  Al  Al18  1  0.415830  0.961040  0.181650  1.0  1.8737
  Al  Al19  1  0.229850  0.637630  0.031000  1.0  1.8142
  Al  Al20  1  0.126450  0.278290  0.066620  1.0  1.9523
  Al  Al21  1  0.084170  0.461040  0.318350  1.0  1.8742
  Al  Al22  1  0.729850  0.137630  0.031000  1.0  1.8142
  Al  Al23  1  0.626450  0.778290  0.066620  1.0  1.9523
  Al  Al24  1  0.584170  0.961040  0.318350  1.0  1.8742
  P  P25  1  0.216130  0.592460  0.440110  1.0  1.95
  P  P26  1  0.091300  0.261250  0.424150  1.0  1.8117
  P  P27  1  0.121060  0.493800  0.656680  1.0  1.9265
  P  P28  1  0.716130  0.092460  0.440110  1.0  1.95
  P  P29  1  0.591300  0.761250  0.424150  1.0  1.8117
  P  P30  1  0.621060  0.993800  0.656680  1.0  1.9265
  P  P31  1  0.783870  0.592460  0.059890  1.0  1.9502
  P  P32  1  0.908700  0.261250  0.075850  1.0  1.8125
  P  P33  1  0.878940  0.493800  0.843320  1.0  1.9216
  P  P34  1  0.283870  0.092460  0.059890  1.0  1.9502
  P  P35  1  0.408700  0.761250  0.075850  1.0  1.8125
  P  P36  1  0.378940  0.993800  0.843320  1.0  1.9216
  P  P37  1  0.783870  0.407540  0.559890  1.0  1.9503
  P  P38  1  0.908700  0.738750  0.575850  1.0  1.8124
  P  P39  1  0.878940  0.506200  0.343320  1.0  1.9229
  P  P40  1  0.283870  0.907540  0.559890  1.0  1.9503
  P  P41  1  0.408700  0.238750  0.575850  1.0  1.8124
  P  P42  1  0.378940  0.006200  0.343320  1.0  1.9229
  P  P43  1  0.216130  0.407540  0.940110  1.0  1.9507
  P  P44  1  0.091300  0.738750  0.924150  1.0  1.8118
  P  P45  1  0.121060  0.506200  0.156680  1.0  1.9274
  P  P46  1  0.716130  0.907540  0.940110  1.0  1.9507
  P  P47  1  0.591300  0.238750  0.924150  1.0  1.8118
  P  P48  1  0.621060  0.006200  0.156680  1.0  1.9274
  O  O49  1  0.254400  0.507100  0.495460  1.0  -0.8689
  O  O50  1  0.148200  0.615700  0.631200  1.0  -0.9529
  O  O51  1  0.180800  0.404400  0.619120  1.0  -0.8126
  O  O52  1  0.148400  0.676600  0.477960  1.0  -0.957
  O  O53  1  0.143700  0.485200  0.738800  1.0  -0.8469
  O  O54  1  0.299500  0.664100  0.410800  1.0  -0.9033
  O  O55  1  0.112200  0.345700  0.485800  1.0  -0.85
  O  O56  1  0.986500  0.225400  0.426800  1.0  -0.8874
  O  O57  1  0.352100  0.350600  0.571780  1.0  -0.7485
  O  O58  1  0.108900  0.318800  0.349540  1.0  -0.8162
  O  O59  1  0.169300  0.538100  0.374660  1.0  -0.8546
  O  O60  1  0.016400  0.471600  0.643200  1.0  -0.9242
  O  O61  1  0.754400  0.007100  0.495460  1.0  -0.8689
  O  O62  1  0.648200  0.115700  0.631200  1.0  -0.9528
  O  O63  1  0.680800  0.904400  0.619120  1.0  -0.8126
  O  O64  1  0.648400  0.176600  0.477960  1.0  -0.957
  O  O65  1  0.643700  0.985200  0.738800  1.0  -0.8469
  O  O66  1  0.799500  0.164100  0.410800  1.0  -0.9048
  O  O67  1  0.612200  0.845700  0.485800  1.0  -0.85
  O  O68  1  0.486500  0.725400  0.426800  1.0  -0.8833
  O  O69  1  0.852100  0.850600  0.571780  1.0  -0.7485
  O  O70  1  0.608900  0.818800  0.349540  1.0  -0.8162
  O  O71  1  0.669300  0.038100  0.374660  1.0  -0.8546
  O  O72  1  0.516400  0.971600  0.643200  1.0  -0.9242
  O  O73  1  0.745600  0.507100  0.004540  1.0  -0.8696
  O  O74  1  0.851800  0.615700  0.868800  1.0  -0.9534
  O  O75  1  0.819200  0.404400  0.880880  1.0  -0.8122
  O  O76  1  0.851600  0.676600  0.022040  1.0  -0.9568
  O  O77  1  0.856300  0.485200  0.761200  1.0  -0.8482
  O  O78  1  0.700500  0.664100  0.089200  1.0  -0.9043
  O  O79  1  0.887800  0.345700  0.014200  1.0  -0.8504
  O  O80  1  0.013500  0.225400  0.073200  1.0  -0.8882
  O  O81  1  0.647900  0.350600  0.928220  1.0  -0.7488
  O  O82  1  0.891100  0.318800  0.150460  1.0  -0.8197
  O  O83  1  0.830700  0.538100  0.125340  1.0  -0.8553
  O  O84  1  0.983600  0.471600  0.856800  1.0  -0.9248
  O  O85  1  0.245600  0.007100  0.004540  1.0  -0.8696
  O  O86  1  0.351800  0.115700  0.868800  1.0  -0.9533
  O  O87  1  0.319200  0.904400  0.880880  1.0  -0.8122
  O  O88  1  0.351600  0.176600  0.022040  1.0  -0.9568
  O  O89  1  0.356300  0.985200  0.761200  1.0  -0.8482
  O  O90  1  0.200500  0.164100  0.089200  1.0  -0.9054
  O  O91  1  0.387800  0.845700  0.014200  1.0  -0.8504
  O  O92  1  0.513500  0.725400  0.073200  1.0  -0.884
  O  O93  1  0.147900  0.850600  0.928220  1.0  -0.7488
  O  O94  1  0.391100  0.818800  0.150460  1.0  -0.8197
  O  O95  1  0.330700  0.038100  0.125340  1.0  -0.8553
  O  O96  1  0.483600  0.971600  0.856800  1.0  -0.9248
  O  O97  1  0.745600  0.492900  0.504540  1.0  -0.8691
  O  O98  1  0.851800  0.384300  0.368800  1.0  -0.9539
  O  O99  1  0.819200  0.595600  0.380880  1.0  -0.8122
  O  O100  1  0.851600  0.323400  0.522040  1.0  -0.9566
  O  O101  1  0.856300  0.514800  0.261200  1.0  -0.848
  O  O102  1  0.700500  0.335900  0.589200  1.0  -0.9044
  O  O103  1  0.887800  0.654300  0.514200  1.0  -0.8507
  O  O104  1  0.013500  0.774600  0.573200  1.0  -0.8851
  O  O105  1  0.647900  0.649400  0.428220  1.0  -0.7503
  O  O106  1  0.891100  0.681200  0.650460  1.0  -0.8216
  O  O107  1  0.830700  0.461900  0.625340  1.0  -0.8559
  O  O108  1  0.983600  0.528400  0.356800  1.0  -0.9243
  O  O109  1  0.245600  0.992900  0.504540  1.0  -0.8691
  O  O110  1  0.351800  0.884300  0.368800  1.0  -0.9538
  O  O111  1  0.319200  0.095600  0.380880  1.0  -0.8122
  O  O112  1  0.351600  0.823400  0.522040  1.0  -0.9566
  O  O113  1  0.356300  0.014800  0.261200  1.0  -0.848
  O  O114  1  0.200500  0.835900  0.589200  1.0  -0.9044
  O  O115  1  0.387800  0.154300  0.514200  1.0  -0.8507
  O  O116  1  0.513500  0.274600  0.573200  1.0  -0.8805
  O  O117  1  0.147900  0.149400  0.428220  1.0  -0.7503
  O  O118  1  0.391100  0.181200  0.650460  1.0  -0.8216
  O  O119  1  0.330700  0.961900  0.625340  1.0  -0.8559
  O  O120  1  0.483600  0.028400  0.356800  1.0  -0.9243
  O  O121  1  0.254400  0.492900  0.995460  1.0  -0.8687
  O  O122  1  0.148200  0.384300  0.131200  1.0  -0.9531
  O  O123  1  0.180800  0.595600  0.119120  1.0  -0.8133
  O  O124  1  0.148400  0.323400  0.977960  1.0  -0.9569
  O  O125  1  0.143700  0.514800  0.238800  1.0  -0.8472
  O  O126  1  0.299500  0.335900  0.910800  1.0  -0.9038
  O  O127  1  0.112200  0.654300  0.985800  1.0  -0.8509
  O  O128  1  0.986500  0.774600  0.926800  1.0  -0.8843
  O  O129  1  0.352100  0.649400  0.071780  1.0  -0.75
  O  O130  1  0.108900  0.681200  0.849540  1.0  -0.8188
  O  O131  1  0.169300  0.461900  0.874660  1.0  -0.8546
  O  O132  1  0.016400  0.528400  0.143200  1.0  -0.9244
  O  O133  1  0.754400  0.992900  0.995460  1.0  -0.8687
  O  O134  1  0.648200  0.884300  0.131200  1.0  -0.953
  O  O135  1  0.680800  0.095600  0.119120  1.0  -0.8133
  O  O136  1  0.648400  0.823400  0.977960  1.0  -0.9569
  O  O137  1  0.643700  0.014800  0.238800  1.0  -0.8472
  O  O138  1  0.799500  0.835900  0.910800  1.0  -0.9038
  O  O139  1  0.612200  0.154300  0.985800  1.0  -0.8509
  O  O140  1  0.486500  0.274600  0.926800  1.0  -0.8798
  O  O141  1  0.852100  0.149400  0.071780  1.0  -0.75
  O  O142  1  0.608900  0.181200  0.849540  1.0  -0.8188
  O  O143  1  0.669300  0.961900  0.874660  1.0  -0.8546
  O  O144  1  0.516400  0.028400  0.143200  1.0  -0.9244
  F  F145  1  0.218670  0.205100  0.553870  1.0  -0.589
  F  F146  1  0.718670  0.705100  0.553870  1.0  -0.589
  F  F147  1  0.781330  0.205100  0.946130  1.0  -0.5885
  F  F148  1  0.281330  0.705100  0.946130  1.0  -0.5885
  F  F149  1  0.781330  0.794900  0.446130  1.0  -0.5892
  F  F150  1  0.281330  0.294900  0.446130  1.0  -0.5892
  F  F151  1  0.218670  0.794900  0.053870  1.0  -0.5888
  F  F152  1  0.718670  0.294900  0.053870  1.0  -0.5888
  F  F153  1  0.000000  0.609300  0.750000  1.0  -0.6285
  F  F154  1  0.500000  0.109300  0.750000  1.0  -0.6285
  F  F155  1  0.000000  0.390700  0.250000  1.0  -0.6274
  F  F156  1  0.500000  0.890700  0.250000  1.0  -0.6274
