# generated using pymatgen
data_GaFe2(PO4)4
_symmetry_space_group_name_H-M   'P 1'
_cell_length_a   16.87010000
_cell_length_b   16.87010000
_cell_length_c   16.87010000
_cell_angle_alpha   90.00000000
_cell_angle_beta   90.00000000
_cell_angle_gamma   90.00000000
_symmetry_Int_Tables_number   1
_chemical_formula_structural   GaFe2(PO4)4
_chemical_formula_sum   'Ga6 Fe12 P24 O96'
_cell_volume   4801.23508258
_cell_formula_units_Z   6
loop_
 _symmetry_equiv_pos_site_id
 _symmetry_equiv_pos_as_xyz
  1  'x, y, z'
loop_
 _atom_site_type_symbol
 _atom_site_label
 _atom_site_symmetry_multiplicity
 _atom_site_fract_x
 _atom_site_fract_y
 _atom_site_fract_z
 _atom_site_occupancy
 _atom_site_charge
  Ga  Ga1  1  0.000000  0.500000  0.500000  1.0  1.6873
  Ga  Ga2  1  0.500000  0.000000  0.000000  1.0  1.6873
  Ga  Ga3  1  0.500000  0.000000  0.500000  1.0  1.6873
  Ga  Ga4  1  0.000000  0.500000  0.000000  1.0  1.6873
  Ga  Ga5  1  0.500000  0.500000  0.000000  1.0  1.6873
  Ga  Ga6  1  0.000000  0.000000  0.500000  1.0  1.6873
  Fe  Fe7  1  0.000000  0.500000  0.250000  1.0  1.1713
  Fe  Fe8  1  0.000000  0.500000  0.750000  1.0  1.1713
  Fe  Fe9  1  0.500000  0.000000  0.250000  1.0  1.1713
  Fe  Fe10  1  0.250000  0.000000  0.500000  1.0  1.1713
  Fe  Fe11  1  0.750000  0.000000  0.500000  1.0  1.1713
  Fe  Fe12  1  0.250000  0.500000  0.000000  1.0  1.1713
  Fe  Fe13  1  0.500000  0.250000  0.000000  1.0  1.1713
  Fe  Fe14  1  0.500000  0.750000  0.000000  1.0  1.1713
  Fe  Fe15  1  0.000000  0.250000  0.500000  1.0  1.1713
  Fe  Fe16  1  0.500000  0.000000  0.750000  1.0  1.1713
  Fe  Fe17  1  0.000000  0.750000  0.500000  1.0  1.1713
  Fe  Fe18  1  0.750000  0.500000  0.000000  1.0  1.1713
  P  P19  1  0.065410  0.624510  0.375490  1.0  1.7483
  P  P20  1  0.565410  0.124510  0.875490  1.0  1.7483
  P  P21  1  0.934590  0.375490  0.375490  1.0  1.7476
  P  P22  1  0.434590  0.875490  0.875490  1.0  1.7476
  P  P23  1  0.934590  0.624510  0.624510  1.0  1.7475
  P  P24  1  0.434590  0.124510  0.124510  1.0  1.7475
  P  P25  1  0.065410  0.375490  0.624510  1.0  1.7492
  P  P26  1  0.565410  0.875490  0.124510  1.0  1.7492
  P  P27  1  0.375490  0.065410  0.624510  1.0  1.748
  P  P28  1  0.875490  0.565410  0.124510  1.0  1.748
  P  P29  1  0.375490  0.934590  0.375490  1.0  1.7473
  P  P30  1  0.875490  0.434590  0.875490  1.0  1.7473
  P  P31  1  0.624510  0.934590  0.624510  1.0  1.7488
  P  P32  1  0.124510  0.434590  0.124510  1.0  1.7488
  P  P33  1  0.624510  0.065410  0.375490  1.0  1.7493
  P  P34  1  0.124510  0.565410  0.875490  1.0  1.7493
  P  P35  1  0.624510  0.375490  0.065410  1.0  1.7488
  P  P36  1  0.124510  0.875490  0.565410  1.0  1.7488
  P  P37  1  0.375490  0.375490  0.934590  1.0  1.7467
  P  P38  1  0.875490  0.875490  0.434590  1.0  1.7467
  P  P39  1  0.624510  0.624510  0.934590  1.0  1.7472
  P  P40  1  0.124510  0.124510  0.434590  1.0  1.7472
  P  P41  1  0.375490  0.624510  0.065410  1.0  1.7465
  P  P42  1  0.875490  0.124510  0.565410  1.0  1.7465
  O  O43  1  0.017040  0.594990  0.304140  1.0  -0.7076
  O  O44  1  0.517040  0.094990  0.804140  1.0  -0.7076
  O  O45  1  0.982960  0.405010  0.304140  1.0  -0.705
  O  O46  1  0.482960  0.905010  0.804140  1.0  -0.705
  O  O47  1  0.982960  0.594990  0.695860  1.0  -0.7086
  O  O48  1  0.482960  0.094990  0.195860  1.0  -0.7086
  O  O49  1  0.017040  0.405010  0.695860  1.0  -0.7097
  O  O50  1  0.517040  0.905010  0.195860  1.0  -0.7097
  O  O51  1  0.304140  0.017040  0.594990  1.0  -0.7057
  O  O52  1  0.804140  0.517040  0.094990  1.0  -0.7057
  O  O53  1  0.304140  0.982960  0.405010  1.0  -0.7052
  O  O54  1  0.804140  0.482960  0.905010  1.0  -0.7052
  O  O55  1  0.695860  0.982960  0.594990  1.0  -0.7063
  O  O56  1  0.195860  0.482960  0.094990  1.0  -0.7063
  O  O57  1  0.695860  0.017040  0.405010  1.0  -0.7041
  O  O58  1  0.195860  0.517040  0.905010  1.0  -0.7041
  O  O59  1  0.594990  0.304140  0.017040  1.0  -0.7063
  O  O60  1  0.094990  0.804140  0.517040  1.0  -0.7063
  O  O61  1  0.405010  0.304140  0.982960  1.0  -0.7072
  O  O62  1  0.905010  0.804140  0.482960  1.0  -0.7072
  O  O63  1  0.594990  0.695860  0.982960  1.0  -0.7094
  O  O64  1  0.094990  0.195860  0.482960  1.0  -0.7094
  O  O65  1  0.405010  0.695860  0.017040  1.0  -0.708
  O  O66  1  0.905010  0.195860  0.517040  1.0  -0.708
  O  O67  1  0.594990  0.017040  0.304140  1.0  -0.705
  O  O68  1  0.094990  0.517040  0.804140  1.0  -0.705
  O  O69  1  0.405010  0.982960  0.304140  1.0  -0.7067
  O  O70  1  0.905010  0.482960  0.804140  1.0  -0.7067
  O  O71  1  0.594990  0.982960  0.695860  1.0  -0.7092
  O  O72  1  0.094990  0.482960  0.195860  1.0  -0.7092
  O  O73  1  0.405010  0.017040  0.695860  1.0  -0.7077
  O  O74  1  0.905010  0.517040  0.195860  1.0  -0.7077
  O  O75  1  0.017040  0.304140  0.594990  1.0  -0.7046
  O  O76  1  0.517040  0.804140  0.094990  1.0  -0.7046
  O  O77  1  0.982960  0.304140  0.405010  1.0  -0.7021
  O  O78  1  0.482960  0.804140  0.905010  1.0  -0.7021
  O  O79  1  0.982960  0.695860  0.594990  1.0  -0.7052
  O  O80  1  0.482960  0.195860  0.094990  1.0  -0.7052
  O  O81  1  0.017040  0.695860  0.405010  1.0  -0.7055
  O  O82  1  0.517040  0.195860  0.905010  1.0  -0.7055
  O  O83  1  0.304140  0.594990  0.017040  1.0  -0.7065
  O  O84  1  0.804140  0.094990  0.517040  1.0  -0.7065
  O  O85  1  0.304140  0.405010  0.982960  1.0  -0.7072
  O  O86  1  0.804140  0.905010  0.482960  1.0  -0.7072
  O  O87  1  0.695860  0.594990  0.982960  1.0  -0.708
  O  O88  1  0.195860  0.094990  0.482960  1.0  -0.708
  O  O89  1  0.695860  0.405010  0.017040  1.0  -0.706
  O  O90  1  0.195860  0.905010  0.517040  1.0  -0.706
  O  O91  1  0.148530  0.646310  0.353690  1.0  -0.5356
  O  O92  1  0.067840  0.560190  0.439810  1.0  -0.806
  O  O93  1  0.648530  0.146310  0.853690  1.0  -0.5356
  O  O94  1  0.567840  0.060190  0.939810  1.0  -0.806
  O  O95  1  0.851470  0.353690  0.353690  1.0  -0.5306
  O  O96  1  0.932160  0.439810  0.439810  1.0  -0.8066
  O  O97  1  0.351470  0.853690  0.853690  1.0  -0.5306
  O  O98  1  0.432160  0.939810  0.939810  1.0  -0.8066
  O  O99  1  0.851470  0.646310  0.646310  1.0  -0.5304
  O  O100  1  0.932160  0.560190  0.560190  1.0  -0.8058
  O  O101  1  0.351470  0.146310  0.146310  1.0  -0.5304
  O  O102  1  0.432160  0.060190  0.060190  1.0  -0.8058
  O  O103  1  0.148530  0.353690  0.646310  1.0  -0.5377
  O  O104  1  0.067840  0.439810  0.560190  1.0  -0.8046
  O  O105  1  0.648530  0.853690  0.146310  1.0  -0.5377
  O  O106  1  0.567840  0.939810  0.060190  1.0  -0.8046
  O  O107  1  0.353690  0.148530  0.646310  1.0  -0.5404
  O  O108  1  0.439810  0.067840  0.560190  1.0  -0.8061
  O  O109  1  0.853690  0.648530  0.146310  1.0  -0.5404
  O  O110  1  0.939810  0.567840  0.060190  1.0  -0.8061
  O  O111  1  0.353690  0.851470  0.353690  1.0  -0.5382
  O  O112  1  0.439810  0.932160  0.439810  1.0  -0.805
  O  O113  1  0.853690  0.351470  0.853690  1.0  -0.5382
  O  O114  1  0.939810  0.432160  0.939810  1.0  -0.805
  O  O115  1  0.646310  0.851470  0.646310  1.0  -0.5384
  O  O116  1  0.560190  0.932160  0.560190  1.0  -0.8054
  O  O117  1  0.146310  0.351470  0.146310  1.0  -0.5384
  O  O118  1  0.060190  0.432160  0.060190  1.0  -0.8054
  O  O119  1  0.646310  0.148530  0.353690  1.0  -0.5395
  O  O120  1  0.560190  0.067840  0.439810  1.0  -0.8074
  O  O121  1  0.146310  0.648530  0.853690  1.0  -0.5395
  O  O122  1  0.060190  0.567840  0.939810  1.0  -0.8074
  O  O123  1  0.646310  0.353690  0.148530  1.0  -0.5428
  O  O124  1  0.560190  0.439810  0.067840  1.0  -0.802
  O  O125  1  0.146310  0.853690  0.648530  1.0  -0.5428
  O  O126  1  0.060190  0.939810  0.567840  1.0  -0.802
  O  O127  1  0.353690  0.353690  0.851470  1.0  -0.5417
  O  O128  1  0.439810  0.439810  0.932160  1.0  -0.7982
  O  O129  1  0.853690  0.853690  0.351470  1.0  -0.5417
  O  O130  1  0.939810  0.939810  0.432160  1.0  -0.7982
  O  O131  1  0.646310  0.646310  0.851470  1.0  -0.541
  O  O132  1  0.560190  0.560190  0.932160  1.0  -0.7991
  O  O133  1  0.146310  0.146310  0.351470  1.0  -0.541
  O  O134  1  0.060190  0.060190  0.432160  1.0  -0.7991
  O  O135  1  0.353690  0.646310  0.148530  1.0  -0.544
  O  O136  1  0.439810  0.560190  0.067840  1.0  -0.8016
  O  O137  1  0.853690  0.146310  0.648530  1.0  -0.544
  O  O138  1  0.939810  0.060190  0.567840  1.0  -0.8016
