# generated using pymatgen
data_GaCo2(PO4)4
_symmetry_space_group_name_H-M   'P 1'
_cell_length_a   16.88070000
_cell_length_b   16.88070000
_cell_length_c   16.88070000
_cell_angle_alpha   90.00000000
_cell_angle_beta   90.00000000
_cell_angle_gamma   90.00000000
_symmetry_Int_Tables_number   1
_chemical_formula_structural   GaCo2(PO4)4
_chemical_formula_sum   'Ga6 Co12 P24 O96'
_cell_volume   4810.29105905
_cell_formula_units_Z   6
loop_
 _symmetry_equiv_pos_site_id
 _symmetry_equiv_pos_as_xyz
  1  'x, y, z'
loop_
 _atom_site_type_symbol
 _atom_site_label
 _atom_site_symmetry_multiplicity
 _atom_site_fract_x
 _atom_site_fract_y
 _atom_site_fract_z
 _atom_site_occupancy
 _atom_site_charge
  Ga  Ga1  1  0.000000  0.500000  0.000000  1.0  1.7146
  Ga  Ga2  1  0.500000  0.000000  0.500000  1.0  1.7146
  Ga  Ga3  1  0.000000  0.000000  0.500000  1.0  1.7146
  Ga  Ga4  1  0.500000  0.500000  0.000000  1.0  1.7146
  Ga  Ga5  1  0.500000  0.000000  0.000000  1.0  1.7146
  Ga  Ga6  1  0.000000  0.500000  0.500000  1.0  1.7146
  Co  Co7  1  0.750000  0.500000  0.000000  1.0  1.0267
  Co  Co8  1  0.250000  0.500000  0.000000  1.0  1.0267
  Co  Co9  1  0.000000  0.750000  0.500000  1.0  1.0267
  Co  Co10  1  0.000000  0.250000  0.500000  1.0  1.0267
  Co  Co11  1  0.500000  0.000000  0.750000  1.0  1.0267
  Co  Co12  1  0.500000  0.000000  0.250000  1.0  1.0267
  Co  Co13  1  0.500000  0.750000  0.000000  1.0  1.0267
  Co  Co14  1  0.500000  0.250000  0.000000  1.0  1.0267
  Co  Co15  1  0.750000  0.000000  0.500000  1.0  1.0267
  Co  Co16  1  0.250000  0.000000  0.500000  1.0  1.0267
  Co  Co17  1  0.000000  0.500000  0.750000  1.0  1.0267
  Co  Co18  1  0.000000  0.500000  0.250000  1.0  1.0267
  P  P19  1  0.876170  0.564110  0.876170  1.0  1.7294
  P  P20  1  0.376170  0.064110  0.376170  1.0  1.7294
  P  P21  1  0.123830  0.435890  0.876170  1.0  1.73
  P  P22  1  0.623830  0.935890  0.376170  1.0  1.73
  P  P23  1  0.123830  0.564110  0.123830  1.0  1.7303
  P  P24  1  0.623830  0.064110  0.623830  1.0  1.7303
  P  P25  1  0.876170  0.435890  0.123830  1.0  1.7294
  P  P26  1  0.376170  0.935890  0.623830  1.0  1.7294
  P  P27  1  0.876170  0.876170  0.564110  1.0  1.7287
  P  P28  1  0.376170  0.376170  0.064110  1.0  1.7287
  P  P29  1  0.876170  0.123830  0.435890  1.0  1.7275
  P  P30  1  0.376170  0.623830  0.935890  1.0  1.7275
  P  P31  1  0.123830  0.123830  0.564110  1.0  1.7288
  P  P32  1  0.623830  0.623830  0.064110  1.0  1.7288
  P  P33  1  0.123830  0.876170  0.435890  1.0  1.7289
  P  P34  1  0.623830  0.376170  0.935890  1.0  1.7289
  P  P35  1  0.564110  0.876170  0.876170  1.0  1.7298
  P  P36  1  0.064110  0.376170  0.376170  1.0  1.7298
  P  P37  1  0.435890  0.876170  0.123830  1.0  1.7292
  P  P38  1  0.935890  0.376170  0.623830  1.0  1.7292
  P  P39  1  0.564110  0.123830  0.123830  1.0  1.7293
  P  P40  1  0.064110  0.623830  0.623830  1.0  1.7293
  P  P41  1  0.435890  0.123830  0.876170  1.0  1.7281
  P  P42  1  0.935890  0.623830  0.376170  1.0  1.7281
  O  O43  1  0.805710  0.514540  0.906360  1.0  -0.6851
  O  O44  1  0.305710  0.014540  0.406360  1.0  -0.6851
  O  O45  1  0.194290  0.485460  0.906360  1.0  -0.6841
  O  O46  1  0.694290  0.985460  0.406360  1.0  -0.6843
  O  O47  1  0.194290  0.514540  0.093640  1.0  -0.686
  O  O48  1  0.694290  0.014540  0.593640  1.0  -0.686
  O  O49  1  0.805710  0.485460  0.093640  1.0  -0.6865
  O  O50  1  0.305710  0.985460  0.593640  1.0  -0.6865
  O  O51  1  0.906360  0.805710  0.514540  1.0  -0.687
  O  O52  1  0.406360  0.305710  0.014540  1.0  -0.687
  O  O53  1  0.906360  0.194290  0.485460  1.0  -0.6877
  O  O54  1  0.406360  0.694290  0.985460  1.0  -0.6886
  O  O55  1  0.093640  0.194290  0.514540  1.0  -0.6872
  O  O56  1  0.593640  0.694290  0.014540  1.0  -0.6872
  O  O57  1  0.093640  0.805710  0.485460  1.0  -0.6867
  O  O58  1  0.593640  0.305710  0.985460  1.0  -0.6867
  O  O59  1  0.514540  0.906360  0.805710  1.0  -0.6864
  O  O60  1  0.014540  0.406360  0.305710  1.0  -0.6864
  O  O61  1  0.485460  0.906360  0.194290  1.0  -0.6875
  O  O62  1  0.985460  0.406360  0.694290  1.0  -0.6877
  O  O63  1  0.514540  0.093640  0.194290  1.0  -0.6905
  O  O64  1  0.014540  0.593640  0.694290  1.0  -0.6905
  O  O65  1  0.485460  0.093640  0.805710  1.0  -0.6861
  O  O66  1  0.985460  0.593640  0.305710  1.0  -0.6861
  O  O67  1  0.514540  0.805710  0.906360  1.0  -0.6848
  O  O68  1  0.014540  0.305710  0.406360  1.0  -0.6848
  O  O69  1  0.485460  0.194290  0.906360  1.0  -0.6832
  O  O70  1  0.985460  0.694290  0.406360  1.0  -0.6832
  O  O71  1  0.514540  0.194290  0.093640  1.0  -0.687
  O  O72  1  0.014540  0.694290  0.593640  1.0  -0.687
  O  O73  1  0.485460  0.805710  0.093640  1.0  -0.6849
  O  O74  1  0.985460  0.305710  0.593640  1.0  -0.6849
  O  O75  1  0.805710  0.906360  0.514540  1.0  -0.6868
  O  O76  1  0.305710  0.406360  0.014540  1.0  -0.6868
  O  O77  1  0.194290  0.906360  0.485460  1.0  -0.6864
  O  O78  1  0.694290  0.406360  0.985460  1.0  -0.687
  O  O79  1  0.194290  0.093640  0.514540  1.0  -0.6874
  O  O80  1  0.694290  0.593640  0.014540  1.0  -0.6874
  O  O81  1  0.805710  0.093640  0.485460  1.0  -0.6882
  O  O82  1  0.305710  0.593640  0.985460  1.0  -0.6882
  O  O83  1  0.906360  0.514540  0.805710  1.0  -0.6868
  O  O84  1  0.406360  0.014540  0.305710  1.0  -0.6868
  O  O85  1  0.906360  0.485460  0.194290  1.0  -0.6889
  O  O86  1  0.406360  0.985460  0.694290  1.0  -0.6895
  O  O87  1  0.093640  0.514540  0.194290  1.0  -0.689
  O  O88  1  0.593640  0.014540  0.694290  1.0  -0.689
  O  O89  1  0.093640  0.485460  0.805710  1.0  -0.6869
  O  O90  1  0.593640  0.985460  0.305710  1.0  -0.6869
  O  O91  1  0.852750  0.646630  0.852750  1.0  -0.5285
  O  O92  1  0.940570  0.568610  0.940570  1.0  -0.7738
  O  O93  1  0.352750  0.146630  0.352750  1.0  -0.5276
  O  O94  1  0.440570  0.068610  0.440570  1.0  -0.7738
  O  O95  1  0.147250  0.353370  0.852750  1.0  -0.5249
  O  O96  1  0.059430  0.431390  0.940570  1.0  -0.775
  O  O97  1  0.647250  0.853370  0.352750  1.0  -0.5249
  O  O98  1  0.559430  0.931390  0.440570  1.0  -0.7748
  O  O99  1  0.147250  0.646630  0.147250  1.0  -0.5264
  O  O100  1  0.059430  0.568610  0.059430  1.0  -0.7765
  O  O101  1  0.647250  0.146630  0.647250  1.0  -0.5264
  O  O102  1  0.559430  0.068610  0.559430  1.0  -0.7765
  O  O103  1  0.852750  0.353370  0.147250  1.0  -0.5259
  O  O104  1  0.940570  0.431390  0.059430  1.0  -0.7731
  O  O105  1  0.352750  0.853370  0.647250  1.0  -0.5259
  O  O106  1  0.440570  0.931390  0.559430  1.0  -0.7731
  O  O107  1  0.852750  0.852750  0.646630  1.0  -0.5301
  O  O108  1  0.940570  0.940570  0.568610  1.0  -0.7696
  O  O109  1  0.352750  0.352750  0.146630  1.0  -0.5293
  O  O110  1  0.440570  0.440570  0.068610  1.0  -0.7696
  O  O111  1  0.852750  0.147250  0.353370  1.0  -0.5284
  O  O112  1  0.940570  0.059430  0.431390  1.0  -0.7652
  O  O113  1  0.352750  0.647250  0.853370  1.0  -0.5284
  O  O114  1  0.440570  0.559430  0.931390  1.0  -0.7652
  O  O115  1  0.147250  0.147250  0.646630  1.0  -0.527
  O  O116  1  0.059430  0.059430  0.568610  1.0  -0.7715
  O  O117  1  0.647250  0.647250  0.146630  1.0  -0.527
  O  O118  1  0.559430  0.559430  0.068610  1.0  -0.7715
  O  O119  1  0.147250  0.852750  0.353370  1.0  -0.5293
  O  O120  1  0.059430  0.940570  0.431390  1.0  -0.7653
  O  O121  1  0.647250  0.352750  0.853370  1.0  -0.5293
  O  O122  1  0.559430  0.440570  0.931390  1.0  -0.7653
  O  O123  1  0.646630  0.852750  0.852750  1.0  -0.5253
  O  O124  1  0.568610  0.940570  0.940570  1.0  -0.774
  O  O125  1  0.146630  0.352750  0.352750  1.0  -0.5244
  O  O126  1  0.068610  0.440570  0.440570  1.0  -0.774
  O  O127  1  0.353370  0.852750  0.147250  1.0  -0.518
  O  O128  1  0.431390  0.940570  0.059430  1.0  -0.7756
  O  O129  1  0.853370  0.352750  0.647250  1.0  -0.518
  O  O130  1  0.931390  0.440570  0.559430  1.0  -0.7758
  O  O131  1  0.646630  0.147250  0.147250  1.0  -0.5235
  O  O132  1  0.568610  0.059430  0.059430  1.0  -0.7739
  O  O133  1  0.146630  0.647250  0.647250  1.0  -0.5235
  O  O134  1  0.068610  0.559430  0.559430  1.0  -0.7739
  O  O135  1  0.353370  0.147250  0.852750  1.0  -0.5164
  O  O136  1  0.431390  0.059430  0.940570  1.0  -0.7742
  O  O137  1  0.853370  0.647250  0.352750  1.0  -0.5164
  O  O138  1  0.931390  0.559430  0.440570  1.0  -0.7753
