# generated using pymatgen
data_Mn2Ga(PO4)4
_symmetry_space_group_name_H-M   'P 1'
_cell_length_a   16.94400000
_cell_length_b   16.94400000
_cell_length_c   16.94400000
_cell_angle_alpha   90.00000000
_cell_angle_beta   90.00000000
_cell_angle_gamma   90.00000000
_symmetry_Int_Tables_number   1
_chemical_formula_structural   Mn2Ga(PO4)4
_chemical_formula_sum   'Mn12 Ga6 P24 O96'
_cell_volume   4864.60776038
_cell_formula_units_Z   6
loop_
 _symmetry_equiv_pos_site_id
 _symmetry_equiv_pos_as_xyz
  1  'x, y, z'
loop_
 _atom_site_type_symbol
 _atom_site_label
 _atom_site_symmetry_multiplicity
 _atom_site_fract_x
 _atom_site_fract_y
 _atom_site_fract_z
 _atom_site_occupancy
 _atom_site_charge
  Mn  Mn1  1  0.750000  0.500000  0.000000  1.0  1.1832
  Mn  Mn2  1  0.250000  0.500000  0.000000  1.0  1.1832
  Mn  Mn3  1  0.000000  0.750000  0.500000  1.0  1.1832
  Mn  Mn4  1  0.000000  0.250000  0.500000  1.0  1.1832
  Mn  Mn5  1  0.500000  0.000000  0.750000  1.0  1.1832
  Mn  Mn6  1  0.500000  0.000000  0.250000  1.0  1.1832
  Mn  Mn7  1  0.500000  0.750000  0.000000  1.0  1.1832
  Mn  Mn8  1  0.500000  0.250000  0.000000  1.0  1.1832
  Mn  Mn9  1  0.750000  0.000000  0.500000  1.0  1.1832
  Mn  Mn10  1  0.250000  0.000000  0.500000  1.0  1.1832
  Mn  Mn11  1  0.000000  0.500000  0.750000  1.0  1.1832
  Mn  Mn12  1  0.000000  0.500000  0.250000  1.0  1.1832
  Ga  Ga13  1  0.000000  0.500000  0.000000  1.0  1.663
  Ga  Ga14  1  0.500000  0.000000  0.500000  1.0  1.663
  Ga  Ga15  1  0.000000  0.000000  0.500000  1.0  1.663
  Ga  Ga16  1  0.500000  0.500000  0.000000  1.0  1.663
  Ga  Ga17  1  0.500000  0.000000  0.000000  1.0  1.663
  Ga  Ga18  1  0.000000  0.500000  0.500000  1.0  1.663
  P  P19  1  0.876010  0.565870  0.876010  1.0  1.7384
  P  P20  1  0.376010  0.065870  0.376010  1.0  1.7384
  P  P21  1  0.123990  0.434130  0.876010  1.0  1.7394
  P  P22  1  0.623990  0.934130  0.376010  1.0  1.7394
  P  P23  1  0.123990  0.565870  0.123990  1.0  1.7396
  P  P24  1  0.623990  0.065870  0.623990  1.0  1.7396
  P  P25  1  0.876010  0.434130  0.123990  1.0  1.7383
  P  P26  1  0.376010  0.934130  0.623990  1.0  1.7383
  P  P27  1  0.876010  0.876010  0.565870  1.0  1.7384
  P  P28  1  0.376010  0.376010  0.065870  1.0  1.7384
  P  P29  1  0.876010  0.123990  0.434130  1.0  1.7366
  P  P30  1  0.376010  0.623990  0.934130  1.0  1.7366
  P  P31  1  0.123990  0.123990  0.565870  1.0  1.7384
  P  P32  1  0.623990  0.623990  0.065870  1.0  1.7384
  P  P33  1  0.123990  0.876010  0.434130  1.0  1.7385
  P  P34  1  0.623990  0.376010  0.934130  1.0  1.7385
  P  P35  1  0.565870  0.876010  0.876010  1.0  1.7396
  P  P36  1  0.065870  0.376010  0.376010  1.0  1.7396
  P  P37  1  0.434130  0.876010  0.123990  1.0  1.7388
  P  P38  1  0.934130  0.376010  0.623990  1.0  1.7388
  P  P39  1  0.565870  0.123990  0.123990  1.0  1.7386
  P  P40  1  0.065870  0.623990  0.623990  1.0  1.7386
  P  P41  1  0.434130  0.123990  0.876010  1.0  1.7379
  P  P42  1  0.934130  0.623990  0.376010  1.0  1.7379
  O  O43  1  0.805430  0.517550  0.905500  1.0  -0.7168
  O  O44  1  0.305430  0.017550  0.405500  1.0  -0.7168
  O  O45  1  0.194570  0.482450  0.905500  1.0  -0.7157
  O  O46  1  0.694570  0.982450  0.405500  1.0  -0.7157
  O  O47  1  0.194570  0.517550  0.094500  1.0  -0.7161
  O  O48  1  0.694570  0.017550  0.594500  1.0  -0.7161
  O  O49  1  0.805430  0.482450  0.094500  1.0  -0.7176
  O  O50  1  0.305430  0.982450  0.594500  1.0  -0.7176
  O  O51  1  0.905500  0.805430  0.517550  1.0  -0.718
  O  O52  1  0.405500  0.305430  0.017550  1.0  -0.718
  O  O53  1  0.905500  0.194570  0.482450  1.0  -0.7204
  O  O54  1  0.405500  0.694570  0.982450  1.0  -0.7204
  O  O55  1  0.094500  0.194570  0.517550  1.0  -0.7191
  O  O56  1  0.594500  0.694570  0.017550  1.0  -0.7191
  O  O57  1  0.094500  0.805430  0.482450  1.0  -0.7183
  O  O58  1  0.594500  0.305430  0.982450  1.0  -0.7183
  O  O59  1  0.517550  0.905500  0.805430  1.0  -0.7181
  O  O60  1  0.017550  0.405500  0.305430  1.0  -0.7181
  O  O61  1  0.482450  0.905500  0.194570  1.0  -0.7184
  O  O62  1  0.982450  0.405500  0.694570  1.0  -0.7184
  O  O63  1  0.517550  0.094500  0.194570  1.0  -0.7198
  O  O64  1  0.017550  0.594500  0.694570  1.0  -0.7198
  O  O65  1  0.482450  0.094500  0.805430  1.0  -0.7162
  O  O66  1  0.982450  0.594500  0.305430  1.0  -0.7162
  O  O67  1  0.517550  0.805430  0.905500  1.0  -0.7162
  O  O68  1  0.017550  0.305430  0.405500  1.0  -0.7162
  O  O69  1  0.482450  0.194570  0.905500  1.0  -0.7154
  O  O70  1  0.982450  0.694570  0.405500  1.0  -0.7154
  O  O71  1  0.517550  0.194570  0.094500  1.0  -0.718
  O  O72  1  0.017550  0.694570  0.594500  1.0  -0.718
  O  O73  1  0.482450  0.805430  0.094500  1.0  -0.7145
  O  O74  1  0.982450  0.305430  0.594500  1.0  -0.7145
  O  O75  1  0.805430  0.905500  0.517550  1.0  -0.7177
  O  O76  1  0.305430  0.405500  0.017550  1.0  -0.7177
  O  O77  1  0.194570  0.905500  0.482450  1.0  -0.7176
  O  O78  1  0.694570  0.405500  0.982450  1.0  -0.7176
  O  O79  1  0.194570  0.094500  0.517550  1.0  -0.7165
  O  O80  1  0.694570  0.594500  0.017550  1.0  -0.7165
  O  O81  1  0.805430  0.094500  0.482450  1.0  -0.7188
  O  O82  1  0.305430  0.594500  0.982450  1.0  -0.7188
  O  O83  1  0.905500  0.517550  0.805430  1.0  -0.7176
  O  O84  1  0.405500  0.017550  0.305430  1.0  -0.7176
  O  O85  1  0.905500  0.482450  0.194570  1.0  -0.7198
  O  O86  1  0.405500  0.982450  0.694570  1.0  -0.7198
  O  O87  1  0.094500  0.517550  0.194570  1.0  -0.7187
  O  O88  1  0.594500  0.017550  0.694570  1.0  -0.7187
  O  O89  1  0.094500  0.482450  0.805430  1.0  -0.7174
  O  O90  1  0.594500  0.982450  0.305430  1.0  -0.7174
  O  O91  1  0.854500  0.648540  0.854500  1.0  -0.5382
  O  O92  1  0.940150  0.568630  0.940150  1.0  -0.7759
  O  O93  1  0.354500  0.148540  0.354500  1.0  -0.5382
  O  O94  1  0.440150  0.068630  0.440150  1.0  -0.7759
  O  O95  1  0.145500  0.351460  0.854500  1.0  -0.5358
  O  O96  1  0.059850  0.431370  0.940150  1.0  -0.7758
  O  O97  1  0.645500  0.851460  0.354500  1.0  -0.5358
  O  O98  1  0.559850  0.931370  0.440150  1.0  -0.7758
  O  O99  1  0.145500  0.648540  0.145500  1.0  -0.5384
  O  O100  1  0.059850  0.568630  0.059850  1.0  -0.7777
  O  O101  1  0.645500  0.148540  0.645500  1.0  -0.5384
  O  O102  1  0.559850  0.068630  0.559850  1.0  -0.7777
  O  O103  1  0.854500  0.351460  0.145500  1.0  -0.5368
  O  O104  1  0.940150  0.431370  0.059850  1.0  -0.7738
  O  O105  1  0.354500  0.851460  0.645500  1.0  -0.5368
  O  O106  1  0.440150  0.931370  0.559850  1.0  -0.7738
  O  O107  1  0.854500  0.854500  0.648540  1.0  -0.5433
  O  O108  1  0.940150  0.940150  0.568630  1.0  -0.7707
  O  O109  1  0.354500  0.354500  0.148540  1.0  -0.5433
  O  O110  1  0.440150  0.440150  0.068630  1.0  -0.7707
  O  O111  1  0.854500  0.145500  0.351460  1.0  -0.54
  O  O112  1  0.940150  0.059850  0.431370  1.0  -0.7684
  O  O113  1  0.354500  0.645500  0.851460  1.0  -0.54
  O  O114  1  0.440150  0.559850  0.931370  1.0  -0.7684
  O  O115  1  0.145500  0.145500  0.648540  1.0  -0.5423
  O  O116  1  0.059850  0.059850  0.568630  1.0  -0.772
  O  O117  1  0.645500  0.645500  0.148540  1.0  -0.5423
  O  O118  1  0.559850  0.559850  0.068630  1.0  -0.772
  O  O119  1  0.145500  0.854500  0.351460  1.0  -0.5405
  O  O120  1  0.059850  0.940150  0.431370  1.0  -0.7688
  O  O121  1  0.645500  0.354500  0.851460  1.0  -0.5405
  O  O122  1  0.559850  0.440150  0.931370  1.0  -0.7688
  O  O123  1  0.648540  0.854500  0.854500  1.0  -0.5335
  O  O124  1  0.568630  0.940150  0.940150  1.0  -0.7758
  O  O125  1  0.148540  0.354500  0.354500  1.0  -0.5335
  O  O126  1  0.068630  0.440150  0.440150  1.0  -0.7758
  O  O127  1  0.351460  0.854500  0.145500  1.0  -0.5295
  O  O128  1  0.431370  0.940150  0.059850  1.0  -0.7765
  O  O129  1  0.851460  0.354500  0.645500  1.0  -0.5295
  O  O130  1  0.931370  0.440150  0.559850  1.0  -0.7765
  O  O131  1  0.648540  0.145500  0.145500  1.0  -0.5345
  O  O132  1  0.568630  0.059850  0.059850  1.0  -0.7754
  O  O133  1  0.148540  0.645500  0.645500  1.0  -0.5345
  O  O134  1  0.068630  0.559850  0.559850  1.0  -0.7754
  O  O135  1  0.351460  0.145500  0.854500  1.0  -0.5281
  O  O136  1  0.431370  0.059850  0.940150  1.0  -0.7768
  O  O137  1  0.851460  0.645500  0.354500  1.0  -0.5281
  O  O138  1  0.931370  0.559850  0.440150  1.0  -0.7768
