# generated using pymatgen
data_ZnH14(C5N2)2
_symmetry_space_group_name_H-M   'P 1'
_cell_length_a   22.97650000
_cell_length_b   22.97650000
_cell_length_c   22.97650000
_cell_angle_alpha   109.47100000
_cell_angle_beta   109.47100000
_cell_angle_gamma   109.47100000
_symmetry_Int_Tables_number   1
_chemical_formula_structural   ZnH14(C5N2)2
_chemical_formula_sum   'Zn24 H336 C240 N96'
_cell_volume   9337.55724595
_cell_formula_units_Z   24
loop_
 _symmetry_equiv_pos_site_id
 _symmetry_equiv_pos_as_xyz
  1  'x, y, z'
loop_
 _atom_site_type_symbol
 _atom_site_label
 _atom_site_symmetry_multiplicity
 _atom_site_fract_x
 _atom_site_fract_y
 _atom_site_fract_z
 _atom_site_occupancy
 _atom_site_charge
  Zn  Zn1  1  0.072640  0.036320  0.286320  1.0  0.7641
  Zn  Zn2  1  0.250000  0.786320  0.213680  1.0  0.7669
  Zn  Zn3  1  0.250000  0.463680  0.536320  1.0  0.7661
  Zn  Zn4  1  0.427360  0.713680  0.963680  1.0  0.7642
  Zn  Zn5  1  0.036320  0.250000  0.963680  1.0  0.7665
  Zn  Zn6  1  0.463680  0.427360  0.213680  1.0  0.7647
  Zn  Zn7  1  0.786320  0.072640  0.536320  1.0  0.7639
  Zn  Zn8  1  0.713680  0.250000  0.286320  1.0  0.7659
  Zn  Zn9  1  0.786320  0.713680  0.750000  1.0  0.7641
  Zn  Zn10  1  0.036320  0.786320  0.572640  1.0  0.7667
  Zn  Zn11  1  0.713680  0.463680  0.927360  1.0  0.7664
  Zn  Zn12  1  0.463680  0.036320  0.750000  1.0  0.7643
  Zn  Zn13  1  0.927360  0.963680  0.713680  1.0  0.7642
  Zn  Zn14  1  0.750000  0.213680  0.786320  1.0  0.7661
  Zn  Zn15  1  0.750000  0.536320  0.463680  1.0  0.7669
  Zn  Zn16  1  0.572640  0.286320  0.036320  1.0  0.7641
  Zn  Zn17  1  0.963680  0.750000  0.036320  1.0  0.7658
  Zn  Zn18  1  0.536320  0.572640  0.786320  1.0  0.7639
  Zn  Zn19  1  0.213680  0.927360  0.463680  1.0  0.7647
  Zn  Zn20  1  0.286320  0.750000  0.713680  1.0  0.7665
  Zn  Zn21  1  0.213680  0.286320  0.250000  1.0  0.7643
  Zn  Zn22  1  0.963680  0.213680  0.427360  1.0  0.7664
  Zn  Zn23  1  0.286320  0.536320  0.072640  1.0  0.7667
  Zn  Zn24  1  0.536320  0.963680  0.250000  1.0  0.7641
  H  H25  1  0.230800  0.099700  0.310100  1.0  0.1073
  H  H26  1  0.289200  0.203400  0.298400  1.0  0.113
  H  H27  1  0.055100  0.157200  0.178700  1.0  0.1053
  H  H28  1  0.023100  0.105200  0.203500  1.0  0.1003
  H  H29  1  0.008000  0.202000  0.244200  1.0  0.0799
  H  H30  1  0.092200  0.254300  0.285100  1.0  0.0746
  H  H31  1  0.059500  0.201000  0.310500  1.0  0.1292
  H  H32  1  0.289600  0.920700  0.189900  1.0  0.1071
  H  H33  1  0.405000  0.990800  0.201600  1.0  0.1178
  H  H34  1  0.478500  0.876400  0.321300  1.0  0.1048
  H  H35  1  0.401700  0.819600  0.296500  1.0  0.0966
  H  H36  1  0.457800  0.763800  0.255800  1.0  0.0783
  H  H37  1  0.469200  0.807100  0.214900  1.0  0.0769
  H  H38  1  0.390500  0.749000  0.189500  1.0  0.132
  H  H39  1  0.210400  0.400300  0.631100  1.0  0.1052
  H  H40  1  0.095000  0.296600  0.585800  1.0  0.1147
  H  H41  1  0.021500  0.342800  0.397900  1.0  0.1128
  H  H42  1  0.098300  0.394800  0.417900  1.0  0.101
  H  H43  1  0.042200  0.298000  0.306000  1.0  0.0764
  H  H44  1  0.030800  0.245700  0.337900  1.0  0.0694
  H  H45  1  0.109500  0.299000  0.358500  1.0  0.1351
  H  H46  1  0.269200  0.579300  0.868900  1.0  0.1059
  H  H47  1  0.210800  0.509200  0.914200  1.0  0.1154
  H  H48  1  0.444900  0.623600  0.102100  1.0  0.1068
  H  H49  1  0.476900  0.680400  0.082100  1.0  0.0973
  H  H50  1  0.492000  0.736200  0.194000  1.0  0.082
  H  H51  1  0.407800  0.692900  0.162100  1.0  0.0807
  H  H52  1  0.440500  0.751000  0.141500  1.0  0.1316
  H  H53  1  0.131100  0.210400  0.900300  1.0  0.1058
  H  H54  1  0.085800  0.095000  0.796600  1.0  0.1125
  H  H55  1  0.897900  0.021500  0.842800  1.0  0.1066
  H  H56  1  0.917900  0.098300  0.894800  1.0  0.0928
  H  H57  1  0.806000  0.042200  0.798000  1.0  0.0776
  H  H58  1  0.837900  0.030800  0.745700  1.0  0.0755
  H  H59  1  0.858500  0.109500  0.799000  1.0  0.1357
  H  H60  1  0.368900  0.269200  0.079300  1.0  0.1078
  H  H61  1  0.414200  0.210800  0.009200  1.0  0.1135
  H  H62  1  0.602100  0.444900  0.123600  1.0  0.1054
  H  H63  1  0.582100  0.476900  0.180400  1.0  0.0985
  H  H64  1  0.694000  0.492000  0.236200  1.0  0.0765
  H  H65  1  0.662100  0.407800  0.192900  1.0  0.0787
  H  H66  1  0.641500  0.440500  0.251000  1.0  0.1287
  H  H67  1  0.810100  0.230800  0.599700  1.0  0.1077
  H  H68  1  0.798400  0.289200  0.703400  1.0  0.1142
  H  H69  1  0.678700  0.055100  0.657200  1.0  0.1091
  H  H70  1  0.703500  0.023100  0.605200  1.0  0.1002
  H  H71  1  0.744200  0.008000  0.702000  1.0  0.0769
  H  H72  1  0.785100  0.092200  0.754300  1.0  0.0754
  H  H73  1  0.810500  0.059500  0.701000  1.0  0.1312
  H  H74  1  0.689900  0.289600  0.420700  1.0  0.1044
  H  H75  1  0.701600  0.405000  0.490800  1.0  0.1168
  H  H76  1  0.821300  0.478500  0.376400  1.0  0.1088
  H  H77  1  0.796500  0.401700  0.319600  1.0  0.1005
  H  H78  1  0.755800  0.457800  0.263800  1.0  0.0783
  H  H79  1  0.714900  0.469200  0.307100  1.0  0.0744
  H  H80  1  0.689500  0.390500  0.249000  1.0  0.1327
  H  H81  1  0.920700  0.689900  0.789600  1.0  0.1064
  H  H82  1  0.990800  0.701600  0.905000  1.0  0.116
  H  H83  1  0.876400  0.821300  0.978500  1.0  0.1097
  H  H84  1  0.819600  0.796500  0.901700  1.0  0.1031
  H  H85  1  0.763800  0.755800  0.957800  1.0  0.0748
  H  H86  1  0.807100  0.714900  0.969200  1.0  0.0727
  H  H87  1  0.749000  0.689500  0.890500  1.0  0.1301
  H  H88  1  0.099700  0.810100  0.730800  1.0  0.1029
  H  H89  1  0.203400  0.798400  0.789200  1.0  0.1151
  H  H90  1  0.157200  0.678700  0.555100  1.0  0.1118
  H  H91  1  0.105200  0.703500  0.523100  1.0  0.097
  H  H92  1  0.202000  0.744200  0.508000  1.0  0.0786
  H  H93  1  0.254300  0.785100  0.592200  1.0  0.0766
  H  H94  1  0.201000  0.810500  0.559500  1.0  0.1313
  H  H95  1  0.579300  0.368900  0.769200  1.0  0.1058
  H  H96  1  0.509200  0.414200  0.710800  1.0  0.1166
  H  H97  1  0.623600  0.602100  0.944900  1.0  0.1057
  H  H98  1  0.680400  0.582100  0.976900  1.0  0.0947
  H  H99  1  0.736200  0.694000  0.992000  1.0  0.0751
  H  H100  1  0.692900  0.662100  0.907800  1.0  0.0811
  H  H101  1  0.751000  0.641500  0.940500  1.0  0.1323
  H  H102  1  0.400300  0.131100  0.710400  1.0  0.1068
  H  H103  1  0.296600  0.085800  0.595000  1.0  0.1147
  H  H104  1  0.342800  0.897900  0.521500  1.0  0.1051
  H  H105  1  0.394800  0.917900  0.598300  1.0  0.0963
  H  H106  1  0.298000  0.806000  0.542200  1.0  0.082
  H  H107  1  0.245700  0.837900  0.530800  1.0  0.0743
  H  H108  1  0.299000  0.858500  0.609500  1.0  0.1286
  H  H109  1  0.400300  0.269200  0.189900  1.0  0.108
  H  H110  1  0.296600  0.210800  0.201600  1.0  0.1129
  H  H111  1  0.342800  0.444900  0.321300  1.0  0.1052
  H  H112  1  0.394800  0.476900  0.296500  1.0  0.0983
  H  H113  1  0.298000  0.492000  0.255800  1.0  0.0765
  H  H114  1  0.245700  0.407800  0.214900  1.0  0.0784
  H  H115  1  0.299000  0.440500  0.189500  1.0  0.1277
  H  H116  1  0.579300  0.210400  0.310100  1.0  0.1056
  H  H117  1  0.509200  0.095000  0.298400  1.0  0.1154
  H  H118  1  0.623600  0.021500  0.178700  1.0  0.1053
  H  H119  1  0.680400  0.098300  0.203500  1.0  0.0963
  H  H120  1  0.736200  0.042200  0.244200  1.0  0.0756
  H  H121  1  0.692900  0.030800  0.285100  1.0  0.0723
  H  H122  1  0.751000  0.109500  0.310500  1.0  0.1319
  H  H123  1  0.099700  0.289600  0.868900  1.0  0.1028
  H  H124  1  0.203400  0.405000  0.914200  1.0  0.1144
  H  H125  1  0.157200  0.478500  0.102100  1.0  0.1107
  H  H126  1  0.105200  0.401700  0.082100  1.0  0.0977
  H  H127  1  0.202000  0.457800  0.194000  1.0  0.0776
  H  H128  1  0.254300  0.469200  0.162100  1.0  0.0733
  H  H129  1  0.201000  0.390500  0.141500  1.0  0.1326
  H  H130  1  0.920700  0.230800  0.631100  1.0  0.1082
  H  H131  1  0.990800  0.289200  0.585800  1.0  0.1157
  H  H132  1  0.876400  0.055100  0.397900  1.0  0.1062
  H  H133  1  0.819600  0.023100  0.417900  1.0  0.1003
  H  H134  1  0.763800  0.008000  0.306000  1.0  0.0767
  H  H135  1  0.807100  0.092200  0.337900  1.0  0.0735
  H  H136  1  0.749000  0.059500  0.358500  1.0  0.1318
  H  H137  1  0.289600  0.368900  0.599700  1.0  0.1058
  H  H138  1  0.405000  0.414200  0.703400  1.0  0.1158
  H  H139  1  0.478500  0.602100  0.657200  1.0  0.1048
  H  H140  1  0.401700  0.582100  0.605200  1.0  0.0951
  H  H141  1  0.457800  0.694000  0.702000  1.0  0.0784
  H  H142  1  0.469200  0.662100  0.754300  1.0  0.0825
  H  H143  1  0.390500  0.641500  0.701000  1.0  0.1297
  H  H144  1  0.230800  0.131100  0.420700  1.0  0.1076
  H  H145  1  0.289200  0.085800  0.490800  1.0  0.1164
  H  H146  1  0.055100  0.897900  0.376400  1.0  0.1081
  H  H147  1  0.023100  0.917900  0.319600  1.0  0.0987
  H  H148  1  0.008000  0.806000  0.263800  1.0  0.0806
  H  H149  1  0.092200  0.837900  0.307100  1.0  0.0796
  H  H150  1  0.059500  0.858500  0.249000  1.0  0.128
  H  H151  1  0.269200  0.689900  0.900300  1.0  0.1078
  H  H152  1  0.210800  0.701600  0.796600  1.0  0.1149
  H  H153  1  0.444900  0.821300  0.842800  1.0  0.1113
  H  H154  1  0.476900  0.796500  0.894800  1.0  0.1002
  H  H155  1  0.492000  0.755800  0.798000  1.0  0.077
  H  H156  1  0.407800  0.714900  0.745700  1.0  0.0715
  H  H157  1  0.440500  0.689500  0.799000  1.0  0.1296
  H  H158  1  0.210400  0.810100  0.079300  1.0  0.1026
  H  H159  1  0.095000  0.798400  0.009200  1.0  0.1166
  H  H160  1  0.021500  0.678700  0.123600  1.0  0.1095
  H  H161  1  0.098300  0.703500  0.180400  1.0  0.1004
  H  H162  1  0.042200  0.744200  0.236200  1.0  0.0812
  H  H163  1  0.030800  0.785100  0.192900  1.0  0.0711
  H  H164  1  0.109500  0.810500  0.251000  1.0  0.1362
  H  H165  1  0.810100  0.579300  0.710400  1.0  0.1086
  H  H166  1  0.798400  0.509200  0.595000  1.0  0.1174
  H  H167  1  0.678700  0.623600  0.521500  1.0  0.1083
  H  H168  1  0.703500  0.680400  0.598300  1.0  0.1003
  H  H169  1  0.744200  0.736200  0.542200  1.0  0.079
  H  H170  1  0.785100  0.692900  0.530800  1.0  0.0744
  H  H171  1  0.810500  0.751000  0.609500  1.0  0.1321
  H  H172  1  0.689900  0.400300  0.769200  1.0  0.1025
  H  H173  1  0.701600  0.296600  0.710800  1.0  0.1153
  H  H174  1  0.821300  0.342800  0.944900  1.0  0.1074
  H  H175  1  0.796500  0.394800  0.976900  1.0  0.1008
  H  H176  1  0.755800  0.298000  0.992000  1.0  0.0789
  H  H177  1  0.714900  0.245700  0.907800  1.0  0.0695
  H  H178  1  0.689500  0.299000  0.940500  1.0  0.1368
  H  H179  1  0.131100  0.920700  0.730800  1.0  0.108
  H  H180  1  0.085800  0.990800  0.789200  1.0  0.1153
  H  H181  1  0.897900  0.876400  0.555100  1.0  0.106
  H  H182  1  0.917900  0.819600  0.523100  1.0  0.0947
  H  H183  1  0.806000  0.763800  0.508000  1.0  0.0767
  H  H184  1  0.837900  0.807100  0.592200  1.0  0.0734
  H  H185  1  0.858500  0.749000  0.559500  1.0  0.1295
  H  H186  1  0.368900  0.099700  0.789600  1.0  0.1056
  H  H187  1  0.414200  0.203400  0.905000  1.0  0.1124
  H  H188  1  0.602100  0.157200  0.978500  1.0  0.1066
  H  H189  1  0.582100  0.105200  0.901700  1.0  0.099
  H  H190  1  0.694000  0.202000  0.957800  1.0  0.0837
  H  H191  1  0.662100  0.254300  0.969200  1.0  0.0789
  H  H192  1  0.641500  0.201000  0.890500  1.0  0.1276
  H  H193  1  0.769200  0.900300  0.689900  1.0  0.104
  H  H194  1  0.710800  0.796600  0.701600  1.0  0.1134
  H  H195  1  0.944900  0.842800  0.821300  1.0  0.1062
  H  H196  1  0.976900  0.894800  0.796500  1.0  0.0984
  H  H197  1  0.992000  0.798000  0.755800  1.0  0.0835
  H  H198  1  0.907800  0.745700  0.714900  1.0  0.0775
  H  H199  1  0.940500  0.799000  0.689500  1.0  0.1303
  H  H200  1  0.710400  0.079300  0.810100  1.0  0.1086
  H  H201  1  0.595000  0.009200  0.798400  1.0  0.1174
  H  H202  1  0.521500  0.123600  0.678700  1.0  0.1048
  H  H203  1  0.598300  0.180400  0.703500  1.0  0.0963
  H  H204  1  0.542200  0.236200  0.744200  1.0  0.0763
  H  H205  1  0.530800  0.192900  0.785100  1.0  0.0726
  H  H206  1  0.609500  0.251000  0.810500  1.0  0.1319
  H  H207  1  0.789600  0.599700  0.368900  1.0  0.103
  H  H208  1  0.905000  0.703400  0.414200  1.0  0.1147
  H  H209  1  0.978500  0.657200  0.602100  1.0  0.1106
  H  H210  1  0.901700  0.605200  0.582100  1.0  0.0998
  H  H211  1  0.957800  0.702000  0.694000  1.0  0.0791
  H  H212  1  0.969200  0.754300  0.662100  1.0  0.0708
  H  H213  1  0.890500  0.701000  0.641500  1.0  0.1343
  H  H214  1  0.730800  0.420700  0.131100  1.0  0.107
  H  H215  1  0.789200  0.490800  0.085800  1.0  0.1156
  H  H216  1  0.555100  0.376400  0.897900  1.0  0.1086
  H  H217  1  0.523100  0.319600  0.917900  1.0  0.0981
  H  H218  1  0.508000  0.263800  0.806000  1.0  0.079
  H  H219  1  0.592200  0.307100  0.837900  1.0  0.0754
  H  H220  1  0.559500  0.249000  0.858500  1.0  0.1306
  H  H221  1  0.868900  0.789600  0.099700  1.0  0.1044
  H  H222  1  0.914200  0.905000  0.203400  1.0  0.1128
  H  H223  1  0.102100  0.978500  0.157200  1.0  0.1077
  H  H224  1  0.082100  0.901700  0.105200  1.0  0.0947
  H  H225  1  0.194000  0.957800  0.202000  1.0  0.0759
  H  H226  1  0.162100  0.969200  0.254300  1.0  0.0725
  H  H227  1  0.141500  0.890500  0.201000  1.0  0.1314
  H  H228  1  0.631100  0.730800  0.920700  1.0  0.1081
  H  H229  1  0.585800  0.789200  0.990800  1.0  0.1135
  H  H230  1  0.397900  0.555100  0.876400  1.0  0.1058
  H  H231  1  0.417900  0.523100  0.819600  1.0  0.0983
  H  H232  1  0.306000  0.508000  0.763800  1.0  0.0783
  H  H233  1  0.337900  0.592200  0.807100  1.0  0.0774
  H  H234  1  0.358500  0.559500  0.749000  1.0  0.1284
  H  H235  1  0.189900  0.769200  0.400300  1.0  0.1081
  H  H236  1  0.201600  0.710800  0.296600  1.0  0.1147
  H  H237  1  0.321300  0.944900  0.342800  1.0  0.1061
  H  H238  1  0.296500  0.976900  0.394800  1.0  0.1003
  H  H239  1  0.255800  0.992000  0.298000  1.0  0.0764
  H  H240  1  0.214900  0.907800  0.245700  1.0  0.0769
  H  H241  1  0.189500  0.940500  0.299000  1.0  0.1303
  H  H242  1  0.310100  0.710400  0.579300  1.0  0.1025
  H  H243  1  0.298400  0.595000  0.509200  1.0  0.1167
  H  H244  1  0.178700  0.521500  0.623600  1.0  0.1091
  H  H245  1  0.203500  0.598300  0.680400  1.0  0.1008
  H  H246  1  0.244200  0.542200  0.736200  1.0  0.0801
  H  H247  1  0.285100  0.530800  0.692900  1.0  0.0732
  H  H248  1  0.310500  0.609500  0.751000  1.0  0.1353
  H  H249  1  0.079300  0.310100  0.210400  1.0  0.1049
  H  H250  1  0.009200  0.298400  0.095000  1.0  0.1153
  H  H251  1  0.123600  0.178700  0.021500  1.0  0.1085
  H  H252  1  0.180400  0.203500  0.098300  1.0  0.1024
  H  H253  1  0.236200  0.244200  0.042200  1.0  0.0769
  H  H254  1  0.192900  0.285100  0.030800  1.0  0.0702
  H  H255  1  0.251000  0.310500  0.109500  1.0  0.1326
  H  H256  1  0.900300  0.189900  0.269200  1.0  0.1027
  H  H257  1  0.796600  0.201600  0.210800  1.0  0.1149
  H  H258  1  0.842800  0.321300  0.444900  1.0  0.1111
  H  H259  1  0.894800  0.296500  0.476900  1.0  0.0989
  H  H260  1  0.798000  0.255800  0.492000  1.0  0.0784
  H  H261  1  0.745700  0.214900  0.407800  1.0  0.0712
  H  H262  1  0.799000  0.189500  0.440500  1.0  0.134
  H  H263  1  0.420700  0.631100  0.230800  1.0  0.1055
  H  H264  1  0.490800  0.585800  0.289200  1.0  0.1172
  H  H265  1  0.376400  0.397900  0.055100  1.0  0.1016
  H  H266  1  0.319600  0.417900  0.023100  1.0  0.0949
  H  H267  1  0.263800  0.306000  0.008000  1.0  0.0777
  H  H268  1  0.307100  0.337900  0.092200  1.0  0.0826
  H  H269  1  0.249000  0.358500  0.059500  1.0  0.1297
  H  H270  1  0.599700  0.868900  0.289600  1.0  0.1068
  H  H271  1  0.703400  0.914200  0.405000  1.0  0.1144
  H  H272  1  0.657200  0.102100  0.478500  1.0  0.1071
  H  H273  1  0.605200  0.082100  0.401700  1.0  0.0969
  H  H274  1  0.702000  0.194000  0.457800  1.0  0.079
  H  H275  1  0.754300  0.162100  0.469200  1.0  0.0778
  H  H276  1  0.701000  0.141500  0.390500  1.0  0.1273
  H  H277  1  0.599700  0.730800  0.810100  1.0  0.109
  H  H278  1  0.703400  0.789200  0.798400  1.0  0.1132
  H  H279  1  0.657200  0.555100  0.678700  1.0  0.105
  H  H280  1  0.605200  0.523100  0.703500  1.0  0.0985
  H  H281  1  0.702000  0.508000  0.744200  1.0  0.0767
  H  H282  1  0.754300  0.592200  0.785100  1.0  0.075
  H  H283  1  0.701000  0.559500  0.810500  1.0  0.1287
  H  H284  1  0.420700  0.789600  0.689900  1.0  0.1064
  H  H285  1  0.490800  0.905000  0.701600  1.0  0.1152
  H  H286  1  0.376400  0.978500  0.821300  1.0  0.1061
  H  H287  1  0.319600  0.901700  0.796500  1.0  0.096
  H  H288  1  0.263800  0.957800  0.755800  1.0  0.075
  H  H289  1  0.307100  0.969200  0.714900  1.0  0.0746
  H  H290  1  0.249000  0.890500  0.689500  1.0  0.1326
  H  H291  1  0.900300  0.710400  0.131100  1.0  0.1048
  H  H292  1  0.796600  0.595000  0.085800  1.0  0.1145
  H  H293  1  0.842800  0.521500  0.897900  1.0  0.1082
  H  H294  1  0.894800  0.598300  0.917900  1.0  0.0977
  H  H295  1  0.798000  0.542200  0.806000  1.0  0.0779
  H  H296  1  0.745700  0.530800  0.837900  1.0  0.0755
  H  H297  1  0.799000  0.609500  0.858500  1.0  0.1339
  H  H298  1  0.079300  0.769200  0.368900  1.0  0.1067
  H  H299  1  0.009200  0.710800  0.414200  1.0  0.1155
  H  H300  1  0.123600  0.944900  0.602100  1.0  0.109
  H  H301  1  0.180400  0.976900  0.582100  1.0  0.101
  H  H302  1  0.236200  0.992000  0.694000  1.0  0.0757
  H  H303  1  0.192900  0.907800  0.662100  1.0  0.0756
  H  H304  1  0.251000  0.940500  0.641500  1.0  0.1307
  H  H305  1  0.710400  0.631100  0.400300  1.0  0.1066
  H  H306  1  0.595000  0.585800  0.296600  1.0  0.1162
  H  H307  1  0.521500  0.397900  0.342800  1.0  0.1064
  H  H308  1  0.598300  0.417900  0.394800  1.0  0.0937
  H  H309  1  0.542200  0.306000  0.298000  1.0  0.0775
  H  H310  1  0.530800  0.337900  0.245700  1.0  0.0805
  H  H311  1  0.609500  0.358500  0.299000  1.0  0.1346
  H  H312  1  0.769200  0.868900  0.579300  1.0  0.1065
  H  H313  1  0.710800  0.914200  0.509200  1.0  0.1153
  H  H314  1  0.944900  0.102100  0.623600  1.0  0.1057
  H  H315  1  0.976900  0.082100  0.680400  1.0  0.0971
  H  H316  1  0.992000  0.194000  0.736200  1.0  0.0832
  H  H317  1  0.907800  0.162100  0.692900  1.0  0.0774
  H  H318  1  0.940500  0.141500  0.751000  1.0  0.1282
  H  H319  1  0.730800  0.310100  0.099700  1.0  0.1065
  H  H320  1  0.789200  0.298400  0.203400  1.0  0.1137
  H  H321  1  0.555100  0.178700  0.157200  1.0  0.1111
  H  H322  1  0.523100  0.203500  0.105200  1.0  0.1006
  H  H323  1  0.508000  0.244200  0.202000  1.0  0.0765
  H  H324  1  0.592200  0.285100  0.254300  1.0  0.0735
  H  H325  1  0.559500  0.310500  0.201000  1.0  0.1295
  H  H326  1  0.789600  0.189900  0.920700  1.0  0.1033
  H  H327  1  0.905000  0.201600  0.990800  1.0  0.1175
  H  H328  1  0.978500  0.321300  0.876400  1.0  0.111
  H  H329  1  0.901700  0.296500  0.819600  1.0  0.1
  H  H330  1  0.957800  0.255800  0.763800  1.0  0.0788
  H  H331  1  0.969200  0.214900  0.807100  1.0  0.0745
  H  H332  1  0.890500  0.189500  0.749000  1.0  0.1312
  H  H333  1  0.189900  0.420700  0.289600  1.0  0.1071
  H  H334  1  0.201600  0.490800  0.405000  1.0  0.1172
  H  H335  1  0.321300  0.376400  0.478500  1.0  0.1075
  H  H336  1  0.296500  0.319600  0.401700  1.0  0.1003
  H  H337  1  0.255800  0.263800  0.457800  1.0  0.0821
  H  H338  1  0.214900  0.307100  0.469200  1.0  0.0803
  H  H339  1  0.189500  0.249000  0.390500  1.0  0.1305
  H  H340  1  0.310100  0.599700  0.230800  1.0  0.1051
  H  H341  1  0.298400  0.703400  0.289200  1.0  0.1148
  H  H342  1  0.178700  0.657200  0.055100  1.0  0.1112
  H  H343  1  0.203500  0.605200  0.023100  1.0  0.1018
  H  H344  1  0.244200  0.702000  0.008000  1.0  0.0774
  H  H345  1  0.285100  0.754300  0.092200  1.0  0.0707
  H  H346  1  0.310500  0.701000  0.059500  1.0  0.1324
  H  H347  1  0.868900  0.079300  0.269200  1.0  0.1063
  H  H348  1  0.914200  0.009200  0.210800  1.0  0.1155
  H  H349  1  0.102100  0.123600  0.444900  1.0  0.1073
  H  H350  1  0.082100  0.180400  0.476900  1.0  0.0934
  H  H351  1  0.194000  0.236200  0.492000  1.0  0.0783
  H  H352  1  0.162100  0.192900  0.407800  1.0  0.0794
  H  H353  1  0.141500  0.251000  0.440500  1.0  0.1341
  H  H354  1  0.631100  0.900300  0.210400  1.0  0.1077
  H  H355  1  0.585800  0.796600  0.095000  1.0  0.1126
  H  H356  1  0.397900  0.842800  0.021500  1.0  0.1064
  H  H357  1  0.417900  0.894800  0.098300  1.0  0.0994
  H  H358  1  0.306000  0.798000  0.042200  1.0  0.0792
  H  H359  1  0.337900  0.745700  0.030800  1.0  0.0734
  H  H360  1  0.358500  0.799000  0.109500  1.0  0.1315
  C  C361  1  0.208670  0.123550  0.293240  1.0  -0.0534
  C  C362  1  0.240730  0.180400  0.286490  1.0  -0.0323
  C  C363  1  0.130560  0.152830  0.251190  1.0  0.3942
  C  C364  1  0.061490  0.151690  0.220080  1.0  -0.2041
  C  C365  1  0.054700  0.207000  0.269100  1.0  -0.3494
  C  C366  1  0.330310  0.915430  0.206760  1.0  -0.0515
  C  C367  1  0.393910  0.954240  0.213510  1.0  -0.0354
  C  C368  1  0.401640  0.879370  0.248810  1.0  0.3921
  C  C369  1  0.431610  0.841410  0.279920  1.0  -0.1991
  C  C370  1  0.437900  0.785600  0.230900  1.0  -0.3496
  C  C371  1  0.169690  0.376450  0.585120  1.0  -0.0544
  C  C372  1  0.106090  0.319600  0.560330  1.0  -0.0355
  C  C373  1  0.098360  0.347170  0.477730  1.0  0.39
  C  C374  1  0.068390  0.348310  0.409800  1.0  -0.204
  C  C375  1  0.062100  0.293000  0.347700  1.0  -0.3517
  C  C376  1  0.291330  0.584570  0.914880  1.0  -0.0504
  C  C377  1  0.259270  0.545760  0.939670  1.0  -0.036
  C  C378  1  0.369440  0.620630  0.022270  1.0  0.3922
  C  C379  1  0.438510  0.658590  0.090200  1.0  -0.2046
  C  C380  1  0.445300  0.714400  0.152300  1.0  -0.3543
  C  C381  1  0.085120  0.169690  0.876450  1.0  -0.0524
  C  C382  1  0.060330  0.106090  0.819600  1.0  -0.0324
  C  C383  1  0.977730  0.098360  0.847170  1.0  0.3908
  C  C384  1  0.909800  0.068390  0.848310  1.0  -0.196
  C  C385  1  0.847700  0.062100  0.793000  1.0  -0.3524
  C  C386  1  0.414880  0.291330  0.084570  1.0  -0.0522
  C  C387  1  0.439670  0.259270  0.045760  1.0  -0.0361
  C  C388  1  0.522270  0.369440  0.120630  1.0  0.3943
  C  C389  1  0.590200  0.438510  0.158590  1.0  -0.2031
  C  C390  1  0.652300  0.445300  0.214400  1.0  -0.3525
  C  C391  1  0.793240  0.208670  0.623550  1.0  -0.051
  C  C392  1  0.786490  0.240730  0.680400  1.0  -0.0355
  C  C393  1  0.751190  0.130560  0.652830  1.0  0.3916
  C  C394  1  0.720080  0.061490  0.651690  1.0  -0.207
  C  C395  1  0.769100  0.054700  0.707000  1.0  -0.3535
  C  C396  1  0.706760  0.330310  0.415430  1.0  -0.0525
  C  C397  1  0.713510  0.393910  0.454240  1.0  -0.036
  C  C398  1  0.748810  0.401640  0.379370  1.0  0.3877
  C  C399  1  0.779920  0.431610  0.341410  1.0  -0.2002
  C  C400  1  0.730900  0.437900  0.285600  1.0  -0.3529
  C  C401  1  0.915430  0.706760  0.830310  1.0  -0.0517
  C  C402  1  0.954240  0.713510  0.893910  1.0  -0.0327
  C  C403  1  0.879370  0.748810  0.901640  1.0  0.3928
  C  C404  1  0.841410  0.779920  0.931610  1.0  -0.2009
  C  C405  1  0.785600  0.730900  0.937900  1.0  -0.3493
  C  C406  1  0.123550  0.793240  0.708670  1.0  -0.0543
  C  C407  1  0.180400  0.786490  0.740730  1.0  -0.0332
  C  C408  1  0.152830  0.751190  0.630560  1.0  0.3926
  C  C409  1  0.151690  0.720080  0.561490  1.0  -0.2017
  C  C410  1  0.207000  0.769100  0.554700  1.0  -0.3448
  C  C411  1  0.584570  0.414880  0.791330  1.0  -0.0511
  C  C412  1  0.545760  0.439670  0.759270  1.0  -0.0358
  C  C413  1  0.620630  0.522270  0.869440  1.0  0.3908
  C  C414  1  0.658590  0.590200  0.938510  1.0  -0.2019
  C  C415  1  0.714400  0.652300  0.945300  1.0  -0.3479
  C  C416  1  0.376450  0.085120  0.669690  1.0  -0.053
  C  C417  1  0.319600  0.060330  0.606090  1.0  -0.0353
  C  C418  1  0.347170  0.977730  0.598360  1.0  0.3952
  C  C419  1  0.348310  0.909800  0.568390  1.0  -0.205
  C  C420  1  0.293000  0.847700  0.562100  1.0  -0.3515
  C  C421  1  0.376450  0.291330  0.206760  1.0  -0.0513
  C  C422  1  0.319600  0.259270  0.213510  1.0  -0.0262
  C  C423  1  0.347170  0.369440  0.248810  1.0  0.3959
  C  C424  1  0.348310  0.438510  0.279920  1.0  -0.2048
  C  C425  1  0.293000  0.445300  0.230900  1.0  -0.3519
  C  C426  1  0.584570  0.169690  0.293240  1.0  -0.0536
  C  C427  1  0.545760  0.106090  0.286490  1.0  -0.0271
  C  C428  1  0.620630  0.098360  0.251190  1.0  0.3896
  C  C429  1  0.658590  0.068390  0.220080  1.0  -0.2009
  C  C430  1  0.714400  0.062100  0.269100  1.0  -0.3532
  C  C431  1  0.123550  0.330310  0.914880  1.0  -0.0514
  C  C432  1  0.180400  0.393910  0.939670  1.0  -0.027
  C  C433  1  0.152830  0.401640  0.022270  1.0  0.3904
  C  C434  1  0.151690  0.431610  0.090200  1.0  -0.2038
  C  C435  1  0.207000  0.437900  0.152300  1.0  -0.3513
  C  C436  1  0.915430  0.208670  0.585120  1.0  -0.0509
  C  C437  1  0.954240  0.240730  0.560330  1.0  -0.0285
  C  C438  1  0.879370  0.130560  0.477730  1.0  0.389
  C  C439  1  0.841410  0.061490  0.409800  1.0  -0.2042
  C  C440  1  0.785600  0.054700  0.347700  1.0  -0.3543
  C  C441  1  0.330310  0.414880  0.623550  1.0  -0.0495
  C  C442  1  0.393910  0.439670  0.680400  1.0  -0.0278
  C  C443  1  0.401640  0.522270  0.652830  1.0  0.3884
  C  C444  1  0.431610  0.590200  0.651690  1.0  -0.2053
  C  C445  1  0.437900  0.652300  0.707000  1.0  -0.352
  C  C446  1  0.208670  0.085120  0.415430  1.0  -0.053
  C  C447  1  0.240730  0.060330  0.454240  1.0  -0.0269
  C  C448  1  0.130560  0.977730  0.379370  1.0  0.3972
  C  C449  1  0.061490  0.909800  0.341410  1.0  -0.2076
  C  C450  1  0.054700  0.847700  0.285600  1.0  -0.3528
  C  C451  1  0.291330  0.706760  0.876450  1.0  -0.053
  C  C452  1  0.259270  0.713510  0.819600  1.0  -0.0269
  C  C453  1  0.369440  0.748810  0.847170  1.0  0.3933
  C  C454  1  0.438510  0.779920  0.848310  1.0  -0.2007
  C  C455  1  0.445300  0.730900  0.793000  1.0  -0.3476
  C  C456  1  0.169690  0.793240  0.084570  1.0  -0.0521
  C  C457  1  0.106090  0.786490  0.045760  1.0  -0.0264
  C  C458  1  0.098360  0.751190  0.120630  1.0  0.3934
  C  C459  1  0.068390  0.720080  0.158590  1.0  -0.2033
  C  C460  1  0.062100  0.769100  0.214400  1.0  -0.3479
  C  C461  1  0.793240  0.584570  0.669690  1.0  -0.0503
  C  C462  1  0.786490  0.545760  0.606090  1.0  -0.028
  C  C463  1  0.751190  0.620630  0.598360  1.0  0.3915
  C  C464  1  0.720080  0.658590  0.568390  1.0  -0.2059
  C  C465  1  0.769100  0.714400  0.562100  1.0  -0.353
  C  C466  1  0.706760  0.376450  0.791330  1.0  -0.0536
  C  C467  1  0.713510  0.319600  0.759270  1.0  -0.0259
  C  C468  1  0.748810  0.347170  0.869440  1.0  0.39
  C  C469  1  0.779920  0.348310  0.938510  1.0  -0.2044
  C  C470  1  0.730900  0.293000  0.945300  1.0  -0.3541
  C  C471  1  0.085120  0.915430  0.708670  1.0  -0.0511
  C  C472  1  0.060330  0.954240  0.740730  1.0  -0.0266
  C  C473  1  0.977730  0.879370  0.630560  1.0  0.3896
  C  C474  1  0.909800  0.841410  0.561490  1.0  -0.2007
  C  C475  1  0.847700  0.785600  0.554700  1.0  -0.3504
  C  C476  1  0.414880  0.123550  0.830310  1.0  -0.0544
  C  C477  1  0.439670  0.180400  0.893910  1.0  -0.0271
  C  C478  1  0.522270  0.152830  0.901640  1.0  0.3949
  C  C479  1  0.590200  0.151690  0.931610  1.0  -0.201
  C  C480  1  0.652300  0.207000  0.937900  1.0  -0.348
  C  C481  1  0.791330  0.876450  0.706760  1.0  -0.0544
  C  C482  1  0.759270  0.819600  0.713510  1.0  -0.0289
  C  C483  1  0.869440  0.847170  0.748810  1.0  0.3951
  C  C484  1  0.938510  0.848310  0.779920  1.0  -0.2034
  C  C485  1  0.945300  0.793000  0.730900  1.0  -0.3493
  C  C486  1  0.669690  0.084570  0.793240  1.0  -0.0503
  C  C487  1  0.606090  0.045760  0.786490  1.0  -0.0285
  C  C488  1  0.598360  0.120630  0.751190  1.0  0.3909
  C  C489  1  0.568390  0.158590  0.720080  1.0  -0.2025
  C  C490  1  0.562100  0.214400  0.769100  1.0  -0.3523
  C  C491  1  0.830310  0.623550  0.414880  1.0  -0.0535
  C  C492  1  0.893910  0.680400  0.439670  1.0  -0.0277
  C  C493  1  0.901640  0.652830  0.522270  1.0  0.3901
  C  C494  1  0.931610  0.651690  0.590200  1.0  -0.2046
  C  C495  1  0.937900  0.707000  0.652300  1.0  -0.3517
  C  C496  1  0.708670  0.415430  0.085120  1.0  -0.0508
  C  C497  1  0.740730  0.454240  0.060330  1.0  -0.0294
  C  C498  1  0.630560  0.379370  0.977730  1.0  0.3914
  C  C499  1  0.561490  0.341410  0.909800  1.0  -0.2077
  C  C500  1  0.554700  0.285600  0.847700  1.0  -0.3546
  C  C501  1  0.914880  0.830310  0.123550  1.0  -0.0538
  C  C502  1  0.939670  0.893910  0.180400  1.0  -0.0295
  C  C503  1  0.022270  0.901640  0.152830  1.0  0.3895
  C  C504  1  0.090200  0.931610  0.151690  1.0  -0.1997
  C  C505  1  0.152300  0.937900  0.207000  1.0  -0.3526
  C  C506  1  0.585120  0.708670  0.915430  1.0  -0.0537
  C  C507  1  0.560330  0.740730  0.954240  1.0  -0.0281
  C  C508  1  0.477730  0.630560  0.879370  1.0  0.3964
  C  C509  1  0.409800  0.561490  0.841410  1.0  -0.2029
  C  C510  1  0.347700  0.554700  0.785600  1.0  -0.3526
  C  C511  1  0.206760  0.791330  0.376450  1.0  -0.0496
  C  C512  1  0.213510  0.759270  0.319600  1.0  -0.0289
  C  C513  1  0.248810  0.869440  0.347170  1.0  0.3884
  C  C514  1  0.279920  0.938510  0.348310  1.0  -0.2058
  C  C515  1  0.230900  0.945300  0.293000  1.0  -0.3553
  C  C516  1  0.293240  0.669690  0.584570  1.0  -0.052
  C  C517  1  0.286490  0.606090  0.545760  1.0  -0.0291
  C  C518  1  0.251190  0.598360  0.620630  1.0  0.39
  C  C519  1  0.220080  0.568390  0.658590  1.0  -0.2041
  C  C520  1  0.269100  0.562100  0.714400  1.0  -0.3528
  C  C521  1  0.084570  0.293240  0.169690  1.0  -0.0525
  C  C522  1  0.045760  0.286490  0.106090  1.0  -0.0282
  C  C523  1  0.120630  0.251190  0.098360  1.0  0.3937
  C  C524  1  0.158590  0.220080  0.068390  1.0  -0.2022
  C  C525  1  0.214400  0.269100  0.062100  1.0  -0.3485
  C  C526  1  0.876450  0.206760  0.291330  1.0  -0.052
  C  C527  1  0.819600  0.213510  0.259270  1.0  -0.0287
  C  C528  1  0.847170  0.248810  0.369440  1.0  0.3927
  C  C529  1  0.848310  0.279920  0.438510  1.0  -0.2011
  C  C530  1  0.793000  0.230900  0.445300  1.0  -0.3489
  C  C531  1  0.415430  0.585120  0.208670  1.0  -0.0508
  C  C532  1  0.454240  0.560330  0.240730  1.0  -0.0298
  C  C533  1  0.379370  0.477730  0.130560  1.0  0.3885
  C  C534  1  0.341410  0.409800  0.061490  1.0  -0.2043
  C  C535  1  0.285600  0.347700  0.054700  1.0  -0.3506
  C  C536  1  0.623550  0.914880  0.330310  1.0  -0.05
  C  C537  1  0.680400  0.939670  0.393910  1.0  -0.029
  C  C538  1  0.652830  0.022270  0.401640  1.0  0.3965
  C  C539  1  0.651690  0.090200  0.431610  1.0  -0.2054
  C  C540  1  0.707000  0.152300  0.437900  1.0  -0.3507
  C  C541  1  0.623550  0.708670  0.793240  1.0  -0.0539
  C  C542  1  0.680400  0.740730  0.786490  1.0  -0.0274
  C  C543  1  0.652830  0.630560  0.751190  1.0  0.3947
  C  C544  1  0.651690  0.561490  0.720080  1.0  -0.2071
  C  C545  1  0.707000  0.554700  0.769100  1.0  -0.3497
  C  C546  1  0.415430  0.830310  0.706760  1.0  -0.0532
  C  C547  1  0.454240  0.893910  0.713510  1.0  -0.0259
  C  C548  1  0.379370  0.901640  0.748810  1.0  0.3903
  C  C549  1  0.341410  0.931610  0.779920  1.0  -0.1977
  C  C550  1  0.285600  0.937900  0.730900  1.0  -0.3515
  C  C551  1  0.876450  0.669690  0.085120  1.0  -0.0519
  C  C552  1  0.819600  0.606090  0.060330  1.0  -0.0283
  C  C553  1  0.847170  0.598360  0.977730  1.0  0.3883
  C  C554  1  0.848310  0.568390  0.909800  1.0  -0.1999
  C  C555  1  0.793000  0.562100  0.847700  1.0  -0.3524
  C  C556  1  0.084570  0.791330  0.414880  1.0  -0.0499
  C  C557  1  0.045760  0.759270  0.439670  1.0  -0.0319
  C  C558  1  0.120630  0.869440  0.522270  1.0  0.3909
  C  C559  1  0.158590  0.938510  0.590200  1.0  -0.2042
  C  C560  1  0.214400  0.945300  0.652300  1.0  -0.355
  C  C561  1  0.669690  0.585120  0.376450  1.0  -0.0521
  C  C562  1  0.606090  0.560330  0.319600  1.0  -0.0295
  C  C563  1  0.598360  0.477730  0.347170  1.0  0.391
  C  C564  1  0.568390  0.409800  0.348310  1.0  -0.2026
  C  C565  1  0.562100  0.347700  0.293000  1.0  -0.3496
  C  C566  1  0.791330  0.914880  0.584570  1.0  -0.0528
  C  C567  1  0.759270  0.939670  0.545760  1.0  -0.0284
  C  C568  1  0.869440  0.022270  0.620630  1.0  0.3964
  C  C569  1  0.938510  0.090200  0.658590  1.0  -0.2066
  C  C570  1  0.945300  0.152300  0.714400  1.0  -0.3523
  C  C571  1  0.708670  0.293240  0.123550  1.0  -0.0514
  C  C572  1  0.740730  0.286490  0.180400  1.0  -0.026
  C  C573  1  0.630560  0.251190  0.152830  1.0  0.3943
  C  C574  1  0.561490  0.220080  0.151690  1.0  -0.2035
  C  C575  1  0.554700  0.269100  0.207000  1.0  -0.3488
  C  C576  1  0.830310  0.206760  0.915430  1.0  -0.0555
  C  C577  1  0.893910  0.213510  0.954240  1.0  -0.0269
  C  C578  1  0.901640  0.248810  0.879370  1.0  0.3913
  C  C579  1  0.931610  0.279920  0.841410  1.0  -0.1998
  C  C580  1  0.937900  0.230900  0.785600  1.0  -0.3457
  C  C581  1  0.206760  0.415430  0.330310  1.0  -0.0518
  C  C582  1  0.213510  0.454240  0.393910  1.0  -0.0287
  C  C583  1  0.248810  0.379370  0.401640  1.0  0.3908
  C  C584  1  0.279920  0.341410  0.431610  1.0  -0.2038
  C  C585  1  0.230900  0.285600  0.437900  1.0  -0.3561
  C  C586  1  0.293240  0.623550  0.208670  1.0  -0.0544
  C  C587  1  0.286490  0.680400  0.240730  1.0  -0.0278
  C  C588  1  0.251190  0.652830  0.130560  1.0  0.3892
  C  C589  1  0.220080  0.651690  0.061490  1.0  -0.2043
  C  C590  1  0.269100  0.707000  0.054700  1.0  -0.3502
  C  C591  1  0.914880  0.084570  0.291330  1.0  -0.0496
  C  C592  1  0.939670  0.045760  0.259270  1.0  -0.0289
  C  C593  1  0.022270  0.120630  0.369440  1.0  0.3929
  C  C594  1  0.090200  0.158590  0.438510  1.0  -0.1974
  C  C595  1  0.152300  0.214400  0.445300  1.0  -0.3471
  C  C596  1  0.585120  0.876450  0.169690  1.0  -0.0535
  C  C597  1  0.560330  0.819600  0.106090  1.0  -0.0264
  C  C598  1  0.477730  0.847170  0.098360  1.0  0.3943
  C  C599  1  0.409800  0.848310  0.068390  1.0  -0.2024
  C  C600  1  0.347700  0.793000  0.062100  1.0  -0.3488
  N  N601  1  0.138550  0.106120  0.271550  1.0  -0.4192
  N  N602  1  0.190970  0.199080  0.259430  1.0  -0.4259
  N  N603  1  0.334570  0.867000  0.228450  1.0  -0.4183
  N  N604  1  0.439650  0.931540  0.240570  1.0  -0.4329
  N  N605  1  0.165430  0.393880  0.532430  1.0  -0.4185
  N  N606  1  0.060350  0.300920  0.491890  1.0  -0.4347
  N  N607  1  0.361450  0.633000  0.967570  1.0  -0.4207
  N  N608  1  0.309030  0.568460  0.008110  1.0  -0.43
  N  N609  1  0.032430  0.165430  0.893880  1.0  -0.4163
  N  N610  1  0.991890  0.060350  0.800920  1.0  -0.4345
  N  N611  1  0.467570  0.361450  0.133000  1.0  -0.4202
  N  N612  1  0.508110  0.309030  0.068460  1.0  -0.4265
  N  N613  1  0.771550  0.138550  0.606120  1.0  -0.4196
  N  N614  1  0.759430  0.190970  0.699080  1.0  -0.431
  N  N615  1  0.728450  0.334570  0.367000  1.0  -0.4182
  N  N616  1  0.740570  0.439650  0.431540  1.0  -0.4304
  N  N617  1  0.867000  0.728450  0.834570  1.0  -0.4209
  N  N618  1  0.931540  0.740570  0.939650  1.0  -0.4316
  N  N619  1  0.106120  0.771550  0.638550  1.0  -0.4197
  N  N620  1  0.199080  0.759430  0.690970  1.0  -0.4344
  N  N621  1  0.633000  0.467570  0.861450  1.0  -0.4187
  N  N622  1  0.568460  0.508110  0.809030  1.0  -0.4328
  N  N623  1  0.393880  0.032430  0.665430  1.0  -0.4219
  N  N624  1  0.300920  0.991890  0.560350  1.0  -0.4306
  N  N625  1  0.393880  0.361450  0.228450  1.0  -0.4197
  N  N626  1  0.300920  0.309030  0.240570  1.0  -0.4269
  N  N627  1  0.633000  0.165430  0.271550  1.0  -0.4176
  N  N628  1  0.568460  0.060350  0.259430  1.0  -0.4348
  N  N629  1  0.106120  0.334570  0.967570  1.0  -0.4191
  N  N630  1  0.199080  0.439650  0.008110  1.0  -0.43
  N  N631  1  0.867000  0.138550  0.532430  1.0  -0.4206
  N  N632  1  0.931540  0.190970  0.491890  1.0  -0.4284
  N  N633  1  0.334570  0.467570  0.606120  1.0  -0.4192
  N  N634  1  0.439650  0.508110  0.699080  1.0  -0.4289
  N  N635  1  0.138550  0.032430  0.367000  1.0  -0.4214
  N  N636  1  0.190970  0.991890  0.431540  1.0  -0.432
  N  N637  1  0.361450  0.728450  0.893880  1.0  -0.4213
  N  N638  1  0.309030  0.740570  0.800920  1.0  -0.4337
  N  N639  1  0.165430  0.771550  0.133000  1.0  -0.4205
  N  N640  1  0.060350  0.759430  0.068460  1.0  -0.4335
  N  N641  1  0.771550  0.633000  0.665430  1.0  -0.4218
  N  N642  1  0.759430  0.568460  0.560350  1.0  -0.4297
  N  N643  1  0.728450  0.393880  0.861450  1.0  -0.4193
  N  N644  1  0.740570  0.300920  0.809030  1.0  -0.4312
  N  N645  1  0.032430  0.867000  0.638550  1.0  -0.4194
  N  N646  1  0.991890  0.931540  0.690970  1.0  -0.432
  N  N647  1  0.467570  0.106120  0.834570  1.0  -0.4183
  N  N648  1  0.508110  0.199080  0.939650  1.0  -0.4273
  N  N649  1  0.861450  0.893880  0.728450  1.0  -0.4193
  N  N650  1  0.809030  0.800920  0.740570  1.0  -0.428
  N  N651  1  0.665430  0.133000  0.771550  1.0  -0.4189
  N  N652  1  0.560350  0.068460  0.759430  1.0  -0.43
  N  N653  1  0.834570  0.606120  0.467570  1.0  -0.4186
  N  N654  1  0.939650  0.699080  0.508110  1.0  -0.4303
  N  N655  1  0.638550  0.367000  0.032430  1.0  -0.4216
  N  N656  1  0.690970  0.431540  0.991890  1.0  -0.4317
  N  N657  1  0.967570  0.834570  0.106120  1.0  -0.4172
  N  N658  1  0.008110  0.939650  0.199080  1.0  -0.4334
  N  N659  1  0.532430  0.638550  0.867000  1.0  -0.4194
  N  N660  1  0.491890  0.690970  0.931540  1.0  -0.4275
  N  N661  1  0.228450  0.861450  0.393880  1.0  -0.4211
  N  N662  1  0.240570  0.809030  0.300920  1.0  -0.4276
  N  N663  1  0.271550  0.665430  0.633000  1.0  -0.4195
  N  N664  1  0.259430  0.560350  0.568460  1.0  -0.4312
  N  N665  1  0.133000  0.271550  0.165430  1.0  -0.4205
  N  N666  1  0.068460  0.259430  0.060350  1.0  -0.4353
  N  N667  1  0.893880  0.228450  0.361450  1.0  -0.4206
  N  N668  1  0.800920  0.240570  0.309030  1.0  -0.4315
  N  N669  1  0.367000  0.532430  0.138550  1.0  -0.4189
  N  N670  1  0.431540  0.491890  0.190970  1.0  -0.4312
  N  N671  1  0.606120  0.967570  0.334570  1.0  -0.4214
  N  N672  1  0.699080  0.008110  0.439650  1.0  -0.4318
  N  N673  1  0.606120  0.638550  0.771550  1.0  -0.4201
  N  N674  1  0.699080  0.690970  0.759430  1.0  -0.4258
  N  N675  1  0.367000  0.834570  0.728450  1.0  -0.4164
  N  N676  1  0.431540  0.939650  0.740570  1.0  -0.4318
  N  N677  1  0.893880  0.665430  0.032430  1.0  -0.4187
  N  N678  1  0.800920  0.560350  0.991890  1.0  -0.4335
  N  N679  1  0.133000  0.861450  0.467570  1.0  -0.4202
  N  N680  1  0.068460  0.809030  0.508110  1.0  -0.4308
  N  N681  1  0.665430  0.532430  0.393880  1.0  -0.4192
  N  N682  1  0.560350  0.491890  0.300920  1.0  -0.4344
  N  N683  1  0.861450  0.967570  0.633000  1.0  -0.4217
  N  N684  1  0.809030  0.008110  0.568460  1.0  -0.4309
  N  N685  1  0.638550  0.271550  0.106120  1.0  -0.4215
  N  N686  1  0.690970  0.259430  0.199080  1.0  -0.4324
  N  N687  1  0.834570  0.228450  0.867000  1.0  -0.4197
  N  N688  1  0.939650  0.240570  0.931540  1.0  -0.4362
  N  N689  1  0.228450  0.367000  0.334570  1.0  -0.4213
  N  N690  1  0.240570  0.431540  0.439650  1.0  -0.4313
  N  N691  1  0.271550  0.606120  0.138550  1.0  -0.418
  N  N692  1  0.259430  0.699080  0.190970  1.0  -0.4344
  N  N693  1  0.967570  0.133000  0.361450  1.0  -0.4192
  N  N694  1  0.008110  0.068460  0.309030  1.0  -0.4299
  N  N695  1  0.532430  0.893880  0.165430  1.0  -0.4198
  N  N696  1  0.491890  0.800920  0.060350  1.0  -0.426
