# generated using pymatgen
data_ZnH10(C2N)4
_symmetry_space_group_name_H-M   'P 1'
_cell_length_a   14.73280000
_cell_length_b   14.73280000
_cell_length_c   14.73280000
_cell_angle_alpha   109.47100000
_cell_angle_beta   109.47100000
_cell_angle_gamma   109.47100000
_symmetry_Int_Tables_number   1
_chemical_formula_structural   ZnH10(C2N)4
_chemical_formula_sum   'Zn6 H60 C48 N24'
_cell_volume   2461.71366643
_cell_formula_units_Z   6
loop_
 _symmetry_equiv_pos_site_id
 _symmetry_equiv_pos_as_xyz
  1  'x, y, z'
loop_
 _atom_site_type_symbol
 _atom_site_label
 _atom_site_symmetry_multiplicity
 _atom_site_fract_x
 _atom_site_fract_y
 _atom_site_fract_z
 _atom_site_occupancy
 _atom_site_charge
  Zn  Zn1  1  0.750000  0.250000  0.500000  1.0  0.7635
  Zn  Zn2  1  0.250000  0.750000  0.500000  1.0  0.787
  Zn  Zn3  1  0.500000  0.750000  0.250000  1.0  0.772
  Zn  Zn4  1  0.500000  0.250000  0.750000  1.0  0.7664
  Zn  Zn5  1  0.250000  0.500000  0.750000  1.0  0.7613
  Zn  Zn6  1  0.750000  0.500000  0.250000  1.0  0.7621
  H  H7  1  0.897020  0.426890  0.779380  1.0  0.1039
  H  H8  1  0.647510  0.117640  0.220620  1.0  0.1009
  H  H9  1  0.352490  0.573110  0.470130  1.0  0.1049
  H  H10  1  0.102980  0.882360  0.529870  1.0  0.103
  H  H11  1  0.779380  0.897020  0.426890  1.0  0.1043
  H  H12  1  0.220620  0.647510  0.117640  1.0  0.1086
  H  H13  1  0.470130  0.352490  0.573110  1.0  0.1049
  H  H14  1  0.529870  0.102980  0.882360  1.0  0.0992
  H  H15  1  0.426890  0.779380  0.897020  1.0  0.1042
  H  H16  1  0.117640  0.220620  0.647510  1.0  0.1079
  H  H17  1  0.573110  0.470130  0.352490  1.0  0.1059
  H  H18  1  0.882360  0.529870  0.102980  1.0  0.1016
  H  H19  1  0.426890  0.897020  0.779380  1.0  0.0988
  H  H20  1  0.117640  0.647510  0.220620  1.0  0.1052
  H  H21  1  0.573110  0.352490  0.470130  1.0  0.105
  H  H22  1  0.882360  0.102980  0.529870  1.0  0.1042
  H  H23  1  0.897020  0.779380  0.426890  1.0  0.1073
  H  H24  1  0.647510  0.220620  0.117640  1.0  0.1037
  H  H25  1  0.352490  0.470130  0.573110  1.0  0.1033
  H  H26  1  0.102980  0.529870  0.882360  1.0  0.1055
  H  H27  1  0.779380  0.426890  0.897020  1.0  0.1045
  H  H28  1  0.220620  0.117640  0.647510  1.0  0.0971
  H  H29  1  0.470130  0.573110  0.352490  1.0  0.1042
  H  H30  1  0.529870  0.882360  0.102980  1.0  0.1047
  H  H31  1  0.557240  0.471620  0.801080  1.0  0.1385
  H  H32  1  0.518320  0.539010  0.901420  1.0  0.1321
  H  H33  1  0.477430  0.542360  0.769110  1.0  0.1412
  H  H34  1  0.923980  0.232260  0.450270  1.0  0.1396
  H  H35  1  0.078670  0.313110  0.527030  1.0  0.1421
  H  H36  1  0.997360  0.373250  0.469710  1.0  0.1378
  H  H37  1  0.903060  0.523790  0.534010  1.0  0.1378
  H  H38  1  0.776380  0.475040  0.546800  1.0  0.1396
  H  H39  1  0.792170  0.554150  0.472170  1.0  0.1399
  H  H40  1  0.246380  0.775180  0.732970  1.0  0.1337
  H  H41  1  0.173620  0.646980  0.736290  1.0  0.1376
  H  H42  1  0.108390  0.659210  0.612120  1.0  0.1447
  H  H43  1  0.979310  0.460990  0.362400  1.0  0.1297
  H  H44  1  0.085620  0.528380  0.329460  1.0  0.1373
  H  H45  1  0.935070  0.457640  0.226760  1.0  0.1395
  H  H46  1  0.514470  0.044670  0.269310  1.0  0.132
  H  H47  1  0.494880  0.044670  0.387780  1.0  0.1347
  H  H48  1  0.437660  0.910650  0.261530  1.0  0.1368
  H  H49  1  0.548110  0.778800  0.474420  1.0  0.1387
  H  H50  1  0.472480  0.789470  0.553080  1.0  0.1401
  H  H51  1  0.532400  0.903340  0.525490  1.0  0.1318
  H  H52  1  0.683010  0.210530  0.763610  1.0  0.1385
  H  H53  1  0.769310  0.221200  0.695620  1.0  0.1406
  H  H54  1  0.629050  0.096660  0.622150  1.0  0.1339
  H  H55  1  0.387780  0.044670  0.494880  1.0  0.1365
  H  H56  1  0.269310  0.044670  0.514470  1.0  0.1321
  H  H57  1  0.261530  0.910650  0.437660  1.0  0.1297
  H  H58  1  0.301340  0.524960  0.071760  1.0  0.1423
  H  H59  1  0.379270  0.476210  0.010220  1.0  0.1391
  H  H60  1  0.238020  0.445850  0.918020  1.0  0.1403
  H  H61  1  0.765560  0.686890  0.213920  1.0  0.1431
  H  H62  1  0.691720  0.767740  0.218010  1.0  0.1381
  H  H63  1  0.624100  0.626750  0.096450  1.0  0.1375
  H  H64  1  0.526630  0.353020  0.089300  1.0  0.1376
  H  H65  1  0.471200  0.224820  0.957790  1.0  0.1317
  H  H66  1  0.449180  0.340790  0.952910  1.0  0.1445
  C  C67  1  0.944400  0.415000  0.733200  1.0  -0.0624
  C  C68  1  0.681800  0.211200  0.266800  1.0  -0.0491
  C  C69  1  0.318200  0.585000  0.529400  1.0  -0.0575
  C  C70  1  0.055600  0.788800  0.470600  1.0  -0.0625
  C  C71  1  0.733200  0.944400  0.415000  1.0  -0.0621
  C  C72  1  0.266800  0.681800  0.211200  1.0  -0.06
  C  C73  1  0.529400  0.318200  0.585000  1.0  -0.0561
  C  C74  1  0.470600  0.055600  0.788800  1.0  -0.067
  C  C75  1  0.415000  0.733200  0.944400  1.0  -0.0581
  C  C76  1  0.211200  0.266800  0.681800  1.0  -0.0609
  C  C77  1  0.585000  0.529400  0.318200  1.0  -0.0486
  C  C78  1  0.788800  0.470600  0.055600  1.0  -0.0684
  C  C79  1  0.415000  0.944400  0.733200  1.0  -0.0675
  C  C80  1  0.211200  0.681800  0.266800  1.0  -0.0488
  C  C81  1  0.585000  0.318200  0.529400  1.0  -0.0535
  C  C82  1  0.788800  0.055600  0.470600  1.0  -0.0617
  C  C83  1  0.944400  0.733200  0.415000  1.0  -0.0676
  C  C84  1  0.681800  0.266800  0.211200  1.0  -0.0506
  C  C85  1  0.318200  0.529400  0.585000  1.0  -0.0655
  C  C86  1  0.055600  0.470600  0.788800  1.0  -0.0596
  C  C87  1  0.733200  0.415000  0.944400  1.0  -0.0644
  C  C88  1  0.266800  0.211200  0.681800  1.0  -0.0644
  C  C89  1  0.529400  0.585000  0.318200  1.0  -0.0631
  C  C90  1  0.470600  0.788800  0.055600  1.0  -0.044
  C  C91  1  0.000000  0.368750  0.614650  1.0  0.4487
  C  C92  1  0.754100  0.385350  0.385350  1.0  0.4572
  C  C93  1  0.245900  0.631250  0.631250  1.0  0.4528
  C  C94  1  0.000000  0.614650  0.368750  1.0  0.45
  C  C95  1  0.614650  0.000000  0.368750  1.0  0.4557
  C  C96  1  0.385350  0.754100  0.385350  1.0  0.444
  C  C97  1  0.631250  0.245900  0.631250  1.0  0.4547
  C  C98  1  0.368750  0.000000  0.614650  1.0  0.4561
  C  C99  1  0.368750  0.614650  0.000000  1.0  0.4545
  C  C100  1  0.385350  0.385350  0.754100  1.0  0.4513
  C  C101  1  0.631250  0.631250  0.245900  1.0  0.4533
  C  C102  1  0.614650  0.368750  0.000000  1.0  0.4543
  C  C103  1  0.000000  0.319000  0.509400  1.0  -0.4808
  C  C104  1  0.809600  0.490600  0.490600  1.0  -0.4827
  C  C105  1  0.190400  0.681000  0.681000  1.0  -0.4705
  C  C106  1  0.000000  0.509400  0.319000  1.0  -0.4752
  C  C107  1  0.509400  0.000000  0.319000  1.0  -0.4723
  C  C108  1  0.490600  0.809600  0.490600  1.0  -0.4825
  C  C109  1  0.681000  0.190400  0.681000  1.0  -0.4786
  C  C110  1  0.319000  0.000000  0.509400  1.0  -0.4685
  C  C111  1  0.319000  0.509400  0.000000  1.0  -0.4812
  C  C112  1  0.490600  0.490600  0.809600  1.0  -0.474
  C  C113  1  0.681000  0.681000  0.190400  1.0  -0.4807
  C  C114  1  0.509400  0.319000  0.000000  1.0  -0.4709
  N  N115  1  0.907170  0.348900  0.621330  1.0  -0.4258
  N  N116  1  0.727570  0.285840  0.378670  1.0  -0.4324
  N  N117  1  0.272430  0.651100  0.558270  1.0  -0.4344
  N  N118  1  0.092830  0.714160  0.441730  1.0  -0.4359
  N  N119  1  0.621330  0.907170  0.348900  1.0  -0.4281
  N  N120  1  0.378670  0.727570  0.285840  1.0  -0.4332
  N  N121  1  0.558270  0.272430  0.651100  1.0  -0.4393
  N  N122  1  0.441730  0.092830  0.714160  1.0  -0.432
  N  N123  1  0.348900  0.621330  0.907170  1.0  -0.4299
  N  N124  1  0.285840  0.378670  0.727570  1.0  -0.4284
  N  N125  1  0.651100  0.558270  0.272430  1.0  -0.4355
  N  N126  1  0.714160  0.441730  0.092830  1.0  -0.4256
  N  N127  1  0.348900  0.907170  0.621330  1.0  -0.4327
  N  N128  1  0.285840  0.727570  0.378670  1.0  -0.4299
  N  N129  1  0.651100  0.272430  0.558270  1.0  -0.4322
  N  N130  1  0.714160  0.092830  0.441730  1.0  -0.4279
  N  N131  1  0.907170  0.621330  0.348900  1.0  -0.4277
  N  N132  1  0.727570  0.378670  0.285840  1.0  -0.4296
  N  N133  1  0.272430  0.558270  0.651100  1.0  -0.4243
  N  N134  1  0.092830  0.441730  0.714160  1.0  -0.4356
  N  N135  1  0.621330  0.348900  0.907170  1.0  -0.4345
  N  N136  1  0.378670  0.285840  0.727570  1.0  -0.4351
  N  N137  1  0.558270  0.651100  0.272430  1.0  -0.4259
  N  N138  1  0.441730  0.714160  0.092830  1.0  -0.4312
