# generated using pymatgen
data_Zn2H25C39NO14
_symmetry_space_group_name_H-M   'P 1'
_cell_length_a   22.32350000
_cell_length_b   22.32350000
_cell_length_c   22.32350000
_cell_angle_alpha   107.74200000
_cell_angle_beta   107.74200000
_cell_angle_gamma   107.74200000
_symmetry_Int_Tables_number   1
_chemical_formula_structural   Zn2H25C39NO14
_chemical_formula_sum   'Zn12 H150 C234 N6 O84'
_cell_volume   9070.66741688
_cell_formula_units_Z   6
loop_
 _symmetry_equiv_pos_site_id
 _symmetry_equiv_pos_as_xyz
  1  'x, y, z'
loop_
 _atom_site_type_symbol
 _atom_site_label
 _atom_site_symmetry_multiplicity
 _atom_site_fract_x
 _atom_site_fract_y
 _atom_site_fract_z
 _atom_site_occupancy
 _atom_site_charge
  Zn  Zn1  1  0.032070  0.967510  0.543620  1.0  0.9981
  Zn  Zn2  1  0.129240  0.620850  0.029540  1.0  1.0191
  Zn  Zn3  1  0.543620  0.032070  0.967510  1.0  1.0011
  Zn  Zn4  1  0.029540  0.129240  0.620850  1.0  1.0177
  Zn  Zn5  1  0.967510  0.543620  0.032070  1.0  0.9995
  Zn  Zn6  1  0.620850  0.029540  0.129240  1.0  1.0184
  Zn  Zn7  1  0.967930  0.032490  0.456380  1.0  0.9996
  Zn  Zn8  1  0.870760  0.379150  0.970460  1.0  1.0166
  Zn  Zn9  1  0.456380  0.967930  0.032490  1.0  1.0003
  Zn  Zn10  1  0.970460  0.870760  0.379150  1.0  1.0178
  Zn  Zn11  1  0.032490  0.456380  0.967930  1.0  1.0003
  Zn  Zn12  1  0.379150  0.970460  0.870760  1.0  1.0182
  H  H13  1  0.971900  0.718800  0.374900  1.0  0.3926
  H  H14  1  0.751700  0.153100  0.291700  1.0  0.3954
  H  H15  1  0.040500  0.626100  0.878100  1.0  0.4005
  H  H16  1  0.978400  0.068200  0.869500  1.0  0.104
  H  H17  1  0.006800  0.599600  0.620300  1.0  0.1169
  H  H18  1  0.008600  0.789200  0.596900  1.0  0.1087
  H  H19  1  0.965700  0.877400  0.773000  1.0  0.1245
  H  H20  1  0.979600  0.685900  0.606500  1.0  0.1202
  H  H21  1  0.990000  0.601300  0.716100  1.0  0.1092
  H  H22  1  0.947100  0.585900  0.411700  1.0  0.0972
  H  H23  1  0.888700  0.392900  0.538000  1.0  0.1074
  H  H24  1  0.958200  0.399300  0.637600  1.0  0.123
  H  H25  1  0.880400  0.495800  0.417300  1.0  0.1066
  H  H26  1  0.189300  0.662100  0.915900  1.0  0.1004
  H  H27  1  0.995600  0.410000  0.749700  1.0  0.0781
  H  H28  1  0.759600  0.406100  0.363800  1.0  0.1032
  H  H29  1  0.672000  0.302700  0.255400  1.0  0.1125
  H  H30  1  0.304800  0.806700  0.917100  1.0  0.1263
  H  H31  1  0.224500  0.757900  0.871600  1.0  0.1313
  H  H32  1  0.277800  0.725400  0.880500  1.0  0.1405
  H  H33  1  0.862100  0.304700  0.425700  1.0  0.1298
  H  H34  1  0.007200  0.907700  0.652000  1.0  0.4141
  H  H35  1  0.326400  0.858200  0.028500  1.0  0.1293
  H  H36  1  0.313400  0.815400  0.071100  1.0  0.1406
  H  H37  1  0.256000  0.836100  0.035200  1.0  0.1325
  H  H38  1  0.374900  0.971900  0.718800  1.0  0.3961
  H  H39  1  0.291700  0.751700  0.153100  1.0  0.3967
  H  H40  1  0.878100  0.040500  0.626100  1.0  0.4052
  H  H41  1  0.869500  0.978400  0.068200  1.0  0.1046
  H  H42  1  0.620300  0.006800  0.599600  1.0  0.1167
  H  H43  1  0.596900  0.008600  0.789200  1.0  0.1083
  H  H44  1  0.773000  0.965700  0.877400  1.0  0.1234
  H  H45  1  0.606500  0.979600  0.685900  1.0  0.1204
  H  H46  1  0.716100  0.990000  0.601300  1.0  0.1091
  H  H47  1  0.411700  0.947100  0.585900  1.0  0.097
  H  H48  1  0.538000  0.888700  0.392900  1.0  0.1097
  H  H49  1  0.637600  0.958200  0.399300  1.0  0.1219
  H  H50  1  0.417300  0.880400  0.495800  1.0  0.1059
  H  H51  1  0.915900  0.189300  0.662100  1.0  0.0997
  H  H52  1  0.749700  0.995600  0.410000  1.0  0.0793
  H  H53  1  0.363800  0.759600  0.406100  1.0  0.1019
  H  H54  1  0.255400  0.672000  0.302700  1.0  0.1123
  H  H55  1  0.917100  0.304800  0.806700  1.0  0.1271
  H  H56  1  0.871600  0.224500  0.757900  1.0  0.1284
  H  H57  1  0.880500  0.277800  0.725400  1.0  0.1409
  H  H58  1  0.425700  0.862100  0.304700  1.0  0.1303
  H  H59  1  0.652000  0.007200  0.907700  1.0  0.4174
  H  H60  1  0.028500  0.326400  0.858200  1.0  0.1282
  H  H61  1  0.071100  0.313400  0.815400  1.0  0.1406
  H  H62  1  0.035200  0.256000  0.836100  1.0  0.1305
  H  H63  1  0.718800  0.374900  0.971900  1.0  0.3969
  H  H64  1  0.153100  0.291700  0.751700  1.0  0.3971
  H  H65  1  0.626100  0.878100  0.040500  1.0  0.4028
  H  H66  1  0.068200  0.869500  0.978400  1.0  0.1029
  H  H67  1  0.599600  0.620300  0.006800  1.0  0.1163
  H  H68  1  0.789200  0.596900  0.008600  1.0  0.1099
  H  H69  1  0.877400  0.773000  0.965700  1.0  0.1228
  H  H70  1  0.685900  0.606500  0.979600  1.0  0.1207
  H  H71  1  0.601300  0.716100  0.990000  1.0  0.1101
  H  H72  1  0.585900  0.411700  0.947100  1.0  0.0974
  H  H73  1  0.392900  0.538000  0.888700  1.0  0.1107
  H  H74  1  0.399300  0.637600  0.958200  1.0  0.1212
  H  H75  1  0.495800  0.417300  0.880400  1.0  0.1034
  H  H76  1  0.662100  0.915900  0.189300  1.0  0.1004
  H  H77  1  0.410000  0.749700  0.995600  1.0  0.0777
  H  H78  1  0.406100  0.363800  0.759600  1.0  0.1016
  H  H79  1  0.302700  0.255400  0.672000  1.0  0.1124
  H  H80  1  0.806700  0.917100  0.304800  1.0  0.1267
  H  H81  1  0.757900  0.871600  0.224500  1.0  0.1295
  H  H82  1  0.725400  0.880500  0.277800  1.0  0.1408
  H  H83  1  0.304700  0.425700  0.862100  1.0  0.128
  H  H84  1  0.907700  0.652000  0.007200  1.0  0.4146
  H  H85  1  0.858200  0.028500  0.326400  1.0  0.1292
  H  H86  1  0.815400  0.071100  0.313400  1.0  0.1414
  H  H87  1  0.836100  0.035200  0.256000  1.0  0.1297
  H  H88  1  0.028100  0.281200  0.625100  1.0  0.3933
  H  H89  1  0.248300  0.846900  0.708300  1.0  0.3943
  H  H90  1  0.959500  0.373900  0.121900  1.0  0.401
  H  H91  1  0.021600  0.931800  0.130500  1.0  0.1042
  H  H92  1  0.993200  0.400400  0.379700  1.0  0.1177
  H  H93  1  0.991400  0.210800  0.403100  1.0  0.1089
  H  H94  1  0.034300  0.122600  0.227000  1.0  0.1236
  H  H95  1  0.020400  0.314100  0.393500  1.0  0.1201
  H  H96  1  0.010000  0.398700  0.283900  1.0  0.1088
  H  H97  1  0.052900  0.414100  0.588300  1.0  0.0959
  H  H98  1  0.111300  0.607100  0.462000  1.0  0.1078
  H  H99  1  0.041800  0.600700  0.362400  1.0  0.1228
  H  H100  1  0.119600  0.504200  0.582700  1.0  0.1063
  H  H101  1  0.810700  0.337900  0.084100  1.0  0.0999
  H  H102  1  0.004400  0.590000  0.250300  1.0  0.0779
  H  H103  1  0.240400  0.593900  0.636200  1.0  0.1018
  H  H104  1  0.328000  0.697300  0.744600  1.0  0.1118
  H  H105  1  0.695200  0.193300  0.082900  1.0  0.1278
  H  H106  1  0.775500  0.242100  0.128400  1.0  0.1301
  H  H107  1  0.722200  0.274600  0.119500  1.0  0.1409
  H  H108  1  0.137900  0.695300  0.574300  1.0  0.1295
  H  H109  1  0.992800  0.092300  0.348000  1.0  0.4158
  H  H110  1  0.673600  0.141800  0.971500  1.0  0.1287
  H  H111  1  0.686600  0.184600  0.928900  1.0  0.1417
  H  H112  1  0.744000  0.163900  0.964800  1.0  0.1319
  H  H113  1  0.625100  0.028100  0.281200  1.0  0.3959
  H  H114  1  0.708300  0.248300  0.846900  1.0  0.396
  H  H115  1  0.121900  0.959500  0.373900  1.0  0.4066
  H  H116  1  0.130500  0.021600  0.931800  1.0  0.1031
  H  H117  1  0.379700  0.993200  0.400400  1.0  0.1172
  H  H118  1  0.403100  0.991400  0.210800  1.0  0.1086
  H  H119  1  0.227000  0.034300  0.122600  1.0  0.1232
  H  H120  1  0.393500  0.020400  0.314100  1.0  0.1208
  H  H121  1  0.283900  0.010000  0.398700  1.0  0.1091
  H  H122  1  0.588300  0.052900  0.414100  1.0  0.0969
  H  H123  1  0.462000  0.111300  0.607100  1.0  0.1083
  H  H124  1  0.362400  0.041800  0.600700  1.0  0.1219
  H  H125  1  0.582700  0.119600  0.504200  1.0  0.1058
  H  H126  1  0.084100  0.810700  0.337900  1.0  0.0989
  H  H127  1  0.250300  0.004400  0.590000  1.0  0.0785
  H  H128  1  0.636200  0.240400  0.593900  1.0  0.102
  H  H129  1  0.744600  0.328000  0.697300  1.0  0.1124
  H  H130  1  0.082900  0.695200  0.193300  1.0  0.1269
  H  H131  1  0.128400  0.775500  0.242100  1.0  0.1294
  H  H132  1  0.119500  0.722200  0.274600  1.0  0.1407
  H  H133  1  0.574300  0.137900  0.695300  1.0  0.1308
  H  H134  1  0.348000  0.992800  0.092300  1.0  0.4165
  H  H135  1  0.971500  0.673600  0.141800  1.0  0.1293
  H  H136  1  0.928900  0.686600  0.184600  1.0  0.1413
  H  H137  1  0.964800  0.744000  0.163900  1.0  0.1293
  H  H138  1  0.281200  0.625100  0.028100  1.0  0.3974
  H  H139  1  0.846900  0.708300  0.248300  1.0  0.3962
  H  H140  1  0.373900  0.121900  0.959500  1.0  0.4022
  H  H141  1  0.931800  0.130500  0.021600  1.0  0.104
  H  H142  1  0.400400  0.379700  0.993200  1.0  0.1172
  H  H143  1  0.210800  0.403100  0.991400  1.0  0.1094
  H  H144  1  0.122600  0.227000  0.034300  1.0  0.1225
  H  H145  1  0.314100  0.393500  0.020400  1.0  0.1214
  H  H146  1  0.398700  0.283900  0.010000  1.0  0.1121
  H  H147  1  0.414100  0.588300  0.052900  1.0  0.0976
  H  H148  1  0.607100  0.462000  0.111300  1.0  0.1087
  H  H149  1  0.600700  0.362400  0.041800  1.0  0.1218
  H  H150  1  0.504200  0.582700  0.119600  1.0  0.1055
  H  H151  1  0.337900  0.084100  0.810700  1.0  0.101
  H  H152  1  0.590000  0.250300  0.004400  1.0  0.0782
  H  H153  1  0.593900  0.636200  0.240400  1.0  0.1026
  H  H154  1  0.697300  0.744600  0.328000  1.0  0.1128
  H  H155  1  0.193300  0.082900  0.695200  1.0  0.1278
  H  H156  1  0.242100  0.128400  0.775500  1.0  0.1303
  H  H157  1  0.274600  0.119500  0.722200  1.0  0.1407
  H  H158  1  0.695300  0.574300  0.137900  1.0  0.1294
  H  H159  1  0.092300  0.348000  0.992800  1.0  0.4167
  H  H160  1  0.141800  0.971500  0.673600  1.0  0.1291
  H  H161  1  0.184600  0.928900  0.686600  1.0  0.1418
  H  H162  1  0.163900  0.964800  0.744000  1.0  0.1294
  C  C163  1  0.981800  0.035700  0.834400  1.0  0.0077
  C  C164  1  0.004900  0.007100  0.733400  1.0  -0.1295
  C  C165  1  0.992300  0.940700  0.729600  1.0  0.2682
  C  C166  1  0.971300  0.558100  0.582700  1.0  -0.0852
  C  C167  1  0.988700  0.748800  0.494000  1.0  -0.1662
  C  C168  1  0.022000  0.026600  0.680900  1.0  0.7161
  C  C169  1  0.999700  0.054200  0.786300  1.0  0.0715
  C  C170  1  0.994300  0.747800  0.558400  1.0  -0.0841
  C  C171  1  0.012000  0.565500  0.786900  1.0  0.3099
  C  C172  1  0.946500  0.947300  0.879200  1.0  -0.0679
  C  C173  1  0.968900  0.969500  0.831000  1.0  -0.0237
  C  C174  1  0.974400  0.922200  0.776800  1.0  -0.0899
  C  C175  1  0.032100  0.512600  0.870700  1.0  0.7159
  C  C176  1  0.903000  0.969800  0.902600  1.0  0.0437
  C  C177  1  0.997200  0.812500  0.484800  1.0  0.7277
  C  C178  1  0.978700  0.686000  0.564700  1.0  -0.1085
  C  C179  1  0.011300  0.506900  0.797900  1.0  -0.1266
  C  C180  1  0.972000  0.686500  0.440700  1.0  0.2982
  C  C181  1  0.874200  0.432500  0.466400  1.0  0.0054
  C  C182  1  0.990500  0.561900  0.721700  1.0  -0.098
  C  C183  1  0.969200  0.501200  0.663300  1.0  0.0556
  C  C184  1  0.962000  0.625200  0.510800  1.0  0.037
  C  C185  1  0.947400  0.496700  0.592700  1.0  0.0148
  C  C186  1  0.942000  0.556800  0.517000  1.0  0.0424
  C  C187  1  0.958800  0.627000  0.449200  1.0  -0.1889
  C  C188  1  0.901600  0.434500  0.533600  1.0  -0.0704
  C  C189  1  0.971300  0.441300  0.674900  1.0  -0.1889
  C  C190  1  0.897100  0.496200  0.461100  1.0  -0.0892
  C  C191  1  0.212800  0.701400  0.958700  1.0  0.2472
  C  C192  1  0.663100  0.176600  0.218800  1.0  0.6984
  C  C193  1  0.993200  0.448100  0.742200  1.0  -0.0083
  C  C194  1  0.771700  0.241900  0.329600  1.0  0.2594
  C  C195  1  0.718000  0.245200  0.284900  1.0  -0.0998
  C  C196  1  0.763100  0.364100  0.355500  1.0  -0.1154
  C  C197  1  0.708100  0.301900  0.289100  1.0  -0.1218
  C  C198  1  0.267600  0.762300  0.903300  1.0  -0.2398
  C  C199  1  0.824400  0.305100  0.393400  1.0  -0.12
  C  C200  1  0.815400  0.365500  0.403200  1.0  0.0289
  C  C201  1  0.291800  0.822200  0.031000  1.0  -0.1571
  C  C202  1  0.834400  0.981800  0.035700  1.0  0.0076
  C  C203  1  0.733400  0.004900  0.007100  1.0  -0.1298
  C  C204  1  0.729600  0.992300  0.940700  1.0  0.2679
  C  C205  1  0.582700  0.971300  0.558100  1.0  -0.0815
  C  C206  1  0.494000  0.988700  0.748800  1.0  -0.1682
  C  C207  1  0.680900  0.022000  0.026600  1.0  0.7227
  C  C208  1  0.786300  0.999700  0.054200  1.0  0.0705
  C  C209  1  0.558400  0.994300  0.747800  1.0  -0.0841
  C  C210  1  0.786900  0.012000  0.565500  1.0  0.311
  C  C211  1  0.879200  0.946500  0.947300  1.0  -0.0685
  C  C212  1  0.831000  0.968900  0.969500  1.0  -0.026
  C  C213  1  0.776800  0.974400  0.922200  1.0  -0.0917
  C  C214  1  0.870700  0.032100  0.512600  1.0  0.7169
  C  C215  1  0.902600  0.903000  0.969800  1.0  0.0409
  C  C216  1  0.484800  0.997200  0.812500  1.0  0.7341
  C  C217  1  0.564700  0.978700  0.686000  1.0  -0.1072
  C  C218  1  0.797900  0.011300  0.506900  1.0  -0.1259
  C  C219  1  0.440700  0.972000  0.686500  1.0  0.2984
  C  C220  1  0.466400  0.874200  0.432500  1.0  0.0055
  C  C221  1  0.721700  0.990500  0.561900  1.0  -0.096
  C  C222  1  0.663300  0.969200  0.501200  1.0  0.0526
  C  C223  1  0.510800  0.962000  0.625200  1.0  0.0331
  C  C224  1  0.592700  0.947400  0.496700  1.0  0.0139
  C  C225  1  0.517000  0.942000  0.556800  1.0  0.041
  C  C226  1  0.449200  0.958800  0.627000  1.0  -0.1898
  C  C227  1  0.533600  0.901600  0.434500  1.0  -0.0756
  C  C228  1  0.674900  0.971300  0.441300  1.0  -0.1877
  C  C229  1  0.461100  0.897100  0.496200  1.0  -0.0872
  C  C230  1  0.958700  0.212800  0.701400  1.0  0.2486
  C  C231  1  0.218800  0.663100  0.176600  1.0  0.6967
  C  C232  1  0.742200  0.993200  0.448100  1.0  -0.0093
  C  C233  1  0.329600  0.771700  0.241900  1.0  0.26
  C  C234  1  0.284900  0.718000  0.245200  1.0  -0.1
  C  C235  1  0.355500  0.763100  0.364100  1.0  -0.1221
  C  C236  1  0.289100  0.708100  0.301900  1.0  -0.1242
  C  C237  1  0.903300  0.267600  0.762300  1.0  -0.24
  C  C238  1  0.393400  0.824400  0.305100  1.0  -0.1247
  C  C239  1  0.403200  0.815400  0.365500  1.0  0.0291
  C  C240  1  0.031000  0.291800  0.822200  1.0  -0.1555
  C  C241  1  0.035700  0.834400  0.981800  1.0  0.0073
  C  C242  1  0.007100  0.733400  0.004900  1.0  -0.1299
  C  C243  1  0.940700  0.729600  0.992300  1.0  0.2683
  C  C244  1  0.558100  0.582700  0.971300  1.0  -0.0829
  C  C245  1  0.748800  0.494000  0.988700  1.0  -0.165
  C  C246  1  0.026600  0.680900  0.022000  1.0  0.7191
  C  C247  1  0.054200  0.786300  0.999700  1.0  0.0714
  C  C248  1  0.747800  0.558400  0.994300  1.0  -0.0882
  C  C249  1  0.565500  0.786900  0.012000  1.0  0.3082
  C  C250  1  0.947300  0.879200  0.946500  1.0  -0.069
  C  C251  1  0.969500  0.831000  0.968900  1.0  -0.0266
  C  C252  1  0.922200  0.776800  0.974400  1.0  -0.0932
  C  C253  1  0.512600  0.870700  0.032100  1.0  0.7176
  C  C254  1  0.969800  0.902600  0.903000  1.0  0.0444
  C  C255  1  0.812500  0.484800  0.997200  1.0  0.7259
  C  C256  1  0.686000  0.564700  0.978700  1.0  -0.1128
  C  C257  1  0.506900  0.797900  0.011300  1.0  -0.1267
  C  C258  1  0.686500  0.440700  0.972000  1.0  0.2999
  C  C259  1  0.432500  0.466400  0.874200  1.0  0.0048
  C  C260  1  0.561900  0.721700  0.990500  1.0  -0.097
  C  C261  1  0.501200  0.663300  0.969200  1.0  0.0588
  C  C262  1  0.625200  0.510800  0.962000  1.0  0.035
  C  C263  1  0.496700  0.592700  0.947400  1.0  0.0159
  C  C264  1  0.556800  0.517000  0.942000  1.0  0.0412
  C  C265  1  0.627000  0.449200  0.958800  1.0  -0.1903
  C  C266  1  0.434500  0.533600  0.901600  1.0  -0.0757
  C  C267  1  0.441300  0.674900  0.971300  1.0  -0.186
  C  C268  1  0.496200  0.461100  0.897100  1.0  -0.0895
  C  C269  1  0.701400  0.958700  0.212800  1.0  0.2487
  C  C270  1  0.176600  0.218800  0.663100  1.0  0.7022
  C  C271  1  0.448100  0.742200  0.993200  1.0  -0.0101
  C  C272  1  0.241900  0.329600  0.771700  1.0  0.2621
  C  C273  1  0.245200  0.284900  0.718000  1.0  -0.0994
  C  C274  1  0.364100  0.355500  0.763100  1.0  -0.1167
  C  C275  1  0.301900  0.289100  0.708100  1.0  -0.1204
  C  C276  1  0.762300  0.903300  0.267600  1.0  -0.2367
  C  C277  1  0.305100  0.393400  0.824400  1.0  -0.1222
  C  C278  1  0.365500  0.403200  0.815400  1.0  0.0327
  C  C279  1  0.822200  0.031000  0.291800  1.0  -0.1564
  C  C280  1  0.018200  0.964300  0.165600  1.0  0.0068
  C  C281  1  0.995100  0.992900  0.266600  1.0  -0.1297
  C  C282  1  0.007700  0.059300  0.270400  1.0  0.2675
  C  C283  1  0.028700  0.441900  0.417300  1.0  -0.0833
  C  C284  1  0.011300  0.251200  0.506000  1.0  -0.1664
  C  C285  1  0.978000  0.973400  0.319100  1.0  0.7184
  C  C286  1  0.000300  0.945800  0.213700  1.0  0.0711
  C  C287  1  0.005700  0.252200  0.441600  1.0  -0.0843
  C  C288  1  0.988000  0.434500  0.213100  1.0  0.307
  C  C289  1  0.053500  0.052700  0.120800  1.0  -0.0691
  C  C290  1  0.031100  0.030500  0.169000  1.0  -0.0239
  C  C291  1  0.025600  0.077800  0.223200  1.0  -0.0887
  C  C292  1  0.967900  0.487400  0.129300  1.0  0.7169
  C  C293  1  0.097000  0.030200  0.097400  1.0  0.0466
  C  C294  1  0.002800  0.187500  0.515200  1.0  0.7272
  C  C295  1  0.021300  0.314000  0.435300  1.0  -0.1083
  C  C296  1  0.988700  0.493100  0.202100  1.0  -0.1272
  C  C297  1  0.028000  0.313500  0.559300  1.0  0.298
  C  C298  1  0.125800  0.567500  0.533600  1.0  0.005
  C  C299  1  0.009500  0.438100  0.278300  1.0  -0.0975
  C  C300  1  0.030800  0.498800  0.336700  1.0  0.0551
  C  C301  1  0.038000  0.374800  0.489200  1.0  0.0365
  C  C302  1  0.052600  0.503300  0.407300  1.0  0.0124
  C  C303  1  0.058000  0.443200  0.483000  1.0  0.043
  C  C304  1  0.041200  0.373000  0.550800  1.0  -0.1886
  C  C305  1  0.098400  0.565500  0.466400  1.0  -0.0738
  C  C306  1  0.028700  0.558700  0.325100  1.0  -0.188
  C  C307  1  0.102900  0.503800  0.538900  1.0  -0.09
  C  C308  1  0.787200  0.298600  0.041300  1.0  0.2485
  C  C309  1  0.336900  0.823400  0.781200  1.0  0.7007
  C  C310  1  0.006800  0.551900  0.257800  1.0  -0.0087
  C  C311  1  0.228300  0.758100  0.670400  1.0  0.26
  C  C312  1  0.282000  0.754800  0.715100  1.0  -0.1004
  C  C313  1  0.236900  0.635900  0.644500  1.0  -0.1131
  C  C314  1  0.291900  0.698100  0.710900  1.0  -0.1185
  C  C315  1  0.732400  0.237700  0.096700  1.0  -0.2367
  C  C316  1  0.175600  0.694900  0.606600  1.0  -0.1199
  C  C317  1  0.184600  0.634500  0.596800  1.0  0.0314
  C  C318  1  0.708200  0.177800  0.969000  1.0  -0.1579
  C  C319  1  0.165600  0.018200  0.964300  1.0  0.0101
  C  C320  1  0.266600  0.995100  0.992900  1.0  -0.1303
  C  C321  1  0.270400  0.007700  0.059300  1.0  0.2687
  C  C322  1  0.417300  0.028700  0.441900  1.0  -0.0832
  C  C323  1  0.506000  0.011300  0.251200  1.0  -0.1675
  C  C324  1  0.319100  0.978000  0.973400  1.0  0.721
  C  C325  1  0.213700  0.000300  0.945800  1.0  0.071
  C  C326  1  0.441600  0.005700  0.252200  1.0  -0.0845
  C  C327  1  0.213100  0.988000  0.434500  1.0  0.3112
  C  C328  1  0.120800  0.053500  0.052700  1.0  -0.0685
  C  C329  1  0.169000  0.031100  0.030500  1.0  -0.0263
  C  C330  1  0.223200  0.025600  0.077800  1.0  -0.0883
  C  C331  1  0.129300  0.967900  0.487400  1.0  0.7176
  C  C332  1  0.097400  0.097000  0.030200  1.0  0.042
  C  C333  1  0.515200  0.002800  0.187500  1.0  0.7333
  C  C334  1  0.435300  0.021300  0.314000  1.0  -0.1076
  C  C335  1  0.202100  0.988700  0.493100  1.0  -0.126
  C  C336  1  0.559300  0.028000  0.313500  1.0  0.2985
  C  C337  1  0.533600  0.125800  0.567500  1.0  0.0059
  C  C338  1  0.278300  0.009500  0.438100  1.0  -0.0962
  C  C339  1  0.336700  0.030800  0.498800  1.0  0.0544
  C  C340  1  0.489200  0.038000  0.374800  1.0  0.0341
  C  C341  1  0.407300  0.052600  0.503300  1.0  0.0154
  C  C342  1  0.483000  0.058000  0.443200  1.0  0.0404
  C  C343  1  0.550800  0.041200  0.373000  1.0  -0.1896
  C  C344  1  0.466400  0.098400  0.565500  1.0  -0.0776
  C  C345  1  0.325100  0.028700  0.558700  1.0  -0.1878
  C  C346  1  0.538900  0.102900  0.503800  1.0  -0.0887
  C  C347  1  0.041300  0.787200  0.298600  1.0  0.248
  C  C348  1  0.781200  0.336900  0.823400  1.0  0.6966
  C  C349  1  0.257800  0.006800  0.551900  1.0  -0.0099
  C  C350  1  0.670400  0.228300  0.758100  1.0  0.261
  C  C351  1  0.715100  0.282000  0.754800  1.0  -0.0998
  C  C352  1  0.644500  0.236900  0.635900  1.0  -0.123
  C  C353  1  0.710900  0.291900  0.698100  1.0  -0.1222
  C  C354  1  0.096700  0.732400  0.237700  1.0  -0.2399
  C  C355  1  0.606600  0.175600  0.694900  1.0  -0.1236
  C  C356  1  0.596800  0.184600  0.634500  1.0  0.028
  C  C357  1  0.969000  0.708200  0.177800  1.0  -0.1569
  C  C358  1  0.964300  0.165600  0.018200  1.0  0.0082
  C  C359  1  0.992900  0.266600  0.995100  1.0  -0.1313
  C  C360  1  0.059300  0.270400  0.007700  1.0  0.2681
  C  C361  1  0.441900  0.417300  0.028700  1.0  -0.0846
  C  C362  1  0.251200  0.506000  0.011300  1.0  -0.1659
  C  C363  1  0.973400  0.319100  0.978000  1.0  0.719
  C  C364  1  0.945800  0.213700  0.000300  1.0  0.0661
  C  C365  1  0.252200  0.441600  0.005700  1.0  -0.0863
  C  C366  1  0.434500  0.213100  0.988000  1.0  0.3099
  C  C367  1  0.052700  0.120800  0.053500  1.0  -0.0703
  C  C368  1  0.030500  0.169000  0.031100  1.0  -0.0269
  C  C369  1  0.077800  0.223200  0.025600  1.0  -0.0896
  C  C370  1  0.487400  0.129300  0.967900  1.0  0.7159
  C  C371  1  0.030200  0.097400  0.097000  1.0  0.0439
  C  C372  1  0.187500  0.515200  0.002800  1.0  0.7259
  C  C373  1  0.314000  0.435300  0.021300  1.0  -0.1126
  C  C374  1  0.493100  0.202100  0.988700  1.0  -0.1269
  C  C375  1  0.313500  0.559300  0.028000  1.0  0.2999
  C  C376  1  0.567500  0.533600  0.125800  1.0  0.0075
  C  C377  1  0.438100  0.278300  0.009500  1.0  -0.0978
  C  C378  1  0.498800  0.336700  0.030800  1.0  0.0586
  C  C379  1  0.374800  0.489200  0.038000  1.0  0.037
  C  C380  1  0.503300  0.407300  0.052600  1.0  0.0169
  C  C381  1  0.443200  0.483000  0.058000  1.0  0.0429
  C  C382  1  0.373000  0.550800  0.041200  1.0  -0.19
  C  C383  1  0.565500  0.466400  0.098400  1.0  -0.0725
  C  C384  1  0.558700  0.325100  0.028700  1.0  -0.185
  C  C385  1  0.503800  0.538900  0.102900  1.0  -0.0922
  C  C386  1  0.298600  0.041300  0.787200  1.0  0.2486
  C  C387  1  0.823400  0.781200  0.336900  1.0  0.6984
  C  C388  1  0.551900  0.257800  0.006800  1.0  -0.0083
  C  C389  1  0.758100  0.670400  0.228300  1.0  0.2586
  C  C390  1  0.754800  0.715100  0.282000  1.0  -0.0971
  C  C391  1  0.635900  0.644500  0.236900  1.0  -0.1183
  C  C392  1  0.698100  0.710900  0.291900  1.0  -0.1233
  C  C393  1  0.237700  0.096700  0.732400  1.0  -0.237
  C  C394  1  0.694900  0.606600  0.175600  1.0  -0.1197
  C  C395  1  0.634500  0.596800  0.184600  1.0  0.0325
  C  C396  1  0.177800  0.969000  0.708200  1.0  -0.1561
  N  N397  1  0.260900  0.757600  0.968100  1.0  -0.0457
  N  N398  1  0.968100  0.260900  0.757600  1.0  -0.0434
  N  N399  1  0.757600  0.968100  0.260900  1.0  -0.0459
  N  N400  1  0.739100  0.242400  0.031900  1.0  -0.0453
  N  N401  1  0.031900  0.739100  0.242400  1.0  -0.0453
  N  N402  1  0.242400  0.031900  0.739100  1.0  -0.0456
  O  O403  1  0.052800  0.569900  0.920200  1.0  -0.6203
  O  O404  1  0.020470  0.980610  0.630320  1.0  -0.6286
  O  O405  1  0.005300  0.865000  0.534600  1.0  -0.599
  O  O406  1  0.951430  0.934650  0.450720  1.0  -0.7074
  O  O407  1  0.997600  0.812300  0.427900  1.0  -0.6272
  O  O408  1  0.039500  0.089450  0.691150  1.0  -0.6177
  O  O409  1  0.024400  0.456500  0.876300  1.0  -0.5826
  O  O410  1  0.678300  0.129800  0.205700  1.0  -0.6201
  O  O411  1  0.197700  0.700500  0.009800  1.0  -0.6362
  O  O412  1  0.608200  0.175500  0.178500  1.0  -0.4847
  O  O413  1  0.964100  0.680400  0.375200  1.0  -0.5123
  O  O414  1  0.782900  0.187900  0.327100  1.0  -0.4942
  O  O415  1  0.027200  0.628300  0.840600  1.0  -0.5498
  O  O416  1  0.995200  0.890600  0.676600  1.0  -0.5052
  O  O417  1  0.920200  0.052800  0.569900  1.0  -0.6193
  O  O418  1  0.630320  0.020470  0.980610  1.0  -0.6297
  O  O419  1  0.534600  0.005300  0.865000  1.0  -0.5975
  O  O420  1  0.450720  0.951430  0.934650  1.0  -0.7069
  O  O421  1  0.427900  0.997600  0.812300  1.0  -0.6271
  O  O422  1  0.691150  0.039500  0.089450  1.0  -0.6151
  O  O423  1  0.876300  0.024400  0.456500  1.0  -0.5827
  O  O424  1  0.205700  0.678300  0.129800  1.0  -0.6202
  O  O425  1  0.009800  0.197700  0.700500  1.0  -0.638
  O  O426  1  0.178500  0.608200  0.175500  1.0  -0.4867
  O  O427  1  0.375200  0.964100  0.680400  1.0  -0.514
  O  O428  1  0.327100  0.782900  0.187900  1.0  -0.4942
  O  O429  1  0.840600  0.027200  0.628300  1.0  -0.5456
  O  O430  1  0.676600  0.995200  0.890600  1.0  -0.5037
  O  O431  1  0.569900  0.920200  0.052800  1.0  -0.6203
  O  O432  1  0.980610  0.630320  0.020470  1.0  -0.6283
  O  O433  1  0.865000  0.534600  0.005300  1.0  -0.5987
  O  O434  1  0.934650  0.450720  0.951430  1.0  -0.7075
  O  O435  1  0.812300  0.427900  0.997600  1.0  -0.628
  O  O436  1  0.089450  0.691150  0.039500  1.0  -0.6163
  O  O437  1  0.456500  0.876300  0.024400  1.0  -0.581
  O  O438  1  0.129800  0.205700  0.678300  1.0  -0.6202
  O  O439  1  0.700500  0.009800  0.197700  1.0  -0.6376
  O  O440  1  0.175500  0.178500  0.608200  1.0  -0.4847
  O  O441  1  0.680400  0.375200  0.964100  1.0  -0.512
  O  O442  1  0.187900  0.327100  0.782900  1.0  -0.4936
  O  O443  1  0.628300  0.840600  0.027200  1.0  -0.5532
  O  O444  1  0.890600  0.676600  0.995200  1.0  -0.5035
  O  O445  1  0.947200  0.430100  0.079800  1.0  -0.6196
  O  O446  1  0.979530  0.019390  0.369680  1.0  -0.6286
  O  O447  1  0.994700  0.135000  0.465400  1.0  -0.6
  O  O448  1  0.048570  0.065350  0.549280  1.0  -0.7082
  O  O449  1  0.002400  0.187700  0.572100  1.0  -0.6281
  O  O450  1  0.960500  0.910550  0.308850  1.0  -0.6166
  O  O451  1  0.975600  0.543500  0.123700  1.0  -0.583
  O  O452  1  0.321700  0.870200  0.794300  1.0  -0.6197
  O  O453  1  0.802300  0.299500  0.990200  1.0  -0.6356
  O  O454  1  0.391800  0.824500  0.821500  1.0  -0.4865
  O  O455  1  0.035900  0.319600  0.624800  1.0  -0.5106
  O  O456  1  0.217100  0.812100  0.672900  1.0  -0.4954
  O  O457  1  0.972800  0.371700  0.159400  1.0  -0.5509
  O  O458  1  0.004800  0.109400  0.323400  1.0  -0.5063
  O  O459  1  0.079800  0.947200  0.430100  1.0  -0.6195
  O  O460  1  0.369680  0.979530  0.019390  1.0  -0.6304
  O  O461  1  0.465400  0.994700  0.135000  1.0  -0.5986
  O  O462  1  0.549280  0.048570  0.065350  1.0  -0.7067
  O  O463  1  0.572100  0.002400  0.187700  1.0  -0.6281
  O  O464  1  0.308850  0.960500  0.910550  1.0  -0.6153
  O  O465  1  0.123700  0.975600  0.543500  1.0  -0.5839
  O  O466  1  0.794300  0.321700  0.870200  1.0  -0.6207
  O  O467  1  0.990200  0.802300  0.299500  1.0  -0.6375
  O  O468  1  0.821500  0.391800  0.824500  1.0  -0.4903
  O  O469  1  0.624800  0.035900  0.319600  1.0  -0.5125
  O  O470  1  0.672900  0.217100  0.812100  1.0  -0.4944
  O  O471  1  0.159400  0.972800  0.371700  1.0  -0.5483
  O  O472  1  0.323400  0.004800  0.109400  1.0  -0.5044
  O  O473  1  0.430100  0.079800  0.947200  1.0  -0.6205
  O  O474  1  0.019390  0.369680  0.979530  1.0  -0.6282
  O  O475  1  0.135000  0.465400  0.994700  1.0  -0.5994
  O  O476  1  0.065350  0.549280  0.048570  1.0  -0.7079
  O  O477  1  0.187700  0.572100  0.002400  1.0  -0.6274
  O  O478  1  0.910550  0.308850  0.960500  1.0  -0.6167
  O  O479  1  0.543500  0.123700  0.975600  1.0  -0.5812
  O  O480  1  0.870200  0.794300  0.321700  1.0  -0.6206
  O  O481  1  0.299500  0.990200  0.802300  1.0  -0.6378
  O  O482  1  0.824500  0.821500  0.391800  1.0  -0.4884
  O  O483  1  0.319600  0.624800  0.035900  1.0  -0.5104
  O  O484  1  0.812100  0.672900  0.217100  1.0  -0.4948
  O  O485  1  0.371700  0.159400  0.972800  1.0  -0.5524
  O  O486  1  0.109400  0.323400  0.004800  1.0  -0.5042
