# generated using pymatgen
data_Zn9H18(C27O19)2
_symmetry_space_group_name_H-M   'P 1'
_cell_length_a   23.30240000
_cell_length_b   23.30240000
_cell_length_c   23.30240000
_cell_angle_alpha   90.00000000
_cell_angle_beta   90.00000000
_cell_angle_gamma   90.00000000
_symmetry_Int_Tables_number   1
_chemical_formula_structural   Zn9H18(C27O19)2
_chemical_formula_sum   'Zn36 H72 C216 O152'
_cell_volume   12653.24621064
_cell_formula_units_Z   4
loop_
 _symmetry_equiv_pos_site_id
 _symmetry_equiv_pos_as_xyz
  1  'x, y, z'
loop_
 _atom_site_type_symbol
 _atom_site_label
 _atom_site_symmetry_multiplicity
 _atom_site_fract_x
 _atom_site_fract_y
 _atom_site_fract_z
 _atom_site_occupancy
 _atom_site_charge
  Zn  Zn1  1  0.178840  0.707600  0.762990  1.0  1.0726
  Zn  Zn2  1  0.678840  0.207600  0.262990  1.0  1.0726
  Zn  Zn3  1  0.821160  0.292400  0.762990  1.0  1.0728
  Zn  Zn4  1  0.321160  0.792400  0.262990  1.0  1.0728
  Zn  Zn5  1  0.821160  0.707600  0.237010  1.0  1.0728
  Zn  Zn6  1  0.321160  0.207600  0.737010  1.0  1.0728
  Zn  Zn7  1  0.178840  0.292400  0.237010  1.0  1.0725
  Zn  Zn8  1  0.678840  0.792400  0.737010  1.0  1.0725
  Zn  Zn9  1  0.762990  0.178840  0.707600  1.0  1.0738
  Zn  Zn10  1  0.262990  0.678840  0.207600  1.0  1.0738
  Zn  Zn11  1  0.762990  0.821160  0.292400  1.0  1.0734
  Zn  Zn12  1  0.262990  0.321160  0.792400  1.0  1.0734
  Zn  Zn13  1  0.237010  0.821160  0.707600  1.0  1.0739
  Zn  Zn14  1  0.737010  0.321160  0.207600  1.0  1.0739
  Zn  Zn15  1  0.237010  0.178840  0.292400  1.0  1.0737
  Zn  Zn16  1  0.737010  0.678840  0.792400  1.0  1.0737
  Zn  Zn17  1  0.707600  0.762990  0.178840  1.0  1.0723
  Zn  Zn18  1  0.207600  0.262990  0.678840  1.0  1.0723
  Zn  Zn19  1  0.292400  0.762990  0.821160  1.0  1.0719
  Zn  Zn20  1  0.792400  0.262990  0.321160  1.0  1.0719
  Zn  Zn21  1  0.707600  0.237010  0.821160  1.0  1.0722
  Zn  Zn22  1  0.207600  0.737010  0.321160  1.0  1.0722
  Zn  Zn23  1  0.292400  0.237010  0.178840  1.0  1.0723
  Zn  Zn24  1  0.792400  0.737010  0.678840  1.0  1.0723
  Zn  Zn25  1  0.000000  0.500000  0.936780  1.0  1.1334
  Zn  Zn26  1  0.500000  0.000000  0.436780  1.0  1.1334
  Zn  Zn27  1  0.000000  0.500000  0.063220  1.0  1.134
  Zn  Zn28  1  0.500000  0.000000  0.563220  1.0  1.134
  Zn  Zn29  1  0.936780  0.000000  0.500000  1.0  1.1374
  Zn  Zn30  1  0.436780  0.500000  0.000000  1.0  1.1374
  Zn  Zn31  1  0.063220  0.000000  0.500000  1.0  1.1379
  Zn  Zn32  1  0.563220  0.500000  0.000000  1.0  1.1379
  Zn  Zn33  1  0.500000  0.936780  0.000000  1.0  1.1394
  Zn  Zn34  1  0.000000  0.436780  0.500000  1.0  1.1394
  Zn  Zn35  1  0.500000  0.063220  0.000000  1.0  1.1381
  Zn  Zn36  1  0.000000  0.563220  0.500000  1.0  1.1381
  H  H37  1  0.118200  0.637100  0.913300  1.0  0.1099
  H  H38  1  0.235200  0.736100  0.990600  1.0  0.1139
  H  H39  1  0.139900  0.624200  0.084100  1.0  0.1103
  H  H40  1  0.618200  0.137100  0.413300  1.0  0.1099
  H  H41  1  0.735200  0.236100  0.490600  1.0  0.1139
  H  H42  1  0.639900  0.124200  0.584100  1.0  0.1103
  H  H43  1  0.881800  0.362900  0.913300  1.0  0.1097
  H  H44  1  0.764800  0.263900  0.990600  1.0  0.113
  H  H45  1  0.860100  0.375800  0.084100  1.0  0.11
  H  H46  1  0.381800  0.862900  0.413300  1.0  0.1097
  H  H47  1  0.264800  0.763900  0.490600  1.0  0.113
  H  H48  1  0.360100  0.875800  0.584100  1.0  0.11
  H  H49  1  0.881800  0.637100  0.086700  1.0  0.1098
  H  H50  1  0.764800  0.736100  0.009400  1.0  0.1135
  H  H51  1  0.860100  0.624200  0.915900  1.0  0.1104
  H  H52  1  0.381800  0.137100  0.586700  1.0  0.1098
  H  H53  1  0.264800  0.236100  0.509400  1.0  0.1135
  H  H54  1  0.360100  0.124200  0.415900  1.0  0.1104
  H  H55  1  0.118200  0.362900  0.086700  1.0  0.11
  H  H56  1  0.235200  0.263900  0.009400  1.0  0.1134
  H  H57  1  0.139900  0.375800  0.915900  1.0  0.1103
  H  H58  1  0.618200  0.862900  0.586700  1.0  0.11
  H  H59  1  0.735200  0.763900  0.509400  1.0  0.1134
  H  H60  1  0.639900  0.875800  0.415900  1.0  0.1103
  H  H61  1  0.913300  0.118200  0.637100  1.0  0.1094
  H  H62  1  0.990600  0.235200  0.736100  1.0  0.1135
  H  H63  1  0.084100  0.139900  0.624200  1.0  0.1096
  H  H64  1  0.413300  0.618200  0.137100  1.0  0.1094
  H  H65  1  0.490600  0.735200  0.236100  1.0  0.1135
  H  H66  1  0.584100  0.639900  0.124200  1.0  0.1096
  H  H67  1  0.913300  0.881800  0.362900  1.0  0.1089
  H  H68  1  0.990600  0.764800  0.263900  1.0  0.1134
  H  H69  1  0.084100  0.860100  0.375800  1.0  0.1095
  H  H70  1  0.413300  0.381800  0.862900  1.0  0.1089
  H  H71  1  0.490600  0.264800  0.763900  1.0  0.1134
  H  H72  1  0.584100  0.360100  0.875800  1.0  0.1095
  H  H73  1  0.086700  0.881800  0.637100  1.0  0.1093
  H  H74  1  0.009400  0.764800  0.736100  1.0  0.1136
  H  H75  1  0.915900  0.860100  0.624200  1.0  0.1099
  H  H76  1  0.586700  0.381800  0.137100  1.0  0.1093
  H  H77  1  0.509400  0.264800  0.236100  1.0  0.1136
  H  H78  1  0.415900  0.360100  0.124200  1.0  0.1099
  H  H79  1  0.086700  0.118200  0.362900  1.0  0.1088
  H  H80  1  0.009400  0.235200  0.263900  1.0  0.1135
  H  H81  1  0.915900  0.139900  0.375800  1.0  0.1099
  H  H82  1  0.586700  0.618200  0.862900  1.0  0.1088
  H  H83  1  0.509400  0.735200  0.763900  1.0  0.1135
  H  H84  1  0.415900  0.639900  0.875800  1.0  0.1099
  H  H85  1  0.637100  0.913300  0.118200  1.0  0.1093
  H  H86  1  0.736100  0.990600  0.235200  1.0  0.1134
  H  H87  1  0.624200  0.084100  0.139900  1.0  0.1102
  H  H88  1  0.137100  0.413300  0.618200  1.0  0.1093
  H  H89  1  0.236100  0.490600  0.735200  1.0  0.1134
  H  H90  1  0.124200  0.584100  0.639900  1.0  0.1102
  H  H91  1  0.362900  0.913300  0.881800  1.0  0.1097
  H  H92  1  0.263900  0.990600  0.764800  1.0  0.1138
  H  H93  1  0.375800  0.084100  0.860100  1.0  0.1098
  H  H94  1  0.862900  0.413300  0.381800  1.0  0.1097
  H  H95  1  0.763900  0.490600  0.264800  1.0  0.1138
  H  H96  1  0.875800  0.584100  0.360100  1.0  0.1098
  H  H97  1  0.637100  0.086700  0.881800  1.0  0.1095
  H  H98  1  0.736100  0.009400  0.764800  1.0  0.1135
  H  H99  1  0.624200  0.915900  0.860100  1.0  0.1097
  H  H100  1  0.137100  0.586700  0.381800  1.0  0.1095
  H  H101  1  0.236100  0.509400  0.264800  1.0  0.1135
  H  H102  1  0.124200  0.415900  0.360100  1.0  0.1097
  H  H103  1  0.362900  0.086700  0.118200  1.0  0.1096
  H  H104  1  0.263900  0.009400  0.235200  1.0  0.1134
  H  H105  1  0.375800  0.915900  0.139900  1.0  0.1098
  H  H106  1  0.862900  0.586700  0.618200  1.0  0.1096
  H  H107  1  0.763900  0.509400  0.735200  1.0  0.1134
  H  H108  1  0.875800  0.415900  0.639900  1.0  0.1098
  C  C109  1  0.122200  0.622900  0.998500  1.0  -0.1611
  C  C110  1  0.137200  0.647700  0.946800  1.0  0.0271
  C  C111  1  0.181000  0.688700  0.944900  1.0  -0.1582
  C  C112  1  0.208000  0.706900  0.992400  1.0  0.0199
  C  C113  1  0.193900  0.680300  0.046100  1.0  -0.1535
  C  C114  1  0.150400  0.639900  0.048900  1.0  0.0317
  C  C115  1  0.076300  0.578200  0.001900  1.0  0.7274
  C  C116  1  0.198100  0.710600  0.884700  1.0  0.7182
  C  C117  1  0.224900  0.698500  0.100100  1.0  0.6708
  C  C118  1  0.622200  0.122900  0.498500  1.0  -0.1611
  C  C119  1  0.637200  0.147700  0.446800  1.0  0.0271
  C  C120  1  0.681000  0.188700  0.444900  1.0  -0.1582
  C  C121  1  0.708000  0.206900  0.492400  1.0  0.0199
  C  C122  1  0.693900  0.180300  0.546100  1.0  -0.1535
  C  C123  1  0.650400  0.139900  0.548900  1.0  0.0317
  C  C124  1  0.576300  0.078200  0.501900  1.0  0.7274
  C  C125  1  0.698100  0.210600  0.384700  1.0  0.7182
  C  C126  1  0.724900  0.198500  0.600100  1.0  0.6708
  C  C127  1  0.877800  0.377100  0.998500  1.0  -0.1607
  C  C128  1  0.862800  0.352300  0.946800  1.0  0.0269
  C  C129  1  0.819000  0.311300  0.944900  1.0  -0.1584
  C  C130  1  0.792000  0.293100  0.992400  1.0  0.0204
  C  C131  1  0.806100  0.319700  0.046100  1.0  -0.1539
  C  C132  1  0.849600  0.360100  0.048900  1.0  0.0323
  C  C133  1  0.923700  0.421800  0.001900  1.0  0.7265
  C  C134  1  0.801900  0.289400  0.884700  1.0  0.7184
  C  C135  1  0.775100  0.301500  0.100100  1.0  0.6722
  C  C136  1  0.377800  0.877100  0.498500  1.0  -0.1607
  C  C137  1  0.362800  0.852300  0.446800  1.0  0.0269
  C  C138  1  0.319000  0.811300  0.444900  1.0  -0.1584
  C  C139  1  0.292000  0.793100  0.492400  1.0  0.0204
  C  C140  1  0.306100  0.819700  0.546100  1.0  -0.1539
  C  C141  1  0.349600  0.860100  0.548900  1.0  0.0323
  C  C142  1  0.423700  0.921800  0.501900  1.0  0.7265
  C  C143  1  0.301900  0.789400  0.384700  1.0  0.7184
  C  C144  1  0.275100  0.801500  0.600100  1.0  0.6722
  C  C145  1  0.877800  0.622900  0.001500  1.0  -0.1604
  C  C146  1  0.862800  0.647700  0.053200  1.0  0.0275
  C  C147  1  0.819000  0.688700  0.055100  1.0  -0.1573
  C  C148  1  0.792000  0.706900  0.007600  1.0  0.0189
  C  C149  1  0.806100  0.680300  0.953900  1.0  -0.1538
  C  C150  1  0.849600  0.639900  0.951100  1.0  0.0321
  C  C151  1  0.923700  0.578200  0.998100  1.0  0.7266
  C  C152  1  0.801900  0.710600  0.115300  1.0  0.7194
  C  C153  1  0.775100  0.698500  0.899900  1.0  0.6715
  C  C154  1  0.377800  0.122900  0.501500  1.0  -0.1604
  C  C155  1  0.362800  0.147700  0.553200  1.0  0.0275
  C  C156  1  0.319000  0.188700  0.555100  1.0  -0.1573
  C  C157  1  0.292000  0.206900  0.507600  1.0  0.0189
  C  C158  1  0.306100  0.180300  0.453900  1.0  -0.1538
  C  C159  1  0.349600  0.139900  0.451100  1.0  0.0321
  C  C160  1  0.423700  0.078200  0.498100  1.0  0.7266
  C  C161  1  0.301900  0.210600  0.615300  1.0  0.7194
  C  C162  1  0.275100  0.198500  0.399900  1.0  0.6715
  C  C163  1  0.122200  0.377100  0.001500  1.0  -0.161
  C  C164  1  0.137200  0.352300  0.053200  1.0  0.0266
  C  C165  1  0.181000  0.311300  0.055100  1.0  -0.1572
  C  C166  1  0.208000  0.293100  0.007600  1.0  0.0212
  C  C167  1  0.193900  0.319700  0.953900  1.0  -0.1536
  C  C168  1  0.150400  0.360100  0.951100  1.0  0.0316
  C  C169  1  0.076300  0.421800  0.998100  1.0  0.7272
  C  C170  1  0.198100  0.289400  0.115300  1.0  0.7203
  C  C171  1  0.224900  0.301500  0.899900  1.0  0.6716
  C  C172  1  0.622200  0.877100  0.501500  1.0  -0.161
  C  C173  1  0.637200  0.852300  0.553200  1.0  0.0266
  C  C174  1  0.681000  0.811300  0.555100  1.0  -0.1572
  C  C175  1  0.708000  0.793100  0.507600  1.0  0.0212
  C  C176  1  0.693900  0.819700  0.453900  1.0  -0.1536
  C  C177  1  0.650400  0.860100  0.451100  1.0  0.0316
  C  C178  1  0.576300  0.921800  0.498100  1.0  0.7272
  C  C179  1  0.698100  0.789400  0.615300  1.0  0.7203
  C  C180  1  0.724900  0.801500  0.399900  1.0  0.6716
  C  C181  1  0.998500  0.122200  0.622900  1.0  -0.1607
  C  C182  1  0.946800  0.137200  0.647700  1.0  0.0284
  C  C183  1  0.944900  0.181000  0.688700  1.0  -0.157
  C  C184  1  0.992400  0.208000  0.706900  1.0  0.0177
  C  C185  1  0.046100  0.193900  0.680300  1.0  -0.1531
  C  C186  1  0.048900  0.150400  0.639900  1.0  0.0325
  C  C187  1  0.001900  0.076300  0.578200  1.0  0.7278
  C  C188  1  0.884700  0.198100  0.710600  1.0  0.7192
  C  C189  1  0.100100  0.224900  0.698500  1.0  0.6695
  C  C190  1  0.498500  0.622200  0.122900  1.0  -0.1607
  C  C191  1  0.446800  0.637200  0.147700  1.0  0.0284
  C  C192  1  0.444900  0.681000  0.188700  1.0  -0.157
  C  C193  1  0.492400  0.708000  0.206900  1.0  0.0177
  C  C194  1  0.546100  0.693900  0.180300  1.0  -0.1531
  C  C195  1  0.548900  0.650400  0.139900  1.0  0.0325
  C  C196  1  0.501900  0.576300  0.078200  1.0  0.7278
  C  C197  1  0.384700  0.698100  0.210600  1.0  0.7192
  C  C198  1  0.600100  0.724900  0.198500  1.0  0.6695
  C  C199  1  0.998500  0.877800  0.377100  1.0  -0.1605
  C  C200  1  0.946800  0.862800  0.352300  1.0  0.0289
  C  C201  1  0.944900  0.819000  0.311300  1.0  -0.1568
  C  C202  1  0.992400  0.792000  0.293100  1.0  0.0199
  C  C203  1  0.046100  0.806100  0.319700  1.0  -0.153
  C  C204  1  0.048900  0.849600  0.360100  1.0  0.0329
  C  C205  1  0.001900  0.923700  0.421800  1.0  0.728
  C  C206  1  0.884700  0.801900  0.289400  1.0  0.7181
  C  C207  1  0.100100  0.775100  0.301500  1.0  0.6692
  C  C208  1  0.498500  0.377800  0.877100  1.0  -0.1605
  C  C209  1  0.446800  0.362800  0.852300  1.0  0.0289
  C  C210  1  0.444900  0.319000  0.811300  1.0  -0.1568
  C  C211  1  0.492400  0.292000  0.793100  1.0  0.0199
  C  C212  1  0.546100  0.306100  0.819700  1.0  -0.153
  C  C213  1  0.548900  0.349600  0.860100  1.0  0.0329
  C  C214  1  0.501900  0.423700  0.921800  1.0  0.728
  C  C215  1  0.384700  0.301900  0.789400  1.0  0.7181
  C  C216  1  0.600100  0.275100  0.801500  1.0  0.6692
  C  C217  1  0.001500  0.877800  0.622900  1.0  -0.1608
  C  C218  1  0.053200  0.862800  0.647700  1.0  0.0289
  C  C219  1  0.055100  0.819000  0.688700  1.0  -0.1571
  C  C220  1  0.007600  0.792000  0.706900  1.0  0.0191
  C  C221  1  0.953900  0.806100  0.680300  1.0  -0.1538
  C  C222  1  0.951100  0.849600  0.639900  1.0  0.031
  C  C223  1  0.998100  0.923700  0.578200  1.0  0.7272
  C  C224  1  0.115300  0.801900  0.710600  1.0  0.7189
  C  C225  1  0.899900  0.775100  0.698500  1.0  0.6691
  C  C226  1  0.501500  0.377800  0.122900  1.0  -0.1608
  C  C227  1  0.553200  0.362800  0.147700  1.0  0.0289
  C  C228  1  0.555100  0.319000  0.188700  1.0  -0.1571
  C  C229  1  0.507600  0.292000  0.206900  1.0  0.0191
  C  C230  1  0.453900  0.306100  0.180300  1.0  -0.1538
  C  C231  1  0.451100  0.349600  0.139900  1.0  0.031
  C  C232  1  0.498100  0.423700  0.078200  1.0  0.7272
  C  C233  1  0.615300  0.301900  0.210600  1.0  0.7189
  C  C234  1  0.399900  0.275100  0.198500  1.0  0.6691
  C  C235  1  0.001500  0.122200  0.377100  1.0  -0.1603
  C  C236  1  0.053200  0.137200  0.352300  1.0  0.0289
  C  C237  1  0.055100  0.181000  0.311300  1.0  -0.1565
  C  C238  1  0.007600  0.208000  0.293100  1.0  0.0191
  C  C239  1  0.953900  0.193900  0.319700  1.0  -0.1534
  C  C240  1  0.951100  0.150400  0.360100  1.0  0.0313
  C  C241  1  0.998100  0.076300  0.421800  1.0  0.7277
  C  C242  1  0.115300  0.198100  0.289400  1.0  0.718
  C  C243  1  0.899900  0.224900  0.301500  1.0  0.6708
  C  C244  1  0.501500  0.622200  0.877100  1.0  -0.1603
  C  C245  1  0.553200  0.637200  0.852300  1.0  0.0289
  C  C246  1  0.555100  0.681000  0.811300  1.0  -0.1565
  C  C247  1  0.507600  0.708000  0.793100  1.0  0.0191
  C  C248  1  0.453900  0.693900  0.819700  1.0  -0.1534
  C  C249  1  0.451100  0.650400  0.860100  1.0  0.0313
  C  C250  1  0.498100  0.576300  0.921800  1.0  0.7277
  C  C251  1  0.615300  0.698100  0.789400  1.0  0.718
  C  C252  1  0.399900  0.724900  0.801500  1.0  0.6708
  C  C253  1  0.622900  0.998500  0.122200  1.0  -0.1621
  C  C254  1  0.647700  0.946800  0.137200  1.0  0.0274
  C  C255  1  0.688700  0.944900  0.181000  1.0  -0.1561
  C  C256  1  0.706900  0.992400  0.208000  1.0  0.0206
  C  C257  1  0.680300  0.046100  0.193900  1.0  -0.1536
  C  C258  1  0.639900  0.048900  0.150400  1.0  0.0329
  C  C259  1  0.578200  0.001900  0.076300  1.0  0.7269
  C  C260  1  0.710600  0.884700  0.198100  1.0  0.7195
  C  C261  1  0.698500  0.100100  0.224900  1.0  0.6714
  C  C262  1  0.122900  0.498500  0.622200  1.0  -0.1621
  C  C263  1  0.147700  0.446800  0.637200  1.0  0.0274
  C  C264  1  0.188700  0.444900  0.681000  1.0  -0.1561
  C  C265  1  0.206900  0.492400  0.708000  1.0  0.0206
  C  C266  1  0.180300  0.546100  0.693900  1.0  -0.1536
  C  C267  1  0.139900  0.548900  0.650400  1.0  0.0329
  C  C268  1  0.078200  0.501900  0.576300  1.0  0.7269
  C  C269  1  0.210600  0.384700  0.698100  1.0  0.7195
  C  C270  1  0.198500  0.600100  0.724900  1.0  0.6714
  C  C271  1  0.377100  0.998500  0.877800  1.0  -0.1617
  C  C272  1  0.352300  0.946800  0.862800  1.0  0.0291
  C  C273  1  0.311300  0.944900  0.819000  1.0  -0.1565
  C  C274  1  0.293100  0.992400  0.792000  1.0  0.0209
  C  C275  1  0.319700  0.046100  0.806100  1.0  -0.1543
  C  C276  1  0.360100  0.048900  0.849600  1.0  0.0331
  C  C277  1  0.421800  0.001900  0.923700  1.0  0.7268
  C  C278  1  0.289400  0.884700  0.801900  1.0  0.7191
  C  C279  1  0.301500  0.100100  0.775100  1.0  0.6717
  C  C280  1  0.877100  0.498500  0.377800  1.0  -0.1617
  C  C281  1  0.852300  0.446800  0.362800  1.0  0.0291
  C  C282  1  0.811300  0.444900  0.319000  1.0  -0.1565
  C  C283  1  0.793100  0.492400  0.292000  1.0  0.0209
  C  C284  1  0.819700  0.546100  0.306100  1.0  -0.1543
  C  C285  1  0.860100  0.548900  0.349600  1.0  0.0331
  C  C286  1  0.921800  0.501900  0.423700  1.0  0.7268
  C  C287  1  0.789400  0.384700  0.301900  1.0  0.7191
  C  C288  1  0.801500  0.600100  0.275100  1.0  0.6717
  C  C289  1  0.622900  0.001500  0.877800  1.0  -0.1622
  C  C290  1  0.647700  0.053200  0.862800  1.0  0.0261
  C  C291  1  0.688700  0.055100  0.819000  1.0  -0.1569
  C  C292  1  0.706900  0.007600  0.792000  1.0  0.0216
  C  C293  1  0.680300  0.953900  0.806100  1.0  -0.1538
  C  C294  1  0.639900  0.951100  0.849600  1.0  0.0331
  C  C295  1  0.578200  0.998100  0.923700  1.0  0.7275
  C  C296  1  0.710600  0.115300  0.801900  1.0  0.7194
  C  C297  1  0.698500  0.899900  0.775100  1.0  0.6717
  C  C298  1  0.122900  0.501500  0.377800  1.0  -0.1622
  C  C299  1  0.147700  0.553200  0.362800  1.0  0.0261
  C  C300  1  0.188700  0.555100  0.319000  1.0  -0.1569
  C  C301  1  0.206900  0.507600  0.292000  1.0  0.0216
  C  C302  1  0.180300  0.453900  0.306100  1.0  -0.1538
  C  C303  1  0.139900  0.451100  0.349600  1.0  0.0331
  C  C304  1  0.078200  0.498100  0.423700  1.0  0.7275
  C  C305  1  0.210600  0.615300  0.301900  1.0  0.7194
  C  C306  1  0.198500  0.399900  0.275100  1.0  0.6717
  C  C307  1  0.377100  0.001500  0.122200  1.0  -0.1615
  C  C308  1  0.352300  0.053200  0.137200  1.0  0.0283
  C  C309  1  0.311300  0.055100  0.181000  1.0  -0.1559
  C  C310  1  0.293100  0.007600  0.208000  1.0  0.0194
  C  C311  1  0.319700  0.953900  0.193900  1.0  -0.1549
  C  C312  1  0.360100  0.951100  0.150400  1.0  0.034
  C  C313  1  0.421800  0.998100  0.076300  1.0  0.7266
  C  C314  1  0.289400  0.115300  0.198100  1.0  0.7198
  C  C315  1  0.301500  0.899900  0.224900  1.0  0.6724
  C  C316  1  0.877100  0.501500  0.622200  1.0  -0.1615
  C  C317  1  0.852300  0.553200  0.637200  1.0  0.0283
  C  C318  1  0.811300  0.555100  0.681000  1.0  -0.1559
  C  C319  1  0.793100  0.507600  0.708000  1.0  0.0194
  C  C320  1  0.819700  0.453900  0.693900  1.0  -0.1549
  C  C321  1  0.860100  0.451100  0.650400  1.0  0.034
  C  C322  1  0.921800  0.498100  0.576300  1.0  0.7266
  C  C323  1  0.789400  0.615300  0.698100  1.0  0.7198
  C  C324  1  0.801500  0.399900  0.724900  1.0  0.6724
  O  O325  1  0.054400  0.564100  0.953400  1.0  -0.6343
  O  O326  1  0.064900  0.557900  0.047900  1.0  -0.553
  O  O327  1  0.169000  0.695600  0.844500  1.0  -0.5666
  O  O328  1  0.242900  0.742000  0.885200  1.0  -0.613
  O  O329  1  0.262500  0.733500  0.098600  1.0  -0.4587
  O  O330  1  0.213100  0.667900  0.143800  1.0  -0.5981
  O  O331  1  0.554400  0.064100  0.453400  1.0  -0.6343
  O  O332  1  0.564900  0.057900  0.547900  1.0  -0.553
  O  O333  1  0.669000  0.195600  0.344500  1.0  -0.5666
  O  O334  1  0.742900  0.242000  0.385200  1.0  -0.613
  O  O335  1  0.762500  0.233500  0.598600  1.0  -0.4587
  O  O336  1  0.713100  0.167900  0.643800  1.0  -0.5981
  O  O337  1  0.945600  0.435900  0.953400  1.0  -0.6347
  O  O338  1  0.935100  0.442100  0.047900  1.0  -0.5522
  O  O339  1  0.831000  0.304400  0.844500  1.0  -0.566
  O  O340  1  0.757100  0.258000  0.885200  1.0  -0.6144
  O  O341  1  0.737500  0.266500  0.098600  1.0  -0.4614
  O  O342  1  0.786900  0.332100  0.143800  1.0  -0.5983
  O  O343  1  0.445600  0.935900  0.453400  1.0  -0.6347
  O  O344  1  0.435100  0.942100  0.547900  1.0  -0.5522
  O  O345  1  0.331000  0.804400  0.344500  1.0  -0.566
  O  O346  1  0.257100  0.758000  0.385200  1.0  -0.6144
  O  O347  1  0.237500  0.766500  0.598600  1.0  -0.4614
  O  O348  1  0.286900  0.832100  0.643800  1.0  -0.5983
  O  O349  1  0.945600  0.564100  0.046600  1.0  -0.6343
  O  O350  1  0.935100  0.557900  0.952100  1.0  -0.5507
  O  O351  1  0.831000  0.695600  0.155500  1.0  -0.566
  O  O352  1  0.757100  0.742000  0.114800  1.0  -0.6147
  O  O353  1  0.737500  0.733500  0.901400  1.0  -0.4601
  O  O354  1  0.786900  0.667900  0.856200  1.0  -0.5976
  O  O355  1  0.445600  0.064100  0.546600  1.0  -0.6343
  O  O356  1  0.435100  0.057900  0.452100  1.0  -0.5507
  O  O357  1  0.331000  0.195600  0.655500  1.0  -0.566
  O  O358  1  0.257100  0.242000  0.614800  1.0  -0.6147
  O  O359  1  0.237500  0.233500  0.401400  1.0  -0.4601
  O  O360  1  0.286900  0.167900  0.356200  1.0  -0.5976
  O  O361  1  0.054400  0.435900  0.046600  1.0  -0.6336
  O  O362  1  0.064900  0.442100  0.952100  1.0  -0.551
  O  O363  1  0.169000  0.304400  0.155500  1.0  -0.5672
  O  O364  1  0.242900  0.258000  0.114800  1.0  -0.612
  O  O365  1  0.262500  0.266500  0.901400  1.0  -0.4595
  O  O366  1  0.213100  0.332100  0.856200  1.0  -0.6002
  O  O367  1  0.554400  0.935900  0.546600  1.0  -0.6336
  O  O368  1  0.564900  0.942100  0.452100  1.0  -0.551
  O  O369  1  0.669000  0.804400  0.655500  1.0  -0.5672
  O  O370  1  0.742900  0.758000  0.614800  1.0  -0.612
  O  O371  1  0.762500  0.766500  0.401400  1.0  -0.4595
  O  O372  1  0.713100  0.832100  0.356200  1.0  -0.6002
  O  O373  1  0.953400  0.054400  0.564100  1.0  -0.6334
  O  O374  1  0.047900  0.064900  0.557900  1.0  -0.5519
  O  O375  1  0.844500  0.169000  0.695600  1.0  -0.5666
  O  O376  1  0.885200  0.242900  0.742000  1.0  -0.613
  O  O377  1  0.098600  0.262500  0.733500  1.0  -0.4622
  O  O378  1  0.143800  0.213100  0.667900  1.0  -0.5985
  O  O379  1  0.453400  0.554400  0.064100  1.0  -0.6334
  O  O380  1  0.547900  0.564900  0.057900  1.0  -0.5519
  O  O381  1  0.344500  0.669000  0.195600  1.0  -0.5666
  O  O382  1  0.385200  0.742900  0.242000  1.0  -0.613
  O  O383  1  0.598600  0.762500  0.233500  1.0  -0.4622
  O  O384  1  0.643800  0.713100  0.167900  1.0  -0.5985
  O  O385  1  0.953400  0.945600  0.435900  1.0  -0.6334
  O  O386  1  0.047900  0.935100  0.442100  1.0  -0.5522
  O  O387  1  0.844500  0.831000  0.304400  1.0  -0.5674
  O  O388  1  0.885200  0.757100  0.258000  1.0  -0.612
  O  O389  1  0.098600  0.737500  0.266500  1.0  -0.4625
  O  O390  1  0.143800  0.786900  0.332100  1.0  -0.5981
  O  O391  1  0.453400  0.445600  0.935900  1.0  -0.6334
  O  O392  1  0.547900  0.435100  0.942100  1.0  -0.5522
  O  O393  1  0.344500  0.331000  0.804400  1.0  -0.5674
  O  O394  1  0.385200  0.257100  0.758000  1.0  -0.612
  O  O395  1  0.598600  0.237500  0.766500  1.0  -0.4625
  O  O396  1  0.643800  0.286900  0.832100  1.0  -0.5981
  O  O397  1  0.046600  0.945600  0.564100  1.0  -0.6334
  O  O398  1  0.952100  0.935100  0.557900  1.0  -0.5517
  O  O399  1  0.155500  0.831000  0.695600  1.0  -0.5666
  O  O400  1  0.114800  0.757100  0.742000  1.0  -0.6134
  O  O401  1  0.901400  0.737500  0.733500  1.0  -0.4604
  O  O402  1  0.856200  0.786900  0.667900  1.0  -0.5979
  O  O403  1  0.546600  0.445600  0.064100  1.0  -0.6334
  O  O404  1  0.452100  0.435100  0.057900  1.0  -0.5517
  O  O405  1  0.655500  0.331000  0.195600  1.0  -0.5666
  O  O406  1  0.614800  0.257100  0.242000  1.0  -0.6134
  O  O407  1  0.401400  0.237500  0.233500  1.0  -0.4604
  O  O408  1  0.356200  0.286900  0.167900  1.0  -0.5979
  O  O409  1  0.046600  0.054400  0.435900  1.0  -0.6337
  O  O410  1  0.952100  0.064900  0.442100  1.0  -0.5516
  O  O411  1  0.155500  0.169000  0.304400  1.0  -0.5665
  O  O412  1  0.114800  0.242900  0.258000  1.0  -0.6142
  O  O413  1  0.901400  0.262500  0.266500  1.0  -0.4623
  O  O414  1  0.856200  0.213100  0.332100  1.0  -0.5966
  O  O415  1  0.546600  0.554400  0.935900  1.0  -0.6337
  O  O416  1  0.452100  0.564900  0.942100  1.0  -0.5516
  O  O417  1  0.655500  0.669000  0.804400  1.0  -0.5665
  O  O418  1  0.614800  0.742900  0.758000  1.0  -0.6142
  O  O419  1  0.401400  0.762500  0.766500  1.0  -0.4623
  O  O420  1  0.356200  0.713100  0.832100  1.0  -0.5966
  O  O421  1  0.564100  0.953400  0.054400  1.0  -0.6352
  O  O422  1  0.557900  0.047900  0.064900  1.0  -0.5519
  O  O423  1  0.695600  0.844500  0.169000  1.0  -0.5681
  O  O424  1  0.742000  0.885200  0.242900  1.0  -0.6115
  O  O425  1  0.733500  0.098600  0.262500  1.0  -0.4636
  O  O426  1  0.667900  0.143800  0.213100  1.0  -0.6003
  O  O427  1  0.064100  0.453400  0.554400  1.0  -0.6352
  O  O428  1  0.057900  0.547900  0.564900  1.0  -0.5519
  O  O429  1  0.195600  0.344500  0.669000  1.0  -0.5681
  O  O430  1  0.242000  0.385200  0.742900  1.0  -0.6115
  O  O431  1  0.233500  0.598600  0.762500  1.0  -0.4636
  O  O432  1  0.167900  0.643800  0.713100  1.0  -0.6003
  O  O433  1  0.435900  0.953400  0.945600  1.0  -0.6337
  O  O434  1  0.442100  0.047900  0.935100  1.0  -0.5524
  O  O435  1  0.304400  0.844500  0.831000  1.0  -0.567
  O  O436  1  0.258000  0.885200  0.757100  1.0  -0.6129
  O  O437  1  0.266500  0.098600  0.737500  1.0  -0.4658
  O  O438  1  0.332100  0.143800  0.786900  1.0  -0.5997
  O  O439  1  0.935900  0.453400  0.445600  1.0  -0.6337
  O  O440  1  0.942100  0.547900  0.435100  1.0  -0.5524
  O  O441  1  0.804400  0.344500  0.331000  1.0  -0.567
  O  O442  1  0.758000  0.385200  0.257100  1.0  -0.6129
  O  O443  1  0.766500  0.598600  0.237500  1.0  -0.4658
  O  O444  1  0.832100  0.643800  0.286900  1.0  -0.5997
  O  O445  1  0.564100  0.046600  0.945600  1.0  -0.634
  O  O446  1  0.557900  0.952100  0.935100  1.0  -0.5529
  O  O447  1  0.695600  0.155500  0.831000  1.0  -0.5667
  O  O448  1  0.742000  0.114800  0.757100  1.0  -0.6129
  O  O449  1  0.733500  0.901400  0.737500  1.0  -0.4623
  O  O450  1  0.667900  0.856200  0.786900  1.0  -0.5986
  O  O451  1  0.064100  0.546600  0.445600  1.0  -0.634
  O  O452  1  0.057900  0.452100  0.435100  1.0  -0.5529
  O  O453  1  0.195600  0.655500  0.331000  1.0  -0.5667
  O  O454  1  0.242000  0.614800  0.257100  1.0  -0.6129
  O  O455  1  0.233500  0.401400  0.237500  1.0  -0.4623
  O  O456  1  0.167900  0.356200  0.286900  1.0  -0.5986
  O  O457  1  0.435900  0.046600  0.054400  1.0  -0.6335
  O  O458  1  0.442100  0.952100  0.064900  1.0  -0.5532
  O  O459  1  0.304400  0.155500  0.169000  1.0  -0.5669
  O  O460  1  0.258000  0.114800  0.242900  1.0  -0.6122
  O  O461  1  0.266500  0.901400  0.262500  1.0  -0.4649
  O  O462  1  0.332100  0.856200  0.213100  1.0  -0.5981
  O  O463  1  0.935900  0.546600  0.554400  1.0  -0.6335
  O  O464  1  0.942100  0.452100  0.564900  1.0  -0.5532
  O  O465  1  0.804400  0.655500  0.669000  1.0  -0.5669
  O  O466  1  0.758000  0.614800  0.742900  1.0  -0.6122
  O  O467  1  0.766500  0.401400  0.762500  1.0  -0.4649
  O  O468  1  0.832100  0.356200  0.713100  1.0  -0.5981
  O  O469  1  0.251100  0.748900  0.748900  1.0  -0.8197
  O  O470  1  0.751100  0.248900  0.248900  1.0  -0.8197
  O  O471  1  0.748900  0.251100  0.748900  1.0  -0.8194
  O  O472  1  0.248900  0.751100  0.248900  1.0  -0.8194
  O  O473  1  0.748900  0.748900  0.251100  1.0  -0.8207
  O  O474  1  0.248900  0.248900  0.751100  1.0  -0.8207
  O  O475  1  0.251100  0.251100  0.251100  1.0  -0.8201
  O  O476  1  0.751100  0.751100  0.751100  1.0  -0.8201
