# generated using pymatgen
data_Zn6Cu3H18(C27O19)2
_symmetry_space_group_name_H-M   'P 1'
_cell_length_a   20.22020000
_cell_length_b   20.22020000
_cell_length_c   20.22020000
_cell_angle_alpha   109.47100000
_cell_angle_beta   109.47100000
_cell_angle_gamma   109.47100000
_symmetry_Int_Tables_number   1
_chemical_formula_structural   Zn6Cu3H18(C27O19)2
_chemical_formula_sum   'Zn12 Cu6 H36 C108 O76'
_cell_volume   6364.11469012
_cell_formula_units_Z   2
loop_
 _symmetry_equiv_pos_site_id
 _symmetry_equiv_pos_as_xyz
  1  'x, y, z'
loop_
 _atom_site_type_symbol
 _atom_site_label
 _atom_site_symmetry_multiplicity
 _atom_site_fract_x
 _atom_site_fract_y
 _atom_site_fract_z
 _atom_site_occupancy
 _atom_site_charge
  Zn  Zn1  1  0.057280  0.533650  0.111550  1.0  1.074
  Zn  Zn2  1  0.422100  0.945730  0.888450  1.0  1.0732
  Zn  Zn3  1  0.577900  0.466350  0.523630  1.0  1.0745
  Zn  Zn4  1  0.942720  0.054270  0.476370  1.0  1.0732
  Zn  Zn5  1  0.523630  0.577900  0.466350  1.0  1.0733
  Zn  Zn6  1  0.476370  0.942720  0.054270  1.0  1.0747
  Zn  Zn7  1  0.111550  0.057280  0.533650  1.0  1.0739
  Zn  Zn8  1  0.888450  0.422100  0.945730  1.0  1.0735
  Zn  Zn9  1  0.945730  0.888450  0.422100  1.0  1.0742
  Zn  Zn10  1  0.533650  0.111550  0.057280  1.0  1.074
  Zn  Zn11  1  0.054270  0.476370  0.942720  1.0  1.0726
  Zn  Zn12  1  0.466350  0.523630  0.577900  1.0  1.0734
  Cu  Cu13  1  0.061570  0.561570  0.500000  1.0  0.9341
  Cu  Cu14  1  0.938430  0.438430  0.500000  1.0  0.9347
  Cu  Cu15  1  0.500000  0.938430  0.438430  1.0  0.9331
  Cu  Cu16  1  0.500000  0.061570  0.561570  1.0  0.9353
  Cu  Cu17  1  0.561570  0.500000  0.061570  1.0  0.9384
  Cu  Cu18  1  0.438430  0.500000  0.938430  1.0  0.9379
  H  H19  1  0.969900  0.455100  0.245600  1.0  0.1156
  H  H20  1  0.773400  0.282700  0.032700  1.0  0.1144
  H  H21  1  0.776000  0.302100  0.236300  1.0  0.1137
  H  H22  1  0.209500  0.724300  0.754400  1.0  0.1165
  H  H23  1  0.250000  0.740700  0.967300  1.0  0.1139
  H  H24  1  0.065800  0.539700  0.763700  1.0  0.1142
  H  H25  1  0.790500  0.544900  0.514800  1.0  0.1164
  H  H26  1  0.750000  0.717300  0.490700  1.0  0.1144
  H  H27  1  0.934200  0.697900  0.473900  1.0  0.1142
  H  H28  1  0.030100  0.275700  0.485200  1.0  0.1155
  H  H29  1  0.226600  0.259300  0.509300  1.0  0.1141
  H  H30  1  0.224000  0.460300  0.526100  1.0  0.1153
  H  H31  1  0.514800  0.790500  0.544900  1.0  0.1161
  H  H32  1  0.490700  0.750000  0.717300  1.0  0.1143
  H  H33  1  0.473900  0.934200  0.697900  1.0  0.1141
  H  H34  1  0.485200  0.030100  0.275700  1.0  0.1171
  H  H35  1  0.509300  0.226600  0.259300  1.0  0.1149
  H  H36  1  0.526100  0.224000  0.460300  1.0  0.1135
  H  H37  1  0.245600  0.969900  0.455100  1.0  0.1162
  H  H38  1  0.032700  0.773400  0.282700  1.0  0.1137
  H  H39  1  0.236300  0.776000  0.302100  1.0  0.1143
  H  H40  1  0.754400  0.209500  0.724300  1.0  0.1162
  H  H41  1  0.967300  0.250000  0.740700  1.0  0.1141
  H  H42  1  0.763700  0.065800  0.539700  1.0  0.1138
  H  H43  1  0.724300  0.754400  0.209500  1.0  0.115
  H  H44  1  0.740700  0.967300  0.250000  1.0  0.1143
  H  H45  1  0.539700  0.763700  0.065800  1.0  0.1145
  H  H46  1  0.455100  0.245600  0.969900  1.0  0.1162
  H  H47  1  0.282700  0.032700  0.773400  1.0  0.1153
  H  H48  1  0.302100  0.236300  0.776000  1.0  0.1139
  H  H49  1  0.275700  0.485200  0.030100  1.0  0.116
  H  H50  1  0.259300  0.509300  0.226600  1.0  0.1154
  H  H51  1  0.460300  0.526100  0.224000  1.0  0.1124
  H  H52  1  0.544900  0.514800  0.790500  1.0  0.1158
  H  H53  1  0.717300  0.490700  0.750000  1.0  0.1143
  H  H54  1  0.697900  0.473900  0.934200  1.0  0.1137
  C  C55  1  0.880600  0.383500  0.255900  1.0  -0.1825
  C  C56  1  0.917600  0.410900  0.215700  1.0  0.0212
  C  C57  1  0.877500  0.373300  0.132200  1.0  -0.15
  C  C58  1  0.800400  0.308700  0.088900  1.0  0.0408
  C  C59  1  0.761300  0.280900  0.127400  1.0  -0.1722
  C  C60  1  0.801900  0.319400  0.210100  1.0  0.0223
  C  C61  1  0.924800  0.424900  0.346500  1.0  0.7149
  C  C62  1  0.917600  0.409100  0.092300  1.0  0.7211
  C  C63  1  0.677500  0.210900  0.078200  1.0  0.7105
  C  C64  1  0.127600  0.624700  0.744100  1.0  -0.1826
  C  C65  1  0.195200  0.701900  0.784300  1.0  0.0215
  C  C66  1  0.241100  0.745300  0.867800  1.0  -0.1487
  C  C67  1  0.219800  0.711500  0.911100  1.0  0.0416
  C  C68  1  0.153500  0.633900  0.872600  1.0  -0.1683
  C  C69  1  0.109300  0.591800  0.789900  1.0  0.0218
  C  C70  1  0.078400  0.578300  0.653500  1.0  0.7145
  C  C71  1  0.316800  0.825300  0.907700  1.0  0.7296
  C  C72  1  0.132700  0.599300  0.921800  1.0  0.7132
  C  C73  1  0.872400  0.616500  0.497100  1.0  -0.1812
  C  C74  1  0.804800  0.589100  0.506700  1.0  0.0228
  C  C75  1  0.758900  0.626700  0.504200  1.0  -0.1513
  C  C76  1  0.780200  0.691300  0.491700  1.0  0.0409
  C  C77  1  0.846500  0.719100  0.480400  1.0  -0.1714
  C  C78  1  0.890700  0.680600  0.482500  1.0  0.0223
  C  C79  1  0.921600  0.575100  0.499900  1.0  0.7126
  C  C80  1  0.683200  0.590900  0.508500  1.0  0.7292
  C  C81  1  0.867300  0.789100  0.466600  1.0  0.7114
  C  C82  1  0.119400  0.375300  0.502900  1.0  -0.1812
  C  C83  1  0.082400  0.298100  0.493300  1.0  0.021
  C  C84  1  0.122500  0.254700  0.495800  1.0  -0.1483
  C  C85  1  0.199600  0.288500  0.508300  1.0  0.0411
  C  C86  1  0.238700  0.366100  0.519600  1.0  -0.1717
  C  C87  1  0.198100  0.408200  0.517500  1.0  0.0208
  C  C88  1  0.075200  0.421700  0.500100  1.0  0.713
  C  C89  1  0.082400  0.174700  0.491500  1.0  0.7249
  C  C90  1  0.322500  0.400700  0.533400  1.0  0.7121
  C  C91  1  0.497100  0.872400  0.616500  1.0  -0.1819
  C  C92  1  0.506700  0.804800  0.589100  1.0  0.0209
  C  C93  1  0.504200  0.758900  0.626700  1.0  -0.1494
  C  C94  1  0.491700  0.780200  0.691300  1.0  0.0401
  C  C95  1  0.480400  0.846500  0.719100  1.0  -0.1687
  C  C96  1  0.482500  0.890700  0.680600  1.0  0.0215
  C  C97  1  0.499900  0.921600  0.575100  1.0  0.7137
  C  C98  1  0.508500  0.683200  0.590900  1.0  0.7286
  C  C99  1  0.466600  0.867300  0.789100  1.0  0.714
  C  C100  1  0.502900  0.119400  0.375300  1.0  -0.1818
  C  C101  1  0.493300  0.082400  0.298100  1.0  0.0217
  C  C102  1  0.495800  0.122500  0.254700  1.0  -0.151
  C  C103  1  0.508300  0.199600  0.288500  1.0  0.0413
  C  C104  1  0.519600  0.238700  0.366100  1.0  -0.1721
  C  C105  1  0.517500  0.198100  0.408200  1.0  0.0226
  C  C106  1  0.500100  0.075200  0.421700  1.0  0.7147
  C  C107  1  0.491500  0.082400  0.174700  1.0  0.7234
  C  C108  1  0.533400  0.322500  0.400700  1.0  0.7131
  C  C109  1  0.255900  0.880600  0.383500  1.0  -0.1807
  C  C110  1  0.215700  0.917600  0.410900  1.0  0.0211
  C  C111  1  0.132200  0.877500  0.373300  1.0  -0.15
  C  C112  1  0.088900  0.800400  0.308700  1.0  0.041
  C  C113  1  0.127400  0.761300  0.280900  1.0  -0.1711
  C  C114  1  0.210100  0.801900  0.319400  1.0  0.022
  C  C115  1  0.346500  0.924800  0.424900  1.0  0.7135
  C  C116  1  0.092300  0.917600  0.409100  1.0  0.7217
  C  C117  1  0.078200  0.677500  0.210900  1.0  0.7129
  C  C118  1  0.744100  0.127600  0.624700  1.0  -0.1811
  C  C119  1  0.784300  0.195200  0.701900  1.0  0.0204
  C  C120  1  0.867800  0.241100  0.745300  1.0  -0.1519
  C  C121  1  0.911100  0.219800  0.711500  1.0  0.0426
  C  C122  1  0.872600  0.153500  0.633900  1.0  -0.1721
  C  C123  1  0.789900  0.109300  0.591800  1.0  0.0228
  C  C124  1  0.653500  0.078400  0.578300  1.0  0.7117
  C  C125  1  0.907700  0.316800  0.825300  1.0  0.7301
  C  C126  1  0.921800  0.132700  0.599300  1.0  0.7113
  C  C127  1  0.624700  0.744100  0.127600  1.0  -0.1804
  C  C128  1  0.701900  0.784300  0.195200  1.0  0.0218
  C  C129  1  0.745300  0.867800  0.241100  1.0  -0.1493
  C  C130  1  0.711500  0.911100  0.219800  1.0  0.0426
  C  C131  1  0.633900  0.872600  0.153500  1.0  -0.1726
  C  C132  1  0.591800  0.789900  0.109300  1.0  0.0225
  C  C133  1  0.578300  0.653500  0.078400  1.0  0.7144
  C  C134  1  0.825300  0.907700  0.316800  1.0  0.7299
  C  C135  1  0.599300  0.921800  0.132700  1.0  0.7092
  C  C136  1  0.383500  0.255900  0.880600  1.0  -0.18
  C  C137  1  0.410900  0.215700  0.917600  1.0  0.0214
  C  C138  1  0.373300  0.132200  0.877500  1.0  -0.1508
  C  C139  1  0.308700  0.088900  0.800400  1.0  0.0415
  C  C140  1  0.280900  0.127400  0.761300  1.0  -0.1736
  C  C141  1  0.319400  0.210100  0.801900  1.0  0.0227
  C  C142  1  0.424900  0.346500  0.924800  1.0  0.7135
  C  C143  1  0.409100  0.092300  0.917600  1.0  0.7217
  C  C144  1  0.210900  0.078200  0.677500  1.0  0.7123
  C  C145  1  0.375300  0.502900  0.119400  1.0  -0.1824
  C  C146  1  0.298100  0.493300  0.082400  1.0  0.0221
  C  C147  1  0.254700  0.495800  0.122500  1.0  -0.1495
  C  C148  1  0.288500  0.508300  0.199600  1.0  0.0389
  C  C149  1  0.366100  0.519600  0.238700  1.0  -0.1686
  C  C150  1  0.408200  0.517500  0.198100  1.0  0.023
  C  C151  1  0.421700  0.500100  0.075200  1.0  0.7136
  C  C152  1  0.174700  0.491500  0.082400  1.0  0.7243
  C  C153  1  0.400700  0.533400  0.322500  1.0  0.7135
  C  C154  1  0.616500  0.497100  0.872400  1.0  -0.1818
  C  C155  1  0.589100  0.506700  0.804800  1.0  0.0197
  C  C156  1  0.626700  0.504200  0.758900  1.0  -0.1503
  C  C157  1  0.691300  0.491700  0.780200  1.0  0.0407
  C  C158  1  0.719100  0.480400  0.846500  1.0  -0.1714
  C  C159  1  0.680600  0.482500  0.890700  1.0  0.0229
  C  C160  1  0.575100  0.499900  0.921600  1.0  0.7144
  C  C161  1  0.590900  0.508500  0.683200  1.0  0.73
  C  C162  1  0.789100  0.466600  0.867300  1.0  0.7112
  O  O163  1  0.994210  0.485350  0.383060  1.0  -0.5892
  O  O164  1  0.888830  0.397740  0.378490  1.0  -0.5795
  O  O165  1  0.988840  0.462600  0.135040  1.0  -0.5784
  O  O166  1  0.874570  0.378700  0.017070  1.0  -0.5959
  O  O167  1  0.640300  0.177200  0.005900  1.0  -0.3958
  O  O168  1  0.645600  0.193700  0.119700  1.0  -0.589
  O  O169  1  0.102290  0.611150  0.616940  1.0  -0.5889
  O  O170  1  0.019250  0.510340  0.621510  1.0  -0.5799
  O  O171  1  0.327560  0.853800  0.864960  1.0  -0.5775
  O  O172  1  0.361630  0.857500  0.982930  1.0  -0.5997
  O  O173  1  0.171300  0.634400  0.994100  1.0  -0.3902
  O  O174  1  0.074000  0.525900  0.880300  1.0  -0.5886
  O  O175  1  0.897710  0.514650  0.508860  1.0  -0.5891
  O  O176  1  0.980750  0.602260  0.491090  1.0  -0.5788
  O  O177  1  0.672440  0.537400  0.526240  1.0  -0.5768
  O  O178  1  0.638370  0.621300  0.495870  1.0  -0.5938
  O  O179  1  0.828700  0.822800  0.463100  1.0  -0.4293
  O  O180  1  0.926000  0.806300  0.451900  1.0  -0.5895
  O  O181  1  0.005790  0.388850  0.491140  1.0  -0.5887
  O  O182  1  0.111170  0.489660  0.508910  1.0  -0.5802
  O  O183  1  0.011160  0.146200  0.473760  1.0  -0.5775
  O  O184  1  0.125430  0.142500  0.504130  1.0  -0.5955
  O  O185  1  0.359700  0.365600  0.536900  1.0  -0.4256
  O  O186  1  0.354400  0.474100  0.548100  1.0  -0.5907
  O  O187  1  0.508860  0.897710  0.514650  1.0  -0.5884
  O  O188  1  0.491090  0.980750  0.602260  1.0  -0.5797
  O  O189  1  0.526240  0.672440  0.537400  1.0  -0.576
  O  O190  1  0.495870  0.638370  0.621300  1.0  -0.5951
  O  O191  1  0.463100  0.828700  0.822800  1.0  -0.4213
  O  O192  1  0.451900  0.926000  0.806300  1.0  -0.5872
  O  O193  1  0.491140  0.005790  0.388850  1.0  -0.5886
  O  O194  1  0.508910  0.111170  0.489660  1.0  -0.5801
  O  O195  1  0.473760  0.011160  0.146200  1.0  -0.5785
  O  O196  1  0.504130  0.125430  0.142500  1.0  -0.5968
  O  O197  1  0.536900  0.359700  0.365600  1.0  -0.4225
  O  O198  1  0.548100  0.354400  0.474100  1.0  -0.5861
  O  O199  1  0.383060  0.994210  0.485350  1.0  -0.5891
  O  O200  1  0.378490  0.888830  0.397740  1.0  -0.5786
  O  O201  1  0.135040  0.988840  0.462600  1.0  -0.5783
  O  O202  1  0.017070  0.874570  0.378700  1.0  -0.5959
  O  O203  1  0.005900  0.640300  0.177200  1.0  -0.3981
  O  O204  1  0.119700  0.645600  0.193700  1.0  -0.5887
  O  O205  1  0.616940  0.102290  0.611150  1.0  -0.5892
  O  O206  1  0.621510  0.019250  0.510340  1.0  -0.5791
  O  O207  1  0.864960  0.327560  0.853800  1.0  -0.5755
  O  O208  1  0.982930  0.361630  0.857500  1.0  -0.5982
  O  O209  1  0.994100  0.171300  0.634400  1.0  -0.3919
  O  O210  1  0.880300  0.074000  0.525900  1.0  -0.5887
  O  O211  1  0.611150  0.616940  0.102290  1.0  -0.5882
  O  O212  1  0.510340  0.621510  0.019250  1.0  -0.5788
  O  O213  1  0.853800  0.864960  0.327560  1.0  -0.5782
  O  O214  1  0.857500  0.982930  0.361630  1.0  -0.5999
  O  O215  1  0.634400  0.994100  0.171300  1.0  -0.3897
  O  O216  1  0.525900  0.880300  0.074000  1.0  -0.5858
  O  O217  1  0.485350  0.383060  0.994210  1.0  -0.5882
  O  O218  1  0.397740  0.378490  0.888830  1.0  -0.5788
  O  O219  1  0.462600  0.135040  0.988840  1.0  -0.5774
  O  O220  1  0.378700  0.017070  0.874570  1.0  -0.5963
  O  O221  1  0.177200  0.005900  0.640300  1.0  -0.3934
  O  O222  1  0.193700  0.119700  0.645600  1.0  -0.5886
  O  O223  1  0.388850  0.491140  0.005790  1.0  -0.5874
  O  O224  1  0.489660  0.508910  0.111170  1.0  -0.5784
  O  O225  1  0.146200  0.473760  0.011160  1.0  -0.5786
  O  O226  1  0.142500  0.504130  0.125430  1.0  -0.5965
  O  O227  1  0.365600  0.536900  0.359700  1.0  -0.424
  O  O228  1  0.474100  0.548100  0.354400  1.0  -0.5889
  O  O229  1  0.514650  0.508860  0.897710  1.0  -0.5878
  O  O230  1  0.602260  0.491090  0.980750  1.0  -0.5786
  O  O231  1  0.537400  0.526240  0.672440  1.0  -0.5775
  O  O232  1  0.621300  0.495870  0.638370  1.0  -0.594
  O  O233  1  0.822800  0.463100  0.828700  1.0  -0.4208
  O  O234  1  0.806300  0.451900  0.926000  1.0  -0.5892
  O  O235  1  0.000000  0.508260  0.000000  1.0  -0.8435
  O  O236  1  0.508260  0.000000  0.000000  1.0  -0.844
  O  O237  1  0.491740  0.491740  0.491740  1.0  -0.8436
  O  O238  1  0.000000  0.000000  0.508260  1.0  -0.8426
