# generated using pymatgen
data_ZnH6C7O4
_symmetry_space_group_name_H-M   'P 1'
_cell_length_a   10.16100000
_cell_length_b   13.01900000
_cell_length_c   18.70500000
_cell_angle_alpha   90.00000000
_cell_angle_beta   90.00000000
_cell_angle_gamma   98.67000000
_symmetry_Int_Tables_number   1
_chemical_formula_structural   ZnH6C7O4
_chemical_formula_sum   'Zn8 H48 C56 O32'
_cell_volume   2446.13552160
_cell_formula_units_Z   8
loop_
 _symmetry_equiv_pos_site_id
 _symmetry_equiv_pos_as_xyz
  1  'x, y, z'
loop_
 _atom_site_type_symbol
 _atom_site_label
 _atom_site_symmetry_multiplicity
 _atom_site_fract_x
 _atom_site_fract_y
 _atom_site_fract_z
 _atom_site_occupancy
 _atom_site_charge
  Zn  Zn1  1  0.819720  0.145100  0.638820  1.0  1.015
  Zn  Zn2  1  0.647190  0.326640  0.575850  1.0  1.137
  Zn  Zn3  1  0.680280  0.354900  0.138820  1.0  1.0127
  Zn  Zn4  1  0.852810  0.173360  0.075850  1.0  1.1348
  Zn  Zn5  1  0.180280  0.854900  0.361180  1.0  1.0128
  Zn  Zn6  1  0.352810  0.673360  0.424150  1.0  1.1355
  Zn  Zn7  1  0.319720  0.645100  0.861180  1.0  1.0148
  Zn  Zn8  1  0.147190  0.826640  0.924150  1.0  1.1375
  H  H9  1  0.288300  0.137900  0.687600  1.0  0.1001
  H  H10  1  0.281900  0.136600  0.602000  1.0  0.0998
  H  H11  1  0.157300  0.992900  0.758700  1.0  0.0993
  H  H12  1  0.068100  0.898700  0.717900  1.0  0.1022
  H  H13  1  0.179200  0.767300  0.649500  1.0  0.1004
  H  H14  1  0.338500  0.779800  0.645800  1.0  0.1051
  H  H15  1  0.390500  0.005100  0.531900  1.0  0.0985
  H  H16  1  0.466800  0.924200  0.573900  1.0  0.0985
  H  H17  1  0.478500  0.928800  0.709000  1.0  0.11
  H  H18  1  0.408600  0.011400  0.753000  1.0  0.1017
  H  H19  1  0.057200  0.894800  0.584000  1.0  0.1036
  H  H20  1  0.138900  0.986900  0.537700  1.0  0.1112
  H  H21  1  0.211700  0.362100  0.187600  1.0  0.0992
  H  H22  1  0.218100  0.363400  0.102000  1.0  0.0994
  H  H23  1  0.342700  0.507100  0.258700  1.0  0.0988
  H  H24  1  0.431900  0.601300  0.217900  1.0  0.1005
  H  H25  1  0.320800  0.732700  0.149500  1.0  0.1006
  H  H26  1  0.161500  0.720200  0.145800  1.0  0.106
  H  H27  1  0.109500  0.494900  0.031900  1.0  0.0982
  H  H28  1  0.033200  0.575800  0.073900  1.0  0.0998
  H  H29  1  0.021500  0.571200  0.209000  1.0  0.1107
  H  H30  1  0.091400  0.488600  0.253000  1.0  0.1029
  H  H31  1  0.442800  0.605200  0.084000  1.0  0.1033
  H  H32  1  0.361100  0.513100  0.037700  1.0  0.1105
  H  H33  1  0.711700  0.862100  0.312400  1.0  0.0981
  H  H34  1  0.718100  0.863400  0.398000  1.0  0.0991
  H  H35  1  0.842700  0.007100  0.241300  1.0  0.0983
  H  H36  1  0.931900  0.101300  0.282100  1.0  0.1016
  H  H37  1  0.820800  0.232700  0.350500  1.0  0.1007
  H  H38  1  0.661500  0.220200  0.354200  1.0  0.1058
  H  H39  1  0.609500  0.994900  0.468100  1.0  0.099
  H  H40  1  0.533200  0.075800  0.426100  1.0  0.0997
  H  H41  1  0.521500  0.071200  0.291000  1.0  0.1097
  H  H42  1  0.591400  0.988600  0.247000  1.0  0.1017
  H  H43  1  0.942800  0.105200  0.416000  1.0  0.1029
  H  H44  1  0.861100  0.013100  0.462300  1.0  0.1099
  H  H45  1  0.788300  0.637900  0.812400  1.0  0.1003
  H  H46  1  0.781900  0.636600  0.898000  1.0  0.0994
  H  H47  1  0.657300  0.492900  0.741300  1.0  0.0984
  H  H48  1  0.568100  0.398700  0.782100  1.0  0.1014
  H  H49  1  0.679200  0.267300  0.850500  1.0  0.1007
  H  H50  1  0.838500  0.279800  0.854200  1.0  0.1046
  H  H51  1  0.890500  0.505100  0.968100  1.0  0.0983
  H  H52  1  0.966800  0.424200  0.926100  1.0  0.0986
  H  H53  1  0.978500  0.428800  0.791000  1.0  0.1106
  H  H54  1  0.908600  0.511400  0.747000  1.0  0.103
  H  H55  1  0.557200  0.394800  0.916000  1.0  0.1037
  H  H56  1  0.638900  0.486900  0.962300  1.0  0.1098
  C  C57  1  0.532800  0.107300  0.636400  1.0  0.6945
  C  C58  1  0.032000  0.074000  0.648000  1.0  0.6225
  C  C59  1  0.276700  0.825600  0.782000  1.0  0.7164
  C  C60  1  0.259200  0.816100  0.513600  1.0  0.6879
  C  C61  1  0.402000  0.034600  0.642600  1.0  0.0128
  C  C62  1  0.152700  0.016100  0.648000  1.0  0.035
  C  C63  1  0.271600  0.888700  0.713400  1.0  0.0077
  C  C64  1  0.260800  0.885700  0.579500  1.0  0.0322
  C  C65  1  0.281900  0.092300  0.645000  1.0  -0.2204
  C  C66  1  0.152000  0.948400  0.715600  1.0  -0.2097
  C  C67  1  0.261700  0.818400  0.647300  1.0  -0.2137
  C  C68  1  0.389800  0.962600  0.575800  1.0  -0.2191
  C  C69  1  0.401100  0.966700  0.710000  1.0  -0.2031
  C  C70  1  0.140900  0.944700  0.581600  1.0  -0.223
  C  C71  1  0.967200  0.392700  0.136400  1.0  0.6931
  C  C72  1  0.468000  0.426000  0.148000  1.0  0.6203
  C  C73  1  0.223300  0.674400  0.282000  1.0  0.7152
  C  C74  1  0.240800  0.683900  0.013600  1.0  0.6891
  C  C75  1  0.098000  0.465400  0.142600  1.0  0.0126
  C  C76  1  0.347300  0.483900  0.148000  1.0  0.0346
  C  C77  1  0.228400  0.611300  0.213400  1.0  0.0082
  C  C78  1  0.239200  0.614300  0.079500  1.0  0.0319
  C  C79  1  0.218100  0.407700  0.145000  1.0  -0.2207
  C  C80  1  0.348000  0.551600  0.215600  1.0  -0.2111
  C  C81  1  0.238300  0.681600  0.147300  1.0  -0.2145
  C  C82  1  0.110200  0.537400  0.075800  1.0  -0.2226
  C  C83  1  0.098900  0.533300  0.210000  1.0  -0.2022
  C  C84  1  0.359100  0.555300  0.081600  1.0  -0.2237
  C  C85  1  0.467200  0.892700  0.363600  1.0  0.693
  C  C86  1  0.968000  0.926000  0.352000  1.0  0.6209
  C  C87  1  0.723300  0.174400  0.218000  1.0  0.7177
  C  C88  1  0.740800  0.183900  0.486400  1.0  0.6888
  C  C89  1  0.598000  0.965400  0.357400  1.0  0.0113
  C  C90  1  0.847300  0.983900  0.352000  1.0  0.0341
  C  C91  1  0.728400  0.111300  0.286600  1.0  0.0069
  C  C92  1  0.739200  0.114300  0.420500  1.0  0.0333
  C  C93  1  0.718100  0.907700  0.355000  1.0  -0.2206
  C  C94  1  0.848000  0.051600  0.284400  1.0  -0.2112
  C  C95  1  0.738300  0.181600  0.352700  1.0  -0.2142
  C  C96  1  0.610200  0.037400  0.424200  1.0  -0.2199
  C  C97  1  0.598900  0.033300  0.290000  1.0  -0.2033
  C  C98  1  0.859100  0.055300  0.418400  1.0  -0.2246
  C  C99  1  0.032800  0.607300  0.863600  1.0  0.6945
  C  C100  1  0.532000  0.574000  0.852000  1.0  0.6229
  C  C101  1  0.776700  0.325600  0.718000  1.0  0.7164
  C  C102  1  0.759200  0.316100  0.986400  1.0  0.6882
  C  C103  1  0.902000  0.534600  0.857400  1.0  0.0116
  C  C104  1  0.652700  0.516100  0.852000  1.0  0.0344
  C  C105  1  0.771600  0.388700  0.786600  1.0  0.0064
  C  C106  1  0.760800  0.385700  0.920500  1.0  0.0327
  C  C107  1  0.781900  0.592300  0.855000  1.0  -0.2205
  C  C108  1  0.652000  0.448400  0.784400  1.0  -0.2114
  C  C109  1  0.761700  0.318400  0.852700  1.0  -0.2134
  C  C110  1  0.889800  0.462600  0.924200  1.0  -0.2173
  C  C111  1  0.901100  0.466700  0.790000  1.0  -0.2032
  C  C112  1  0.640900  0.444700  0.918400  1.0  -0.2235
  O  O113  1  0.637100  0.065300  0.638900  1.0  -0.5852
  O  O114  1  0.531700  0.202800  0.628500  1.0  -0.6495
  O  O115  1  0.307800  0.736500  0.778600  1.0  -0.5629
  O  O116  1  0.256900  0.870700  0.840000  1.0  -0.6791
  O  O117  1  0.046700  0.170200  0.636700  1.0  -0.5879
  O  O118  1  0.919000  0.023800  0.657500  1.0  -0.5971
  O  O119  1  0.175200  0.821000  0.465000  1.0  -0.6155
  O  O120  1  0.348400  0.758500  0.510200  1.0  -0.6115
  O  O121  1  0.862900  0.434700  0.138900  1.0  -0.5847
  O  O122  1  0.968300  0.297200  0.128500  1.0  -0.6552
  O  O123  1  0.192200  0.763500  0.278600  1.0  -0.562
  O  O124  1  0.243100  0.629300  0.340000  1.0  -0.6794
  O  O125  1  0.453300  0.329800  0.136700  1.0  -0.5916
  O  O126  1  0.581000  0.476200  0.157500  1.0  -0.5978
  O  O127  1  0.324800  0.679000  0.965000  1.0  -0.6166
  O  O128  1  0.151600  0.741500  0.010200  1.0  -0.6116
  O  O129  1  0.362900  0.934700  0.361100  1.0  -0.5848
  O  O130  1  0.468300  0.797200  0.371500  1.0  -0.6553
  O  O131  1  0.692200  0.263500  0.221400  1.0  -0.5624
  O  O132  1  0.743100  0.129300  0.160000  1.0  -0.6783
  O  O133  1  0.953300  0.829800  0.363300  1.0  -0.5909
  O  O134  1  0.081000  0.976200  0.342500  1.0  -0.5974
  O  O135  1  0.824800  0.179000  0.535000  1.0  -0.6166
  O  O136  1  0.651600  0.241500  0.489800  1.0  -0.6119
  O  O137  1  0.137100  0.565300  0.861100  1.0  -0.5853
  O  O138  1  0.031700  0.702800  0.871500  1.0  -0.6496
  O  O139  1  0.807800  0.236500  0.721400  1.0  -0.563
  O  O140  1  0.756900  0.370700  0.660000  1.0  -0.6805
  O  O141  1  0.546700  0.670200  0.863300  1.0  -0.5875
  O  O142  1  0.419000  0.523800  0.842500  1.0  -0.597
  O  O143  1  0.675200  0.321000  0.035000  1.0  -0.6159
  O  O144  1  0.848400  0.258500  0.989800  1.0  -0.6116
