# generated using pymatgen
data_Mn5NiH20C52N4(ClO9)2
_symmetry_space_group_name_H-M   'P 1'
_cell_length_a   18.77720000
_cell_length_b   18.77720000
_cell_length_c   19.74400000
_cell_angle_alpha   112.88100000
_cell_angle_beta   112.88100000
_cell_angle_gamma   100.50500000
_symmetry_Int_Tables_number   1
_chemical_formula_structural   Mn5NiH20C52N4(ClO9)2
_chemical_formula_sum   'Mn10 Ni2 H40 C104 N8 Cl4 O36'
_cell_volume   5433.78793950
_cell_formula_units_Z   2
loop_
 _symmetry_equiv_pos_site_id
 _symmetry_equiv_pos_as_xyz
  1  'x, y, z'
loop_
 _atom_site_type_symbol
 _atom_site_label
 _atom_site_symmetry_multiplicity
 _atom_site_fract_x
 _atom_site_fract_y
 _atom_site_fract_z
 _atom_site_occupancy
 _atom_site_charge
  Mn  Mn1  1  0.315270  0.315270  0.302460  1.0  1.1112
  Mn  Mn2  1  0.987190  0.987190  0.302460  1.0  1.1114
  Mn  Mn3  1  0.684730  0.684730  0.697540  1.0  1.11
  Mn  Mn4  1  0.012810  0.012810  0.697540  1.0  1.108
  Mn  Mn5  1  0.500000  0.500000  0.500000  1.0  1.2284
  Mn  Mn6  1  0.000000  0.000000  0.500000  1.0  1.2284
  Mn  Mn7  1  0.030290  0.585890  0.000000  1.0  1.1125
  Mn  Mn8  1  0.969710  0.414110  0.000000  1.0  1.1145
  Mn  Mn9  1  0.414110  0.969710  0.000000  1.0  1.115
  Mn  Mn10  1  0.585890  0.030290  0.000000  1.0  1.1144
  Ni  Ni11  1  0.500000  0.000000  0.500000  1.0  0.4896
  Ni  Ni12  1  0.000000  0.500000  0.500000  1.0  0.4896
  H  H13  1  0.294100  0.738100  0.441400  1.0  0.1214
  H  H14  1  0.446700  0.719100  0.265400  1.0  0.1189
  H  H15  1  0.426400  0.663400  0.409800  1.0  0.1148
  H  H16  1  0.225900  0.464700  0.204800  1.0  0.1035
  H  H17  1  0.260200  0.690400  0.231800  1.0  0.1135
  H  H18  1  0.147300  0.703300  0.441400  1.0  0.1214
  H  H19  1  0.818700  0.546300  0.265400  1.0  0.1211
  H  H20  1  0.983400  0.746400  0.409800  1.0  0.1158
  H  H21  1  0.978900  0.740100  0.204800  1.0  0.1022
  H  H22  1  0.971600  0.541400  0.231800  1.0  0.1136
  H  H23  1  0.261900  0.705900  0.558600  1.0  0.1197
  H  H24  1  0.280900  0.553300  0.734600  1.0  0.1188
  H  H25  1  0.336600  0.573600  0.590200  1.0  0.1153
  H  H26  1  0.535300  0.774100  0.795200  1.0  0.1033
  H  H27  1  0.309600  0.739800  0.768200  1.0  0.1144
  H  H28  1  0.296700  0.852700  0.558600  1.0  0.1219
  H  H29  1  0.453700  0.181300  0.734600  1.0  0.1212
  H  H30  1  0.253600  0.016600  0.590200  1.0  0.1152
  H  H31  1  0.259900  0.021100  0.795200  1.0  0.1024
  H  H32  1  0.458600  0.028400  0.768200  1.0  0.1144
  H  H33  1  0.705900  0.261900  0.558600  1.0  0.1207
  H  H34  1  0.553300  0.280900  0.734600  1.0  0.118
  H  H35  1  0.573600  0.336600  0.590200  1.0  0.1154
  H  H36  1  0.774100  0.535300  0.795200  1.0  0.103
  H  H37  1  0.739800  0.309600  0.768200  1.0  0.1134
  H  H38  1  0.852700  0.296700  0.558600  1.0  0.1212
  H  H39  1  0.181300  0.453700  0.734600  1.0  0.1211
  H  H40  1  0.016600  0.253600  0.590200  1.0  0.1158
  H  H41  1  0.021100  0.259900  0.795200  1.0  0.1022
  H  H42  1  0.028400  0.458600  0.768200  1.0  0.1131
  H  H43  1  0.738100  0.294100  0.441400  1.0  0.1202
  H  H44  1  0.719100  0.446700  0.265400  1.0  0.1198
  H  H45  1  0.663400  0.426400  0.409800  1.0  0.1156
  H  H46  1  0.464700  0.225900  0.204800  1.0  0.1027
  H  H47  1  0.690400  0.260200  0.231800  1.0  0.1137
  H  H48  1  0.703300  0.147300  0.441400  1.0  0.1217
  H  H49  1  0.546300  0.818700  0.265400  1.0  0.1207
  H  H50  1  0.746400  0.983400  0.409800  1.0  0.1151
  H  H51  1  0.740100  0.978900  0.204800  1.0  0.1028
  H  H52  1  0.541400  0.971600  0.231800  1.0  0.116
  C  C53  1  0.325900  0.795100  0.468000  1.0  -0.1678
  C  C54  1  0.382600  0.832400  0.448400  1.0  0.2082
  C  C55  1  0.397530  0.786330  0.384060  1.0  -0.1042
  C  C56  1  0.451400  0.823600  0.367200  1.0  0.2171
  C  C57  1  0.469700  0.777100  0.301000  1.0  -0.1566
  C  C58  1  0.349000  0.692800  0.332000  1.0  0.0601
  C  C59  1  0.376100  0.640900  0.359000  1.0  -0.057
  C  C60  1  0.329000  0.554000  0.311200  1.0  -0.162
  C  C61  1  0.257400  0.522400  0.236600  1.0  0.0174
  C  C62  1  0.229200  0.572200  0.206200  1.0  -0.1396
  C  C63  1  0.276740  0.656340  0.253280  1.0  -0.0564
  C  C64  1  0.146300  0.535300  0.123800  1.0  0.7321
  C  C65  1  0.361200  0.499200  0.342800  1.0  0.7451
  C  C66  1  0.142100  0.672900  0.468000  1.0  -0.1638
  C  C67  1  0.065800  0.616000  0.448400  1.0  0.2071
  C  C68  1  0.986530  0.597730  0.384060  1.0  -0.1059
  C  C69  1  0.915800  0.543600  0.367200  1.0  0.2165
  C  C70  1  0.831300  0.523900  0.301000  1.0  -0.1545
  C  C71  1  0.983000  0.639200  0.332000  1.0  0.0574
  C  C72  1  0.982900  0.718100  0.359000  1.0  -0.0606
  C  C73  1  0.982200  0.757200  0.311200  1.0  -0.1586
  C  C74  1  0.979200  0.714200  0.236600  1.0  0.0165
  C  C75  1  0.977000  0.634000  0.206200  1.0  -0.1359
  C  C76  1  0.976540  0.596940  0.253280  1.0  -0.0594
  C  C77  1  0.977500  0.588500  0.123800  1.0  0.7149
  C  C78  1  0.981600  0.843600  0.342800  1.0  0.7447
  C  C79  1  0.204900  0.674100  0.532000  1.0  -0.1663
  C  C80  1  0.167600  0.617400  0.551600  1.0  0.2066
  C  C81  1  0.213670  0.602470  0.615940  1.0  -0.1063
  C  C82  1  0.176400  0.548600  0.632800  1.0  0.2184
  C  C83  1  0.222900  0.530300  0.699000  1.0  -0.1539
  C  C84  1  0.307200  0.651000  0.668000  1.0  0.0588
  C  C85  1  0.359100  0.623900  0.641000  1.0  -0.0578
  C  C86  1  0.446000  0.671000  0.688800  1.0  -0.1603
  C  C87  1  0.477600  0.742600  0.763400  1.0  0.0176
  C  C88  1  0.427800  0.770800  0.793800  1.0  -0.1426
  C  C89  1  0.343660  0.723260  0.746720  1.0  -0.0571
  C  C90  1  0.464700  0.853700  0.876200  1.0  0.733
  C  C91  1  0.500800  0.638800  0.657200  1.0  0.7454
  C  C92  1  0.327100  0.857900  0.532000  1.0  -0.1662
  C  C93  1  0.384000  0.934200  0.551600  1.0  0.2072
  C  C94  1  0.402270  0.013470  0.615940  1.0  -0.1047
  C  C95  1  0.456400  0.084200  0.632800  1.0  0.2186
  C  C96  1  0.476100  0.168700  0.699000  1.0  -0.1576
  C  C97  1  0.360800  0.017000  0.668000  1.0  0.0598
  C  C98  1  0.281900  0.017100  0.641000  1.0  -0.0586
  C  C99  1  0.242800  0.017800  0.688800  1.0  -0.1589
  C  C100  1  0.285800  0.020800  0.763400  1.0  0.0158
  C  C101  1  0.366000  0.023000  0.793800  1.0  -0.1341
  C  C102  1  0.403060  0.023460  0.746720  1.0  -0.0571
  C  C103  1  0.411500  0.022500  0.876200  1.0  0.7148
  C  C104  1  0.156400  0.018400  0.657200  1.0  0.7462
  C  C105  1  0.674100  0.204900  0.532000  1.0  -0.1671
  C  C106  1  0.617400  0.167600  0.551600  1.0  0.2078
  C  C107  1  0.602470  0.213670  0.615940  1.0  -0.1054
  C  C108  1  0.548600  0.176400  0.632800  1.0  0.2157
  C  C109  1  0.530300  0.222900  0.699000  1.0  -0.1578
  C  C110  1  0.651000  0.307200  0.668000  1.0  0.058
  C  C111  1  0.623900  0.359100  0.641000  1.0  -0.0586
  C  C112  1  0.671000  0.446000  0.688800  1.0  -0.1614
  C  C113  1  0.742600  0.477600  0.763400  1.0  0.0178
  C  C114  1  0.770800  0.427800  0.793800  1.0  -0.1389
  C  C115  1  0.723260  0.343660  0.746720  1.0  -0.056
  C  C116  1  0.853700  0.464700  0.876200  1.0  0.7324
  C  C117  1  0.638800  0.500800  0.657200  1.0  0.7448
  C  C118  1  0.857900  0.327100  0.532000  1.0  -0.164
  C  C119  1  0.934200  0.384000  0.551600  1.0  0.2084
  C  C120  1  0.013470  0.402270  0.615940  1.0  -0.104
  C  C121  1  0.084200  0.456400  0.632800  1.0  0.2167
  C  C122  1  0.168700  0.476100  0.699000  1.0  -0.1535
  C  C123  1  0.017000  0.360800  0.668000  1.0  0.059
  C  C124  1  0.017100  0.281900  0.641000  1.0  -0.059
  C  C125  1  0.017800  0.242800  0.688800  1.0  -0.1595
  C  C126  1  0.020800  0.285800  0.763400  1.0  0.0162
  C  C127  1  0.023000  0.366000  0.793800  1.0  -0.1369
  C  C128  1  0.023460  0.403060  0.746720  1.0  -0.0599
  C  C129  1  0.022500  0.411500  0.876200  1.0  0.7157
  C  C130  1  0.018400  0.156400  0.657200  1.0  0.7437
  C  C131  1  0.795100  0.325900  0.468000  1.0  -0.1669
  C  C132  1  0.832400  0.382600  0.448400  1.0  0.2074
  C  C133  1  0.786330  0.397530  0.384060  1.0  -0.1057
  C  C134  1  0.823600  0.451400  0.367200  1.0  0.2169
  C  C135  1  0.777100  0.469700  0.301000  1.0  -0.1544
  C  C136  1  0.692800  0.349000  0.332000  1.0  0.0592
  C  C137  1  0.640900  0.376100  0.359000  1.0  -0.058
  C  C138  1  0.554000  0.329000  0.311200  1.0  -0.1596
  C  C139  1  0.522400  0.257400  0.236600  1.0  0.0212
  C  C140  1  0.572200  0.229200  0.206200  1.0  -0.14
  C  C141  1  0.656340  0.276740  0.253280  1.0  -0.0569
  C  C142  1  0.535300  0.146300  0.123800  1.0  0.7337
  C  C143  1  0.499200  0.361200  0.342800  1.0  0.7465
  C  C144  1  0.672900  0.142100  0.468000  1.0  -0.1656
  C  C145  1  0.616000  0.065800  0.448400  1.0  0.2066
  C  C146  1  0.597730  0.986530  0.384060  1.0  -0.1059
  C  C147  1  0.543600  0.915800  0.367200  1.0  0.2183
  C  C148  1  0.523900  0.831300  0.301000  1.0  -0.1566
  C  C149  1  0.639200  0.983000  0.332000  1.0  0.0595
  C  C150  1  0.718100  0.982900  0.359000  1.0  -0.0572
  C  C151  1  0.757200  0.982200  0.311200  1.0  -0.1594
  C  C152  1  0.714200  0.979200  0.236600  1.0  0.0164
  C  C153  1  0.634000  0.977000  0.206200  1.0  -0.1351
  C  C154  1  0.596940  0.976540  0.253280  1.0  -0.0578
  C  C155  1  0.588500  0.977500  0.123800  1.0  0.7133
  C  C156  1  0.843600  0.981600  0.342800  1.0  0.7452
  N  N157  1  0.419000  0.919000  0.500000  1.0  -0.3623
  N  N158  1  0.081000  0.581000  0.500000  1.0  -0.3616
  N  N159  1  0.581000  0.081000  0.500000  1.0  -0.3616
  N  N160  1  0.919000  0.419000  0.500000  1.0  -0.3623
  N  N161  1  0.498400  0.906200  0.404600  1.0  -0.3369
  N  N162  1  0.906200  0.498400  0.404600  1.0  -0.3396
  N  N163  1  0.093800  0.501600  0.595400  1.0  -0.3364
  N  N164  1  0.501600  0.093800  0.595400  1.0  -0.3385
  Cl  Cl165  1  0.088570  0.706770  0.000000  1.0  -0.4832
  Cl  Cl166  1  0.911430  0.293230  0.000000  1.0  -0.4834
  Cl  Cl167  1  0.293230  0.911430  0.000000  1.0  -0.4825
  Cl  Cl168  1  0.706770  0.088570  0.000000  1.0  -0.4842
  O  O169  1  0.133030  0.583230  0.095060  1.0  -0.5883
  O  O170  1  0.096540  0.463340  0.093280  1.0  -0.5467
  O  O171  1  0.317300  0.423900  0.296600  1.0  -0.6318
  O  O172  1  0.427140  0.533420  0.412360  1.0  -0.5563
  O  O173  1  0.962030  0.511830  0.095060  1.0  -0.5752
  O  O174  1  0.996740  0.629940  0.093280  1.0  -0.5435
  O  O175  1  0.979300  0.872700  0.296600  1.0  -0.6299
  O  O176  1  0.985220  0.878940  0.412360  1.0  -0.5451
  O  O177  1  0.416770  0.866970  0.904940  1.0  -0.5871
  O  O178  1  0.536660  0.903460  0.906720  1.0  -0.548
  O  O179  1  0.576100  0.682700  0.703400  1.0  -0.6323
  O  O180  1  0.466580  0.572860  0.587640  1.0  -0.5554
  O  O181  1  0.488170  0.037970  0.904940  1.0  -0.5775
  O  O182  1  0.370060  0.003260  0.906720  1.0  -0.5438
  O  O183  1  0.127300  0.020700  0.703400  1.0  -0.6278
  O  O184  1  0.121060  0.014780  0.587640  1.0  -0.5467
  O  O185  1  0.866970  0.416770  0.904940  1.0  -0.5889
  O  O186  1  0.903460  0.536660  0.906720  1.0  -0.547
  O  O187  1  0.682700  0.576100  0.703400  1.0  -0.6308
  O  O188  1  0.572860  0.466580  0.587640  1.0  -0.5563
  O  O189  1  0.037970  0.488170  0.904940  1.0  -0.5769
  O  O190  1  0.003260  0.370060  0.906720  1.0  -0.5446
  O  O191  1  0.020700  0.127300  0.703400  1.0  -0.6281
  O  O192  1  0.014780  0.121060  0.587640  1.0  -0.5455
  O  O193  1  0.583230  0.133030  0.095060  1.0  -0.588
  O  O194  1  0.463340  0.096540  0.093280  1.0  -0.548
  O  O195  1  0.423900  0.317300  0.296600  1.0  -0.6328
  O  O196  1  0.533420  0.427140  0.412360  1.0  -0.5565
  O  O197  1  0.511830  0.962030  0.095060  1.0  -0.5769
  O  O198  1  0.629940  0.996740  0.093280  1.0  -0.5451
  O  O199  1  0.872700  0.979300  0.296600  1.0  -0.6307
  O  O200  1  0.878940  0.985220  0.412360  1.0  -0.5447
  O  O201  1  0.382700  0.382700  0.447400  1.0  -0.6832
  O  O202  1  0.064700  0.064700  0.447400  1.0  -0.6892
  O  O203  1  0.617300  0.617300  0.552600  1.0  -0.6818
  O  O204  1  0.935300  0.935300  0.552600  1.0  -0.6903
