# generated using pymatgen
data_MnCd5H20C52N4Cl3O16
_symmetry_space_group_name_H-M   'P 1'
_cell_length_a   18.94160000
_cell_length_b   18.94160000
_cell_length_c   19.97400000
_cell_angle_alpha   112.63800000
_cell_angle_beta   112.63800000
_cell_angle_gamma   100.85000000
_symmetry_Int_Tables_number   1
_chemical_formula_structural   MnCd5H20C52N4Cl3O16
_chemical_formula_sum   'Mn2 Cd10 H40 C104 N8 Cl6 O32'
_cell_volume   5608.47897459
_cell_formula_units_Z   2
loop_
 _symmetry_equiv_pos_site_id
 _symmetry_equiv_pos_as_xyz
  1  'x, y, z'
loop_
 _atom_site_type_symbol
 _atom_site_label
 _atom_site_symmetry_multiplicity
 _atom_site_fract_x
 _atom_site_fract_y
 _atom_site_fract_z
 _atom_site_occupancy
 _atom_site_charge
  Mn  Mn1  1  0.000000  0.500000  0.500000  1.0  0.6965
  Mn  Mn2  1  0.500000  0.000000  0.500000  1.0  0.7014
  Cd  Cd3  1  0.529720  0.086680  0.000000  1.0  1.0134
  Cd  Cd4  1  0.470280  0.913320  0.000000  1.0  1.0169
  Cd  Cd5  1  0.913320  0.470280  0.000000  1.0  1.0167
  Cd  Cd6  1  0.086680  0.529720  0.000000  1.0  1.0195
  Cd  Cd7  1  0.000000  0.000000  0.500000  1.0  1.0867
  Cd  Cd8  1  0.500000  0.500000  0.500000  1.0  1.0867
  Cd  Cd9  1  0.817010  0.817010  0.308020  1.0  0.8899
  Cd  Cd10  1  0.491010  0.491010  0.308020  1.0  0.907
  Cd  Cd11  1  0.182990  0.182990  0.691980  1.0  0.8904
  Cd  Cd12  1  0.508990  0.508990  0.691980  1.0  0.8967
  H  H13  1  0.945100  0.216500  0.268000  1.0  0.168
  H  H14  1  0.793100  0.238300  0.433000  1.0  0.1778
  H  H15  1  0.752500  0.183500  0.224400  1.0  0.123
  H  H16  1  0.721800  0.960400  0.207600  1.0  0.1221
  H  H17  1  0.924500  0.163300  0.404000  1.0  0.1244
  H  H18  1  0.322900  0.051500  0.268000  1.0  0.1671
  H  H19  1  0.639900  0.194700  0.433000  1.0  0.1782
  H  H20  1  0.471900  0.040900  0.224400  1.0  0.1252
  H  H21  1  0.485800  0.247200  0.207600  1.0  0.1195
  H  H22  1  0.479500  0.240700  0.404000  1.0  0.125
  H  H23  1  0.783500  0.054900  0.732000  1.0  0.1664
  H  H24  1  0.761700  0.206900  0.567000  1.0  0.1765
  H  H25  1  0.816500  0.247500  0.775600  1.0  0.1235
  H  H26  1  0.039600  0.278200  0.792400  1.0  0.1207
  H  H27  1  0.836700  0.075500  0.596000  1.0  0.1254
  H  H28  1  0.948500  0.677100  0.732000  1.0  0.1686
  H  H29  1  0.805300  0.360100  0.567000  1.0  0.1766
  H  H30  1  0.959100  0.528100  0.775600  1.0  0.1261
  H  H31  1  0.752800  0.514200  0.792400  1.0  0.1197
  H  H32  1  0.759300  0.520500  0.596000  1.0  0.124
  H  H33  1  0.054900  0.783500  0.732000  1.0  0.1676
  H  H34  1  0.206900  0.761700  0.567000  1.0  0.178
  H  H35  1  0.247500  0.816500  0.775600  1.0  0.124
  H  H36  1  0.278200  0.039600  0.792400  1.0  0.1203
  H  H37  1  0.075500  0.836700  0.596000  1.0  0.1237
  H  H38  1  0.677100  0.948500  0.732000  1.0  0.1677
  H  H39  1  0.360100  0.805300  0.567000  1.0  0.1757
  H  H40  1  0.528100  0.959100  0.775600  1.0  0.1263
  H  H41  1  0.514200  0.752800  0.792400  1.0  0.1199
  H  H42  1  0.520500  0.759300  0.596000  1.0  0.1255
  H  H43  1  0.216500  0.945100  0.268000  1.0  0.1662
  H  H44  1  0.238300  0.793100  0.433000  1.0  0.1767
  H  H45  1  0.183500  0.752500  0.224400  1.0  0.1234
  H  H46  1  0.960400  0.721800  0.207600  1.0  0.1194
  H  H47  1  0.163300  0.924500  0.404000  1.0  0.1242
  H  H48  1  0.051500  0.322900  0.268000  1.0  0.1681
  H  H49  1  0.194700  0.639900  0.433000  1.0  0.1779
  H  H50  1  0.040900  0.471900  0.224400  1.0  0.1271
  H  H51  1  0.247200  0.485800  0.207600  1.0  0.1206
  H  H52  1  0.240700  0.479500  0.404000  1.0  0.1246
  C  C53  1  0.966400  0.274000  0.301800  1.0  -0.1091
  C  C54  1  0.943600  0.321400  0.367800  1.0  0.0524
  C  C55  1  0.894500  0.286100  0.387200  1.0  -0.0273
  C  C56  1  0.888800  0.343200  0.456200  1.0  0.0334
  C  C57  1  0.826200  0.295000  0.464200  1.0  -0.0419
  C  C58  1  0.846200  0.187400  0.321200  1.0  -0.0018
  C  C59  1  0.771400  0.151000  0.246200  1.0  -0.0703
  C  C60  1  0.724700  0.065900  0.203600  1.0  -0.0743
  C  C61  1  0.752900  0.017300  0.236000  1.0  0.0483
  C  C62  1  0.827800  0.053800  0.311200  1.0  -0.1275
  C  C63  1  0.874400  0.138800  0.353600  1.0  -0.0258
  C  C64  1  0.648300  0.050700  0.125400  1.0  0.6428
  C  C65  1  0.861600  0.002600  0.349200  1.0  0.7606
  C  C66  1  0.335400  0.027800  0.301800  1.0  -0.113
  C  C67  1  0.424200  0.046400  0.367800  1.0  0.05
  C  C68  1  0.492700  0.101100  0.387200  1.0  -0.0212
  C  C69  1  0.567400  0.113000  0.456200  1.0  0.0292
  C  C70  1  0.638000  0.169200  0.464200  1.0  -0.0407
  C  C71  1  0.475000  0.133800  0.321200  1.0  -0.0038
  C  C72  1  0.474800  0.095200  0.246200  1.0  -0.0739
  C  C73  1  0.478900  0.137700  0.203600  1.0  -0.0683
  C  C74  1  0.483100  0.218700  0.236000  1.0  0.0436
  C  C75  1  0.483400  0.257400  0.311200  1.0  -0.1267
  C  C76  1  0.479200  0.214800  0.353600  1.0  -0.0271
  C  C77  1  0.477100  0.074700  0.125400  1.0  0.6419
  C  C78  1  0.487600  0.346600  0.349200  1.0  0.7593
  C  C79  1  0.726000  0.033600  0.698200  1.0  -0.107
  C  C80  1  0.678600  0.056400  0.632200  1.0  0.0521
  C  C81  1  0.713900  0.105500  0.612800  1.0  -0.0273
  C  C82  1  0.656800  0.111200  0.543800  1.0  0.0334
  C  C83  1  0.705000  0.173800  0.535800  1.0  -0.0413
  C  C84  1  0.812600  0.153800  0.678800  1.0  -0.0018
  C  C85  1  0.849000  0.228600  0.753800  1.0  -0.0704
  C  C86  1  0.934100  0.275300  0.796400  1.0  -0.075
  C  C87  1  0.982700  0.247100  0.764000  1.0  0.0465
  C  C88  1  0.946200  0.172200  0.688800  1.0  -0.1256
  C  C89  1  0.861200  0.125600  0.646400  1.0  -0.0275
  C  C90  1  0.949300  0.351700  0.874600  1.0  0.6441
  C  C91  1  0.997400  0.138400  0.650800  1.0  0.7594
  C  C92  1  0.972200  0.664600  0.698200  1.0  -0.1163
  C  C93  1  0.953600  0.575800  0.632200  1.0  0.0496
  C  C94  1  0.898900  0.507300  0.612800  1.0  -0.0226
  C  C95  1  0.887000  0.432600  0.543800  1.0  0.0306
  C  C96  1  0.830800  0.362000  0.535800  1.0  -0.0441
  C  C97  1  0.866200  0.525000  0.678800  1.0  -0.0021
  C  C98  1  0.904800  0.525200  0.753800  1.0  -0.0733
  C  C99  1  0.862300  0.521100  0.796400  1.0  -0.0681
  C  C100  1  0.781300  0.516900  0.764000  1.0  0.0428
  C  C101  1  0.742600  0.516600  0.688800  1.0  -0.1251
  C  C102  1  0.785200  0.520800  0.646400  1.0  -0.0242
  C  C103  1  0.925300  0.522900  0.874600  1.0  0.6393
  C  C104  1  0.653400  0.512400  0.650800  1.0  0.7597
  C  C105  1  0.033600  0.726000  0.698200  1.0  -0.1124
  C  C106  1  0.056400  0.678600  0.632200  1.0  0.0417
  C  C107  1  0.105500  0.713900  0.612800  1.0  -0.021
  C  C108  1  0.111200  0.656800  0.543800  1.0  0.0295
  C  C109  1  0.173800  0.705000  0.535800  1.0  -0.0446
  C  C110  1  0.153800  0.812600  0.678800  1.0  -0.0037
  C  C111  1  0.228600  0.849000  0.753800  1.0  -0.0723
  C  C112  1  0.275300  0.934100  0.796400  1.0  -0.0701
  C  C113  1  0.247100  0.982700  0.764000  1.0  0.048
  C  C114  1  0.172200  0.946200  0.688800  1.0  -0.1271
  C  C115  1  0.125600  0.861200  0.646400  1.0  -0.0256
  C  C116  1  0.351700  0.949300  0.874600  1.0  0.643
  C  C117  1  0.138400  0.997400  0.650800  1.0  0.7598
  C  C118  1  0.664600  0.972200  0.698200  1.0  -0.1071
  C  C119  1  0.575800  0.953600  0.632200  1.0  0.0493
  C  C120  1  0.507300  0.898900  0.612800  1.0  -0.0273
  C  C121  1  0.432600  0.887000  0.543800  1.0  0.0335
  C  C122  1  0.362000  0.830800  0.535800  1.0  -0.0405
  C  C123  1  0.525000  0.866200  0.678800  1.0  -0.0024
  C  C124  1  0.525200  0.904800  0.753800  1.0  -0.0739
  C  C125  1  0.521100  0.862300  0.796400  1.0  -0.0689
  C  C126  1  0.516900  0.781300  0.764000  1.0  0.0443
  C  C127  1  0.516600  0.742600  0.688800  1.0  -0.1263
  C  C128  1  0.520800  0.785200  0.646400  1.0  -0.0287
  C  C129  1  0.522900  0.925300  0.874600  1.0  0.6412
  C  C130  1  0.512400  0.653400  0.650800  1.0  0.7606
  C  C131  1  0.274000  0.966400  0.301800  1.0  -0.1171
  C  C132  1  0.321400  0.943600  0.367800  1.0  0.0427
  C  C133  1  0.286100  0.894500  0.387200  1.0  -0.0215
  C  C134  1  0.343200  0.888800  0.456200  1.0  0.0307
  C  C135  1  0.295000  0.826200  0.464200  1.0  -0.0435
  C  C136  1  0.187400  0.846200  0.321200  1.0  -0.0024
  C  C137  1  0.151000  0.771400  0.246200  1.0  -0.0707
  C  C138  1  0.065900  0.724700  0.203600  1.0  -0.076
  C  C139  1  0.017300  0.752900  0.236000  1.0  0.0446
  C  C140  1  0.053800  0.827800  0.311200  1.0  -0.1255
  C  C141  1  0.138800  0.874400  0.353600  1.0  -0.0265
  C  C142  1  0.050700  0.648300  0.125400  1.0  0.6434
  C  C143  1  0.002600  0.861600  0.349200  1.0  0.7597
  C  C144  1  0.027800  0.335400  0.301800  1.0  -0.1102
  C  C145  1  0.046400  0.424200  0.367800  1.0  0.0518
  C  C146  1  0.101100  0.492700  0.387200  1.0  -0.0272
  C  C147  1  0.113000  0.567400  0.456200  1.0  0.033
  C  C148  1  0.169200  0.638000  0.464200  1.0  -0.0404
  C  C149  1  0.133800  0.475000  0.321200  1.0  -0.0017
  C  C150  1  0.095200  0.474800  0.246200  1.0  -0.073
  C  C151  1  0.137700  0.478900  0.203600  1.0  -0.0687
  C  C152  1  0.218700  0.483100  0.236000  1.0  0.0442
  C  C153  1  0.257400  0.483400  0.311200  1.0  -0.1275
  C  C154  1  0.214800  0.479200  0.353600  1.0  -0.0265
  C  C155  1  0.074700  0.477100  0.125400  1.0  0.6403
  C  C156  1  0.346600  0.487600  0.349200  1.0  0.7588
  N  N157  1  0.002900  0.409100  0.412000  1.0  -0.3802
  N  N158  1  0.409100  0.002900  0.412000  1.0  -0.3908
  N  N159  1  0.590900  0.997100  0.588000  1.0  -0.3814
  N  N160  1  0.997100  0.590900  0.588000  1.0  -0.3907
  N  N161  1  0.933300  0.433300  0.500000  1.0  -0.441
  N  N162  1  0.566700  0.066700  0.500000  1.0  -0.4415
  N  N163  1  0.066700  0.566700  0.500000  1.0  -0.4432
  N  N164  1  0.433300  0.933300  0.500000  1.0  -0.4406
  Cl  Cl165  1  0.887700  0.887700  0.471200  1.0  -0.4829
  Cl  Cl166  1  0.583500  0.583500  0.471200  1.0  -0.475
  Cl  Cl167  1  0.112300  0.112300  0.528800  1.0  -0.4822
  Cl  Cl168  1  0.416500  0.416500  0.528800  1.0  -0.4737
  Cl  Cl169  1  0.504700  0.886100  0.390800  1.0  -0.4496
  Cl  Cl170  1  0.113900  0.495300  0.609200  1.0  -0.4533
  O  O171  1  0.624700  0.090700  0.097200  1.0  -0.5516
  O  O172  1  0.611200  0.976000  0.093000  1.0  -0.6234
  O  O173  1  0.816900  0.927500  0.308200  1.0  -0.6217
  O  O174  1  0.928500  0.033700  0.416400  1.0  -0.6121
  O  O175  1  0.472500  0.006500  0.097200  1.0  -0.5476
  O  O176  1  0.481800  0.117000  0.093000  1.0  -0.6189
  O  O177  1  0.491300  0.380700  0.308200  1.0  -0.6209
  O  O178  1  0.487900  0.382700  0.416400  1.0  -0.6096
  O  O179  1  0.909300  0.375300  0.902800  1.0  -0.5497
  O  O180  1  0.024000  0.388800  0.907000  1.0  -0.6217
  O  O181  1  0.072500  0.183100  0.691800  1.0  -0.6242
  O  O182  1  0.966300  0.071500  0.583600  1.0  -0.613
  O  O183  1  0.993500  0.527500  0.902800  1.0  -0.5456
  O  O184  1  0.883000  0.518200  0.907000  1.0  -0.6192
  O  O185  1  0.619300  0.508700  0.691800  1.0  -0.6221
  O  O186  1  0.617300  0.512100  0.583600  1.0  -0.6096
  O  O187  1  0.375300  0.909300  0.902800  1.0  -0.551
  O  O188  1  0.388800  0.024000  0.907000  1.0  -0.6216
  O  O189  1  0.183100  0.072500  0.691800  1.0  -0.6252
  O  O190  1  0.071500  0.966300  0.583600  1.0  -0.6126
  O  O191  1  0.527500  0.993500  0.902800  1.0  -0.5466
  O  O192  1  0.518200  0.883000  0.907000  1.0  -0.6197
  O  O193  1  0.508700  0.619300  0.691800  1.0  -0.6168
  O  O194  1  0.512100  0.617300  0.583600  1.0  -0.6094
  O  O195  1  0.090700  0.624700  0.097200  1.0  -0.5506
  O  O196  1  0.976000  0.611200  0.093000  1.0  -0.6226
  O  O197  1  0.927500  0.816900  0.308200  1.0  -0.6273
  O  O198  1  0.033700  0.928500  0.416400  1.0  -0.6123
  O  O199  1  0.006500  0.472500  0.097200  1.0  -0.5455
  O  O200  1  0.117000  0.481800  0.093000  1.0  -0.6193
  O  O201  1  0.380700  0.491300  0.308200  1.0  -0.6168
  O  O202  1  0.382700  0.487900  0.416400  1.0  -0.6071
