# generated using pymatgen
data_CuH4(C7O2)2
_symmetry_space_group_name_H-M   'P 1'
_cell_length_a   34.57260000
_cell_length_b   34.57260000
_cell_length_c   34.57260000
_cell_angle_alpha   60.00000000
_cell_angle_beta   60.00000000
_cell_angle_gamma   60.00000000
_symmetry_Int_Tables_number   1
_chemical_formula_structural   CuH4(C7O2)2
_chemical_formula_sum   'Cu24 H96 C336 O96'
_cell_volume   29220.06156339
_cell_formula_units_Z   24
loop_
 _symmetry_equiv_pos_site_id
 _symmetry_equiv_pos_as_xyz
  1  'x, y, z'
loop_
 _atom_site_type_symbol
 _atom_site_label
 _atom_site_symmetry_multiplicity
 _atom_site_fract_x
 _atom_site_fract_y
 _atom_site_fract_z
 _atom_site_occupancy
 _atom_site_charge
  Cu  Cu1  1  0.770500  0.000000  0.000000  1.0  0.8987
  Cu  Cu2  1  0.693600  0.000000  0.000000  1.0  0.8761
  Cu  Cu3  1  0.000000  0.770500  0.229500  1.0  0.8988
  Cu  Cu4  1  0.000000  0.693600  0.306400  1.0  0.8789
  Cu  Cu5  1  0.000000  0.229500  0.770500  1.0  0.8997
  Cu  Cu6  1  0.000000  0.306400  0.693600  1.0  0.8785
  Cu  Cu7  1  0.229500  0.000000  0.000000  1.0  0.8995
  Cu  Cu8  1  0.306400  0.000000  0.000000  1.0  0.8766
  Cu  Cu9  1  0.770500  0.000000  0.229500  1.0  0.8987
  Cu  Cu10  1  0.693600  0.000000  0.306400  1.0  0.8796
  Cu  Cu11  1  0.000000  0.229500  0.000000  1.0  0.8993
  Cu  Cu12  1  0.000000  0.306400  0.000000  1.0  0.876
  Cu  Cu13  1  0.000000  0.770500  0.000000  1.0  0.8992
  Cu  Cu14  1  0.000000  0.693600  0.000000  1.0  0.8753
  Cu  Cu15  1  0.229500  0.000000  0.770500  1.0  0.8995
  Cu  Cu16  1  0.306400  0.000000  0.693600  1.0  0.8795
  Cu  Cu17  1  0.770500  0.229500  0.000000  1.0  0.8981
  Cu  Cu18  1  0.693600  0.306400  0.000000  1.0  0.8793
  Cu  Cu19  1  0.000000  0.000000  0.770500  1.0  0.8983
  Cu  Cu20  1  0.000000  0.000000  0.693600  1.0  0.8748
  Cu  Cu21  1  0.000000  0.000000  0.229500  1.0  0.8982
  Cu  Cu22  1  0.000000  0.000000  0.306400  1.0  0.8758
  Cu  Cu23  1  0.229500  0.770500  0.000000  1.0  0.8996
  Cu  Cu24  1  0.306400  0.693600  0.000000  1.0  0.8789
  H  H25  1  0.735600  0.855600  0.024400  1.0  0.1077
  H  H26  1  0.855600  0.735600  0.384400  1.0  0.1071
  H  H27  1  0.024400  0.384400  0.735600  1.0  0.1089
  H  H28  1  0.384400  0.024400  0.855600  1.0  0.1097
  H  H29  1  0.735600  0.024400  0.384400  1.0  0.109
  H  H30  1  0.855600  0.384400  0.024400  1.0  0.1091
  H  H31  1  0.024400  0.735600  0.855600  1.0  0.1089
  H  H32  1  0.384400  0.855600  0.735600  1.0  0.1084
  H  H33  1  0.735600  0.384400  0.855600  1.0  0.1082
  H  H34  1  0.855600  0.024400  0.735600  1.0  0.109
  H  H35  1  0.024400  0.855600  0.384400  1.0  0.1076
  H  H36  1  0.384400  0.735600  0.024400  1.0  0.1076
  H  H37  1  0.144400  0.264400  0.975600  1.0  0.1073
  H  H38  1  0.264400  0.144400  0.615600  1.0  0.1088
  H  H39  1  0.615600  0.975600  0.264400  1.0  0.1098
  H  H40  1  0.975600  0.615600  0.144400  1.0  0.1083
  H  H41  1  0.975600  0.264400  0.615600  1.0  0.1089
  H  H42  1  0.615600  0.144400  0.975600  1.0  0.1082
  H  H43  1  0.264400  0.975600  0.144400  1.0  0.1091
  H  H44  1  0.144400  0.615600  0.264400  1.0  0.1082
  H  H45  1  0.615600  0.264400  0.144400  1.0  0.1074
  H  H46  1  0.975600  0.144400  0.264400  1.0  0.1081
  H  H47  1  0.144400  0.975600  0.615600  1.0  0.1094
  H  H48  1  0.264400  0.615600  0.975600  1.0  0.1077
  H  H49  1  0.264400  0.144400  0.975600  1.0  0.1091
  H  H50  1  0.144400  0.264400  0.615600  1.0  0.1065
  H  H51  1  0.975600  0.615600  0.264400  1.0  0.109
  H  H52  1  0.615600  0.975600  0.144400  1.0  0.1092
  H  H53  1  0.264400  0.975600  0.615600  1.0  0.1093
  H  H54  1  0.144400  0.615600  0.975600  1.0  0.1078
  H  H55  1  0.975600  0.264400  0.144400  1.0  0.1086
  H  H56  1  0.615600  0.144400  0.264400  1.0  0.1087
  H  H57  1  0.264400  0.615600  0.144400  1.0  0.1078
  H  H58  1  0.144400  0.975600  0.264400  1.0  0.1087
  H  H59  1  0.975600  0.144400  0.615600  1.0  0.1085
  H  H60  1  0.615600  0.264400  0.975600  1.0  0.1071
  H  H61  1  0.855600  0.735600  0.024400  1.0  0.107
  H  H62  1  0.735600  0.855600  0.384400  1.0  0.1082
  H  H63  1  0.384400  0.024400  0.735600  1.0  0.1092
  H  H64  1  0.024400  0.384400  0.855600  1.0  0.1099
  H  H65  1  0.024400  0.735600  0.384400  1.0  0.1086
  H  H66  1  0.384400  0.855600  0.024400  1.0  0.1088
  H  H67  1  0.735600  0.024400  0.855600  1.0  0.1091
  H  H68  1  0.855600  0.384400  0.735600  1.0  0.1086
  H  H69  1  0.384400  0.735600  0.855600  1.0  0.1073
  H  H70  1  0.024400  0.855600  0.735600  1.0  0.1074
  H  H71  1  0.855600  0.024400  0.384400  1.0  0.1087
  H  H72  1  0.735600  0.384400  0.024400  1.0  0.1085
  H  H73  1  0.856700  0.856700  0.010300  1.0  0.1235
  H  H74  1  0.856700  0.856700  0.276300  1.0  0.1235
  H  H75  1  0.010300  0.276300  0.856700  1.0  0.1241
  H  H76  1  0.276300  0.010300  0.856700  1.0  0.1238
  H  H77  1  0.856700  0.010300  0.276300  1.0  0.1234
  H  H78  1  0.856700  0.276300  0.010300  1.0  0.124
  H  H79  1  0.010300  0.856700  0.856700  1.0  0.1231
  H  H80  1  0.276300  0.856700  0.856700  1.0  0.1226
  H  H81  1  0.856700  0.276300  0.856700  1.0  0.1233
  H  H82  1  0.856700  0.010300  0.856700  1.0  0.1239
  H  H83  1  0.010300  0.856700  0.276300  1.0  0.1227
  H  H84  1  0.276300  0.856700  0.010300  1.0  0.123
  H  H85  1  0.143300  0.143300  0.989700  1.0  0.1232
  H  H86  1  0.143300  0.143300  0.723700  1.0  0.1231
  H  H87  1  0.723700  0.989700  0.143300  1.0  0.124
  H  H88  1  0.989700  0.723700  0.143300  1.0  0.1245
  H  H89  1  0.989700  0.143300  0.723700  1.0  0.123
  H  H90  1  0.723700  0.143300  0.989700  1.0  0.1227
  H  H91  1  0.143300  0.989700  0.143300  1.0  0.1235
  H  H92  1  0.143300  0.723700  0.143300  1.0  0.1237
  H  H93  1  0.723700  0.143300  0.143300  1.0  0.1229
  H  H94  1  0.989700  0.143300  0.143300  1.0  0.1226
  H  H95  1  0.143300  0.989700  0.723700  1.0  0.1239
  H  H96  1  0.143300  0.723700  0.989700  1.0  0.1234
  H  H97  1  0.611600  0.727800  0.049000  1.0  0.128
  H  H98  1  0.727800  0.611600  0.611600  1.0  0.1274
  H  H99  1  0.049000  0.611600  0.611600  1.0  0.128
  H  H100  1  0.611600  0.049000  0.727800  1.0  0.1283
  H  H101  1  0.611600  0.049000  0.611600  1.0  0.1275
  H  H102  1  0.727800  0.611600  0.049000  1.0  0.1273
  H  H103  1  0.049000  0.611600  0.727800  1.0  0.1287
  H  H104  1  0.611600  0.727800  0.611600  1.0  0.1281
  H  H105  1  0.611600  0.611600  0.727800  1.0  0.1288
  H  H106  1  0.727800  0.049000  0.611600  1.0  0.1266
  H  H107  1  0.049000  0.727800  0.611600  1.0  0.1293
  H  H108  1  0.611600  0.611600  0.049000  1.0  0.1275
  H  H109  1  0.272200  0.388400  0.951000  1.0  0.1272
  H  H110  1  0.388400  0.272200  0.388400  1.0  0.1285
  H  H111  1  0.388400  0.951000  0.388400  1.0  0.1276
  H  H112  1  0.951000  0.388400  0.272200  1.0  0.1274
  H  H113  1  0.951000  0.388400  0.388400  1.0  0.128
  H  H114  1  0.388400  0.272200  0.951000  1.0  0.1291
  H  H115  1  0.388400  0.951000  0.272200  1.0  0.1273
  H  H116  1  0.272200  0.388400  0.388400  1.0  0.1266
  H  H117  1  0.388400  0.388400  0.272200  1.0  0.1268
  H  H118  1  0.951000  0.272200  0.388400  1.0  0.1307
  H  H119  1  0.272200  0.951000  0.388400  1.0  0.1278
  H  H120  1  0.388400  0.388400  0.951000  1.0  0.1275
  C  C121  1  0.769160  0.915620  0.011120  1.0  0.6257
  C  C122  1  0.790890  0.859930  0.022230  1.0  -0.134
  C  C123  1  0.766220  0.838840  0.026600  1.0  -0.0603
  C  C124  1  0.915620  0.769160  0.304100  1.0  0.6226
  C  C125  1  0.859930  0.790890  0.326950  1.0  -0.1389
  C  C126  1  0.838840  0.766220  0.368340  1.0  -0.0617
  C  C127  1  0.011120  0.304100  0.769160  1.0  0.6255
  C  C128  1  0.022230  0.326950  0.790890  1.0  -0.1369
  C  C129  1  0.026600  0.368340  0.766220  1.0  -0.0638
  C  C130  1  0.304100  0.011120  0.915620  1.0  0.624
  C  C131  1  0.326950  0.022230  0.859930  1.0  -0.141
  C  C132  1  0.368340  0.026600  0.838840  1.0  -0.0603
  C  C133  1  0.769160  0.011120  0.304100  1.0  0.6254
  C  C134  1  0.790890  0.022230  0.326950  1.0  -0.135
  C  C135  1  0.766220  0.026600  0.368340  1.0  -0.0615
  C  C136  1  0.915620  0.304100  0.011120  1.0  0.6234
  C  C137  1  0.859930  0.326950  0.022230  1.0  -0.1366
  C  C138  1  0.838840  0.368340  0.026600  1.0  -0.061
  C  C139  1  0.011120  0.769160  0.915620  1.0  0.6251
  C  C140  1  0.022230  0.790890  0.859930  1.0  -0.1363
  C  C141  1  0.026600  0.766220  0.838840  1.0  -0.0609
  C  C142  1  0.304100  0.915620  0.769160  1.0  0.6255
  C  C143  1  0.326950  0.859930  0.790890  1.0  -0.135
  C  C144  1  0.368340  0.838840  0.766220  1.0  -0.0628
  C  C145  1  0.769160  0.304100  0.915620  1.0  0.6249
  C  C146  1  0.790890  0.326950  0.859930  1.0  -0.1367
  C  C147  1  0.766220  0.368340  0.838840  1.0  -0.0621
  C  C148  1  0.915620  0.011120  0.769160  1.0  0.6225
  C  C149  1  0.859930  0.022230  0.790890  1.0  -0.139
  C  C150  1  0.838840  0.026600  0.766220  1.0  -0.0598
  C  C151  1  0.011120  0.915620  0.304100  1.0  0.6249
  C  C152  1  0.022230  0.859930  0.326950  1.0  -0.1359
  C  C153  1  0.026600  0.838840  0.368340  1.0  -0.0599
  C  C154  1  0.304100  0.769160  0.011120  1.0  0.6236
  C  C155  1  0.326950  0.790890  0.022230  1.0  -0.1404
  C  C156  1  0.368340  0.766220  0.026600  1.0  -0.0604
  C  C157  1  0.084380  0.230840  0.988880  1.0  0.6236
  C  C158  1  0.140070  0.209110  0.977770  1.0  -0.1402
  C  C159  1  0.161160  0.233780  0.973400  1.0  -0.0631
  C  C160  1  0.230840  0.084380  0.695900  1.0  0.6255
  C  C161  1  0.209110  0.140070  0.673050  1.0  -0.1356
  C  C162  1  0.233780  0.161160  0.631660  1.0  -0.0629
  C  C163  1  0.695900  0.988880  0.230840  1.0  0.6238
  C  C164  1  0.673050  0.977770  0.209110  1.0  -0.1393
  C  C165  1  0.631660  0.973400  0.233780  1.0  -0.0594
  C  C166  1  0.988880  0.695900  0.084380  1.0  0.6244
  C  C167  1  0.977770  0.673050  0.140070  1.0  -0.1354
  C  C168  1  0.973400  0.631660  0.161160  1.0  -0.0621
  C  C169  1  0.988880  0.230840  0.695900  1.0  0.6247
  C  C170  1  0.977770  0.209110  0.673050  1.0  -0.1358
  C  C171  1  0.973400  0.233780  0.631660  1.0  -0.0621
  C  C172  1  0.695900  0.084380  0.988880  1.0  0.6257
  C  C173  1  0.673050  0.140070  0.977770  1.0  -0.1365
  C  C174  1  0.631660  0.161160  0.973400  1.0  -0.0611
  C  C175  1  0.230840  0.988880  0.084380  1.0  0.6254
  C  C176  1  0.209110  0.977770  0.140070  1.0  -0.1358
  C  C177  1  0.233780  0.973400  0.161160  1.0  -0.0613
  C  C178  1  0.084380  0.695900  0.230840  1.0  0.6242
  C  C179  1  0.140070  0.673050  0.209110  1.0  -0.1357
  C  C180  1  0.161160  0.631660  0.233780  1.0  -0.0603
  C  C181  1  0.695900  0.230840  0.084380  1.0  0.6234
  C  C182  1  0.673050  0.209110  0.140070  1.0  -0.1396
  C  C183  1  0.631660  0.233780  0.161160  1.0  -0.0624
  C  C184  1  0.988880  0.084380  0.230840  1.0  0.6253
  C  C185  1  0.977770  0.140070  0.209110  1.0  -0.1368
  C  C186  1  0.973400  0.161160  0.233780  1.0  -0.0601
  C  C187  1  0.084380  0.988880  0.695900  1.0  0.624
  C  C188  1  0.140070  0.977770  0.673050  1.0  -0.1404
  C  C189  1  0.161160  0.973400  0.631660  1.0  -0.0608
  C  C190  1  0.230840  0.695900  0.988880  1.0  0.6235
  C  C191  1  0.209110  0.673050  0.977770  1.0  -0.1363
  C  C192  1  0.233780  0.631660  0.973400  1.0  -0.0602
  C  C193  1  0.230840  0.084380  0.988880  1.0  0.6251
  C  C194  1  0.209110  0.140070  0.977770  1.0  -0.1355
  C  C195  1  0.233780  0.161160  0.973400  1.0  -0.0618
  C  C196  1  0.084380  0.230840  0.695900  1.0  0.6242
  C  C197  1  0.140070  0.209110  0.673050  1.0  -0.1401
  C  C198  1  0.161160  0.233780  0.631660  1.0  -0.0619
  C  C199  1  0.988880  0.695900  0.230840  1.0  0.6247
  C  C200  1  0.977770  0.673050  0.209110  1.0  -0.1357
  C  C201  1  0.973400  0.631660  0.233780  1.0  -0.0601
  C  C202  1  0.695900  0.988880  0.084380  1.0  0.6235
  C  C203  1  0.673050  0.977770  0.140070  1.0  -0.1394
  C  C204  1  0.631660  0.973400  0.161160  1.0  -0.0602
  C  C205  1  0.230840  0.988880  0.695900  1.0  0.625
  C  C206  1  0.209110  0.977770  0.673050  1.0  -0.1357
  C  C207  1  0.233780  0.973400  0.631660  1.0  -0.0601
  C  C208  1  0.084380  0.695900  0.988880  1.0  0.6238
  C  C209  1  0.140070  0.673050  0.977770  1.0  -0.135
  C  C210  1  0.161160  0.631660  0.973400  1.0  -0.0594
  C  C211  1  0.988880  0.230840  0.084380  1.0  0.6252
  C  C212  1  0.977770  0.209110  0.140070  1.0  -0.1356
  C  C213  1  0.973400  0.233780  0.161160  1.0  -0.0608
  C  C214  1  0.695900  0.084380  0.230840  1.0  0.6258
  C  C215  1  0.673050  0.140070  0.209110  1.0  -0.1372
  C  C216  1  0.631660  0.161160  0.233780  1.0  -0.0616
  C  C217  1  0.230840  0.695900  0.084380  1.0  0.6237
  C  C218  1  0.209110  0.673050  0.140070  1.0  -0.1363
  C  C219  1  0.233780  0.631660  0.161160  1.0  -0.0599
  C  C220  1  0.084380  0.988880  0.230840  1.0  0.6235
  C  C221  1  0.140070  0.977770  0.209110  1.0  -0.1413
  C  C222  1  0.161160  0.973400  0.233780  1.0  -0.0595
  C  C223  1  0.988880  0.084380  0.695900  1.0  0.6256
  C  C224  1  0.977770  0.140070  0.673050  1.0  -0.1362
  C  C225  1  0.973400  0.161160  0.631660  1.0  -0.0588
  C  C226  1  0.695900  0.230840  0.988880  1.0  0.623
  C  C227  1  0.673050  0.209110  0.977770  1.0  -0.1394
  C  C228  1  0.631660  0.233780  0.973400  1.0  -0.0618
  C  C229  1  0.915620  0.769160  0.011120  1.0  0.623
  C  C230  1  0.859930  0.790890  0.022230  1.0  -0.139
  C  C231  1  0.838840  0.766220  0.026600  1.0  -0.0608
  C  C232  1  0.769160  0.915620  0.304100  1.0  0.6253
  C  C233  1  0.790890  0.859930  0.326950  1.0  -0.1337
  C  C234  1  0.766220  0.838840  0.368340  1.0  -0.0602
  C  C235  1  0.304100  0.011120  0.769160  1.0  0.6237
  C  C236  1  0.326950  0.022230  0.790890  1.0  -0.141
  C  C237  1  0.368340  0.026600  0.766220  1.0  -0.0598
  C  C238  1  0.011120  0.304100  0.915620  1.0  0.6258
  C  C239  1  0.022230  0.326950  0.859930  1.0  -0.137
  C  C240  1  0.026600  0.368340  0.838840  1.0  -0.0618
  C  C241  1  0.011120  0.769160  0.304100  1.0  0.6254
  C  C242  1  0.022230  0.790890  0.326950  1.0  -0.1362
  C  C243  1  0.026600  0.766220  0.368340  1.0  -0.0595
  C  C244  1  0.304100  0.915620  0.011120  1.0  0.6259
  C  C245  1  0.326950  0.859930  0.022230  1.0  -0.1358
  C  C246  1  0.368340  0.838840  0.026600  1.0  -0.0607
  C  C247  1  0.769160  0.011120  0.915620  1.0  0.6251
  C  C248  1  0.790890  0.022230  0.859930  1.0  -0.1353
  C  C249  1  0.766220  0.026600  0.838840  1.0  -0.0612
  C  C250  1  0.915620  0.304100  0.769160  1.0  0.6231
  C  C251  1  0.859930  0.326950  0.790890  1.0  -0.1359
  C  C252  1  0.838840  0.368340  0.766220  1.0  -0.0607
  C  C253  1  0.304100  0.769160  0.915620  1.0  0.6237
  C  C254  1  0.326950  0.790890  0.859930  1.0  -0.1404
  C  C255  1  0.368340  0.766220  0.838840  1.0  -0.0596
  C  C256  1  0.011120  0.915620  0.769160  1.0  0.6253
  C  C257  1  0.022230  0.859930  0.790890  1.0  -0.1355
  C  C258  1  0.026600  0.838840  0.766220  1.0  -0.0599
  C  C259  1  0.915620  0.011120  0.304100  1.0  0.6221
  C  C260  1  0.859930  0.022230  0.326950  1.0  -0.1397
  C  C261  1  0.838840  0.026600  0.368340  1.0  -0.0584
  C  C262  1  0.769160  0.304100  0.011120  1.0  0.6251
  C  C263  1  0.790890  0.326950  0.022230  1.0  -0.1364
  C  C264  1  0.766220  0.368340  0.026600  1.0  -0.0609
  C  C265  1  0.839080  0.839080  0.017040  1.0  0.0074
  C  C266  1  0.787900  0.787900  0.035100  1.0  -0.029
  C  C267  1  0.762500  0.762500  0.037180  1.0  -0.0353
  C  C268  1  0.740500  0.740500  0.045100  1.0  0.1531
  C  C269  1  0.717600  0.717600  0.045600  1.0  0.0546
  C  C270  1  0.695500  0.695500  0.053300  1.0  -0.0666
  C  C271  1  0.670700  0.670700  0.055900  1.0  0.0828
  C  C272  1  0.839080  0.839080  0.304800  1.0  0.0069
  C  C273  1  0.787900  0.787900  0.389100  1.0  -0.0294
  C  C274  1  0.762500  0.762500  0.437820  1.0  -0.035
  C  C275  1  0.740500  0.740500  0.473900  1.0  0.1528
  C  C276  1  0.717600  0.717600  0.519200  1.0  0.0544
  C  C277  1  0.695500  0.695500  0.555700  1.0  -0.0676
  C  C278  1  0.670700  0.670700  0.602700  1.0  0.0835
  C  C279  1  0.017040  0.304800  0.839080  1.0  0.0097
  C  C280  1  0.035100  0.389100  0.787900  1.0  -0.027
  C  C281  1  0.037180  0.437820  0.762500  1.0  -0.0335
  C  C282  1  0.045100  0.473900  0.740500  1.0  0.153
  C  C283  1  0.045600  0.519200  0.717600  1.0  0.0545
  C  C284  1  0.053300  0.555700  0.695500  1.0  -0.0721
  C  C285  1  0.055900  0.602700  0.670700  1.0  0.0824
  C  C286  1  0.304800  0.017040  0.839080  1.0  0.0061
  C  C287  1  0.389100  0.035100  0.787900  1.0  -0.0272
  C  C288  1  0.437820  0.037180  0.762500  1.0  -0.0325
  C  C289  1  0.473900  0.045100  0.740500  1.0  0.1531
  C  C290  1  0.519200  0.045600  0.717600  1.0  0.0554
  C  C291  1  0.555700  0.053300  0.695500  1.0  -0.0673
  C  C292  1  0.602700  0.055900  0.670700  1.0  0.0818
  C  C293  1  0.839080  0.017040  0.304800  1.0  0.0062
  C  C294  1  0.787900  0.035100  0.389100  1.0  -0.0253
  C  C295  1  0.762500  0.037180  0.437820  1.0  -0.0361
  C  C296  1  0.740500  0.045100  0.473900  1.0  0.1535
  C  C297  1  0.717600  0.045600  0.519200  1.0  0.0544
  C  C298  1  0.695500  0.053300  0.555700  1.0  -0.0677
  C  C299  1  0.670700  0.055900  0.602700  1.0  0.084
  C  C300  1  0.839080  0.304800  0.017040  1.0  0.0102
  C  C301  1  0.787900  0.389100  0.035100  1.0  -0.0254
  C  C302  1  0.762500  0.437820  0.037180  1.0  -0.0347
  C  C303  1  0.740500  0.473900  0.045100  1.0  0.1538
  C  C304  1  0.717600  0.519200  0.045600  1.0  0.0562
  C  C305  1  0.695500  0.555700  0.053300  1.0  -0.0671
  C  C306  1  0.670700  0.602700  0.055900  1.0  0.0832
  C  C307  1  0.017040  0.839080  0.839080  1.0  0.0075
  C  C308  1  0.035100  0.787900  0.787900  1.0  -0.0296
  C  C309  1  0.037180  0.762500  0.762500  1.0  -0.0331
  C  C310  1  0.045100  0.740500  0.740500  1.0  0.1536
  C  C311  1  0.045600  0.717600  0.717600  1.0  0.0555
  C  C312  1  0.053300  0.695500  0.695500  1.0  -0.0666
  C  C313  1  0.055900  0.670700  0.670700  1.0  0.0833
  C  C314  1  0.304800  0.839080  0.839080  1.0  0.0092
  C  C315  1  0.389100  0.787900  0.787900  1.0  -0.0291
  C  C316  1  0.437820  0.762500  0.762500  1.0  -0.0328
  C  C317  1  0.473900  0.740500  0.740500  1.0  0.1518
  C  C318  1  0.519200  0.717600  0.717600  1.0  0.056
  C  C319  1  0.555700  0.695500  0.695500  1.0  -0.0686
  C  C320  1  0.602700  0.670700  0.670700  1.0  0.0823
  C  C321  1  0.839080  0.304800  0.839080  1.0  0.0103
  C  C322  1  0.787900  0.389100  0.787900  1.0  -0.0256
  C  C323  1  0.762500  0.437820  0.762500  1.0  -0.0339
  C  C324  1  0.740500  0.473900  0.740500  1.0  0.1539
  C  C325  1  0.717600  0.519200  0.717600  1.0  0.0561
  C  C326  1  0.695500  0.555700  0.695500  1.0  -0.0673
  C  C327  1  0.670700  0.602700  0.670700  1.0  0.0832
  C  C328  1  0.839080  0.017040  0.839080  1.0  0.0067
  C  C329  1  0.787900  0.035100  0.787900  1.0  -0.0258
  C  C330  1  0.762500  0.037180  0.762500  1.0  -0.0359
  C  C331  1  0.740500  0.045100  0.740500  1.0  0.1535
  C  C332  1  0.717600  0.045600  0.717600  1.0  0.0555
  C  C333  1  0.695500  0.053300  0.695500  1.0  -0.0663
  C  C334  1  0.670700  0.055900  0.670700  1.0  0.0824
  C  C335  1  0.017040  0.839080  0.304800  1.0  0.0074
  C  C336  1  0.035100  0.787900  0.389100  1.0  -0.0291
  C  C337  1  0.037180  0.762500  0.437820  1.0  -0.0328
  C  C338  1  0.045100  0.740500  0.473900  1.0  0.1534
  C  C339  1  0.045600  0.717600  0.519200  1.0  0.0546
  C  C340  1  0.053300  0.695500  0.555700  1.0  -0.0682
  C  C341  1  0.055900  0.670700  0.602700  1.0  0.084
  C  C342  1  0.304800  0.839080  0.017040  1.0  0.0092
  C  C343  1  0.389100  0.787900  0.035100  1.0  -0.0295
  C  C344  1  0.437820  0.762500  0.037180  1.0  -0.0329
  C  C345  1  0.473900  0.740500  0.045100  1.0  0.1519
  C  C346  1  0.519200  0.717600  0.045600  1.0  0.0561
  C  C347  1  0.555700  0.695500  0.053300  1.0  -0.0683
  C  C348  1  0.602700  0.670700  0.055900  1.0  0.0822
  C  C349  1  0.160920  0.160920  0.982960  1.0  0.0065
  C  C350  1  0.212100  0.212100  0.964900  1.0  -0.0275
  C  C351  1  0.237500  0.237500  0.962820  1.0  -0.0334
  C  C352  1  0.259500  0.259500  0.954900  1.0  0.1528
  C  C353  1  0.282400  0.282400  0.954400  1.0  0.0541
  C  C354  1  0.304500  0.304500  0.946700  1.0  -0.0704
  C  C355  1  0.329300  0.329300  0.944100  1.0  0.0828
  C  C356  1  0.160920  0.160920  0.695200  1.0  0.0077
  C  C357  1  0.212100  0.212100  0.610900  1.0  -0.0274
  C  C358  1  0.237500  0.237500  0.562180  1.0  -0.034
  C  C359  1  0.259500  0.259500  0.526100  1.0  0.1531
  C  C360  1  0.282400  0.282400  0.480800  1.0  0.0544
  C  C361  1  0.304500  0.304500  0.444300  1.0  -0.07
  C  C362  1  0.329300  0.329300  0.397300  1.0  0.0828
  C  C363  1  0.695200  0.982960  0.160920  1.0  0.0078
  C  C364  1  0.610900  0.964900  0.212100  1.0  -0.028
  C  C365  1  0.562180  0.962820  0.237500  1.0  -0.0337
  C  C366  1  0.526100  0.954900  0.259500  1.0  0.153
  C  C367  1  0.480800  0.954400  0.282400  1.0  0.0557
  C  C368  1  0.444300  0.946700  0.304500  1.0  -0.067
  C  C369  1  0.397300  0.944100  0.329300  1.0  0.0819
  C  C370  1  0.982960  0.695200  0.160920  1.0  0.0089
  C  C371  1  0.964900  0.610900  0.212100  1.0  -0.0285
  C  C372  1  0.962820  0.562180  0.237500  1.0  -0.0346
  C  C373  1  0.954900  0.526100  0.259500  1.0  0.153
  C  C374  1  0.954400  0.480800  0.282400  1.0  0.0566
  C  C375  1  0.946700  0.444300  0.304500  1.0  -0.0677
  C  C376  1  0.944100  0.397300  0.329300  1.0  0.0835
  C  C377  1  0.982960  0.160920  0.695200  1.0  0.0078
  C  C378  1  0.964900  0.212100  0.610900  1.0  -0.0268
  C  C379  1  0.962820  0.237500  0.562180  1.0  -0.0329
  C  C380  1  0.954900  0.259500  0.526100  1.0  0.1536
  C  C381  1  0.954400  0.282400  0.480800  1.0  0.0552
  C  C382  1  0.946700  0.304500  0.444300  1.0  -0.0675
  C  C383  1  0.944100  0.329300  0.397300  1.0  0.0823
  C  C384  1  0.695200  0.160920  0.982960  1.0  0.0091
  C  C385  1  0.610900  0.212100  0.964900  1.0  -0.0243
  C  C386  1  0.562180  0.237500  0.962820  1.0  -0.0342
  C  C387  1  0.526100  0.259500  0.954900  1.0  0.1534
  C  C388  1  0.480800  0.282400  0.954400  1.0  0.0559
  C  C389  1  0.444300  0.304500  0.946700  1.0  -0.0664
  C  C390  1  0.397300  0.329300  0.944100  1.0  0.0827
  C  C391  1  0.160920  0.982960  0.160920  1.0  0.0061
  C  C392  1  0.212100  0.964900  0.212100  1.0  -0.0286
  C  C393  1  0.237500  0.962820  0.237500  1.0  -0.0331
  C  C394  1  0.259500  0.954900  0.259500  1.0  0.1531
  C  C395  1  0.282400  0.954400  0.282400  1.0  0.0554
  C  C396  1  0.304500  0.946700  0.304500  1.0  -0.0684
  C  C397  1  0.329300  0.944100  0.329300  1.0  0.0826
  C  C398  1  0.160920  0.695200  0.160920  1.0  0.0084
  C  C399  1  0.212100  0.610900  0.212100  1.0  -0.0295
  C  C400  1  0.237500  0.562180  0.237500  1.0  -0.0345
  C  C401  1  0.259500  0.526100  0.259500  1.0  0.1537
  C  C402  1  0.282400  0.480800  0.282400  1.0  0.0575
  C  C403  1  0.304500  0.444300  0.304500  1.0  -0.0676
  C  C404  1  0.329300  0.397300  0.329300  1.0  0.0836
  C  C405  1  0.695200  0.160920  0.160920  1.0  0.009
  C  C406  1  0.610900  0.212100  0.212100  1.0  -0.0247
  C  C407  1  0.562180  0.237500  0.237500  1.0  -0.0347
  C  C408  1  0.526100  0.259500  0.259500  1.0  0.1533
  C  C409  1  0.480800  0.282400  0.282400  1.0  0.0558
  C  C410  1  0.444300  0.304500  0.304500  1.0  -0.0664
  C  C411  1  0.397300  0.329300  0.329300  1.0  0.0827
  C  C412  1  0.982960  0.160920  0.160920  1.0  0.0072
  C  C413  1  0.964900  0.212100  0.212100  1.0  -0.0253
  C  C414  1  0.962820  0.237500  0.237500  1.0  -0.033
  C  C415  1  0.954900  0.259500  0.259500  1.0  0.1535
  C  C416  1  0.954400  0.282400  0.282400  1.0  0.0539
  C  C417  1  0.946700  0.304500  0.304500  1.0  -0.0683
  C  C418  1  0.944100  0.329300  0.329300  1.0  0.0832
  C  C419  1  0.160920  0.982960  0.695200  1.0  0.0063
  C  C420  1  0.212100  0.964900  0.610900  1.0  -0.0296
  C  C421  1  0.237500  0.962820  0.562180  1.0  -0.0335
  C  C422  1  0.259500  0.954900  0.526100  1.0  0.1529
  C  C423  1  0.282400  0.954400  0.480800  1.0  0.0564
  C  C424  1  0.304500  0.946700  0.444300  1.0  -0.0673
  C  C425  1  0.329300  0.944100  0.397300  1.0  0.0821
  C  C426  1  0.160920  0.695200  0.982960  1.0  0.0081
  C  C427  1  0.212100  0.610900  0.964900  1.0  -0.0296
  C  C428  1  0.237500  0.562180  0.962820  1.0  -0.0345
  C  C429  1  0.259500  0.526100  0.954900  1.0  0.1535
  C  C430  1  0.282400  0.480800  0.954400  1.0  0.0574
  C  C431  1  0.304500  0.444300  0.946700  1.0  -0.0682
  C  C432  1  0.329300  0.397300  0.944100  1.0  0.0835
  C  C433  1  0.625900  0.695300  0.052900  1.0  -0.1527
  C  C434  1  0.695300  0.625900  0.625900  1.0  -0.1495
  C  C435  1  0.052900  0.625900  0.625900  1.0  -0.1482
  C  C436  1  0.625900  0.052900  0.695300  1.0  -0.1498
  C  C437  1  0.625900  0.052900  0.625900  1.0  -0.1501
  C  C438  1  0.695300  0.625900  0.052900  1.0  -0.1502
  C  C439  1  0.052900  0.625900  0.695300  1.0  -0.1489
  C  C440  1  0.625900  0.695300  0.625900  1.0  -0.1533
  C  C441  1  0.625900  0.625900  0.695300  1.0  -0.1476
  C  C442  1  0.695300  0.052900  0.625900  1.0  -0.147
  C  C443  1  0.052900  0.695300  0.625900  1.0  -0.1494
  C  C444  1  0.625900  0.625900  0.052900  1.0  -0.1493
  C  C445  1  0.304700  0.374100  0.947100  1.0  -0.1515
  C  C446  1  0.374100  0.304700  0.374100  1.0  -0.1574
  C  C447  1  0.374100  0.947100  0.374100  1.0  -0.1478
  C  C448  1  0.947100  0.374100  0.304700  1.0  -0.1491
  C  C449  1  0.947100  0.374100  0.374100  1.0  -0.1492
  C  C450  1  0.374100  0.304700  0.947100  1.0  -0.152
  C  C451  1  0.374100  0.947100  0.304700  1.0  -0.1491
  C  C452  1  0.304700  0.374100  0.374100  1.0  -0.1578
  C  C453  1  0.374100  0.374100  0.304700  1.0  -0.154
  C  C454  1  0.947100  0.304700  0.374100  1.0  -0.1505
  C  C455  1  0.304700  0.947100  0.374100  1.0  -0.1481
  C  C456  1  0.374100  0.374100  0.947100  1.0  -0.1472
  O  O457  1  0.792380  0.932620  0.011220  1.0  -0.545
  O  O458  1  0.727920  0.931520  0.010860  1.0  -0.5693
  O  O459  1  0.932620  0.792380  0.263780  1.0  -0.5445
  O  O460  1  0.931520  0.727920  0.329700  1.0  -0.5722
  O  O461  1  0.011220  0.263780  0.792380  1.0  -0.5447
  O  O462  1  0.010860  0.329700  0.727920  1.0  -0.5697
  O  O463  1  0.263780  0.011220  0.932620  1.0  -0.5427
  O  O464  1  0.329700  0.010860  0.931520  1.0  -0.5697
  O  O465  1  0.792380  0.011220  0.263780  1.0  -0.5442
  O  O466  1  0.727920  0.010860  0.329700  1.0  -0.5687
  O  O467  1  0.932620  0.263780  0.011220  1.0  -0.5449
  O  O468  1  0.931520  0.329700  0.010860  1.0  -0.5689
  O  O469  1  0.011220  0.792380  0.932620  1.0  -0.5447
  O  O470  1  0.010860  0.727920  0.931520  1.0  -0.571
  O  O471  1  0.263780  0.932620  0.792380  1.0  -0.5437
  O  O472  1  0.329700  0.931520  0.727920  1.0  -0.5688
  O  O473  1  0.792380  0.263780  0.932620  1.0  -0.5465
  O  O474  1  0.727920  0.329700  0.931520  1.0  -0.5703
  O  O475  1  0.932620  0.011220  0.792380  1.0  -0.5431
  O  O476  1  0.931520  0.010860  0.727920  1.0  -0.5711
  O  O477  1  0.011220  0.932620  0.263780  1.0  -0.5435
  O  O478  1  0.010860  0.931520  0.329700  1.0  -0.5668
  O  O479  1  0.263780  0.792380  0.011220  1.0  -0.5447
  O  O480  1  0.329700  0.727920  0.010860  1.0  -0.5733
  O  O481  1  0.067380  0.207620  0.988780  1.0  -0.5454
  O  O482  1  0.068480  0.272080  0.989140  1.0  -0.5694
  O  O483  1  0.207620  0.067380  0.736220  1.0  -0.544
  O  O484  1  0.272080  0.068480  0.670300  1.0  -0.5684
  O  O485  1  0.736220  0.988780  0.207620  1.0  -0.5451
  O  O486  1  0.670300  0.989140  0.272080  1.0  -0.5698
  O  O487  1  0.988780  0.736220  0.067380  1.0  -0.5442
  O  O488  1  0.989140  0.670300  0.068480  1.0  -0.571
  O  O489  1  0.988780  0.207620  0.736220  1.0  -0.5453
  O  O490  1  0.989140  0.272080  0.670300  1.0  -0.5687
  O  O491  1  0.736220  0.067380  0.988780  1.0  -0.5455
  O  O492  1  0.670300  0.068480  0.989140  1.0  -0.5698
  O  O493  1  0.207620  0.988780  0.067380  1.0  -0.5436
  O  O494  1  0.272080  0.989140  0.068480  1.0  -0.5694
  O  O495  1  0.067380  0.736220  0.207620  1.0  -0.5448
  O  O496  1  0.068480  0.670300  0.272080  1.0  -0.57
  O  O497  1  0.736220  0.207620  0.067380  1.0  -0.5468
  O  O498  1  0.670300  0.272080  0.068480  1.0  -0.5717
  O  O499  1  0.988780  0.067380  0.207620  1.0  -0.5439
  O  O500  1  0.989140  0.068480  0.272080  1.0  -0.5678
  O  O501  1  0.067380  0.988780  0.736220  1.0  -0.5435
  O  O502  1  0.068480  0.989140  0.670300  1.0  -0.5707
  O  O503  1  0.207620  0.736220  0.988780  1.0  -0.5449
  O  O504  1  0.272080  0.670300  0.989140  1.0  -0.5715
  O  O505  1  0.207620  0.067380  0.988780  1.0  -0.544
  O  O506  1  0.272080  0.068480  0.989140  1.0  -0.5691
  O  O507  1  0.067380  0.207620  0.736220  1.0  -0.5452
  O  O508  1  0.068480  0.272080  0.670300  1.0  -0.5687
  O  O509  1  0.988780  0.736220  0.207620  1.0  -0.5443
  O  O510  1  0.989140  0.670300  0.272080  1.0  -0.5716
  O  O511  1  0.736220  0.988780  0.067380  1.0  -0.5455
  O  O512  1  0.670300  0.989140  0.068480  1.0  -0.5691
  O  O513  1  0.207620  0.988780  0.736220  1.0  -0.5437
  O  O514  1  0.272080  0.989140  0.670300  1.0  -0.5691
  O  O515  1  0.067380  0.736220  0.988780  1.0  -0.5452
  O  O516  1  0.068480  0.670300  0.989140  1.0  -0.5694
  O  O517  1  0.988780  0.207620  0.067380  1.0  -0.5453
  O  O518  1  0.989140  0.272080  0.068480  1.0  -0.5679
  O  O519  1  0.736220  0.067380  0.207620  1.0  -0.545
  O  O520  1  0.670300  0.068480  0.272080  1.0  -0.5693
  O  O521  1  0.207620  0.736220  0.067380  1.0  -0.5454
  O  O522  1  0.272080  0.670300  0.068480  1.0  -0.5712
  O  O523  1  0.067380  0.988780  0.207620  1.0  -0.5451
  O  O524  1  0.068480  0.989140  0.272080  1.0  -0.5688
  O  O525  1  0.988780  0.067380  0.736220  1.0  -0.5433
  O  O526  1  0.989140  0.068480  0.670300  1.0  -0.5692
  O  O527  1  0.736220  0.207620  0.988780  1.0  -0.5468
  O  O528  1  0.670300  0.272080  0.989140  1.0  -0.5711
  O  O529  1  0.932620  0.792380  0.011220  1.0  -0.5447
  O  O530  1  0.931520  0.727920  0.010860  1.0  -0.5717
  O  O531  1  0.792380  0.932620  0.263780  1.0  -0.5449
  O  O532  1  0.727920  0.931520  0.329700  1.0  -0.5691
  O  O533  1  0.263780  0.011220  0.792380  1.0  -0.5435
  O  O534  1  0.329700  0.010860  0.727920  1.0  -0.5691
  O  O535  1  0.011220  0.263780  0.932620  1.0  -0.5447
  O  O536  1  0.010860  0.329700  0.931520  1.0  -0.57
  O  O537  1  0.011220  0.792380  0.263780  1.0  -0.5444
  O  O538  1  0.010860  0.727920  0.329700  1.0  -0.5702
  O  O539  1  0.263780  0.932620  0.011220  1.0  -0.5434
  O  O540  1  0.329700  0.931520  0.010860  1.0  -0.568
  O  O541  1  0.792380  0.011220  0.932620  1.0  -0.5449
  O  O542  1  0.727920  0.010860  0.931520  1.0  -0.5688
  O  O543  1  0.932620  0.263780  0.792380  1.0  -0.5453
  O  O544  1  0.931520  0.329700  0.727920  1.0  -0.5688
  O  O545  1  0.263780  0.792380  0.932620  1.0  -0.5447
  O  O546  1  0.329700  0.727920  0.931520  1.0  -0.5733
  O  O547  1  0.011220  0.932620  0.792380  1.0  -0.5423
  O  O548  1  0.010860  0.931520  0.727920  1.0  -0.5684
  O  O549  1  0.932620  0.011220  0.263780  1.0  -0.5444
  O  O550  1  0.931520  0.010860  0.329700  1.0  -0.5693
  O  O551  1  0.792380  0.263780  0.011220  1.0  -0.5465
  O  O552  1  0.727920  0.329700  0.010860  1.0  -0.57
