# generated using pymatgen
data_CuH7C5NO4
_symmetry_space_group_name_H-M   'P 1'
_cell_length_a   7.22140000
_cell_length_b   10.29500000
_cell_length_c   11.04100000
_cell_angle_alpha   90.00000000
_cell_angle_beta   90.00000000
_cell_angle_gamma   90.00000000
_symmetry_Int_Tables_number   1
_chemical_formula_structural   CuH7C5NO4
_chemical_formula_sum   'Cu4 H28 C20 N4 O16'
_cell_volume   820.83555983
_cell_formula_units_Z   4
loop_
 _symmetry_equiv_pos_site_id
 _symmetry_equiv_pos_as_xyz
  1  'x, y, z'
loop_
 _atom_site_type_symbol
 _atom_site_label
 _atom_site_symmetry_multiplicity
 _atom_site_fract_x
 _atom_site_fract_y
 _atom_site_fract_z
 _atom_site_occupancy
 _atom_site_charge
  Cu  Cu1  1  0.399400  0.933030  0.029270  1.0  0.8355
  Cu  Cu2  1  0.100600  0.066970  0.529270  1.0  0.8355
  Cu  Cu3  1  0.600600  0.433030  0.470730  1.0  0.8371
  Cu  Cu4  1  0.899400  0.566970  0.970730  1.0  0.8376
  H  H5  1  0.330200  0.715200  0.770800  1.0  0.1096
  H  H6  1  0.320100  0.964500  0.813000  1.0  0.2889
  H  H7  1  0.183200  0.864100  0.867400  1.0  0.3086
  H  H8  1  0.505900  0.883700  0.642700  1.0  0.0903
  H  H9  1  0.611500  0.765400  0.673500  1.0  0.1135
  H  H10  1  0.666100  0.977700  0.810800  1.0  0.1415
  H  H11  1  0.770700  0.847000  0.813300  1.0  0.123
  H  H12  1  0.169800  0.284800  0.270800  1.0  0.1099
  H  H13  1  0.179900  0.035500  0.313000  1.0  0.2906
  H  H14  1  0.316800  0.135900  0.367400  1.0  0.3053
  H  H15  1  0.994100  0.116300  0.142700  1.0  0.09
  H  H16  1  0.888500  0.234600  0.173500  1.0  0.1121
  H  H17  1  0.833900  0.022300  0.310800  1.0  0.1416
  H  H18  1  0.729300  0.153000  0.313300  1.0  0.1232
  H  H19  1  0.669800  0.215200  0.729200  1.0  0.1103
  H  H20  1  0.679900  0.464500  0.687000  1.0  0.2781
  H  H21  1  0.816800  0.364100  0.632600  1.0  0.3057
  H  H22  1  0.494100  0.383700  0.857300  1.0  0.0889
  H  H23  1  0.388500  0.265400  0.826500  1.0  0.1091
  H  H24  1  0.333900  0.477700  0.689200  1.0  0.1437
  H  H25  1  0.229300  0.347000  0.686700  1.0  0.1234
  H  H26  1  0.830200  0.784800  0.229200  1.0  0.1104
  H  H27  1  0.820100  0.535500  0.187000  1.0  0.2957
  H  H28  1  0.683200  0.635900  0.132600  1.0  0.3102
  H  H29  1  0.005900  0.616300  0.357300  1.0  0.0894
  H  H30  1  0.111500  0.734600  0.326500  1.0  0.1085
  H  H31  1  0.166100  0.522300  0.189200  1.0  0.1411
  H  H32  1  0.270700  0.653000  0.186700  1.0  0.1227
  C  C33  1  0.528000  0.716300  0.910100  1.0  0.6328
  C  C34  1  0.421100  0.783400  0.810100  1.0  0.0494
  C  C35  1  0.549500  0.832200  0.712000  1.0  -0.1525
  C  C36  1  0.708000  0.918200  0.756200  1.0  -0.313
  C  C37  1  0.827000  0.967600  0.654100  1.0  0.6956
  C  C38  1  0.972000  0.283700  0.410100  1.0  0.6323
  C  C39  1  0.078900  0.216600  0.310100  1.0  0.0504
  C  C40  1  0.950500  0.167800  0.212000  1.0  -0.1527
  C  C41  1  0.792000  0.081800  0.256200  1.0  -0.31
  C  C42  1  0.673000  0.032400  0.154100  1.0  0.6958
  C  C43  1  0.472000  0.216300  0.589900  1.0  0.6311
  C  C44  1  0.578900  0.283400  0.689900  1.0  0.0505
  C  C45  1  0.450500  0.332200  0.788000  1.0  -0.1526
  C  C46  1  0.292000  0.418200  0.743800  1.0  -0.3056
  C  C47  1  0.173000  0.467600  0.845900  1.0  0.6964
  C  C48  1  0.028000  0.783700  0.089900  1.0  0.6311
  C  C49  1  0.921100  0.716600  0.189900  1.0  0.0508
  C  C50  1  0.049500  0.667800  0.288000  1.0  -0.1523
  C  C51  1  0.208000  0.581800  0.243800  1.0  -0.3084
  C  C52  1  0.327000  0.532400  0.345900  1.0  0.696
  N  N53  1  0.308600  0.890900  0.862900  1.0  -0.6725
  N  N54  1  0.191400  0.109100  0.362900  1.0  -0.6724
  N  N55  1  0.691400  0.390900  0.637100  1.0  -0.672
  N  N56  1  0.808600  0.609100  0.137100  1.0  -0.672
  O  O57  1  0.518600  0.762700  0.016900  1.0  -0.5401
  O  O58  1  0.624600  0.620300  0.881400  1.0  -0.5679
  O  O59  1  0.975100  0.029100  0.684400  1.0  -0.573
  O  O60  1  0.785100  0.949900  0.547000  1.0  -0.5708
  O  O61  1  0.981400  0.237300  0.516900  1.0  -0.54
  O  O62  1  0.875400  0.379700  0.381400  1.0  -0.5684
  O  O63  1  0.524900  0.970900  0.184400  1.0  -0.573
  O  O64  1  0.714900  0.050100  0.047000  1.0  -0.5701
  O  O65  1  0.481400  0.262700  0.483100  1.0  -0.5407
  O  O66  1  0.375400  0.120300  0.618600  1.0  -0.5682
  O  O67  1  0.024900  0.529100  0.815600  1.0  -0.5728
  O  O68  1  0.214900  0.449900  0.953000  1.0  -0.5711
  O  O69  1  0.018600  0.737300  0.983100  1.0  -0.5407
  O  O70  1  0.124600  0.879700  0.118600  1.0  -0.5683
  O  O71  1  0.475100  0.470900  0.315600  1.0  -0.5728
  O  O72  1  0.285100  0.550100  0.453000  1.0  -0.5691
