# generated using pymatgen
data_Zn4H12C24O13
_symmetry_space_group_name_H-M   'P 1'
_cell_length_a   25.50700000
_cell_length_b   25.50700000
_cell_length_c   25.50700000
_cell_angle_alpha   90.00000000
_cell_angle_beta   90.00000000
_cell_angle_gamma   90.00000000
_symmetry_Int_Tables_number   1
_chemical_formula_structural   Zn4H12C24O13
_chemical_formula_sum   'Zn32 H96 C192 O104'
_cell_volume   16595.03399884
_cell_formula_units_Z   8
loop_
 _symmetry_equiv_pos_site_id
 _symmetry_equiv_pos_as_xyz
  1  'x, y, z'
loop_
 _atom_site_type_symbol
 _atom_site_label
 _atom_site_symmetry_multiplicity
 _atom_site_fract_x
 _atom_site_fract_y
 _atom_site_fract_z
 _atom_site_occupancy
 _atom_site_charge
  Zn  Zn1  1  0.186790  0.828440  0.232660  1.0  1.085
  Zn  Zn2  1  0.313210  0.171560  0.732660  1.0  1.0849
  Zn  Zn3  1  0.813210  0.328440  0.267340  1.0  1.0847
  Zn  Zn4  1  0.686790  0.671560  0.767340  1.0  1.0854
  Zn  Zn5  1  0.232660  0.186790  0.828440  1.0  1.088
  Zn  Zn6  1  0.732660  0.313210  0.171560  1.0  1.0864
  Zn  Zn7  1  0.267340  0.813210  0.328440  1.0  1.0878
  Zn  Zn8  1  0.767340  0.686790  0.671560  1.0  1.0868
  Zn  Zn9  1  0.828440  0.232660  0.186790  1.0  1.0847
  Zn  Zn10  1  0.171560  0.732660  0.313210  1.0  1.0853
  Zn  Zn11  1  0.328440  0.267340  0.813210  1.0  1.0841
  Zn  Zn12  1  0.671560  0.767340  0.686790  1.0  1.0847
  Zn  Zn13  1  0.813210  0.171560  0.767340  1.0  1.0846
  Zn  Zn14  1  0.686790  0.828440  0.267340  1.0  1.0851
  Zn  Zn15  1  0.186790  0.671560  0.732660  1.0  1.0855
  Zn  Zn16  1  0.313210  0.328440  0.232660  1.0  1.0849
  Zn  Zn17  1  0.767340  0.813210  0.171560  1.0  1.0864
  Zn  Zn18  1  0.267340  0.686790  0.828440  1.0  1.0876
  Zn  Zn19  1  0.732660  0.186790  0.671560  1.0  1.0868
  Zn  Zn20  1  0.232660  0.313210  0.328440  1.0  1.0879
  Zn  Zn21  1  0.171560  0.767340  0.813210  1.0  1.0849
  Zn  Zn22  1  0.828440  0.267340  0.686790  1.0  1.0843
  Zn  Zn23  1  0.671560  0.732660  0.186790  1.0  1.0851
  Zn  Zn24  1  0.328440  0.232660  0.313210  1.0  1.0846
  Zn  Zn25  1  0.266110  0.733890  0.233890  1.0  1.1207
  Zn  Zn26  1  0.233890  0.266110  0.733890  1.0  1.1211
  Zn  Zn27  1  0.733890  0.233890  0.266110  1.0  1.1203
  Zn  Zn28  1  0.766110  0.766110  0.766110  1.0  1.1203
  Zn  Zn29  1  0.733890  0.266110  0.766110  1.0  1.1207
  Zn  Zn30  1  0.766110  0.733890  0.266110  1.0  1.1201
  Zn  Zn31  1  0.266110  0.766110  0.733890  1.0  1.1208
  Zn  Zn32  1  0.233890  0.233890  0.233890  1.0  1.1209
  H  H33  1  0.177600  0.835900  0.062100  1.0  0.1131
  H  H34  1  0.170300  0.817900  0.972300  1.0  0.1165
  H  H35  1  0.267600  0.706200  0.080500  1.0  0.1154
  H  H36  1  0.260900  0.688600  0.991000  1.0  0.1146
  H  H37  1  0.322400  0.164100  0.562100  1.0  0.1132
  H  H38  1  0.329700  0.182100  0.472300  1.0  0.1162
  H  H39  1  0.232400  0.293800  0.580500  1.0  0.1158
  H  H40  1  0.239100  0.311400  0.491000  1.0  0.1143
  H  H41  1  0.822400  0.335900  0.437900  1.0  0.1139
  H  H42  1  0.829700  0.317900  0.527700  1.0  0.1164
  H  H43  1  0.732400  0.206200  0.419500  1.0  0.1154
  H  H44  1  0.739100  0.188600  0.509000  1.0  0.1137
  H  H45  1  0.677600  0.664100  0.937900  1.0  0.1132
  H  H46  1  0.670300  0.682100  0.027700  1.0  0.1161
  H  H47  1  0.767600  0.793800  0.919500  1.0  0.1166
  H  H48  1  0.760900  0.811400  0.009000  1.0  0.1139
  H  H49  1  0.062100  0.177600  0.835900  1.0  0.1129
  H  H50  1  0.972300  0.170300  0.817900  1.0  0.1173
  H  H51  1  0.080500  0.267600  0.706200  1.0  0.1169
  H  H52  1  0.991000  0.260900  0.688600  1.0  0.1139
  H  H53  1  0.562100  0.322400  0.164100  1.0  0.113
  H  H54  1  0.472300  0.329700  0.182100  1.0  0.1172
  H  H55  1  0.580500  0.232400  0.293800  1.0  0.1171
  H  H56  1  0.491000  0.239100  0.311400  1.0  0.1135
  H  H57  1  0.437900  0.822400  0.335900  1.0  0.1134
  H  H58  1  0.527700  0.829700  0.317900  1.0  0.1172
  H  H59  1  0.419500  0.732400  0.206200  1.0  0.1168
  H  H60  1  0.509000  0.739100  0.188600  1.0  0.1134
  H  H61  1  0.937900  0.677600  0.664100  1.0  0.1131
  H  H62  1  0.027700  0.670300  0.682100  1.0  0.1173
  H  H63  1  0.919500  0.767600  0.793800  1.0  0.1167
  H  H64  1  0.009000  0.760900  0.811400  1.0  0.1132
  H  H65  1  0.835900  0.062100  0.177600  1.0  0.1131
  H  H66  1  0.817900  0.972300  0.170300  1.0  0.1173
  H  H67  1  0.706200  0.080500  0.267600  1.0  0.1163
  H  H68  1  0.688600  0.991000  0.260900  1.0  0.1145
  H  H69  1  0.164100  0.562100  0.322400  1.0  0.1134
  H  H70  1  0.182100  0.472300  0.329700  1.0  0.1172
  H  H71  1  0.293800  0.580500  0.232400  1.0  0.117
  H  H72  1  0.311400  0.491000  0.239100  1.0  0.1137
  H  H73  1  0.335900  0.437900  0.822400  1.0  0.1139
  H  H74  1  0.317900  0.527700  0.829700  1.0  0.1171
  H  H75  1  0.206200  0.419500  0.732400  1.0  0.1165
  H  H76  1  0.188600  0.509000  0.739100  1.0  0.1138
  H  H77  1  0.664100  0.937900  0.677600  1.0  0.1134
  H  H78  1  0.682100  0.027700  0.670300  1.0  0.1167
  H  H79  1  0.793800  0.919500  0.767600  1.0  0.1168
  H  H80  1  0.811400  0.009000  0.760900  1.0  0.1137
  H  H81  1  0.822400  0.164100  0.937900  1.0  0.1128
  H  H82  1  0.829700  0.182100  0.027700  1.0  0.116
  H  H83  1  0.732400  0.293800  0.919500  1.0  0.1166
  H  H84  1  0.739100  0.311400  0.009000  1.0  0.115
  H  H85  1  0.677600  0.835900  0.437900  1.0  0.114
  H  H86  1  0.670300  0.817900  0.527700  1.0  0.1163
  H  H87  1  0.767600  0.706200  0.419500  1.0  0.1157
  H  H88  1  0.760900  0.688600  0.509000  1.0  0.1136
  H  H89  1  0.177600  0.664100  0.562100  1.0  0.1131
  H  H90  1  0.170300  0.682100  0.472300  1.0  0.1156
  H  H91  1  0.267600  0.793800  0.580500  1.0  0.1158
  H  H92  1  0.260900  0.811400  0.491000  1.0  0.1142
  H  H93  1  0.322400  0.335900  0.062100  1.0  0.1137
  H  H94  1  0.329700  0.317900  0.972300  1.0  0.1169
  H  H95  1  0.232400  0.206200  0.080500  1.0  0.1154
  H  H96  1  0.239100  0.188600  0.991000  1.0  0.1136
  H  H97  1  0.937900  0.822400  0.164100  1.0  0.1126
  H  H98  1  0.027700  0.829700  0.182100  1.0  0.1174
  H  H99  1  0.919500  0.732400  0.293800  1.0  0.117
  H  H100  1  0.009000  0.739100  0.311400  1.0  0.114
  H  H101  1  0.437900  0.677600  0.835900  1.0  0.1133
  H  H102  1  0.527700  0.670300  0.817900  1.0  0.1174
  H  H103  1  0.419500  0.767600  0.706200  1.0  0.1169
  H  H104  1  0.509000  0.760900  0.688600  1.0  0.1133
  H  H105  1  0.562100  0.177600  0.664100  1.0  0.113
  H  H106  1  0.472300  0.170300  0.682100  1.0  0.1172
  H  H107  1  0.580500  0.267600  0.793800  1.0  0.1168
  H  H108  1  0.491000  0.260900  0.811400  1.0  0.1136
  H  H109  1  0.062100  0.322400  0.335900  1.0  0.1135
  H  H110  1  0.972300  0.329700  0.317900  1.0  0.117
  H  H111  1  0.080500  0.232400  0.206200  1.0  0.1169
  H  H112  1  0.991000  0.239100  0.188600  1.0  0.1131
  H  H113  1  0.164100  0.937900  0.822400  1.0  0.1132
  H  H114  1  0.182100  0.027700  0.829700  1.0  0.1167
  H  H115  1  0.293800  0.919500  0.732400  1.0  0.1169
  H  H116  1  0.311400  0.009000  0.739100  1.0  0.1142
  H  H117  1  0.835900  0.437900  0.677600  1.0  0.1137
  H  H118  1  0.817900  0.527700  0.670300  1.0  0.1177
  H  H119  1  0.706200  0.419500  0.767600  1.0  0.1167
  H  H120  1  0.688600  0.509000  0.760900  1.0  0.1139
  H  H121  1  0.664100  0.562100  0.177600  1.0  0.1134
  H  H122  1  0.682100  0.472300  0.170300  1.0  0.1168
  H  H123  1  0.793800  0.580500  0.267600  1.0  0.1167
  H  H124  1  0.811400  0.491000  0.260900  1.0  0.1139
  H  H125  1  0.335900  0.062100  0.322400  1.0  0.1138
  H  H126  1  0.317900  0.972300  0.329700  1.0  0.1172
  H  H127  1  0.206200  0.080500  0.232400  1.0  0.1165
  H  H128  1  0.188600  0.991000  0.239100  1.0  0.1134
  C  C129  1  0.229180  0.782550  0.136790  1.0  0.7212
  C  C130  1  0.224610  0.773260  0.079470  1.0  -0.1335
  C  C131  1  0.194820  0.806290  0.047480  1.0  -0.0559
  C  C132  1  0.190420  0.795590  0.994230  1.0  -0.046
  C  C133  1  0.248400  0.729200  0.058400  1.0  -0.0551
  C  C134  1  0.244300  0.718600  0.005390  1.0  -0.0752
  C  C135  1  0.214200  0.741710  0.915430  1.0  0.7092
  C  C136  1  0.215740  0.751970  0.973180  1.0  -0.1353
  C  C137  1  0.270820  0.217450  0.636790  1.0  0.7216
  C  C138  1  0.275390  0.226740  0.579470  1.0  -0.1334
  C  C139  1  0.305180  0.193710  0.547480  1.0  -0.0563
  C  C140  1  0.309580  0.204410  0.494230  1.0  -0.0452
  C  C141  1  0.251600  0.270800  0.558400  1.0  -0.0548
  C  C142  1  0.255700  0.281400  0.505390  1.0  -0.0764
  C  C143  1  0.285800  0.258290  0.415430  1.0  0.7093
  C  C144  1  0.284260  0.248030  0.473180  1.0  -0.1346
  C  C145  1  0.770820  0.282550  0.363210  1.0  0.7211
  C  C146  1  0.775390  0.273260  0.420530  1.0  -0.1336
  C  C147  1  0.805180  0.306290  0.452520  1.0  -0.0548
  C  C148  1  0.809580  0.295590  0.505770  1.0  -0.0448
  C  C149  1  0.751600  0.229200  0.441600  1.0  -0.0552
  C  C150  1  0.755700  0.218600  0.494610  1.0  -0.0756
  C  C151  1  0.785800  0.241710  0.584570  1.0  0.7102
  C  C152  1  0.784260  0.251970  0.526820  1.0  -0.1351
  C  C153  1  0.729180  0.717450  0.863210  1.0  0.7212
  C  C154  1  0.724610  0.726740  0.920530  1.0  -0.1335
  C  C155  1  0.694820  0.693710  0.952520  1.0  -0.0562
  C  C156  1  0.690420  0.704410  0.005770  1.0  -0.045
  C  C157  1  0.748400  0.770800  0.941600  1.0  -0.055
  C  C158  1  0.744300  0.781400  0.994610  1.0  -0.0757
  C  C159  1  0.714200  0.758290  0.084570  1.0  0.7101
  C  C160  1  0.715740  0.748030  0.026820  1.0  -0.1352
  C  C161  1  0.136790  0.229180  0.782550  1.0  0.7189
  C  C162  1  0.079470  0.224610  0.773260  1.0  -0.1329
  C  C163  1  0.047480  0.194820  0.806290  1.0  -0.0568
  C  C164  1  0.994230  0.190420  0.795590  1.0  -0.0449
  C  C165  1  0.058400  0.248400  0.729200  1.0  -0.054
  C  C166  1  0.005390  0.244300  0.718600  1.0  -0.0772
  C  C167  1  0.915430  0.214200  0.741710  1.0  0.7099
  C  C168  1  0.973180  0.215740  0.751970  1.0  -0.1337
  C  C169  1  0.636790  0.270820  0.217450  1.0  0.7191
  C  C170  1  0.579470  0.275390  0.226740  1.0  -0.1328
  C  C171  1  0.547480  0.305180  0.193710  1.0  -0.0571
  C  C172  1  0.494230  0.309580  0.204410  1.0  -0.0458
  C  C173  1  0.558400  0.251600  0.270800  1.0  -0.0539
  C  C174  1  0.505390  0.255700  0.281400  1.0  -0.0779
  C  C175  1  0.415430  0.285800  0.258290  1.0  0.7098
  C  C176  1  0.473180  0.284260  0.248030  1.0  -0.1336
  C  C177  1  0.363210  0.770820  0.282550  1.0  0.7193
  C  C178  1  0.420530  0.775390  0.273260  1.0  -0.133
  C  C179  1  0.452520  0.805180  0.306290  1.0  -0.0575
  C  C180  1  0.505770  0.809580  0.295590  1.0  -0.0442
  C  C181  1  0.441600  0.751600  0.229200  1.0  -0.0544
  C  C182  1  0.494610  0.755700  0.218600  1.0  -0.0768
  C  C183  1  0.584570  0.785800  0.241710  1.0  0.7092
  C  C184  1  0.526820  0.784260  0.251970  1.0  -0.1337
  C  C185  1  0.863210  0.729180  0.717450  1.0  0.7198
  C  C186  1  0.920530  0.724610  0.726740  1.0  -0.1332
  C  C187  1  0.952520  0.694820  0.693710  1.0  -0.0573
  C  C188  1  0.005770  0.690420  0.704410  1.0  -0.0457
  C  C189  1  0.941600  0.748400  0.770800  1.0  -0.0533
  C  C190  1  0.994610  0.744300  0.781400  1.0  -0.0769
  C  C191  1  0.084570  0.714200  0.758290  1.0  0.7094
  C  C192  1  0.026820  0.715740  0.748030  1.0  -0.134
  C  C193  1  0.782550  0.136790  0.229180  1.0  0.72
  C  C194  1  0.773260  0.079470  0.224610  1.0  -0.1325
  C  C195  1  0.806290  0.047480  0.194820  1.0  -0.0565
  C  C196  1  0.795590  0.994230  0.190420  1.0  -0.0439
  C  C197  1  0.729200  0.058400  0.248400  1.0  -0.0532
  C  C198  1  0.718600  0.005390  0.244300  1.0  -0.0752
  C  C199  1  0.741710  0.915430  0.214200  1.0  0.7084
  C  C200  1  0.751970  0.973180  0.215740  1.0  -0.1335
  C  C201  1  0.217450  0.636790  0.270820  1.0  0.7193
  C  C202  1  0.226740  0.579470  0.275390  1.0  -0.1328
  C  C203  1  0.193710  0.547480  0.305180  1.0  -0.0553
  C  C204  1  0.204410  0.494230  0.309580  1.0  -0.0438
  C  C205  1  0.270800  0.558400  0.251600  1.0  -0.054
  C  C206  1  0.281400  0.505390  0.255700  1.0  -0.0756
  C  C207  1  0.258290  0.415430  0.285800  1.0  0.7083
  C  C208  1  0.248030  0.473180  0.284260  1.0  -0.1332
  C  C209  1  0.282550  0.363210  0.770820  1.0  0.7196
  C  C210  1  0.273260  0.420530  0.775390  1.0  -0.1326
  C  C211  1  0.306290  0.452520  0.805180  1.0  -0.0548
  C  C212  1  0.295590  0.505770  0.809580  1.0  -0.0427
  C  C213  1  0.229200  0.441600  0.751600  1.0  -0.0539
  C  C214  1  0.218600  0.494610  0.755700  1.0  -0.0759
  C  C215  1  0.241710  0.584570  0.785800  1.0  0.7092
  C  C216  1  0.251970  0.526820  0.784260  1.0  -0.1341
  C  C217  1  0.717450  0.863210  0.729180  1.0  0.719
  C  C218  1  0.726740  0.920530  0.724610  1.0  -0.1333
  C  C219  1  0.693710  0.952520  0.694820  1.0  -0.0561
  C  C220  1  0.704410  0.005770  0.690420  1.0  -0.0448
  C  C221  1  0.770800  0.941600  0.748400  1.0  -0.0538
  C  C222  1  0.781400  0.994610  0.744300  1.0  -0.0746
  C  C223  1  0.758290  0.084570  0.714200  1.0  0.7091
  C  C224  1  0.748030  0.026820  0.715740  1.0  -0.1337
  C  C225  1  0.770820  0.217450  0.863210  1.0  0.7211
  C  C226  1  0.775390  0.226740  0.920530  1.0  -0.1338
  C  C227  1  0.805180  0.193710  0.952520  1.0  -0.0562
  C  C228  1  0.809580  0.204410  0.005770  1.0  -0.0448
  C  C229  1  0.751600  0.270800  0.941600  1.0  -0.0553
  C  C230  1  0.755700  0.281400  0.994610  1.0  -0.0764
  C  C231  1  0.785800  0.258290  0.084570  1.0  0.7102
  C  C232  1  0.784260  0.248030  0.026820  1.0  -0.1349
  C  C233  1  0.729180  0.782550  0.363210  1.0  0.7212
  C  C234  1  0.724610  0.773260  0.420530  1.0  -0.1335
  C  C235  1  0.694820  0.806290  0.452520  1.0  -0.0561
  C  C236  1  0.690420  0.795590  0.505770  1.0  -0.0457
  C  C237  1  0.748400  0.729200  0.441600  1.0  -0.0552
  C  C238  1  0.744300  0.718600  0.494610  1.0  -0.0757
  C  C239  1  0.714200  0.741710  0.584570  1.0  0.71
  C  C240  1  0.715740  0.751970  0.526820  1.0  -0.1354
  C  C241  1  0.229180  0.717450  0.636790  1.0  0.7218
  C  C242  1  0.224610  0.726740  0.579470  1.0  -0.1332
  C  C243  1  0.194820  0.693710  0.547480  1.0  -0.0561
  C  C244  1  0.190420  0.704410  0.494230  1.0  -0.045
  C  C245  1  0.248400  0.770800  0.558400  1.0  -0.0545
  C  C246  1  0.244300  0.781400  0.505390  1.0  -0.0758
  C  C247  1  0.214200  0.758290  0.415430  1.0  0.7094
  C  C248  1  0.215740  0.748030  0.473180  1.0  -0.135
  C  C249  1  0.270820  0.282550  0.136790  1.0  0.7207
  C  C250  1  0.275390  0.273260  0.079470  1.0  -0.1336
  C  C251  1  0.305180  0.306290  0.047480  1.0  -0.0547
  C  C252  1  0.309580  0.295590  0.994230  1.0  -0.0454
  C  C253  1  0.251600  0.229200  0.058400  1.0  -0.0551
  C  C254  1  0.255700  0.218600  0.005390  1.0  -0.0753
  C  C255  1  0.285800  0.241710  0.915430  1.0  0.7092
  C  C256  1  0.284260  0.251970  0.973180  1.0  -0.1349
  C  C257  1  0.863210  0.770820  0.217450  1.0  0.7197
  C  C258  1  0.920530  0.775390  0.226740  1.0  -0.1333
  C  C259  1  0.952520  0.805180  0.193710  1.0  -0.0573
  C  C260  1  0.005770  0.809580  0.204410  1.0  -0.0456
  C  C261  1  0.941600  0.751600  0.270800  1.0  -0.0541
  C  C262  1  0.994610  0.755700  0.281400  1.0  -0.0773
  C  C263  1  0.084570  0.785800  0.258290  1.0  0.7092
  C  C264  1  0.026820  0.784260  0.248030  1.0  -0.1339
  C  C265  1  0.363210  0.729180  0.782550  1.0  0.7194
  C  C266  1  0.420530  0.724610  0.773260  1.0  -0.133
  C  C267  1  0.452520  0.694820  0.806290  1.0  -0.0578
  C  C268  1  0.505770  0.690420  0.795590  1.0  -0.0444
  C  C269  1  0.441600  0.748400  0.729200  1.0  -0.0539
  C  C270  1  0.494610  0.744300  0.718600  1.0  -0.0773
  C  C271  1  0.584570  0.714200  0.741710  1.0  0.7094
  C  C272  1  0.526820  0.715740  0.751970  1.0  -0.1338
  C  C273  1  0.636790  0.229180  0.717450  1.0  0.7192
  C  C274  1  0.579470  0.224610  0.726740  1.0  -0.1328
  C  C275  1  0.547480  0.194820  0.693710  1.0  -0.0569
  C  C276  1  0.494230  0.190420  0.704410  1.0  -0.045
  C  C277  1  0.558400  0.248400  0.770800  1.0  -0.053
  C  C278  1  0.505390  0.244300  0.781400  1.0  -0.0774
  C  C279  1  0.415430  0.214200  0.758290  1.0  0.7099
  C  C280  1  0.473180  0.215740  0.748030  1.0  -0.1338
  C  C281  1  0.136790  0.270820  0.282550  1.0  0.7188
  C  C282  1  0.079470  0.275390  0.273260  1.0  -0.1328
  C  C283  1  0.047480  0.305180  0.306290  1.0  -0.0568
  C  C284  1  0.994230  0.309580  0.295590  1.0  -0.0453
  C  C285  1  0.058400  0.251600  0.229200  1.0  -0.0546
  C  C286  1  0.005390  0.255700  0.218600  1.0  -0.0771
  C  C287  1  0.915430  0.285800  0.241710  1.0  0.7098
  C  C288  1  0.973180  0.284260  0.251970  1.0  -0.1334
  C  C289  1  0.217450  0.863210  0.770820  1.0  0.7188
  C  C290  1  0.226740  0.920530  0.775390  1.0  -0.1335
  C  C291  1  0.193710  0.952520  0.805180  1.0  -0.0549
  C  C292  1  0.204410  0.005770  0.809580  1.0  -0.0441
  C  C293  1  0.270800  0.941600  0.751600  1.0  -0.0539
  C  C294  1  0.281400  0.994610  0.755700  1.0  -0.0757
  C  C295  1  0.258290  0.084570  0.785800  1.0  0.7091
  C  C296  1  0.248030  0.026820  0.784260  1.0  -0.1338
  C  C297  1  0.782550  0.363210  0.729180  1.0  0.7197
  C  C298  1  0.773260  0.420530  0.724610  1.0  -0.1324
  C  C299  1  0.806290  0.452520  0.694820  1.0  -0.0564
  C  C300  1  0.795590  0.505770  0.690420  1.0  -0.0439
  C  C301  1  0.729200  0.441600  0.748400  1.0  -0.0539
  C  C302  1  0.718600  0.494610  0.744300  1.0  -0.0753
  C  C303  1  0.741710  0.584570  0.714200  1.0  0.7091
  C  C304  1  0.751970  0.526820  0.715740  1.0  -0.134
  C  C305  1  0.717450  0.636790  0.229180  1.0  0.7195
  C  C306  1  0.726740  0.579470  0.224610  1.0  -0.1328
  C  C307  1  0.693710  0.547480  0.194820  1.0  -0.0565
  C  C308  1  0.704410  0.494230  0.190420  1.0  -0.0445
  C  C309  1  0.770800  0.558400  0.248400  1.0  -0.0533
  C  C310  1  0.781400  0.505390  0.244300  1.0  -0.0748
  C  C311  1  0.758290  0.415430  0.214200  1.0  0.7084
  C  C312  1  0.748030  0.473180  0.215740  1.0  -0.133
  C  C313  1  0.282550  0.136790  0.270820  1.0  0.7199
  C  C314  1  0.273260  0.079470  0.275390  1.0  -0.1324
  C  C315  1  0.306290  0.047480  0.305180  1.0  -0.055
  C  C316  1  0.295590  0.994230  0.309580  1.0  -0.0428
  C  C317  1  0.229200  0.058400  0.251600  1.0  -0.0537
  C  C318  1  0.218600  0.005390  0.255700  1.0  -0.0756
  C  C319  1  0.241710  0.915430  0.285800  1.0  0.7084
  C  C320  1  0.251970  0.973180  0.284260  1.0  -0.1336
  O  O321  1  0.201450  0.818280  0.157530  1.0  -0.6001
  O  O322  1  0.180560  0.766010  0.888880  1.0  -0.6035
  O  O323  1  0.247290  0.709160  0.898160  1.0  -0.617
  O  O324  1  0.260840  0.753350  0.161040  1.0  -0.6099
  O  O325  1  0.298550  0.181720  0.657530  1.0  -0.5998
  O  O326  1  0.319440  0.233990  0.388880  1.0  -0.6023
  O  O327  1  0.252710  0.290840  0.398160  1.0  -0.6178
  O  O328  1  0.239160  0.246650  0.661040  1.0  -0.6094
  O  O329  1  0.798550  0.318280  0.342470  1.0  -0.6012
  O  O330  1  0.819440  0.266010  0.611120  1.0  -0.6032
  O  O331  1  0.752710  0.209160  0.601840  1.0  -0.6172
  O  O332  1  0.739160  0.253350  0.338960  1.0  -0.6098
  O  O333  1  0.701450  0.681720  0.842470  1.0  -0.5993
  O  O334  1  0.680560  0.733990  0.111120  1.0  -0.6031
  O  O335  1  0.747290  0.790840  0.101840  1.0  -0.617
  O  O336  1  0.760840  0.746650  0.838960  1.0  -0.6096
  O  O337  1  0.157530  0.201450  0.818280  1.0  -0.6021
  O  O338  1  0.888880  0.180560  0.766010  1.0  -0.6045
  O  O339  1  0.898160  0.247290  0.709160  1.0  -0.6171
  O  O340  1  0.161040  0.260840  0.753350  1.0  -0.6114
  O  O341  1  0.657530  0.298550  0.181720  1.0  -0.6
  O  O342  1  0.388880  0.319440  0.233990  1.0  -0.605
  O  O343  1  0.398160  0.252710  0.290840  1.0  -0.6175
  O  O344  1  0.661040  0.239160  0.246650  1.0  -0.6112
  O  O345  1  0.342470  0.798550  0.318280  1.0  -0.6013
  O  O346  1  0.611120  0.819440  0.266010  1.0  -0.6051
  O  O347  1  0.601840  0.752710  0.209160  1.0  -0.6172
  O  O348  1  0.338960  0.739160  0.253350  1.0  -0.6103
  O  O349  1  0.842470  0.701450  0.681720  1.0  -0.599
  O  O350  1  0.111120  0.680560  0.733990  1.0  -0.6052
  O  O351  1  0.101840  0.747290  0.790840  1.0  -0.6185
  O  O352  1  0.838960  0.760840  0.746650  1.0  -0.6103
  O  O353  1  0.818280  0.157530  0.201450  1.0  -0.5982
  O  O354  1  0.766010  0.888880  0.180560  1.0  -0.6034
  O  O355  1  0.709160  0.898160  0.247290  1.0  -0.6169
  O  O356  1  0.753350  0.161040  0.260840  1.0  -0.6091
  O  O357  1  0.181720  0.657530  0.298550  1.0  -0.5976
  O  O358  1  0.233990  0.388880  0.319440  1.0  -0.6044
  O  O359  1  0.290840  0.398160  0.252710  1.0  -0.6152
  O  O360  1  0.246650  0.661040  0.239160  1.0  -0.6111
  O  O361  1  0.318280  0.342470  0.798550  1.0  -0.5985
  O  O362  1  0.266010  0.611120  0.819440  1.0  -0.603
  O  O363  1  0.209160  0.601840  0.752710  1.0  -0.6149
  O  O364  1  0.253350  0.338960  0.739160  1.0  -0.6103
  O  O365  1  0.681720  0.842470  0.701450  1.0  -0.5979
  O  O366  1  0.733990  0.111120  0.680560  1.0  -0.6038
  O  O367  1  0.790840  0.101840  0.747290  1.0  -0.6152
  O  O368  1  0.746650  0.838960  0.760840  1.0  -0.6104
  O  O369  1  0.798550  0.181720  0.842470  1.0  -0.5999
  O  O370  1  0.819440  0.233990  0.111120  1.0  -0.6026
  O  O371  1  0.752710  0.290840  0.101840  1.0  -0.6168
  O  O372  1  0.739160  0.246650  0.838960  1.0  -0.6096
  O  O373  1  0.701450  0.818280  0.342470  1.0  -0.6006
  O  O374  1  0.680560  0.766010  0.611120  1.0  -0.6037
  O  O375  1  0.747290  0.709160  0.601840  1.0  -0.6164
  O  O376  1  0.760840  0.753350  0.338960  1.0  -0.6096
  O  O377  1  0.201450  0.681720  0.657530  1.0  -0.5993
  O  O378  1  0.180560  0.733990  0.388880  1.0  -0.6031
  O  O379  1  0.247290  0.790840  0.398160  1.0  -0.6171
  O  O380  1  0.260840  0.746650  0.661040  1.0  -0.6095
  O  O381  1  0.298550  0.318280  0.157530  1.0  -0.6006
  O  O382  1  0.319440  0.266010  0.888880  1.0  -0.6026
  O  O383  1  0.252710  0.209160  0.898160  1.0  -0.6178
  O  O384  1  0.239160  0.253350  0.161040  1.0  -0.6098
  O  O385  1  0.842470  0.798550  0.181720  1.0  -0.5997
  O  O386  1  0.111120  0.819440  0.233990  1.0  -0.606
  O  O387  1  0.101840  0.752710  0.290840  1.0  -0.618
  O  O388  1  0.838960  0.739160  0.246650  1.0  -0.6105
  O  O389  1  0.342470  0.701450  0.818280  1.0  -0.6012
  O  O390  1  0.611120  0.680560  0.766010  1.0  -0.6047
  O  O391  1  0.601840  0.747290  0.709160  1.0  -0.6176
  O  O392  1  0.338960  0.760840  0.753350  1.0  -0.6105
  O  O393  1  0.657530  0.201450  0.681720  1.0  -0.5991
  O  O394  1  0.388880  0.180560  0.733990  1.0  -0.6046
  O  O395  1  0.398160  0.247290  0.790840  1.0  -0.6176
  O  O396  1  0.661040  0.260840  0.746650  1.0  -0.6113
  O  O397  1  0.157530  0.298550  0.318280  1.0  -0.6021
  O  O398  1  0.888880  0.319440  0.266010  1.0  -0.6043
  O  O399  1  0.898160  0.252710  0.209160  1.0  -0.6167
  O  O400  1  0.161040  0.239160  0.253350  1.0  -0.611
  O  O401  1  0.181720  0.842470  0.798550  1.0  -0.5983
  O  O402  1  0.233990  0.111120  0.819440  1.0  -0.6038
  O  O403  1  0.290840  0.101840  0.752710  1.0  -0.6146
  O  O404  1  0.246650  0.838960  0.739160  1.0  -0.6113
  O  O405  1  0.818280  0.342470  0.701450  1.0  -0.598
  O  O406  1  0.766010  0.611120  0.680560  1.0  -0.6035
  O  O407  1  0.709160  0.601840  0.747290  1.0  -0.6157
  O  O408  1  0.753350  0.338960  0.760840  1.0  -0.61
  O  O409  1  0.681720  0.657530  0.201450  1.0  -0.5977
  O  O410  1  0.733990  0.388880  0.180560  1.0  -0.6037
  O  O411  1  0.790840  0.398160  0.247290  1.0  -0.6158
  O  O412  1  0.746650  0.661040  0.260840  1.0  -0.6094
  O  O413  1  0.318280  0.157530  0.298550  1.0  -0.5981
  O  O414  1  0.266010  0.888880  0.319440  1.0  -0.6036
  O  O415  1  0.209160  0.898160  0.252710  1.0  -0.615
  O  O416  1  0.253350  0.161040  0.239160  1.0  -0.6102
  O  O417  1  0.222300  0.777700  0.277700  1.0  -1.2604
  O  O418  1  0.277700  0.222300  0.777700  1.0  -1.2607
  O  O419  1  0.777700  0.277700  0.222300  1.0  -1.26
  O  O420  1  0.722300  0.722300  0.722300  1.0  -1.2607
  O  O421  1  0.777700  0.222300  0.722300  1.0  -1.2605
  O  O422  1  0.722300  0.777700  0.222300  1.0  -1.2603
  O  O423  1  0.222300  0.722300  0.777700  1.0  -1.2608
  O  O424  1  0.277700  0.277700  0.277700  1.0  -1.2601
