# generated using pymatgen
data_ZnH8C11(N3O)2
_symmetry_space_group_name_H-M   'P 1'
_cell_length_a   8.90820000
_cell_length_b   10.55330000
_cell_length_c   18.66270000
_cell_angle_alpha   90.00000000
_cell_angle_beta   90.00000000
_cell_angle_gamma   90.00000000
_symmetry_Int_Tables_number   1
_chemical_formula_structural   ZnH8C11(N3O)2
_chemical_formula_sum   'Zn4 H32 C44 N24 O8'
_cell_volume   1754.49735519
_cell_formula_units_Z   4
loop_
 _symmetry_equiv_pos_site_id
 _symmetry_equiv_pos_as_xyz
  1  'x, y, z'
loop_
 _atom_site_type_symbol
 _atom_site_label
 _atom_site_symmetry_multiplicity
 _atom_site_fract_x
 _atom_site_fract_y
 _atom_site_fract_z
 _atom_site_occupancy
 _atom_site_charge
  Zn  Zn1  1  0.870500  0.984710  0.399070  1.0  0.8186
  Zn  Zn2  1  0.370500  0.015290  0.600930  1.0  0.8221
  Zn  Zn3  1  0.870500  0.515290  0.899070  1.0  0.8206
  Zn  Zn4  1  0.370500  0.484710  0.100930  1.0  0.821
  H  H5  1  0.178800  0.037600  0.470000  1.0  0.0691
  H  H6  1  0.760800  0.641300  0.600400  1.0  0.0336
  H  H7  1  0.158200  0.698100  0.727700  1.0  0.3487
  H  H8  1  0.249900  0.797800  0.691900  1.0  0.3304
  H  H9  1  0.027100  0.323900  0.287000  1.0  0.1227
  H  H10  1  0.149800  0.468300  0.213200  1.0  0.0669
  H  H11  1  0.407600  0.207200  0.136200  1.0  0.0885
  H  H12  1  0.295600  0.055000  0.208300  1.0  0.109
  H  H13  1  0.678800  0.962400  0.530000  1.0  0.0688
  H  H14  1  0.260800  0.358700  0.399600  1.0  0.0334
  H  H15  1  0.658200  0.301900  0.272300  1.0  0.3486
  H  H16  1  0.749900  0.202200  0.308100  1.0  0.3321
  H  H17  1  0.527100  0.676100  0.713000  1.0  0.1227
  H  H18  1  0.649800  0.531700  0.786800  1.0  0.0665
  H  H19  1  0.907600  0.792800  0.863800  1.0  0.0896
  H  H20  1  0.795600  0.945000  0.791700  1.0  0.1086
  H  H21  1  0.178800  0.462400  0.970000  1.0  0.0691
  H  H22  1  0.760800  0.858700  0.100400  1.0  0.0341
  H  H23  1  0.158200  0.801900  0.227700  1.0  0.3485
  H  H24  1  0.249900  0.702200  0.191900  1.0  0.3317
  H  H25  1  0.027100  0.176100  0.787000  1.0  0.1228
  H  H26  1  0.149800  0.031700  0.713200  1.0  0.0666
  H  H27  1  0.407600  0.292800  0.636200  1.0  0.0894
  H  H28  1  0.295600  0.445000  0.708300  1.0  0.1085
  H  H29  1  0.678800  0.537600  0.030000  1.0  0.0686
  H  H30  1  0.260800  0.141300  0.899600  1.0  0.033
  H  H31  1  0.658200  0.198100  0.772300  1.0  0.3482
  H  H32  1  0.749900  0.297800  0.808100  1.0  0.3306
  H  H33  1  0.527100  0.823900  0.213000  1.0  0.1229
  H  H34  1  0.649800  0.968300  0.286800  1.0  0.0668
  H  H35  1  0.907600  0.707200  0.363800  1.0  0.0887
  H  H36  1  0.795600  0.555000  0.291700  1.0  0.1094
  C  C37  1  0.130300  0.976500  0.497400  1.0  0.3039
  C  C38  1  0.843600  0.694100  0.594800  1.0  0.419
  C  C39  1  0.065200  0.760900  0.640200  1.0  0.4794
  C  C40  1  0.079600  0.843100  0.581200  1.0  -0.075
  C  C41  1  0.966800  0.840200  0.532300  1.0  0.4491
  C  C42  1  0.077600  0.075300  0.304300  1.0  0.6422
  C  C43  1  0.104800  0.298000  0.257000  1.0  -0.1463
  C  C44  1  0.154300  0.172500  0.256000  1.0  -0.0284
  C  C45  1  0.177200  0.383300  0.211100  1.0  0.1685
  C  C46  1  0.328700  0.230200  0.166200  1.0  0.1534
  C  C47  1  0.263400  0.138800  0.210400  1.0  -0.1145
  C  C48  1  0.630300  0.023500  0.502600  1.0  0.3054
  C  C49  1  0.343600  0.305900  0.405200  1.0  0.4187
  C  C50  1  0.565200  0.239100  0.359800  1.0  0.4783
  C  C51  1  0.579600  0.156900  0.418800  1.0  -0.0857
  C  C52  1  0.466800  0.159800  0.467700  1.0  0.4465
  C  C53  1  0.577600  0.924700  0.695700  1.0  0.6418
  C  C54  1  0.604800  0.702000  0.743000  1.0  -0.1461
  C  C55  1  0.654300  0.827500  0.744000  1.0  -0.028
  C  C56  1  0.677200  0.616700  0.788900  1.0  0.1691
  C  C57  1  0.828700  0.769800  0.833800  1.0  0.1515
  C  C58  1  0.763400  0.861200  0.789600  1.0  -0.1104
  C  C59  1  0.130300  0.523500  0.997400  1.0  0.3027
  C  C60  1  0.843600  0.805900  0.094800  1.0  0.4188
  C  C61  1  0.065200  0.739100  0.140200  1.0  0.4778
  C  C62  1  0.079600  0.656900  0.081200  1.0  -0.0816
  C  C63  1  0.966800  0.659800  0.032300  1.0  0.4497
  C  C64  1  0.077600  0.424700  0.804300  1.0  0.6423
  C  C65  1  0.104800  0.202000  0.757000  1.0  -0.1462
  C  C66  1  0.154300  0.327500  0.756000  1.0  -0.0297
  C  C67  1  0.177200  0.116700  0.711100  1.0  0.1694
  C  C68  1  0.328700  0.269800  0.666200  1.0  0.1504
  C  C69  1  0.263400  0.361200  0.710400  1.0  -0.11
  C  C70  1  0.630300  0.476500  0.002600  1.0  0.3044
  C  C71  1  0.343600  0.194100  0.905200  1.0  0.4196
  C  C72  1  0.565200  0.260900  0.859800  1.0  0.4782
  C  C73  1  0.579600  0.343100  0.918800  1.0  -0.085
  C  C74  1  0.466800  0.340200  0.967700  1.0  0.446
  C  C75  1  0.577600  0.575300  0.195700  1.0  0.6422
  C  C76  1  0.604800  0.798000  0.243000  1.0  -0.1464
  C  C77  1  0.654300  0.672500  0.244000  1.0  -0.027
  C  C78  1  0.677200  0.883300  0.288900  1.0  0.1682
  C  C79  1  0.828700  0.730200  0.333800  1.0  0.157
  C  C80  1  0.763400  0.638800  0.289600  1.0  -0.1138
  N  N81  1  0.996100  0.925100  0.478200  1.0  -0.5072
  N  N82  1  0.843300  0.768800  0.536100  1.0  -0.5727
  N  N83  1  0.187300  0.931600  0.559300  1.0  -0.4294
  N  N84  1  0.944100  0.687200  0.643800  1.0  -0.548
  N  N85  1  0.170900  0.751000  0.693200  1.0  -0.6872
  N  N86  1  0.280000  0.350300  0.165900  1.0  -0.324
  N  N87  1  0.496100  0.074900  0.521800  1.0  -0.5079
  N  N88  1  0.343300  0.231200  0.463900  1.0  -0.5685
  N  N89  1  0.687300  0.068400  0.440700  1.0  -0.4266
  N  N90  1  0.444100  0.312800  0.356200  1.0  -0.5461
  N  N91  1  0.670900  0.249000  0.306800  1.0  -0.6868
  N  N92  1  0.780000  0.649700  0.834100  1.0  -0.3241
  N  N93  1  0.996100  0.574900  0.978200  1.0  -0.5075
  N  N94  1  0.843300  0.731200  0.036100  1.0  -0.5665
  N  N95  1  0.187300  0.568400  0.059300  1.0  -0.4281
  N  N96  1  0.944100  0.812800  0.143800  1.0  -0.531
  N  N97  1  0.170900  0.749000  0.193200  1.0  -0.6873
  N  N98  1  0.280000  0.149700  0.665900  1.0  -0.325
  N  N99  1  0.496100  0.425100  0.021800  1.0  -0.5075
  N  N100  1  0.343300  0.268800  0.963900  1.0  -0.5721
  N  N101  1  0.687300  0.431600  0.940700  1.0  -0.4263
  N  N102  1  0.444100  0.187200  0.856200  1.0  -0.5493
  N  N103  1  0.670900  0.251000  0.806800  1.0  -0.6869
  N  N104  1  0.780000  0.850300  0.334100  1.0  -0.3246
  O  O105  1  0.963200  0.115200  0.338700  1.0  -0.5986
  O  O106  1  0.127100  0.966800  0.306000  1.0  -0.5747
  O  O107  1  0.463200  0.884800  0.661300  1.0  -0.6019
  O  O108  1  0.627100  0.033200  0.694000  1.0  -0.5746
  O  O109  1  0.963200  0.384800  0.838700  1.0  -0.6012
  O  O110  1  0.127100  0.533200  0.806000  1.0  -0.5749
  O  O111  1  0.463200  0.615200  0.161300  1.0  -0.5985
  O  O112  1  0.627100  0.466800  0.194000  1.0  -0.5747
