# generated using pymatgen
data_ZnH8C11(N3O)2
_symmetry_space_group_name_H-M   'P 1'
_cell_length_a   8.79920000
_cell_length_b   10.26960000
_cell_length_c   18.62440000
_cell_angle_alpha   90.00000000
_cell_angle_beta   90.00000000
_cell_angle_gamma   90.00000000
_symmetry_Int_Tables_number   1
_chemical_formula_structural   ZnH8C11(N3O)2
_chemical_formula_sum   'Zn4 H32 C44 N24 O8'
_cell_volume   1682.98020440
_cell_formula_units_Z   4
loop_
 _symmetry_equiv_pos_site_id
 _symmetry_equiv_pos_as_xyz
  1  'x, y, z'
loop_
 _atom_site_type_symbol
 _atom_site_label
 _atom_site_symmetry_multiplicity
 _atom_site_fract_x
 _atom_site_fract_y
 _atom_site_fract_z
 _atom_site_occupancy
 _atom_site_charge
  Zn  Zn1  1  0.133110  0.026430  0.599170  1.0  0.8351
  Zn  Zn2  1  0.633110  0.973570  0.400830  1.0  0.8346
  Zn  Zn3  1  0.133110  0.473570  0.099170  1.0  0.8351
  Zn  Zn4  1  0.633110  0.526430  0.900830  1.0  0.8346
  H  H5  1  0.832800  0.962900  0.528000  1.0  0.0622
  H  H6  1  0.235900  0.371000  0.387900  1.0  0.0402
  H  H7  1  0.825100  0.296500  0.266200  1.0  0.3461
  H  H8  1  0.737700  0.195200  0.305900  1.0  0.3258
  H  H9  1  0.957600  0.689100  0.707600  1.0  0.1208
  H  H10  1  0.846400  0.542500  0.784600  1.0  0.0722
  H  H11  1  0.607200  0.818500  0.874900  1.0  0.0948
  H  H12  1  0.708100  0.970500  0.798300  1.0  0.1087
  H  H13  1  0.332800  0.037100  0.472000  1.0  0.062
  H  H14  1  0.735900  0.629000  0.612100  1.0  0.0407
  H  H15  1  0.325100  0.703500  0.733800  1.0  0.3464
  H  H16  1  0.237700  0.804800  0.694100  1.0  0.3251
  H  H17  1  0.457600  0.310900  0.292400  1.0  0.1206
  H  H18  1  0.346400  0.457500  0.215400  1.0  0.0721
  H  H19  1  0.107200  0.181500  0.125100  1.0  0.094
  H  H20  1  0.208100  0.029500  0.201700  1.0  0.1089
  H  H21  1  0.832800  0.537100  0.028000  1.0  0.0621
  H  H22  1  0.235900  0.129000  0.887900  1.0  0.0414
  H  H23  1  0.825100  0.203500  0.766200  1.0  0.3463
  H  H24  1  0.737700  0.304800  0.805900  1.0  0.3258
  H  H25  1  0.957600  0.810900  0.207600  1.0  0.1207
  H  H26  1  0.846400  0.957500  0.284600  1.0  0.0728
  H  H27  1  0.607200  0.681500  0.374900  1.0  0.0947
  H  H28  1  0.708100  0.529500  0.298300  1.0  0.1087
  H  H29  1  0.332800  0.462900  0.972000  1.0  0.0618
  H  H30  1  0.735900  0.871000  0.112100  1.0  0.0404
  H  H31  1  0.325100  0.796500  0.233800  1.0  0.3461
  H  H32  1  0.237700  0.695200  0.194100  1.0  0.3257
  H  H33  1  0.457600  0.189100  0.792400  1.0  0.1209
  H  H34  1  0.346400  0.042500  0.715400  1.0  0.0725
  H  H35  1  0.107200  0.318500  0.625100  1.0  0.0944
  H  H36  1  0.208100  0.470500  0.701700  1.0  0.1092
  C  C37  1  0.878100  0.026400  0.499500  1.0  0.3132
  C  C38  1  0.153200  0.316600  0.396070  1.0  0.4049
  C  C39  1  0.923400  0.242400  0.353220  1.0  0.4894
  C  C40  1  0.919000  0.160100  0.413680  1.0  -0.1076
  C  C41  1  0.038000  0.167400  0.462190  1.0  0.4154
  C  C42  1  0.913400  0.944200  0.693110  1.0  0.6504
  C  C43  1  0.886100  0.717100  0.740940  1.0  -0.1267
  C  C44  1  0.844800  0.847000  0.744380  1.0  -0.0281
  C  C45  1  0.819900  0.630000  0.787660  1.0  0.1698
  C  C46  1  0.678200  0.792700  0.840700  1.0  0.1615
  C  C47  1  0.738500  0.883900  0.795100  1.0  -0.1064
  C  C48  1  0.378100  0.973600  0.500500  1.0  0.314
  C  C49  1  0.653200  0.683400  0.603930  1.0  0.4028
  C  C50  1  0.423400  0.757600  0.646780  1.0  0.4886
  C  C51  1  0.419000  0.839900  0.586320  1.0  -0.1077
  C  C52  1  0.538000  0.832600  0.537810  1.0  0.4165
  C  C53  1  0.413400  0.055800  0.306890  1.0  0.6496
  C  C54  1  0.386100  0.282900  0.259060  1.0  -0.1272
  C  C55  1  0.344800  0.153000  0.255620  1.0  -0.028
  C  C56  1  0.319900  0.370000  0.212340  1.0  0.1701
  C  C57  1  0.178200  0.207300  0.159300  1.0  0.1625
  C  C58  1  0.238500  0.116100  0.204900  1.0  -0.1046
  C  C59  1  0.878100  0.473600  0.999500  1.0  0.3134
  C  C60  1  0.153200  0.183400  0.896070  1.0  0.4035
  C  C61  1  0.923400  0.257600  0.853220  1.0  0.4888
  C  C62  1  0.919000  0.339900  0.913680  1.0  -0.1076
  C  C63  1  0.038000  0.332600  0.962190  1.0  0.4151
  C  C64  1  0.913400  0.555800  0.193110  1.0  0.6495
  C  C65  1  0.886100  0.782900  0.240940  1.0  -0.127
  C  C66  1  0.844800  0.653000  0.244380  1.0  -0.027
  C  C67  1  0.819900  0.870000  0.287660  1.0  0.1701
  C  C68  1  0.678200  0.707300  0.340700  1.0  0.1614
  C  C69  1  0.738500  0.616100  0.295100  1.0  -0.1049
  C  C70  1  0.378100  0.526400  0.000500  1.0  0.3136
  C  C71  1  0.653200  0.816600  0.103930  1.0  0.4057
  C  C72  1  0.423400  0.742400  0.146780  1.0  0.4886
  C  C73  1  0.419000  0.660100  0.086320  1.0  -0.1074
  C  C74  1  0.538000  0.667400  0.037810  1.0  0.4174
  C  C75  1  0.413400  0.444200  0.806890  1.0  0.6501
  C  C76  1  0.386100  0.217100  0.759060  1.0  -0.1269
  C  C77  1  0.344800  0.347000  0.755620  1.0  -0.0289
  C  C78  1  0.319900  0.130000  0.712340  1.0  0.1697
  C  C79  1  0.178200  0.292700  0.659300  1.0  0.1626
  C  C80  1  0.238500  0.383900  0.704900  1.0  -0.1055
  N  N81  1  0.010200  0.081800  0.517050  1.0  -0.4974
  N  N82  1  0.160700  0.245300  0.455750  1.0  -0.5648
  N  N83  1  0.815500  0.068000  0.438570  1.0  -0.4195
  N  N84  1  0.044400  0.321300  0.346280  1.0  -0.5789
  N  N85  1  0.815900  0.245000  0.302400  1.0  -0.6706
  N  N86  1  0.719400  0.666500  0.837030  1.0  -0.3316
  N  N87  1  0.510200  0.918200  0.482950  1.0  -0.4966
  N  N88  1  0.660700  0.754700  0.544250  1.0  -0.5679
  N  N89  1  0.315500  0.932000  0.561430  1.0  -0.4207
  N  N90  1  0.544400  0.678700  0.653720  1.0  -0.5773
  N  N91  1  0.315900  0.755000  0.697600  1.0  -0.6704
  N  N92  1  0.219400  0.333500  0.162970  1.0  -0.3313
  N  N93  1  0.010200  0.418200  0.017050  1.0  -0.4969
  N  N94  1  0.160700  0.254700  0.955750  1.0  -0.565
  N  N95  1  0.815500  0.432000  0.938570  1.0  -0.4194
  N  N96  1  0.044400  0.178700  0.846280  1.0  -0.5769
  N  N97  1  0.815900  0.255000  0.802400  1.0  -0.6702
  N  N98  1  0.719400  0.833500  0.337030  1.0  -0.3318
  N  N99  1  0.510200  0.581800  0.982950  1.0  -0.4969
  N  N100  1  0.660700  0.745300  0.044250  1.0  -0.5725
  N  N101  1  0.315500  0.568000  0.061430  1.0  -0.4207
  N  N102  1  0.544400  0.821300  0.153720  1.0  -0.5769
  N  N103  1  0.315900  0.745000  0.197600  1.0  -0.6707
  N  N104  1  0.219400  0.166500  0.662970  1.0  -0.3315
  O  O105  1  0.032700  0.901900  0.660770  1.0  -0.6067
  O  O106  1  0.857000  0.051400  0.685060  1.0  -0.5721
  O  O107  1  0.532700  0.098100  0.339230  1.0  -0.606
  O  O108  1  0.357000  0.948600  0.314940  1.0  -0.5722
  O  O109  1  0.032700  0.598100  0.160770  1.0  -0.6062
  O  O110  1  0.857000  0.448600  0.185060  1.0  -0.5724
  O  O111  1  0.532700  0.401900  0.839230  1.0  -0.6056
  O  O112  1  0.357000  0.551400  0.814940  1.0  -0.5725
