# generated using pymatgen
data_ZnH8C11(N3O)2
_symmetry_space_group_name_H-M   'P 1'
_cell_length_a   8.94540000
_cell_length_b   10.69810000
_cell_length_c   18.44740000
_cell_angle_alpha   90.00000000
_cell_angle_beta   90.00000000
_cell_angle_gamma   90.00000000
_symmetry_Int_Tables_number   1
_chemical_formula_structural   ZnH8C11(N3O)2
_chemical_formula_sum   'Zn4 H32 C44 N24 O8'
_cell_volume   1765.39374317
_cell_formula_units_Z   4
loop_
 _symmetry_equiv_pos_site_id
 _symmetry_equiv_pos_as_xyz
  1  'x, y, z'
loop_
 _atom_site_type_symbol
 _atom_site_label
 _atom_site_symmetry_multiplicity
 _atom_site_fract_x
 _atom_site_fract_y
 _atom_site_fract_z
 _atom_site_occupancy
 _atom_site_charge
  Zn  Zn1  1  0.131670  0.014600  0.602470  1.0  0.8284
  Zn  Zn2  1  0.631670  0.985400  0.397530  1.0  0.8285
  Zn  Zn3  1  0.131670  0.485400  0.102470  1.0  0.8287
  Zn  Zn4  1  0.631670  0.514600  0.897530  1.0  0.8282
  H  H5  1  0.827000  0.958000  0.528000  1.0  0.0643
  H  H6  1  0.236200  0.358600  0.403100  1.0  0.0423
  H  H7  1  0.842500  0.300200  0.271700  1.0  0.3544
  H  H8  1  0.751700  0.201100  0.307400  1.0  0.3297
  H  H9  1  0.963200  0.674400  0.706200  1.0  0.1051
  H  H10  1  0.851200  0.531000  0.780200  1.0  0.0743
  H  H11  1  0.587700  0.786100  0.860300  1.0  0.0807
  H  H12  1  0.694200  0.937000  0.788900  1.0  0.1208
  H  H13  1  0.327000  0.042000  0.472000  1.0  0.0646
  H  H14  1  0.736200  0.641400  0.596900  1.0  0.0423
  H  H15  1  0.342500  0.699800  0.728300  1.0  0.3545
  H  H16  1  0.251700  0.798900  0.692600  1.0  0.3303
  H  H17  1  0.463200  0.325600  0.293800  1.0  0.1057
  H  H18  1  0.351200  0.469000  0.219800  1.0  0.0741
  H  H19  1  0.087700  0.213900  0.139700  1.0  0.0804
  H  H20  1  0.194200  0.063000  0.211100  1.0  0.1213
  H  H21  1  0.827000  0.542000  0.028000  1.0  0.064
  H  H22  1  0.236200  0.141400  0.903100  1.0  0.0433
  H  H23  1  0.842500  0.199800  0.771700  1.0  0.3532
  H  H24  1  0.751700  0.298900  0.807400  1.0  0.3309
  H  H25  1  0.963200  0.825600  0.206200  1.0  0.1055
  H  H26  1  0.851200  0.969000  0.280200  1.0  0.0742
  H  H27  1  0.587700  0.713900  0.360300  1.0  0.0812
  H  H28  1  0.694200  0.563000  0.288900  1.0  0.1212
  H  H29  1  0.327000  0.458000  0.972000  1.0  0.0648
  H  H30  1  0.736200  0.858600  0.096900  1.0  0.0423
  H  H31  1  0.342500  0.800200  0.228300  1.0  0.3542
  H  H32  1  0.251700  0.701100  0.192600  1.0  0.3304
  H  H33  1  0.463200  0.174400  0.793800  1.0  0.1056
  H  H34  1  0.351200  0.031000  0.719800  1.0  0.0742
  H  H35  1  0.087700  0.286100  0.639700  1.0  0.0803
  H  H36  1  0.194200  0.437000  0.711100  1.0  0.121
  C  C37  1  0.874500  0.019800  0.501000  1.0  0.3104
  C  C38  1  0.155800  0.304100  0.407900  1.0  0.4085
  C  C39  1  0.933100  0.238000  0.359000  1.0  0.4884
  C  C40  1  0.922000  0.153600  0.418400  1.0  -0.1064
  C  C41  1  0.035700  0.156400  0.468400  1.0  0.4069
  C  C42  1  0.920700  0.922300  0.694800  1.0  0.6436
  C  C43  1  0.888600  0.699900  0.738100  1.0  -0.123
  C  C44  1  0.847500  0.822200  0.740600  1.0  -0.0233
  C  C45  1  0.820500  0.613900  0.782400  1.0  0.1708
  C  C46  1  0.665800  0.764100  0.829500  1.0  0.1591
  C  C47  1  0.729000  0.855100  0.787100  1.0  -0.1282
  C  C48  1  0.374500  0.980200  0.499000  1.0  0.31
  C  C49  1  0.655800  0.695900  0.592100  1.0  0.4075
  C  C50  1  0.433100  0.762000  0.641000  1.0  0.4878
  C  C51  1  0.422000  0.846400  0.581600  1.0  -0.1063
  C  C52  1  0.535700  0.843600  0.531600  1.0  0.4072
  C  C53  1  0.420700  0.077700  0.305200  1.0  0.6438
  C  C54  1  0.388600  0.300100  0.261900  1.0  -0.1232
  C  C55  1  0.347500  0.177800  0.259400  1.0  -0.022
  C  C56  1  0.320500  0.386100  0.217600  1.0  0.1722
  C  C57  1  0.165800  0.235900  0.170500  1.0  0.1586
  C  C58  1  0.229000  0.144900  0.212900  1.0  -0.1282
  C  C59  1  0.874500  0.480200  0.001000  1.0  0.3101
  C  C60  1  0.155800  0.195900  0.907900  1.0  0.4082
  C  C61  1  0.933100  0.262000  0.859000  1.0  0.4873
  C  C62  1  0.922000  0.346400  0.918400  1.0  -0.1066
  C  C63  1  0.035700  0.343600  0.968400  1.0  0.4069
  C  C64  1  0.920700  0.577700  0.194800  1.0  0.6434
  C  C65  1  0.888600  0.800100  0.238100  1.0  -0.1232
  C  C66  1  0.847500  0.677800  0.240600  1.0  -0.0221
  C  C67  1  0.820500  0.886100  0.282400  1.0  0.1723
  C  C68  1  0.665800  0.735900  0.329500  1.0  0.1592
  C  C69  1  0.729000  0.644900  0.287100  1.0  -0.1276
  C  C70  1  0.374500  0.519800  0.999000  1.0  0.3099
  C  C71  1  0.655800  0.804100  0.092100  1.0  0.4089
  C  C72  1  0.433100  0.738000  0.141000  1.0  0.4884
  C  C73  1  0.422000  0.653600  0.081600  1.0  -0.106
  C  C74  1  0.535700  0.656400  0.031600  1.0  0.408
  C  C75  1  0.420700  0.422300  0.805200  1.0  0.6436
  C  C76  1  0.388600  0.199900  0.761900  1.0  -0.123
  C  C77  1  0.347500  0.322200  0.759400  1.0  -0.0234
  C  C78  1  0.320500  0.113900  0.717600  1.0  0.1709
  C  C79  1  0.165800  0.264100  0.670500  1.0  0.1589
  C  C80  1  0.229000  0.355100  0.712900  1.0  -0.1283
  N  N81  1  0.006100  0.070800  0.521600  1.0  -0.5052
  N  N82  1  0.160700  0.230800  0.465700  1.0  -0.5259
  N  N83  1  0.817600  0.064300  0.439400  1.0  -0.4084
  N  N84  1  0.052700  0.312100  0.355000  1.0  -0.5802
  N  N85  1  0.830100  0.247600  0.306400  1.0  -0.6764
  N  N86  1  0.711500  0.645300  0.828700  1.0  -0.3345
  N  N87  1  0.506100  0.929200  0.478400  1.0  -0.5048
  N  N88  1  0.660700  0.769200  0.534300  1.0  -0.5442
  N  N89  1  0.317600  0.935700  0.560600  1.0  -0.4095
  N  N90  1  0.552700  0.687900  0.645000  1.0  -0.5793
  N  N91  1  0.330100  0.752400  0.693600  1.0  -0.6757
  N  N92  1  0.211500  0.354700  0.171300  1.0  -0.3351
  N  N93  1  0.006100  0.429200  0.021600  1.0  -0.5049
  N  N94  1  0.160700  0.269200  0.965700  1.0  -0.5348
  N  N95  1  0.817600  0.435700  0.939400  1.0  -0.4084
  N  N96  1  0.052700  0.187900  0.855000  1.0  -0.5814
  N  N97  1  0.830100  0.252400  0.806400  1.0  -0.6761
  N  N98  1  0.711500  0.854700  0.328700  1.0  -0.3345
  N  N99  1  0.506100  0.570800  0.978400  1.0  -0.5052
  N  N100  1  0.660700  0.730800  0.034300  1.0  -0.5403
  N  N101  1  0.317600  0.564300  0.060600  1.0  -0.4096
  N  N102  1  0.552700  0.812100  0.145000  1.0  -0.5782
  N  N103  1  0.330100  0.747600  0.193600  1.0  -0.6763
  N  N104  1  0.211500  0.145300  0.671300  1.0  -0.3352
  O  O105  1  0.038600  0.883600  0.661080  1.0  -0.6104
  O  O106  1  0.871200  0.027400  0.691900  1.0  -0.5576
  O  O107  1  0.538600  0.116400  0.338920  1.0  -0.6101
  O  O108  1  0.371200  0.972600  0.308100  1.0  -0.5573
  O  O109  1  0.038600  0.616400  0.161080  1.0  -0.61
  O  O110  1  0.871200  0.472600  0.191900  1.0  -0.5576
  O  O111  1  0.538600  0.383600  0.838920  1.0  -0.6102
  O  O112  1  0.371200  0.527400  0.808100  1.0  -0.5575
