# generated using pymatgen
data_Ce3P3H45C37N3O23
_symmetry_space_group_name_H-M   'P 1'
_cell_length_a   15.20950000
_cell_length_b   15.30490000
_cell_length_c   15.36980000
_cell_angle_alpha   106.48500000
_cell_angle_beta   117.14300000
_cell_angle_gamma   103.23600000
_symmetry_Int_Tables_number   1
_chemical_formula_structural   Ce3P3H45C37N3O23
_chemical_formula_sum   'Ce6 P6 H90 C74 N6 O46'
_cell_volume   2770.51014233
_cell_formula_units_Z   2
loop_
 _symmetry_equiv_pos_site_id
 _symmetry_equiv_pos_as_xyz
  1  'x, y, z'
loop_
 _atom_site_type_symbol
 _atom_site_label
 _atom_site_symmetry_multiplicity
 _atom_site_fract_x
 _atom_site_fract_y
 _atom_site_fract_z
 _atom_site_occupancy
 _atom_site_charge
  Ce  Ce1  1  0.943140  0.802420  0.633890  1.0  2.2979
  Ce  Ce2  1  0.679480  0.817250  0.384870  1.0  2.3074
  Ce  Ce3  1  0.915370  0.145700  0.562720  1.0  2.3811
  Ce  Ce4  1  0.056860  0.197580  0.366110  1.0  2.2942
  Ce  Ce5  1  0.320520  0.182750  0.615130  1.0  2.3068
  Ce  Ce6  1  0.084630  0.854300  0.437280  1.0  2.3812
  P  P7  1  0.874250  0.982350  0.689900  1.0  1.59
  P  P8  1  0.803580  0.694950  0.326100  1.0  1.5742
  P  P9  1  0.117170  0.024550  0.642700  1.0  1.6337
  P  P10  1  0.125750  0.017650  0.310100  1.0  1.5907
  P  P11  1  0.196420  0.305050  0.673900  1.0  1.5743
  P  P12  1  0.882830  0.975450  0.357300  1.0  1.6331
  H  H13  1  0.294800  0.525400  0.176900  1.0  0.4439
  H  H14  1  0.663300  0.944500  0.609000  1.0  0.2565
  H  H15  1  0.841100  0.562100  0.403600  1.0  0.2607
  H  H16  1  0.254200  0.213700  0.819600  1.0  0.2419
  H  H17  1  0.828000  0.009700  0.816300  1.0  0.1668
  H  H18  1  0.778700  0.894300  0.742300  1.0  0.1711
  H  H19  1  0.595100  0.816600  0.636500  1.0  0.0997
  H  H20  1  0.611300  0.894600  0.740400  1.0  0.0907
  H  H21  1  0.429400  0.827100  0.597500  1.0  0.0944
  H  H22  1  0.461900  0.855000  0.522400  1.0  0.0916
  H  H23  1  0.492500  0.992500  0.710900  1.0  0.0954
  H  H24  1  0.576500  0.126200  0.694100  1.0  0.1039
  H  H25  1  0.558700  0.054900  0.585800  1.0  0.0862
  H  H26  1  0.703200  0.079800  0.796600  1.0  0.0835
  H  H27  1  0.736000  0.108300  0.722100  1.0  0.1053
  H  H28  1  0.700100  0.526800  0.196800  1.0  0.1627
  H  H29  1  0.660600  0.551600  0.275100  1.0  0.1704
  H  H30  1  0.786200  0.421000  0.211200  1.0  0.0795
  H  H31  1  0.888900  0.524100  0.284400  1.0  0.1086
  H  H32  1  0.971500  0.475800  0.416100  1.0  0.0824
  H  H33  1  0.931300  0.389100  0.304400  1.0  0.1041
  H  H34  1  0.786300  0.292400  0.295100  1.0  0.0933
  H  H35  1  0.836800  0.441800  0.487200  1.0  0.0892
  H  H36  1  0.735200  0.337800  0.412000  1.0  0.1027
  H  H37  1  0.688700  0.469500  0.383400  1.0  0.0895
  H  H38  1  0.658500  0.385500  0.274700  1.0  0.0928
  H  H39  1  0.275200  0.059700  0.804600  1.0  0.1861
  H  H40  1  0.176400  0.033700  0.815700  1.0  0.1526
  H  H41  1  0.094700  0.166500  0.813500  1.0  0.0965
  H  H42  1  0.163200  0.170500  0.929100  1.0  0.0953
  H  H43  1  0.194400  0.337200  0.884200  1.0  0.0926
  H  H44  1  0.144800  0.320300  0.951200  1.0  0.0974
  H  H45  1  0.309300  0.341500  0.092600  1.0  0.0902
  H  H46  1  0.406800  0.369700  0.977800  1.0  0.1042
  H  H47  1  0.464000  0.367100  0.091100  1.0  0.0866
  H  H48  1  0.352100  0.196500  0.009400  1.0  0.081
  H  H49  1  0.408800  0.212300  0.948100  1.0  0.0936
  H  H50  1  0.279100  0.677400  0.057500  1.0  0.1042
  H  H51  1  0.135200  0.687500  0.921200  1.0  0.1115
  H  H52  1  0.341300  0.919700  0.944700  1.0  0.1047
  H  H53  1  0.486300  0.916900  0.086700  1.0  0.1088
  H  H54  1  0.503900  0.532100  0.665600  1.0  0.0968
  H  H55  1  0.631200  0.657000  0.677300  1.0  0.1025
  H  H56  1  0.732700  0.459500  0.564300  1.0  0.0944
  H  H57  1  0.601300  0.331500  0.548300  1.0  0.1069
  H  H58  1  0.705200  0.474600  0.823100  1.0  0.4455
  H  H59  1  0.336700  0.055500  0.391000  1.0  0.2572
  H  H60  1  0.158900  0.437900  0.596400  1.0  0.2614
  H  H61  1  0.745800  0.786300  0.180400  1.0  0.2403
  H  H62  1  0.172000  0.990300  0.183700  1.0  0.1666
  H  H63  1  0.221300  0.105700  0.257700  1.0  0.1708
  H  H64  1  0.404900  0.183400  0.363500  1.0  0.0982
  H  H65  1  0.388700  0.105400  0.259600  1.0  0.0903
  H  H66  1  0.570600  0.172900  0.402500  1.0  0.0973
  H  H67  1  0.538100  0.145000  0.477600  1.0  0.0897
  H  H68  1  0.507500  0.007500  0.289100  1.0  0.0954
  H  H69  1  0.423500  0.873800  0.305900  1.0  0.1043
  H  H70  1  0.441300  0.945100  0.414200  1.0  0.0857
  H  H71  1  0.296800  0.920200  0.203400  1.0  0.0841
  H  H72  1  0.264000  0.891700  0.277900  1.0  0.1059
  H  H73  1  0.299900  0.473200  0.803200  1.0  0.1611
  H  H74  1  0.339400  0.448400  0.724900  1.0  0.1731
  H  H75  1  0.213800  0.579000  0.788800  1.0  0.0804
  H  H76  1  0.111100  0.475900  0.715600  1.0  0.1085
  H  H77  1  0.028500  0.524200  0.583900  1.0  0.0839
  H  H78  1  0.068700  0.610900  0.695600  1.0  0.104
  H  H79  1  0.213700  0.707600  0.704900  1.0  0.0974
  H  H80  1  0.163200  0.558200  0.512800  1.0  0.089
  H  H81  1  0.264800  0.662200  0.588000  1.0  0.1034
  H  H82  1  0.311300  0.530500  0.616600  1.0  0.0907
  H  H83  1  0.341500  0.614500  0.725300  1.0  0.0918
  H  H84  1  0.724800  0.940300  0.195400  1.0  0.1862
  H  H85  1  0.823600  0.966300  0.184300  1.0  0.1524
  H  H86  1  0.905300  0.833500  0.186500  1.0  0.0983
  H  H87  1  0.836800  0.829500  0.070900  1.0  0.0992
  H  H88  1  0.805600  0.662800  0.115800  1.0  0.0917
  H  H89  1  0.855200  0.679700  0.048800  1.0  0.0969
  H  H90  1  0.690700  0.658500  0.907400  1.0  0.09
  H  H91  1  0.593200  0.630300  0.022200  1.0  0.1032
  H  H92  1  0.536000  0.632900  0.908900  1.0  0.0861
  H  H93  1  0.647900  0.803500  0.990600  1.0  0.0813
  H  H94  1  0.591200  0.787700  0.051900  1.0  0.0924
  H  H95  1  0.720900  0.322600  0.942500  1.0  0.1042
  H  H96  1  0.864800  0.312500  0.078800  1.0  0.112
  H  H97  1  0.658700  0.080300  0.055300  1.0  0.1049
  H  H98  1  0.513700  0.083100  0.913300  1.0  0.1089
  H  H99  1  0.496100  0.467900  0.334400  1.0  0.0969
  H  H100  1  0.368800  0.343000  0.322700  1.0  0.1033
  H  H101  1  0.267300  0.540500  0.435700  1.0  0.0938
  H  H102  1  0.398700  0.668500  0.451700  1.0  0.1075
  C  C103  1  0.789400  0.958900  0.741400  1.0  -0.5254
  C  C104  1  0.595000  0.881300  0.667900  1.0  -0.0735
  C  C105  1  0.482200  0.876400  0.597200  1.0  -0.154
  C  C106  1  0.479800  0.977600  0.638800  1.0  -0.1876
  C  C107  1  0.573400  0.061800  0.656400  1.0  -0.1591
  C  C108  1  0.681800  0.059800  0.721600  1.0  -0.079
  C  C109  1  0.367500  0.975300  0.566800  1.0  0.7234
  C  C110  1  0.724600  0.560800  0.272700  1.0  -0.5201
  C  C111  1  0.841500  0.471000  0.286100  1.0  -0.0767
  C  C112  1  0.907200  0.423600  0.346500  1.0  -0.1645
  C  C113  1  0.843000  0.349000  0.367000  1.0  -0.181
  C  C114  1  0.784000  0.391100  0.412000  1.0  -0.1599
  C  C115  1  0.718700  0.437700  0.346800  1.0  -0.0795
  C  C116  1  0.909900  0.305400  0.434600  1.0  0.7552
  C  C117  1  0.211400  0.072000  0.791000  1.0  -0.5247
  C  C118  1  0.166200  0.199200  0.881300  1.0  -0.0676
  C  C119  1  0.197000  0.309800  0.934600  1.0  -0.1691
  C  C120  1  0.311700  0.365000  0.040300  1.0  -0.1831
  C  C121  1  0.395100  0.339300  0.021300  1.0  -0.1382
  C  C122  1  0.356700  0.226300  0.962900  1.0  -0.0664
  C  C123  1  0.337300  0.479600  0.088300  1.0  0.6736
  C  C124  1  0.492300  0.792400  0.177900  1.0  0.6497
  C  C125  1  0.397400  0.795500  0.086500  1.0  -0.1319
  C  C126  1  0.292400  0.727500  0.036400  1.0  -0.0528
  C  C127  1  0.206100  0.733500  0.954300  1.0  -0.0753
  C  C128  1  0.224400  0.805400  0.922400  1.0  -0.1059
  C  C129  1  0.329000  0.872300  0.969400  1.0  -0.0688
  C  C130  1  0.415900  0.869600  0.052900  1.0  -0.0772
  C  C131  1  0.128900  0.810000  0.830600  1.0  0.6616
  C  C132  1  0.458100  0.336600  0.598500  1.0  0.6637
  C  C133  1  0.540100  0.419200  0.608100  1.0  -0.1327
  C  C134  1  0.549500  0.517200  0.645000  1.0  -0.046
  C  C135  1  0.625200  0.591700  0.651300  1.0  -0.054
  C  C136  1  0.694700  0.571300  0.618800  1.0  -0.1003
  C  C137  1  0.685800  0.473900  0.583200  1.0  -0.062
  C  C138  1  0.608100  0.397000  0.575200  1.0  -0.0626
  C  C139  1  0.774700  0.650700  0.622500  1.0  0.6705
  C  C140  1  0.210600  0.041100  0.258600  1.0  -0.5259
  C  C141  1  0.405000  0.118700  0.332100  1.0  -0.0738
  C  C142  1  0.517800  0.123600  0.402800  1.0  -0.1566
  C  C143  1  0.520200  0.022400  0.361200  1.0  -0.1872
  C  C144  1  0.426600  0.938200  0.343600  1.0  -0.1602
  C  C145  1  0.318200  0.940200  0.278400  1.0  -0.0787
  C  C146  1  0.632500  0.024700  0.433200  1.0  0.7453
  C  C147  1  0.275400  0.439200  0.727300  1.0  -0.5191
  C  C148  1  0.158500  0.529000  0.713900  1.0  -0.0766
  C  C149  1  0.092800  0.576400  0.653500  1.0  -0.1635
  C  C150  1  0.157000  0.651000  0.633000  1.0  -0.1817
  C  C151  1  0.216000  0.608900  0.588000  1.0  -0.1578
  C  C152  1  0.281300  0.562300  0.653200  1.0  -0.0771
  C  C153  1  0.090100  0.694600  0.565400  1.0  0.7585
  C  C154  1  0.788600  0.928000  0.209000  1.0  -0.5249
  C  C155  1  0.833800  0.800800  0.118700  1.0  -0.0669
  C  C156  1  0.803000  0.690200  0.065400  1.0  -0.1707
  C  C157  1  0.688300  0.635000  0.959700  1.0  -0.1893
  C  C158  1  0.604900  0.660700  0.978700  1.0  -0.1367
  C  C159  1  0.643300  0.773700  0.037100  1.0  -0.0671
  C  C160  1  0.662700  0.520400  0.911700  1.0  0.6734
  C  C161  1  0.507700  0.207600  0.822100  1.0  0.6488
  C  C162  1  0.602600  0.204500  0.913500  1.0  -0.1352
  C  C163  1  0.707600  0.272500  0.963600  1.0  -0.0519
  C  C164  1  0.793900  0.266500  0.045700  1.0  -0.0751
  C  C165  1  0.775600  0.194600  0.077600  1.0  -0.1051
  C  C166  1  0.671000  0.127700  0.030600  1.0  -0.069
  C  C167  1  0.584100  0.130400  0.947100  1.0  -0.0756
  C  C168  1  0.871100  0.190000  0.169400  1.0  0.6692
  C  C169  1  0.541900  0.663400  0.401500  1.0  0.6643
  C  C170  1  0.459900  0.580800  0.391900  1.0  -0.1344
  C  C171  1  0.450500  0.482800  0.355000  1.0  -0.0452
  C  C172  1  0.374800  0.408300  0.348700  1.0  -0.0556
  C  C173  1  0.305300  0.428700  0.381200  1.0  -0.1009
  C  C174  1  0.314200  0.526100  0.416800  1.0  -0.062
  C  C175  1  0.391900  0.603000  0.424800  1.0  -0.0645
  C  C176  1  0.225300  0.349300  0.377500  1.0  0.6707
  N  N177  1  0.680000  0.959000  0.677100  1.0  0.1618
  N  N178  1  0.788200  0.513500  0.335600  1.0  0.1589
  N  N179  1  0.248000  0.181300  0.858200  1.0  0.1605
  N  N180  1  0.320000  0.041000  0.322900  1.0  0.1613
  N  N181  1  0.211800  0.486500  0.664400  1.0  0.1586
  N  N182  1  0.752000  0.818700  0.141800  1.0  0.1609
  O  O183  1  0.976800  0.973100  0.764500  1.0  -0.9066
  O  O184  1  0.813700  0.891900  0.579200  1.0  -1.0447
  O  O185  1  0.887300  0.079700  0.683500  1.0  -0.9554
  O  O186  1  0.286500  0.902500  0.538900  1.0  -0.7275
  O  O187  1  0.363600  0.044600  0.538600  1.0  -0.7352
  O  O188  1  0.720900  0.724300  0.252700  1.0  -0.8962
  O  O189  1  0.825500  0.745200  0.439100  1.0  -1.039
  O  O190  1  0.904700  0.709700  0.325800  1.0  -0.9652
  O  O191  1  0.870300  0.256500  0.470800  1.0  -0.7278
  O  O192  1  0.002800  0.319900  0.450200  1.0  -0.7417
  O  O193  1  0.056400  0.910300  0.596700  1.0  -1.0107
  O  O194  1  0.046100  0.080600  0.627700  1.0  -0.9738
  O  O195  1  0.181300  0.038400  0.591400  1.0  -1.0243
  O  O196  1  0.278100  0.507900  0.111800  1.0  -0.5713
  O  O197  1  0.422800  0.531800  0.106500  1.0  -0.4801
  O  O198  1  0.476200  0.727900  0.209100  1.0  -0.6421
  O  O199  1  0.585100  0.861100  0.227000  1.0  -0.6681
  O  O200  1  0.033800  0.763700  0.801900  1.0  -0.6781
  O  O201  1  0.148900  0.860100  0.782900  1.0  -0.6848
  O  O202  1  0.405200  0.358500  0.639000  1.0  -0.6882
  O  O203  1  0.443300  0.247700  0.555100  1.0  -0.6679
  O  O204  1  0.799700  0.742600  0.677300  1.0  -0.6872
  O  O205  1  0.817400  0.625200  0.572700  1.0  -0.6549
  O  O206  1  0.023200  0.026900  0.235500  1.0  -0.9075
  O  O207  1  0.186300  0.108100  0.420800  1.0  -1.0379
  O  O208  1  0.112700  0.920300  0.316500  1.0  -0.9576
  O  O209  1  0.713500  0.097500  0.461100  1.0  -0.727
  O  O210  1  0.636400  0.955400  0.461400  1.0  -0.7351
  O  O211  1  0.279100  0.275700  0.747300  1.0  -0.896
  O  O212  1  0.174500  0.254800  0.560900  1.0  -1.0388
  O  O213  1  0.095300  0.290300  0.674200  1.0  -0.9616
  O  O214  1  0.129700  0.743500  0.529200  1.0  -0.7302
  O  O215  1  0.997200  0.680100  0.549800  1.0  -0.7432
  O  O216  1  0.943600  0.089700  0.403300  1.0  -1.0117
  O  O217  1  0.953900  0.919400  0.372300  1.0  -0.9715
  O  O218  1  0.818700  0.961600  0.408600  1.0  -1.0273
  O  O219  1  0.721900  0.492100  0.888200  1.0  -0.5711
  O  O220  1  0.577200  0.468200  0.893500  1.0  -0.4842
  O  O221  1  0.523800  0.272100  0.790900  1.0  -0.6404
  O  O222  1  0.414900  0.138900  0.773000  1.0  -0.6696
  O  O223  1  0.966200  0.236300  0.198100  1.0  -0.6773
  O  O224  1  0.851100  0.139900  0.217100  1.0  -0.6857
  O  O225  1  0.594800  0.641500  0.361000  1.0  -0.687
  O  O226  1  0.556700  0.752300  0.444900  1.0  -0.6671
  O  O227  1  0.200300  0.257400  0.322700  1.0  -0.6883
  O  O228  1  0.182600  0.374800  0.427300  1.0  -0.6577
