# generated using pymatgen
data_La3P3H45C37N3O23
_symmetry_space_group_name_H-M   'P 1'
_cell_length_a   15.26880000
_cell_length_b   15.35520000
_cell_length_c   15.40300000
_cell_angle_alpha   106.78700000
_cell_angle_beta   117.05900000
_cell_angle_gamma   103.19500000
_symmetry_Int_Tables_number   1
_chemical_formula_structural   La3P3H45C37N3O23
_chemical_formula_sum   'La6 P6 H90 C74 N6 O46'
_cell_volume   2791.61811983
_cell_formula_units_Z   2
loop_
 _symmetry_equiv_pos_site_id
 _symmetry_equiv_pos_as_xyz
  1  'x, y, z'
loop_
 _atom_site_type_symbol
 _atom_site_label
 _atom_site_symmetry_multiplicity
 _atom_site_fract_x
 _atom_site_fract_y
 _atom_site_fract_z
 _atom_site_occupancy
 _atom_site_charge
  La  La1  1  0.942980  0.802540  0.634240  1.0  2.2008
  La  La2  1  0.678390  0.816070  0.383350  1.0  2.201
  La  La3  1  0.915120  0.146390  0.563240  1.0  2.2745
  La  La4  1  0.057020  0.197460  0.365760  1.0  2.1996
  La  La5  1  0.321610  0.183930  0.616650  1.0  2.2007
  La  La6  1  0.084880  0.853610  0.436760  1.0  2.2733
  P  P7  1  0.874100  0.983200  0.691000  1.0  1.5585
  P  P8  1  0.803300  0.693400  0.324400  1.0  1.5357
  P  P9  1  0.117500  0.025100  0.643900  1.0  1.5904
  P  P10  1  0.125900  0.016800  0.309000  1.0  1.5585
  P  P11  1  0.196700  0.306600  0.675600  1.0  1.5361
  P  P12  1  0.882500  0.974900  0.356100  1.0  1.5862
  H  H13  1  0.293300  0.524700  0.176700  1.0  0.4382
  H  H14  1  0.662400  0.945100  0.608600  1.0  0.2634
  H  H15  1  0.841300  0.562200  0.404200  1.0  0.2578
  H  H16  1  0.254200  0.214100  0.820600  1.0  0.2384
  H  H17  1  0.827200  0.010100  0.816600  1.0  0.1702
  H  H18  1  0.777900  0.894900  0.741800  1.0  0.1764
  H  H19  1  0.595100  0.817100  0.636900  1.0  0.1011
  H  H20  1  0.610900  0.895600  0.740600  1.0  0.0932
  H  H21  1  0.429400  0.827300  0.595000  1.0  0.0968
  H  H22  1  0.464000  0.856900  0.522300  1.0  0.0921
  H  H23  1  0.491500  0.992900  0.710400  1.0  0.1006
  H  H24  1  0.574900  0.125500  0.691500  1.0  0.1076
  H  H25  1  0.558200  0.052400  0.584600  1.0  0.085
  H  H26  1  0.701700  0.079700  0.797400  1.0  0.0843
  H  H27  1  0.736300  0.109600  0.724800  1.0  0.1122
  H  H28  1  0.700700  0.524400  0.196400  1.0  0.1738
  H  H29  1  0.660900  0.550400  0.274200  1.0  0.1834
  H  H30  1  0.784900  0.418500  0.208700  1.0  0.084
  H  H31  1  0.887700  0.521400  0.280700  1.0  0.1139
  H  H32  1  0.969200  0.475400  0.416900  1.0  0.0825
  H  H33  1  0.932600  0.388600  0.306900  1.0  0.1079
  H  H34  1  0.785800  0.292400  0.293500  1.0  0.098
  H  H35  1  0.838900  0.445400  0.487400  1.0  0.0925
  H  H36  1  0.738000  0.340900  0.415600  1.0  0.1012
  H  H37  1  0.685000  0.464800  0.376800  1.0  0.0944
  H  H38  1  0.662700  0.382300  0.271500  1.0  0.0921
  H  H39  1  0.275800  0.061600  0.806200  1.0  0.181
  H  H40  1  0.177600  0.035400  0.817500  1.0  0.1566
  H  H41  1  0.095700  0.166500  0.814900  1.0  0.0997
  H  H42  1  0.164600  0.172100  0.930800  1.0  0.0959
  H  H43  1  0.192900  0.337100  0.884500  1.0  0.0961
  H  H44  1  0.143200  0.319800  0.950900  1.0  0.1058
  H  H45  1  0.309100  0.345000  0.095000  1.0  0.0857
  H  H46  1  0.404200  0.371500  0.979000  1.0  0.1062
  H  H47  1  0.462100  0.370400  0.092600  1.0  0.0904
  H  H48  1  0.349000  0.197200  0.010200  1.0  0.0789
  H  H49  1  0.407300  0.212500  0.950500  1.0  0.0968
  H  H50  1  0.278000  0.683000  0.062200  1.0  0.1009
  H  H51  1  0.135100  0.687700  0.923200  1.0  0.1152
  H  H52  1  0.341900  0.914700  0.940400  1.0  0.1049
  H  H53  1  0.485700  0.915800  0.087100  1.0  0.1093
  H  H54  1  0.508600  0.535200  0.671200  1.0  0.1078
  H  H55  1  0.631100  0.656700  0.673100  1.0  0.0918
  H  H56  1  0.728700  0.457600  0.560700  1.0  0.094
  H  H57  1  0.603700  0.332200  0.552700  1.0  0.1027
  H  H58  1  0.706700  0.475300  0.823300  1.0  0.44
  H  H59  1  0.337600  0.054900  0.391400  1.0  0.2627
  H  H60  1  0.158700  0.437800  0.595800  1.0  0.2589
  H  H61  1  0.745800  0.785900  0.179400  1.0  0.2383
  H  H62  1  0.172800  0.989900  0.183400  1.0  0.1704
  H  H63  1  0.222100  0.105100  0.258200  1.0  0.1762
  H  H64  1  0.404900  0.182900  0.363100  1.0  0.0997
  H  H65  1  0.389100  0.104400  0.259400  1.0  0.0934
  H  H66  1  0.570600  0.172700  0.405000  1.0  0.097
  H  H67  1  0.536000  0.143100  0.477700  1.0  0.0885
  H  H68  1  0.508500  0.007100  0.289600  1.0  0.1012
  H  H69  1  0.425100  0.874500  0.308500  1.0  0.1085
  H  H70  1  0.441800  0.947600  0.415400  1.0  0.0845
  H  H71  1  0.298300  0.920300  0.202600  1.0  0.0854
  H  H72  1  0.263700  0.890400  0.275200  1.0  0.1141
  H  H73  1  0.299300  0.475600  0.803600  1.0  0.1719
  H  H74  1  0.339100  0.449600  0.725800  1.0  0.181
  H  H75  1  0.215100  0.581500  0.791300  1.0  0.0841
  H  H76  1  0.112300  0.478600  0.719300  1.0  0.1136
  H  H77  1  0.030800  0.524600  0.583100  1.0  0.0838
  H  H78  1  0.067400  0.611400  0.693100  1.0  0.1047
  H  H79  1  0.214200  0.707600  0.706500  1.0  0.0992
  H  H80  1  0.161100  0.554600  0.512600  1.0  0.0921
  H  H81  1  0.262000  0.659100  0.584400  1.0  0.1009
  H  H82  1  0.315000  0.535200  0.623200  1.0  0.0955
  H  H83  1  0.337300  0.617700  0.728500  1.0  0.0917
  H  H84  1  0.724200  0.938400  0.193800  1.0  0.1812
  H  H85  1  0.822400  0.964600  0.182500  1.0  0.1562
  H  H86  1  0.904300  0.833500  0.185100  1.0  0.0999
  H  H87  1  0.835400  0.827900  0.069200  1.0  0.0977
  H  H88  1  0.807100  0.662900  0.115500  1.0  0.0958
  H  H89  1  0.856800  0.680200  0.049100  1.0  0.1044
  H  H90  1  0.690900  0.655000  0.905000  1.0  0.0845
  H  H91  1  0.595800  0.628500  0.021000  1.0  0.1051
  H  H92  1  0.537900  0.629600  0.907400  1.0  0.0893
  H  H93  1  0.651000  0.802800  0.989800  1.0  0.0811
  H  H94  1  0.592700  0.787500  0.049500  1.0  0.0959
  H  H95  1  0.722000  0.317000  0.937800  1.0  0.1009
  H  H96  1  0.864900  0.312300  0.076800  1.0  0.1149
  H  H97  1  0.658100  0.085300  0.059600  1.0  0.1057
  H  H98  1  0.514300  0.084200  0.912900  1.0  0.1091
  H  H99  1  0.491400  0.464800  0.328800  1.0  0.1077
  H  H100  1  0.368900  0.343300  0.326900  1.0  0.0923
  H  H101  1  0.271300  0.542400  0.439300  1.0  0.0941
  H  H102  1  0.396300  0.667800  0.447300  1.0  0.1028
  C  C103  1  0.788800  0.959500  0.741500  1.0  -0.5246
  C  C104  1  0.595000  0.881700  0.668100  1.0  -0.0654
  C  C105  1  0.482700  0.877300  0.596500  1.0  -0.1603
  C  C106  1  0.479000  0.977800  0.638300  1.0  -0.1853
  C  C107  1  0.572500  0.060900  0.655400  1.0  -0.1635
  C  C108  1  0.681700  0.060600  0.722900  1.0  -0.0777
  C  C109  1  0.369200  0.975300  0.566800  1.0  0.7543
  C  C110  1  0.724800  0.559400  0.272100  1.0  -0.5106
  C  C111  1  0.840600  0.469200  0.283200  1.0  -0.0744
  C  C112  1  0.906500  0.422400  0.346800  1.0  -0.1605
  C  C113  1  0.842800  0.348800  0.365600  1.0  -0.1803
  C  C114  1  0.785500  0.392800  0.413200  1.0  -0.1588
  C  C115  1  0.719400  0.435800  0.344200  1.0  -0.0741
  C  C116  1  0.910000  0.305300  0.434200  1.0  0.7398
  C  C117  1  0.212100  0.073600  0.792700  1.0  -0.5195
  C  C118  1  0.167100  0.200200  0.882600  1.0  -0.0636
  C  C119  1  0.195900  0.310100  0.935000  1.0  -0.154
  C  C120  1  0.311100  0.367700  0.042300  1.0  -0.2008
  C  C121  1  0.393200  0.341900  0.023000  1.0  -0.1533
  C  C122  1  0.354700  0.226600  0.964000  1.0  -0.0733
  C  C123  1  0.339400  0.479700  0.089700  1.0  0.6868
  C  C124  1  0.490700  0.792400  0.176200  1.0  0.6515
  C  C125  1  0.397000  0.793400  0.084500  1.0  -0.1181
  C  C126  1  0.291700  0.730000  0.037800  1.0  -0.0474
  C  C127  1  0.205500  0.733900  0.955900  1.0  -0.0775
  C  C128  1  0.223500  0.805900  0.922400  1.0  -0.1313
  C  C129  1  0.328800  0.869800  0.967300  1.0  -0.06
  C  C130  1  0.415700  0.867800  0.052100  1.0  -0.0714
  C  C131  1  0.129000  0.810500  0.831000  1.0  0.6615
  C  C132  1  0.458900  0.337000  0.600200  1.0  0.6776
  C  C133  1  0.538200  0.417900  0.604900  1.0  -0.1284
  C  C134  1  0.550700  0.518600  0.646400  1.0  -0.0866
  C  C135  1  0.626200  0.591800  0.649600  1.0  -0.0507
  C  C136  1  0.693800  0.572100  0.619500  1.0  -0.0972
  C  C137  1  0.683700  0.472700  0.581900  1.0  -0.0603
  C  C138  1  0.607900  0.397000  0.576000  1.0  -0.0521
  C  C139  1  0.773800  0.649800  0.622300  1.0  0.6725
  C  C140  1  0.211200  0.040500  0.258500  1.0  -0.5252
  C  C141  1  0.405000  0.118300  0.331900  1.0  -0.0658
  C  C142  1  0.517300  0.122700  0.403500  1.0  -0.1606
  C  C143  1  0.521000  0.022200  0.361700  1.0  -0.1852
  C  C144  1  0.427500  0.939100  0.344600  1.0  -0.166
  C  C145  1  0.318300  0.939400  0.277100  1.0  -0.0776
  C  C146  1  0.630800  0.024700  0.433200  1.0  0.7602
  C  C147  1  0.275200  0.440600  0.727900  1.0  -0.5093
  C  C148  1  0.159400  0.530800  0.716800  1.0  -0.0749
  C  C149  1  0.093500  0.577600  0.653200  1.0  -0.1607
  C  C150  1  0.157200  0.651200  0.634400  1.0  -0.1785
  C  C151  1  0.214500  0.607200  0.586800  1.0  -0.1565
  C  C152  1  0.280600  0.564200  0.655800  1.0  -0.0718
  C  C153  1  0.090000  0.694700  0.565800  1.0  0.7398
  C  C154  1  0.787900  0.926400  0.207300  1.0  -0.5194
  C  C155  1  0.832900  0.799800  0.117400  1.0  -0.064
  C  C156  1  0.804100  0.689900  0.065000  1.0  -0.1561
  C  C157  1  0.688900  0.632300  0.957700  1.0  -0.2034
  C  C158  1  0.606800  0.658100  0.977000  1.0  -0.1528
  C  C159  1  0.645300  0.773400  0.036000  1.0  -0.0745
  C  C160  1  0.660600  0.520300  0.910300  1.0  0.6838
  C  C161  1  0.509300  0.207600  0.823800  1.0  0.6487
  C  C162  1  0.603000  0.206600  0.915500  1.0  -0.1193
  C  C163  1  0.708300  0.270000  0.962200  1.0  -0.046
  C  C164  1  0.794500  0.266100  0.044100  1.0  -0.0792
  C  C165  1  0.776500  0.194100  0.077600  1.0  -0.1304
  C  C166  1  0.671200  0.130200  0.032700  1.0  -0.0617
  C  C167  1  0.584300  0.132200  0.947900  1.0  -0.0706
  C  C168  1  0.871000  0.189500  0.169000  1.0  0.6687
  C  C169  1  0.541100  0.663000  0.399800  1.0  0.6769
  C  C170  1  0.461800  0.582100  0.395100  1.0  -0.1293
  C  C171  1  0.449300  0.481400  0.353600  1.0  -0.0883
  C  C172  1  0.373800  0.408200  0.350400  1.0  -0.0526
  C  C173  1  0.306200  0.427900  0.380500  1.0  -0.0968
  C  C174  1  0.316300  0.527300  0.418100  1.0  -0.0596
  C  C175  1  0.392100  0.603000  0.424000  1.0  -0.0546
  C  C176  1  0.226200  0.350200  0.377700  1.0  0.6732
  N  N177  1  0.679000  0.959700  0.676700  1.0  0.1611
  N  N178  1  0.788400  0.513500  0.336200  1.0  0.1405
  N  N179  1  0.248000  0.181700  0.859200  1.0  0.1646
  N  N180  1  0.321000  0.040300  0.323300  1.0  0.16
  N  N181  1  0.211600  0.486500  0.663800  1.0  0.1409
  N  N182  1  0.752000  0.818300  0.140800  1.0  0.1656
  O  O183  1  0.976400  0.974700  0.766200  1.0  -0.888
  O  O184  1  0.813300  0.891700  0.578500  1.0  -1.0254
  O  O185  1  0.886200  0.081000  0.685000  1.0  -0.9582
  O  O186  1  0.287500  0.903300  0.538800  1.0  -0.7295
  O  O187  1  0.364700  0.044700  0.539200  1.0  -0.725
  O  O188  1  0.720800  0.722300  0.250200  1.0  -0.8878
  O  O189  1  0.824700  0.744000  0.437600  1.0  -1.0058
  O  O190  1  0.903100  0.707400  0.322800  1.0  -0.9468
  O  O191  1  0.869600  0.256800  0.468900  1.0  -0.6949
  O  O192  1  0.003400  0.321900  0.450500  1.0  -0.7182
  O  O193  1  0.057100  0.911100  0.597400  1.0  -0.9843
  O  O194  1  0.046900  0.080300  0.628800  1.0  -0.9257
  O  O195  1  0.182200  0.039100  0.592800  1.0  -1.0096
  O  O196  1  0.276600  0.507200  0.111700  1.0  -0.5824
  O  O197  1  0.419800  0.531900  0.103000  1.0  -0.4535
  O  O198  1  0.474900  0.727900  0.208000  1.0  -0.651
  O  O199  1  0.583400  0.859300  0.224500  1.0  -0.6556
  O  O200  1  0.036100  0.765500  0.804400  1.0  -0.6438
  O  O201  1  0.148400  0.859200  0.783400  1.0  -0.6705
  O  O202  1  0.407000  0.361200  0.640700  1.0  -0.6878
  O  O203  1  0.443900  0.249300  0.555800  1.0  -0.6518
  O  O204  1  0.798000  0.741200  0.675700  1.0  -0.6891
  O  O205  1  0.816100  0.624600  0.572200  1.0  -0.6618
  O  O206  1  0.023600  0.025300  0.233800  1.0  -0.8878
  O  O207  1  0.186700  0.108300  0.421500  1.0  -1.0232
  O  O208  1  0.113800  0.919000  0.315000  1.0  -0.9598
  O  O209  1  0.712500  0.096700  0.461200  1.0  -0.7303
  O  O210  1  0.635300  0.955300  0.460800  1.0  -0.726
  O  O211  1  0.279200  0.277700  0.749800  1.0  -0.8863
  O  O212  1  0.175300  0.256000  0.562400  1.0  -1.005
  O  O213  1  0.096900  0.292600  0.677200  1.0  -0.945
  O  O214  1  0.130400  0.743200  0.531100  1.0  -0.6935
  O  O215  1  0.996600  0.678100  0.549500  1.0  -0.7199
  O  O216  1  0.942900  0.088900  0.402600  1.0  -0.9837
  O  O217  1  0.953100  0.919700  0.371200  1.0  -0.9265
  O  O218  1  0.817800  0.960900  0.407200  1.0  -1.0124
  O  O219  1  0.723400  0.492800  0.888300  1.0  -0.5833
  O  O220  1  0.580200  0.468100  0.897000  1.0  -0.4548
  O  O221  1  0.525100  0.272100  0.792000  1.0  -0.6517
  O  O222  1  0.416600  0.140700  0.775500  1.0  -0.6524
  O  O223  1  0.963900  0.234500  0.195600  1.0  -0.6424
  O  O224  1  0.851600  0.140800  0.216600  1.0  -0.6694
  O  O225  1  0.593000  0.638800  0.359300  1.0  -0.6841
  O  O226  1  0.556100  0.750700  0.444200  1.0  -0.6521
  O  O227  1  0.202000  0.258800  0.324300  1.0  -0.6902
  O  O228  1  0.183900  0.375400  0.427800  1.0  -0.6617
