# generated using pymatgen
data_Pr3P3H45C37N3O23
_symmetry_space_group_name_H-M   'P 1'
_cell_length_a   15.12200000
_cell_length_b   15.16700000
_cell_length_c   15.24200000
_cell_angle_alpha   106.19900000
_cell_angle_beta   103.35000000
_cell_angle_gamma   116.99000000
_symmetry_Int_Tables_number   1
_chemical_formula_structural   Pr3P3H45C37N3O23
_chemical_formula_sum   'Pr6 P6 H90 C74 N6 O46'
_cell_volume   2717.82958065
_cell_formula_units_Z   2
loop_
 _symmetry_equiv_pos_site_id
 _symmetry_equiv_pos_as_xyz
  1  'x, y, z'
loop_
 _atom_site_type_symbol
 _atom_site_label
 _atom_site_symmetry_multiplicity
 _atom_site_fract_x
 _atom_site_fract_y
 _atom_site_fract_z
 _atom_site_occupancy
 _atom_site_charge
  Pr  Pr1  1  0.818930  0.114280  0.682110  1.0  2.2655
  Pr  Pr2  1  0.557110  0.865840  0.697640  1.0  2.2633
  Pr  Pr3  1  0.415210  0.063370  0.644760  1.0  2.2959
  Pr  Pr4  1  0.181070  0.885720  0.317890  1.0  2.2652
  Pr  Pr5  1  0.442890  0.134160  0.302360  1.0  2.263
  Pr  Pr6  1  0.584790  0.936630  0.355240  1.0  2.2981
  P  P7  1  0.616700  0.142400  0.523600  1.0  1.6511
  P  P8  1  0.694900  0.174200  0.803700  1.0  1.5295
  P  P9  1  0.625300  0.808400  0.518500  1.0  1.5738
  P  P10  1  0.383300  0.857600  0.476400  1.0  1.6481
  P  P11  1  0.305100  0.825800  0.196300  1.0  1.5293
  P  P12  1  0.374700  0.191600  0.481500  1.0  1.575
  H  H13  1  0.799100  0.626900  0.065300  1.0  0.4107
  H  H14  1  0.751300  0.319100  0.711100  1.0  0.2421
  H  H15  1  0.658300  0.096700  0.939200  1.0  0.2589
  H  H16  1  0.839400  0.891800  0.555800  1.0  0.2552
  H  H17  1  0.673100  0.314500  0.528400  1.0  0.1411
  H  H18  1  0.773400  0.304300  0.556900  1.0  0.1557
  H  H19  1  0.846100  0.512400  0.694100  1.0  0.0778
  H  H20  1  0.906300  0.452900  0.709100  1.0  0.0895
  H  H21  1  0.965700  0.594900  0.865400  1.0  0.0917
  H  H22  1  0.904100  0.479900  0.866800  1.0  0.1072
  H  H23  1  0.804800  0.597300  0.840100  1.0  0.0968
  H  H24  1  0.641200  0.451500  0.816900  1.0  0.1054
  H  H25  1  0.694000  0.386100  0.834900  1.0  0.0945
  H  H26  1  0.589200  0.314700  0.659900  1.0  0.0995
  H  H27  1  0.662200  0.432300  0.666667  1.0  0.0966
  H  H28  1  0.837400  0.221700  0.947900  1.0  0.1881
  H  H29  1  0.801800  0.303600  0.972700  1.0  0.1702
  H  H30  1  0.718000  0.293200  0.080900  1.0  0.0882
  H  H31  1  0.613900  0.223000  0.978700  1.0  0.1169
  H  H32  1  0.565700  0.193500  0.107400  1.0  0.1126
  H  H33  1  0.529800  0.082700  0.024400  1.0  0.0941
  H  H34  1  0.714100  0.206300  0.206200  1.0  0.1011
  H  H35  1  0.766200  0.088200  0.163200  1.0  0.1162
  H  H36  1  0.662800  0.012700  0.060700  1.0  0.0982
  H  H37  1  0.809900  0.116300  0.032200  1.0  0.1012
  H  H38  1  0.837500  0.225000  0.111900  1.0  0.0855
  H  H39  1  0.670300  0.680700  0.486400  1.0  0.1653
  H  H40  1  0.718900  0.747100  0.602500  1.0  0.1789
  H  H41  1  0.887600  0.754600  0.600200  1.0  0.08
  H  H42  1  0.904600  0.854400  0.683200  1.0  0.1001
  H  H43  1  0.071400  0.897600  0.671900  1.0  0.0957
  H  H44  1  0.036200  0.971700  0.641800  1.0  0.095
  H  H45  1  0.005500  0.785900  0.504900  1.0  0.0972
  H  H46  1  0.923500  0.811500  0.373800  1.0  0.1098
  H  H47  1  0.942000  0.917200  0.449700  1.0  0.0886
  H  H48  1  0.762300  0.773100  0.390200  1.0  0.1075
  H  H49  1  0.800700  0.703000  0.424300  1.0  0.0868
  H  H50  1  0.000200  0.165500  0.029100  1.0  0.1069
  H  H51  1  0.128800  0.175000  0.157800  1.0  0.0933
  H  H52  1  0.240600  0.069700  0.961600  1.0  0.0798
  H  H53  1  0.061800  0.005200  0.878200  1.0  0.1662
  H  H54  1  0.011900  0.410600  0.583100  1.0  0.107
  H  H55  1  0.157700  0.550200  0.572500  1.0  0.1153
  H  H56  1  0.369400  0.578400  0.817900  1.0  0.1222
  H  H57  1  0.216900  0.444000  0.828900  1.0  0.0987
  H  H58  1  0.200900  0.373100  0.934700  1.0  0.4138
  H  H59  1  0.248700  0.680900  0.288900  1.0  0.243
  H  H60  1  0.341700  0.903300  0.060800  1.0  0.2534
  H  H61  1  0.160600  0.108200  0.444200  1.0  0.2553
  H  H62  1  0.326900  0.685500  0.471600  1.0  0.1489
  H  H63  1  0.226600  0.695700  0.443100  1.0  0.1617
  H  H64  1  0.153900  0.487600  0.305900  1.0  0.0783
  H  H65  1  0.093700  0.547100  0.290900  1.0  0.0834
  H  H66  1  0.034300  0.405100  0.134600  1.0  0.0919
  H  H67  1  0.095900  0.520100  0.133200  1.0  0.1084
  H  H68  1  0.195200  0.402700  0.159900  1.0  0.0966
  H  H69  1  0.358800  0.548500  0.183100  1.0  0.1022
  H  H70  1  0.306000  0.613900  0.165100  1.0  0.0936
  H  H71  1  0.410800  0.685300  0.340100  1.0  0.0977
  H  H72  1  0.337800  0.567700  0.333333  1.0  0.0963
  H  H73  1  0.162600  0.778300  0.052100  1.0  0.188
  H  H74  1  0.198200  0.696400  0.027300  1.0  0.171
  H  H75  1  0.282000  0.706800  0.919100  1.0  0.0873
  H  H76  1  0.386100  0.777000  0.021300  1.0  0.1158
  H  H77  1  0.434300  0.806500  0.892600  1.0  0.1106
  H  H78  1  0.470200  0.917300  0.975600  1.0  0.0933
  H  H79  1  0.285900  0.793700  0.793800  1.0  0.0995
  H  H80  1  0.233800  0.911800  0.836800  1.0  0.1197
  H  H81  1  0.337200  0.987300  0.939300  1.0  0.0982
  H  H82  1  0.190100  0.883700  0.967800  1.0  0.0997
  H  H83  1  0.162500  0.775000  0.888100  1.0  0.0857
  H  H84  1  0.329700  0.319300  0.513600  1.0  0.1652
  H  H85  1  0.281100  0.252900  0.397500  1.0  0.1812
  H  H86  1  0.112400  0.245400  0.399800  1.0  0.0799
  H  H87  1  0.095400  0.145600  0.316800  1.0  0.101
  H  H88  1  0.928600  0.102400  0.328100  1.0  0.1028
  H  H89  1  0.963800  0.028300  0.358200  1.0  0.0958
  H  H90  1  0.994500  0.214100  0.495100  1.0  0.0979
  H  H91  1  0.076500  0.188500  0.626200  1.0  0.1093
  H  H92  1  0.058000  0.082800  0.550300  1.0  0.0882
  H  H93  1  0.237700  0.226900  0.609800  1.0  0.0973
  H  H94  1  0.199300  0.297000  0.575700  1.0  0.0879
  H  H95  1  0.999800  0.834500  0.970900  1.0  0.1067
  H  H96  1  0.871200  0.825000  0.842200  1.0  0.0938
  H  H97  1  0.759400  0.930300  0.038400  1.0  0.0804
  H  H98  1  0.938200  0.994800  0.121800  1.0  0.1674
  H  H99  1  0.988100  0.589400  0.416900  1.0  0.1071
  H  H100  1  0.842300  0.449800  0.427500  1.0  0.115
  H  H101  1  0.630600  0.421600  0.182100  1.0  0.1219
  H  H102  1  0.783100  0.556000  0.171100  1.0  0.0968
  C  C103  1  0.708500  0.289800  0.567800  1.0  -0.5108
  C  C104  1  0.853200  0.465600  0.723800  1.0  -0.0497
  C  C105  1  0.895300  0.525900  0.836900  1.0  -0.1605
  C  C106  1  0.807000  0.544300  0.862900  1.0  -0.1784
  C  C107  1  0.694400  0.436200  0.806600  1.0  -0.1552
  C  C108  1  0.662000  0.381700  0.694300  1.0  -0.0556
  C  C109  1  0.842000  0.589000  0.976000  1.0  0.631
  C  C110  1  0.774700  0.227000  0.939200  1.0  -0.4848
  C  C111  1  0.660500  0.219100  0.031300  1.0  -0.073
  C  C112  1  0.592700  0.153300  0.075800  1.0  -0.1637
  C  C113  1  0.657900  0.134700  0.151800  1.0  -0.1585
  C  C114  1  0.716500  0.088100  0.109600  1.0  -0.1586
  C  C115  1  0.778200  0.151900  0.061700  1.0  -0.0619
  C  C116  1  0.591300  0.067600  0.195300  1.0  0.7495
  C  C117  1  0.709400  0.753600  0.539900  1.0  -0.4899
  C  C118  1  0.905000  0.828400  0.618300  1.0  -0.0562
  C  C119  1  0.017400  0.897300  0.622300  1.0  -0.1564
  C  C120  1  0.019700  0.858400  0.520500  1.0  -0.1827
  C  C121  1  0.926300  0.844900  0.438700  1.0  -0.1588
  C  C122  1  0.819000  0.776800  0.440000  1.0  -0.0688
  C  C123  1  0.130300  0.932600  0.522800  1.0  0.7665
  C  C124  1  0.954900  0.097100  0.833900  1.0  0.6447
  C  C125  1  0.041100  0.108800  0.920200  1.0  0.08
  C  C126  1  0.047700  0.142600  0.016200  1.0  -0.1378
  C  C127  1  0.125000  0.151500  0.090800  1.0  -0.0238
  C  C128  1  0.196500  0.120400  0.071500  1.0  -0.1705
  C  C129  1  0.191200  0.089900  0.974200  1.0  0.0959
  C  C130  1  0.112200  0.080800  0.893900  1.0  -0.4436
  C  C131  1  0.277100  0.123100  0.148900  1.0  0.6962
  C  C132  1  0.008500  0.322900  0.707800  1.0  0.6364
  C  C133  1  0.102800  0.415700  0.704900  1.0  -0.0913
  C  C134  1  0.085800  0.447600  0.633100  1.0  -0.085
  C  C135  1  0.169300  0.527100  0.625100  1.0  -0.1219
  C  C136  1  0.276700  0.580200  0.695700  1.0  -0.1149
  C  C137  1  0.295700  0.544200  0.768800  1.0  -0.0832
  C  C138  1  0.206600  0.463100  0.773300  1.0  -0.0865
  C  C139  1  0.370300  0.668500  0.689400  1.0  0.6713
  C  C140  1  0.291500  0.710200  0.432200  1.0  -0.5097
  C  C141  1  0.146800  0.534400  0.276200  1.0  -0.0486
  C  C142  1  0.104700  0.474100  0.163100  1.0  -0.1606
  C  C143  1  0.193000  0.455700  0.137100  1.0  -0.1772
  C  C144  1  0.305600  0.563800  0.193400  1.0  -0.1564
  C  C145  1  0.338000  0.618300  0.305700  1.0  -0.0562
  C  C146  1  0.158000  0.411000  0.024000  1.0  0.6298
  C  C147  1  0.225300  0.773000  0.060800  1.0  -0.4847
  C  C148  1  0.339500  0.780900  0.968700  1.0  -0.0716
  C  C149  1  0.407300  0.846700  0.924200  1.0  -0.1617
  C  C150  1  0.342100  0.865300  0.848200  1.0  -0.1604
  C  C151  1  0.283500  0.911900  0.890400  1.0  -0.1587
  C  C152  1  0.221800  0.848100  0.938300  1.0  -0.0626
  C  C153  1  0.408700  0.932400  0.804700  1.0  0.7592
  C  C154  1  0.290600  0.246400  0.460100  1.0  -0.4923
  C  C155  1  0.095000  0.171600  0.381700  1.0  -0.054
  C  C156  1  0.982600  0.102700  0.377700  1.0  -0.1562
  C  C157  1  0.980300  0.141600  0.479500  1.0  -0.1851
  C  C158  1  0.073700  0.155100  0.561300  1.0  -0.1593
  C  C159  1  0.181000  0.223200  0.560000  1.0  -0.0719
  C  C160  1  0.869700  0.067400  0.477200  1.0  0.7641
  C  C161  1  0.045100  0.902900  0.166100  1.0  0.6473
  C  C162  1  0.958900  0.891200  0.079800  1.0  0.0786
  C  C163  1  0.952300  0.857400  0.983800  1.0  -0.1376
  C  C164  1  0.875000  0.848500  0.909200  1.0  -0.023
  C  C165  1  0.803500  0.879600  0.928500  1.0  -0.1718
  C  C166  1  0.808800  0.910100  0.025800  1.0  0.0957
  C  C167  1  0.887800  0.919200  0.106100  1.0  -0.4422
  C  C168  1  0.722900  0.876900  0.851100  1.0  0.6969
  C  C169  1  0.991500  0.677100  0.292200  1.0  0.6354
  C  C170  1  0.897200  0.584300  0.295100  1.0  -0.0922
  C  C171  1  0.914200  0.552400  0.366900  1.0  -0.084
  C  C172  1  0.830700  0.472900  0.374900  1.0  -0.1194
  C  C173  1  0.723300  0.419800  0.304300  1.0  -0.115
  C  C174  1  0.704300  0.455800  0.231200  1.0  -0.0839
  C  C175  1  0.793400  0.536900  0.226700  1.0  -0.0834
  C  C176  1  0.629700  0.331500  0.310600  1.0  0.6719
  N  N177  1  0.745300  0.358600  0.677300  1.0  0.1553
  N  N178  1  0.712700  0.165400  0.986800  1.0  0.1523
  N  N179  1  0.822100  0.822500  0.540900  1.0  0.1446
  N  N180  1  0.254700  0.641400  0.322700  1.0  0.1557
  N  N181  1  0.287300  0.834600  0.013200  1.0  0.1522
  N  N182  1  0.177900  0.177500  0.459100  1.0  0.1442
  O  O183  1  0.558200  0.098300  0.411300  1.0  -1.0001
  O  O184  1  0.545200  0.126300  0.579800  1.0  -0.955
  O  O185  1  0.682500  0.091400  0.537500  1.0  -1.0242
  O  O186  1  0.926600  0.607600  0.033800  1.0  -0.5061
  O  O187  1  0.774000  0.603000  0.001400  1.0  -0.5239
  O  O188  1  0.779300  0.248500  0.774000  1.0  -0.8789
  O  O189  1  0.671500  0.057900  0.752100  1.0  -1.0205
  O  O190  1  0.592500  0.174300  0.786600  1.0  -0.9479
  O  O191  1  0.498000  0.050000  0.181100  1.0  -0.7287
  O  O192  1  0.628200  0.026400  0.243600  1.0  -0.7474
  O  O193  1  0.613400  0.816300  0.421300  1.0  -0.9599
  O  O194  1  0.687900  0.922300  0.610100  1.0  -1.0511
  O  O195  1  0.523600  0.735800  0.529800  1.0  -0.9096
  O  O196  1  0.213500  0.961900  0.597100  1.0  -0.7382
  O  O197  1  0.135700  0.960400  0.454400  1.0  -0.7165
  O  O198  1  0.914200  0.274600  0.637700  1.0  -0.6749
  O  O199  1  0.021300  0.290800  0.774400  1.0  -0.6524
  O  O200  1  0.351200  0.717600  0.641500  1.0  -0.6621
  O  O201  1  0.464700  0.694300  0.735700  1.0  -0.6656
  O  O202  1  0.941800  0.053200  0.744700  1.0  -0.6549
  O  O203  1  0.902100  0.135800  0.854300  1.0  -0.6468
  O  O204  1  0.301200  0.179400  0.241100  1.0  -0.6901
  O  O205  1  0.318300  0.072500  0.126000  1.0  -0.6539
  O  O206  1  0.441800  0.901700  0.588700  1.0  -1.0013
  O  O207  1  0.454800  0.873700  0.420200  1.0  -0.9557
  O  O208  1  0.317500  0.908600  0.462500  1.0  -1.0232
  O  O209  1  0.073400  0.392400  0.966200  1.0  -0.4958
  O  O210  1  0.226000  0.397000  0.998600  1.0  -0.5331
  O  O211  1  0.220700  0.751500  0.226000  1.0  -0.8805
  O  O212  1  0.328500  0.942100  0.247900  1.0  -1.0227
  O  O213  1  0.407500  0.825700  0.213400  1.0  -0.9531
  O  O214  1  0.502000  0.950000  0.818900  1.0  -0.7284
  O  O215  1  0.371800  0.973600  0.756400  1.0  -0.7507
  O  O216  1  0.386600  0.183700  0.578700  1.0  -0.9637
  O  O217  1  0.312100  0.077700  0.389900  1.0  -1.0502
  O  O218  1  0.476400  0.264200  0.470200  1.0  -0.9085
  O  O219  1  0.786500  0.038100  0.402900  1.0  -0.7395
  O  O220  1  0.864300  0.039600  0.545600  1.0  -0.7154
  O  O221  1  0.085800  0.725400  0.362300  1.0  -0.6741
  O  O222  1  0.978700  0.709200  0.225600  1.0  -0.6518
  O  O223  1  0.648800  0.282400  0.358500  1.0  -0.6623
  O  O224  1  0.535300  0.305700  0.264300  1.0  -0.6646
  O  O225  1  0.058200  0.946800  0.255300  1.0  -0.6555
  O  O226  1  0.097900  0.864200  0.145700  1.0  -0.6474
  O  O227  1  0.698800  0.820600  0.758900  1.0  -0.6907
  O  O228  1  0.681700  0.927500  0.874000  1.0  -0.6523
