# generated using pymatgen
data_Sm3P3H45C37N3O23
_symmetry_space_group_name_H-M   'P 1'
_cell_length_a   15.04000000
_cell_length_b   15.09000000
_cell_length_c   15.17900000
_cell_angle_alpha   105.68900000
_cell_angle_beta   103.55900000
_cell_angle_gamma   117.11100000
_symmetry_Int_Tables_number   1
_chemical_formula_structural   Sm3P3H45C37N3O23
_chemical_formula_sum   'Sm6 P6 H90 C74 N6 O46'
_cell_volume   2682.73559479
_cell_formula_units_Z   2
loop_
 _symmetry_equiv_pos_site_id
 _symmetry_equiv_pos_as_xyz
  1  'x, y, z'
loop_
 _atom_site_type_symbol
 _atom_site_label
 _atom_site_symmetry_multiplicity
 _atom_site_fract_x
 _atom_site_fract_y
 _atom_site_fract_z
 _atom_site_occupancy
 _atom_site_charge
  Sm  Sm1  1  0.817530  0.112680  0.680930  1.0  2.3393
  Sm  Sm2  1  0.557240  0.866810  0.697830  1.0  2.3474
  Sm  Sm3  1  0.415700  0.062290  0.642940  1.0  2.3943
  Sm  Sm4  1  0.182470  0.887320  0.319070  1.0  2.3392
  Sm  Sm5  1  0.442760  0.133190  0.302170  1.0  2.3454
  Sm  Sm6  1  0.584300  0.937710  0.357060  1.0  2.3998
  P  P7  1  0.616900  0.141700  0.522600  1.0  1.662
  P  P8  1  0.694600  0.171900  0.800900  1.0  1.5654
  P  P9  1  0.625000  0.810500  0.521200  1.0  1.5895
  P  P10  1  0.383100  0.858300  0.477400  1.0  1.6615
  P  P11  1  0.305400  0.828100  0.199100  1.0  1.5665
  P  P12  1  0.375000  0.189500  0.478800  1.0  1.5904
  H  H13  1  0.798400  0.625200  0.067300  1.0  0.4245
  H  H14  1  0.749800  0.320300  0.709700  1.0  0.2415
  H  H15  1  0.657100  0.093600  0.936800  1.0  0.2605
  H  H16  1  0.836600  0.890300  0.556800  1.0  0.2545
  H  H17  1  0.674900  0.314800  0.528600  1.0  0.1498
  H  H18  1  0.775200  0.304600  0.557100  1.0  0.1753
  H  H19  1  0.848200  0.509400  0.688900  1.0  0.0825
  H  H20  1  0.908400  0.449900  0.703900  1.0  0.0991
  H  H21  1  0.964000  0.591900  0.861300  1.0  0.0956
  H  H22  1  0.902400  0.476900  0.862700  1.0  0.1095
  H  H23  1  0.807300  0.594900  0.838300  1.0  0.0868
  H  H24  1  0.640300  0.453400  0.814200  1.0  0.0992
  H  H25  1  0.693100  0.387900  0.832200  1.0  0.0903
  H  H26  1  0.587500  0.313900  0.658600  1.0  0.0978
  H  H27  1  0.660500  0.431500  0.665400  1.0  0.0961
  H  H28  1  0.835800  0.219700  0.944300  1.0  0.186
  H  H29  1  0.800100  0.301700  0.969100  1.0  0.1628
  H  H30  1  0.717900  0.290000  0.078200  1.0  0.082
  H  H31  1  0.613800  0.219900  0.976000  1.0  0.1154
  H  H32  1  0.564300  0.194500  0.107600  1.0  0.1092
  H  H33  1  0.528400  0.083700  0.024600  1.0  0.0868
  H  H34  1  0.714500  0.207000  0.207300  1.0  0.0977
  H  H35  1  0.765600  0.086400  0.162900  1.0  0.1054
  H  H36  1  0.662200  0.010900  0.060300  1.0  0.0972
  H  H37  1  0.812800  0.117800  0.033300  1.0  0.1033
  H  H38  1  0.840400  0.226500  0.113000  1.0  0.089
  H  H39  1  0.669000  0.681000  0.488200  1.0  0.1667
  H  H40  1  0.717700  0.747400  0.604300  1.0  0.1331
  H  H41  1  0.888900  0.755900  0.601300  1.0  0.0787
  H  H42  1  0.906000  0.855800  0.684300  1.0  0.1002
  H  H43  1  0.072400  0.899500  0.674100  1.0  0.0985
  H  H44  1  0.037200  0.973500  0.644000  1.0  0.0954
  H  H45  1  0.008800  0.789900  0.506200  1.0  0.0977
  H  H46  1  0.924900  0.811900  0.375500  1.0  0.1021
  H  H47  1  0.943400  0.917600  0.451400  1.0  0.09
  H  H48  1  0.761600  0.771900  0.389500  1.0  0.0953
  H  H49  1  0.800000  0.701800  0.423700  1.0  0.0817
  H  H50  1  0.001300  0.167800  0.025300  1.0  0.0943
  H  H51  1  0.130900  0.175100  0.158600  1.0  0.0971
  H  H52  1  0.238500  0.067800  0.960100  1.0  0.0858
  H  H53  1  0.110900  0.058600  0.830100  1.0  0.1044
  H  H54  1  0.010600  0.406800  0.578100  1.0  0.1118
  H  H55  1  0.161800  0.550000  0.572500  1.0  0.0987
  H  H56  1  0.366200  0.580100  0.820100  1.0  0.0967
  H  H57  1  0.217700  0.446500  0.832800  1.0  0.0997
  H  H58  1  0.201600  0.374800  0.932700  1.0  0.4246
  H  H59  1  0.250200  0.679700  0.290300  1.0  0.2416
  H  H60  1  0.342900  0.906400  0.063200  1.0  0.2594
  H  H61  1  0.163400  0.109700  0.443200  1.0  0.2548
  H  H62  1  0.325100  0.685200  0.471400  1.0  0.1503
  H  H63  1  0.224800  0.695400  0.442900  1.0  0.1752
  H  H64  1  0.151800  0.490600  0.311100  1.0  0.084
  H  H65  1  0.091600  0.550100  0.296100  1.0  0.0961
  H  H66  1  0.036000  0.408100  0.138700  1.0  0.0958
  H  H67  1  0.097600  0.523100  0.137300  1.0  0.1092
  H  H68  1  0.192700  0.405100  0.161700  1.0  0.0873
  H  H69  1  0.359700  0.546600  0.185800  1.0  0.0923
  H  H70  1  0.306900  0.612100  0.167800  1.0  0.0883
  H  H71  1  0.412500  0.686100  0.341400  1.0  0.0955
  H  H72  1  0.339500  0.568500  0.334600  1.0  0.0954
  H  H73  1  0.164200  0.780300  0.055700  1.0  0.1864
  H  H74  1  0.199900  0.698300  0.030900  1.0  0.164
  H  H75  1  0.282100  0.710000  0.921800  1.0  0.0818
  H  H76  1  0.386200  0.780100  0.024000  1.0  0.1137
  H  H77  1  0.435700  0.805500  0.892400  1.0  0.1086
  H  H78  1  0.471600  0.916300  0.975400  1.0  0.0865
  H  H79  1  0.285500  0.793000  0.792700  1.0  0.0989
  H  H80  1  0.234400  0.913600  0.837100  1.0  0.1079
  H  H81  1  0.337800  0.989100  0.939700  1.0  0.0973
  H  H82  1  0.187200  0.882200  0.966700  1.0  0.1025
  H  H83  1  0.159600  0.773500  0.887000  1.0  0.0907
  H  H84  1  0.331000  0.319000  0.511800  1.0  0.1658
  H  H85  1  0.282300  0.252600  0.395700  1.0  0.1478
  H  H86  1  0.111100  0.244100  0.398700  1.0  0.0783
  H  H87  1  0.094000  0.144200  0.315700  1.0  0.1004
  H  H88  1  0.927600  0.100500  0.325900  1.0  0.1011
  H  H89  1  0.962800  0.026500  0.356000  1.0  0.0959
  H  H90  1  0.991200  0.210100  0.493800  1.0  0.0984
  H  H91  1  0.075100  0.188100  0.624500  1.0  0.1017
  H  H92  1  0.056600  0.082400  0.548600  1.0  0.0902
  H  H93  1  0.238400  0.228100  0.610500  1.0  0.1024
  H  H94  1  0.200000  0.298200  0.576300  1.0  0.0823
  H  H95  1  0.998700  0.832200  0.974700  1.0  0.0944
  H  H96  1  0.869100  0.824900  0.841400  1.0  0.0971
  H  H97  1  0.761500  0.932200  0.039900  1.0  0.0865
  H  H98  1  0.889100  0.941400  0.169900  1.0  0.1042
  H  H99  1  0.989400  0.593200  0.421900  1.0  0.1116
  H  H100  1  0.838200  0.450000  0.427500  1.0  0.099
  H  H101  1  0.633800  0.419900  0.179900  1.0  0.0992
  H  H102  1  0.782300  0.553500  0.167200  1.0  0.0978
  C  C103  1  0.710200  0.290100  0.568100  1.0  -0.5196
  C  C104  1  0.855300  0.462600  0.718600  1.0  -0.0673
  C  C105  1  0.893600  0.522800  0.832800  1.0  -0.1638
  C  C106  1  0.809500  0.541900  0.861100  1.0  -0.1604
  C  C107  1  0.693500  0.438100  0.803900  1.0  -0.1727
  C  C108  1  0.660300  0.380900  0.693000  1.0  -0.0574
  C  C109  1  0.842000  0.589000  0.974000  1.0  0.6496
  C  C110  1  0.773100  0.225000  0.935600  1.0  -0.5007
  C  C111  1  0.660400  0.215900  0.028700  1.0  -0.0825
  C  C112  1  0.591300  0.154400  0.076000  1.0  -0.1352
  C  C113  1  0.658300  0.135300  0.152900  1.0  -0.1829
  C  C114  1  0.715900  0.086300  0.109200  1.0  -0.1716
  C  C115  1  0.781100  0.153400  0.062700  1.0  -0.064
  C  C116  1  0.589000  0.063500  0.197300  1.0  0.7381
  C  C117  1  0.708100  0.753800  0.541700  1.0  -0.4837
  C  C118  1  0.906300  0.829700  0.619300  1.0  -0.0552
  C  C119  1  0.018400  0.899100  0.624400  1.0  -0.1554
  C  C120  1  0.023000  0.862300  0.521800  1.0  -0.1855
  C  C121  1  0.927700  0.845300  0.440400  1.0  -0.1573
  C  C122  1  0.818300  0.775600  0.439300  1.0  -0.066
  C  C123  1  0.134400  0.933300  0.523400  1.0  0.7685
  C  C124  1  0.952000  0.095600  0.831800  1.0  0.6639
  C  C125  1  0.040300  0.106800  0.914800  1.0  -0.0915
  C  C126  1  0.048800  0.144800  0.012400  1.0  -0.0729
  C  C127  1  0.127100  0.151600  0.091600  1.0  -0.0562
  C  C128  1  0.198500  0.119200  0.072400  1.0  -0.1056
  C  C129  1  0.189100  0.088000  0.972700  1.0  -0.071
  C  C130  1  0.111800  0.078700  0.896200  1.0  -0.0886
  C  C131  1  0.278900  0.126700  0.152600  1.0  0.6851
  C  C132  1  0.001800  0.319800  0.706000  1.0  0.6488
  C  C133  1  0.102200  0.414000  0.704100  1.0  -0.1058
  C  C134  1  0.084500  0.443800  0.628100  1.0  -0.1152
  C  C135  1  0.173500  0.526800  0.625100  1.0  -0.0809
  C  C136  1  0.280200  0.580500  0.697700  1.0  -0.0993
  C  C137  1  0.292600  0.545800  0.770900  1.0  -0.0834
  C  C138  1  0.207400  0.465600  0.777100  1.0  -0.1045
  C  C139  1  0.372400  0.669300  0.691000  1.0  0.6655
  C  C140  1  0.289800  0.709900  0.431900  1.0  -0.504
  C  C141  1  0.144700  0.537400  0.281400  1.0  -0.0665
  C  C142  1  0.106400  0.477200  0.167200  1.0  -0.1633
  C  C143  1  0.190500  0.458100  0.138900  1.0  -0.1575
  C  C144  1  0.306500  0.561900  0.196100  1.0  -0.1728
  C  C145  1  0.339700  0.619100  0.307000  1.0  -0.0578
  C  C146  1  0.158000  0.411000  0.026000  1.0  0.6492
  C  C147  1  0.226900  0.775000  0.064400  1.0  -0.4988
  C  C148  1  0.339600  0.784100  0.971300  1.0  -0.0795
  C  C149  1  0.408700  0.845600  0.924000  1.0  -0.1326
  C  C150  1  0.341700  0.864700  0.847100  1.0  -0.1843
  C  C151  1  0.284100  0.913700  0.890800  1.0  -0.171
  C  C152  1  0.218900  0.846600  0.937300  1.0  -0.0693
  C  C153  1  0.411000  0.936500  0.802700  1.0  0.7383
  C  C154  1  0.291900  0.246200  0.458300  1.0  -0.4861
  C  C155  1  0.093700  0.170300  0.380700  1.0  -0.0535
  C  C156  1  0.981600  0.100900  0.375600  1.0  -0.1571
  C  C157  1  0.977000  0.137700  0.478200  1.0  -0.188
  C  C158  1  0.072300  0.154700  0.559600  1.0  -0.1595
  C  C159  1  0.181700  0.224400  0.560700  1.0  -0.0671
  C  C160  1  0.865600  0.066700  0.476600  1.0  0.7633
  C  C161  1  0.048000  0.904400  0.168200  1.0  0.6656
  C  C162  1  0.959700  0.893200  0.085200  1.0  -0.0926
  C  C163  1  0.951200  0.855200  0.987600  1.0  -0.0734
  C  C164  1  0.872900  0.848400  0.908400  1.0  -0.0538
  C  C165  1  0.801500  0.880800  0.927600  1.0  -0.1057
  C  C166  1  0.810900  0.912000  0.027300  1.0  -0.0733
  C  C167  1  0.888200  0.921300  0.103800  1.0  -0.0889
  C  C168  1  0.721100  0.873300  0.847400  1.0  0.6856
  C  C169  1  0.998200  0.680200  0.294000  1.0  0.6484
  C  C170  1  0.897800  0.586000  0.295900  1.0  -0.1053
  C  C171  1  0.915500  0.556200  0.371900  1.0  -0.1149
  C  C172  1  0.826500  0.473200  0.374900  1.0  -0.0796
  C  C173  1  0.719800  0.419500  0.302300  1.0  -0.0988
  C  C174  1  0.707400  0.454200  0.229100  1.0  -0.0838
  C  C175  1  0.792600  0.534400  0.222900  1.0  -0.105
  C  C176  1  0.627600  0.330700  0.309000  1.0  0.6667
  N  N177  1  0.743900  0.359700  0.675900  1.0  0.1545
  N  N178  1  0.711500  0.162300  0.984300  1.0  0.1566
  N  N179  1  0.819300  0.821000  0.541900  1.0  0.1336
  N  N180  1  0.256100  0.640300  0.324100  1.0  0.1537
  N  N181  1  0.288500  0.837700  0.015700  1.0  0.1578
  N  N182  1  0.180700  0.179000  0.458100  1.0  0.1345
  O  O183  1  0.554000  0.094300  0.408700  1.0  -1.0388
  O  O184  1  0.546200  0.126600  0.579200  1.0  -0.9607
  O  O185  1  0.681600  0.089300  0.536800  1.0  -1.0543
  O  O186  1  0.927200  0.612400  0.028600  1.0  -0.4846
  O  O187  1  0.773500  0.601200  0.003500  1.0  -0.541
  O  O188  1  0.779200  0.247600  0.771100  1.0  -0.9005
  O  O189  1  0.670100  0.055500  0.749500  1.0  -1.0542
  O  O190  1  0.593800  0.172900  0.785600  1.0  -0.928
  O  O191  1  0.496200  0.052000  0.182600  1.0  -0.7273
  O  O192  1  0.629200  0.025200  0.246500  1.0  -0.7364
  O  O193  1  0.612700  0.820700  0.423000  1.0  -0.9787
  O  O194  1  0.687800  0.922800  0.611900  1.0  -1.0686
  O  O195  1  0.522600  0.737800  0.532400  1.0  -0.9055
  O  O196  1  0.217500  0.964300  0.597900  1.0  -0.7413
  O  O197  1  0.140300  0.961200  0.452900  1.0  -0.7329
  O  O198  1  0.912200  0.271100  0.637600  1.0  -0.6536
  O  O199  1  0.019000  0.289200  0.774500  1.0  -0.6802
  O  O200  1  0.354500  0.719400  0.642900  1.0  -0.6561
  O  O201  1  0.469900  0.698600  0.738300  1.0  -0.6918
  O  O202  1  0.943600  0.052000  0.742600  1.0  -0.6837
  O  O203  1  0.898900  0.133100  0.851500  1.0  -0.6378
  O  O204  1  0.301700  0.179700  0.243700  1.0  -0.6927
  O  O205  1  0.319100  0.072300  0.126900  1.0  -0.6884
  O  O206  1  0.446000  0.905700  0.591300  1.0  -1.04
  O  O207  1  0.453800  0.873400  0.420800  1.0  -0.9625
  O  O208  1  0.318400  0.910700  0.463200  1.0  -1.054
  O  O209  1  0.072800  0.387600  0.971400  1.0  -0.4826
  O  O210  1  0.226500  0.398800  0.996500  1.0  -0.5449
  O  O211  1  0.220800  0.752400  0.228900  1.0  -0.9008
  O  O212  1  0.329900  0.944500  0.250500  1.0  -1.0555
  O  O213  1  0.406200  0.827100  0.214400  1.0  -0.9474
  O  O214  1  0.503800  0.948000  0.817400  1.0  -0.7261
  O  O215  1  0.370800  0.974800  0.753500  1.0  -0.7355
  O  O216  1  0.387300  0.179300  0.577000  1.0  -0.9812
  O  O217  1  0.312200  0.077200  0.388100  1.0  -1.0673
  O  O218  1  0.477400  0.262200  0.467600  1.0  -0.904
  O  O219  1  0.782500  0.035700  0.402100  1.0  -0.743
  O  O220  1  0.859700  0.038800  0.547100  1.0  -0.7318
  O  O221  1  0.087800  0.728900  0.362400  1.0  -0.6537
  O  O222  1  0.981000  0.710800  0.225500  1.0  -0.6772
  O  O223  1  0.645500  0.280600  0.357100  1.0  -0.6581
  O  O224  1  0.530100  0.301400  0.261700  1.0  -0.6879
  O  O225  1  0.056400  0.948000  0.257400  1.0  -0.6845
  O  O226  1  0.101100  0.866900  0.148500  1.0  -0.6391
  O  O227  1  0.698300  0.820300  0.756300  1.0  -0.6939
  O  O228  1  0.680900  0.927700  0.873100  1.0  -0.6875
