# generated using pymatgen
data_Tb3P3H45C37N3O23
_symmetry_space_group_name_H-M   'P 1'
_cell_length_a   14.97600000
_cell_length_b   15.08000000
_cell_length_c   15.11600000
_cell_angle_alpha   105.19200000
_cell_angle_beta   103.77200000
_cell_angle_gamma   117.33800000
_symmetry_Int_Tables_number   1
_chemical_formula_structural   Tb3P3H45C37N3O23
_chemical_formula_sum   'Tb6 P6 H90 C74 N6 O46'
_cell_volume   2658.48303501
_cell_formula_units_Z   2
loop_
 _symmetry_equiv_pos_site_id
 _symmetry_equiv_pos_as_xyz
  1  'x, y, z'
loop_
 _atom_site_type_symbol
 _atom_site_label
 _atom_site_symmetry_multiplicity
 _atom_site_fract_x
 _atom_site_fract_y
 _atom_site_fract_z
 _atom_site_occupancy
 _atom_site_charge
  Tb  Tb1  1  0.816490  0.111220  0.679780  1.0  2.2597
  Tb  Tb2  1  0.557340  0.867900  0.697550  1.0  2.2673
  Tb  Tb3  1  0.416120  0.060870  0.641510  1.0  2.3156
  Tb  Tb4  1  0.183510  0.888780  0.320220  1.0  2.2595
  Tb  Tb5  1  0.442660  0.132100  0.302450  1.0  2.2654
  Tb  Tb6  1  0.583880  0.939130  0.358490  1.0  2.3173
  P  P7  1  0.615900  0.139400  0.522000  1.0  1.5332
  P  P8  1  0.693600  0.169000  0.798400  1.0  1.4941
  P  P9  1  0.625900  0.813700  0.523200  1.0  1.5732
  P  P10  1  0.384100  0.860600  0.478000  1.0  1.5317
  P  P11  1  0.306400  0.831000  0.201600  1.0  1.494
  P  P12  1  0.374100  0.186300  0.476800  1.0  1.5715
  H  H13  1  0.799300  0.622200  0.065900  1.0  0.4179
  H  H14  1  0.752700  0.318100  0.709200  1.0  0.2578
  H  H15  1  0.656300  0.091600  0.936300  1.0  0.2452
  H  H16  1  0.836000  0.891800  0.557200  1.0  0.254
  H  H17  1  0.675400  0.315100  0.527900  1.0  0.1246
  H  H18  1  0.775700  0.304900  0.556400  1.0  0.1448
  H  H19  1  0.849100  0.512200  0.691200  1.0  0.0879
  H  H20  1  0.909300  0.452700  0.706200  1.0  0.0882
  H  H21  1  0.966100  0.592300  0.861800  1.0  0.0884
  H  H22  1  0.904500  0.477200  0.863200  1.0  0.1005
  H  H23  1  0.808700  0.595400  0.836100  1.0  0.1057
  H  H24  1  0.640800  0.449700  0.814300  1.0  0.0955
  H  H25  1  0.693600  0.384300  0.832300  1.0  0.0937
  H  H26  1  0.590400  0.313700  0.658000  1.0  0.0898
  H  H27  1  0.663400  0.431200  0.664800  1.0  0.0929
  H  H28  1  0.837000  0.216500  0.942500  1.0  0.1475
  H  H29  1  0.801300  0.298500  0.967300  1.0  0.1601
  H  H30  1  0.717400  0.290200  0.077300  1.0  0.0857
  H  H31  1  0.613400  0.220100  0.975100  1.0  0.1017
  H  H32  1  0.565400  0.193800  0.107700  1.0  0.0972
  H  H33  1  0.529500  0.083000  0.024700  1.0  0.0986
  H  H34  1  0.713700  0.205800  0.207900  1.0  0.0887
  H  H35  1  0.768600  0.088800  0.166400  1.0  0.095
  H  H36  1  0.665200  0.013300  0.063800  1.0  0.0971
  H  H37  1  0.812700  0.115200  0.032900  1.0  0.0894
  H  H38  1  0.840300  0.224000  0.112500  1.0  0.0871
  H  H39  1  0.669400  0.682700  0.488100  1.0  0.1671
  H  H40  1  0.718100  0.749100  0.604200  1.0  0.1506
  H  H41  1  0.888500  0.753600  0.600700  1.0  0.0856
  H  H42  1  0.905500  0.853500  0.683800  1.0  0.0935
  H  H43  1  0.074300  0.900400  0.673500  1.0  0.1002
  H  H44  1  0.039100  0.974400  0.643400  1.0  0.0894
  H  H45  1  0.008100  0.786900  0.505400  1.0  0.0919
  H  H46  1  0.926500  0.813900  0.374400  1.0  0.0937
  H  H47  1  0.945000  0.919600  0.450300  1.0  0.1136
  H  H48  1  0.759000  0.773400  0.392100  1.0  0.0819
  H  H49  1  0.797400  0.703200  0.426300  1.0  0.089
  H  H50  1  0.999500  0.165600  0.023500  1.0  0.0899
  H  H51  1  0.129500  0.174000  0.158600  1.0  0.1067
  H  H52  1  0.240100  0.067400  0.963200  1.0  0.0957
  H  H53  1  0.111600  0.059700  0.830000  1.0  0.104
  H  H54  1  0.010300  0.405800  0.579800  1.0  0.108
  H  H55  1  0.160900  0.550200  0.571600  1.0  0.1125
  H  H56  1  0.368300  0.581500  0.822300  1.0  0.114
  H  H57  1  0.215500  0.446700  0.833700  1.0  0.1083
  H  H58  1  0.200700  0.377800  0.934100  1.0  0.4181
  H  H59  1  0.247300  0.681900  0.290800  1.0  0.2577
  H  H60  1  0.343700  0.908400  0.063700  1.0  0.2435
  H  H61  1  0.164000  0.108200  0.442800  1.0  0.2534
  H  H62  1  0.324600  0.684900  0.472100  1.0  0.1259
  H  H63  1  0.224300  0.695100  0.443600  1.0  0.1428
  H  H64  1  0.150900  0.487800  0.308800  1.0  0.0883
  H  H65  1  0.090700  0.547300  0.293800  1.0  0.0833
  H  H66  1  0.033900  0.407700  0.138200  1.0  0.0885
  H  H67  1  0.095500  0.522800  0.136800  1.0  0.1003
  H  H68  1  0.191300  0.404600  0.163900  1.0  0.1053
  H  H69  1  0.359200  0.550300  0.185700  1.0  0.0918
  H  H70  1  0.306400  0.615700  0.167700  1.0  0.0924
  H  H71  1  0.409600  0.686300  0.342000  1.0  0.0895
  H  H72  1  0.336600  0.568800  0.335200  1.0  0.0937
  H  H73  1  0.163000  0.783500  0.057500  1.0  0.1429
  H  H74  1  0.198700  0.701500  0.032700  1.0  0.1623
  H  H75  1  0.282600  0.709800  0.922700  1.0  0.0842
  H  H76  1  0.386600  0.779900  0.024900  1.0  0.0997
  H  H77  1  0.434600  0.806200  0.892300  1.0  0.0976
  H  H78  1  0.470500  0.917000  0.975300  1.0  0.0966
  H  H79  1  0.286300  0.794200  0.792100  1.0  0.0895
  H  H80  1  0.231400  0.911200  0.833600  1.0  0.097
  H  H81  1  0.334800  0.986700  0.936200  1.0  0.0966
  H  H82  1  0.187300  0.884800  0.967100  1.0  0.0902
  H  H83  1  0.159700  0.776000  0.887500  1.0  0.0889
  H  H84  1  0.330600  0.317300  0.511900  1.0  0.1685
  H  H85  1  0.281900  0.250900  0.395800  1.0  0.1511
  H  H86  1  0.111500  0.246400  0.399300  1.0  0.0852
  H  H87  1  0.094500  0.146500  0.316200  1.0  0.0932
  H  H88  1  0.925700  0.099600  0.326500  1.0  0.1023
  H  H89  1  0.960900  0.025600  0.356600  1.0  0.0896
  H  H90  1  0.991900  0.213100  0.494600  1.0  0.0927
  H  H91  1  0.073500  0.186100  0.625600  1.0  0.0926
  H  H92  1  0.055000  0.080400  0.549700  1.0  0.1123
  H  H93  1  0.241000  0.226600  0.607900  1.0  0.0822
  H  H94  1  0.202600  0.296800  0.573700  1.0  0.0897
  H  H95  1  0.000500  0.834400  0.976500  1.0  0.0899
  H  H96  1  0.870500  0.826000  0.841400  1.0  0.1073
  H  H97  1  0.759900  0.932600  0.036800  1.0  0.0961
  H  H98  1  0.888400  0.940300  0.170000  1.0  0.1039
  H  H99  1  0.989700  0.594200  0.420200  1.0  0.1077
  H  H100  1  0.839100  0.449800  0.428400  1.0  0.1125
  H  H101  1  0.631700  0.418500  0.177700  1.0  0.1149
  H  H102  1  0.784500  0.553300  0.166300  1.0  0.1077
  C  C103  1  0.710700  0.290400  0.567300  1.0  -0.4428
  C  C104  1  0.856100  0.465400  0.720900  1.0  -0.0748
  C  C105  1  0.895700  0.523200  0.833300  1.0  -0.1482
  C  C106  1  0.810900  0.542300  0.858800  1.0  -0.1784
  C  C107  1  0.694000  0.434500  0.804000  1.0  -0.1421
  C  C108  1  0.663100  0.380700  0.692500  1.0  -0.0574
  C  C109  1  0.841200  0.588000  0.975700  1.0  0.6343
  C  C110  1  0.774300  0.221800  0.933800  1.0  -0.4832
  C  C111  1  0.659900  0.216100  0.027700  1.0  -0.082
  C  C112  1  0.592400  0.153600  0.076100  1.0  -0.1575
  C  C113  1  0.657400  0.134200  0.153500  1.0  -0.1681
  C  C114  1  0.718900  0.088600  0.112700  1.0  -0.1601
  C  C115  1  0.781000  0.150900  0.062300  1.0  -0.0717
  C  C116  1  0.587700  0.065200  0.199300  1.0  0.6587
  C  C117  1  0.708500  0.755500  0.541600  1.0  -0.4944
  C  C118  1  0.905900  0.827400  0.618800  1.0  -0.062
  C  C119  1  0.020300  0.900000  0.623900  1.0  -0.1567
  C  C120  1  0.022300  0.859300  0.521000  1.0  -0.1786
  C  C121  1  0.929300  0.847400  0.439400  1.0  -0.183
  C  C122  1  0.815800  0.777100  0.441900  1.0  -0.0749
  C  C123  1  0.136500  0.933400  0.523300  1.0  0.7109
  C  C124  1  0.954900  0.096200  0.830000  1.0  0.6454
  C  C125  1  0.037400  0.102600  0.912900  1.0  -0.1465
  C  C126  1  0.047000  0.142600  0.010600  1.0  -0.0464
  C  C127  1  0.125700  0.150500  0.091600  1.0  -0.0309
  C  C128  1  0.196500  0.123300  0.071200  1.0  -0.083
  C  C129  1  0.190700  0.087600  0.975700  1.0  -0.0432
  C  C130  1  0.112500  0.079800  0.896100  1.0  -0.0779
  C  C131  1  0.278200  0.126400  0.154200  1.0  0.6745
  C  C132  1  0.003600  0.316900  0.706600  1.0  0.6311
  C  C133  1  0.101700  0.412700  0.705400  1.0  -0.082
  C  C134  1  0.084200  0.442800  0.629800  1.0  -0.0986
  C  C135  1  0.172600  0.527000  0.624300  1.0  -0.0788
  C  C136  1  0.278100  0.577200  0.695800  1.0  -0.0762
  C  C137  1  0.294600  0.547300  0.773100  1.0  -0.0958
  C  C138  1  0.205100  0.465800  0.778100  1.0  -0.1105
  C  C139  1  0.374200  0.672600  0.693500  1.0  0.6719
  C  C140  1  0.289300  0.709600  0.432700  1.0  -0.4419
  C  C141  1  0.143900  0.534600  0.279100  1.0  -0.0748
  C  C142  1  0.104300  0.476800  0.166700  1.0  -0.1468
  C  C143  1  0.189100  0.457700  0.141200  1.0  -0.1776
  C  C144  1  0.306000  0.565500  0.196000  1.0  -0.1417
  C  C145  1  0.336900  0.619300  0.307500  1.0  -0.0584
  C  C146  1  0.158800  0.412000  0.024300  1.0  0.6314
  C  C147  1  0.225700  0.778200  0.066200  1.0  -0.4821
  C  C148  1  0.340100  0.783900  0.972300  1.0  -0.0813
  C  C149  1  0.407600  0.846400  0.923900  1.0  -0.1525
  C  C150  1  0.342600  0.865800  0.846500  1.0  -0.1696
  C  C151  1  0.281100  0.911400  0.887300  1.0  -0.1609
  C  C152  1  0.219000  0.849100  0.937700  1.0  -0.0744
  C  C153  1  0.412300  0.934800  0.800700  1.0  0.6577
  C  C154  1  0.291500  0.244500  0.458400  1.0  -0.4958
  C  C155  1  0.094100  0.172600  0.381200  1.0  -0.0621
  C  C156  1  0.979700  0.100000  0.376100  1.0  -0.1562
  C  C157  1  0.977700  0.140700  0.479000  1.0  -0.1811
  C  C158  1  0.070700  0.152600  0.560600  1.0  -0.1858
  C  C159  1  0.184200  0.222900  0.558100  1.0  -0.0757
  C  C160  1  0.863500  0.066600  0.476700  1.0  0.7013
  C  C161  1  0.045100  0.903800  0.170000  1.0  0.6468
  C  C162  1  0.962600  0.897400  0.087100  1.0  -0.1483
  C  C163  1  0.953000  0.857400  0.989400  1.0  -0.0472
  C  C164  1  0.874300  0.849500  0.908400  1.0  -0.0312
  C  C165  1  0.803500  0.876700  0.928800  1.0  -0.0821
  C  C166  1  0.809300  0.912400  0.024300  1.0  -0.0455
  C  C167  1  0.887500  0.920200  0.103900  1.0  -0.0779
  C  C168  1  0.721800  0.873600  0.845800  1.0  0.6727
  C  C169  1  0.996400  0.683100  0.293400  1.0  0.6286
  C  C170  1  0.898300  0.587300  0.294600  1.0  -0.0811
  C  C171  1  0.915800  0.557200  0.370200  1.0  -0.0985
  C  C172  1  0.827400  0.473000  0.375700  1.0  -0.0782
  C  C173  1  0.721900  0.422800  0.304200  1.0  -0.0771
  C  C174  1  0.705400  0.452700  0.226900  1.0  -0.0953
  C  C175  1  0.794900  0.534200  0.221900  1.0  -0.1101
  C  C176  1  0.625800  0.327400  0.306500  1.0  0.6736
  N  N177  1  0.746700  0.357500  0.675400  1.0  0.1592
  N  N178  1  0.710700  0.160400  0.983900  1.0  0.1566
  N  N179  1  0.818700  0.822500  0.542300  1.0  0.156
  N  N180  1  0.253300  0.642500  0.324600  1.0  0.1588
  N  N181  1  0.289300  0.839600  0.016100  1.0  0.1579
  N  N182  1  0.181300  0.177500  0.457700  1.0  0.1553
  O  O183  1  0.555600  0.093600  0.407000  1.0  -0.9935
  O  O184  1  0.543600  0.124000  0.578500  1.0  -0.9225
  O  O185  1  0.681800  0.087200  0.536700  1.0  -1.0153
  O  O186  1  0.934400  0.615500  0.030400  1.0  -0.5668
  O  O187  1  0.774400  0.598200  0.002100  1.0  -0.5159
  O  O188  1  0.779600  0.242700  0.768000  1.0  -0.8921
  O  O189  1  0.673100  0.055800  0.749100  1.0  -0.9917
  O  O190  1  0.592500  0.170300  0.782400  1.0  -0.8914
  O  O191  1  0.496300  0.053600  0.184500  1.0  -0.608
  O  O192  1  0.629300  0.026800  0.248700  1.0  -0.7367
  O  O193  1  0.612300  0.822300  0.423900  1.0  -0.9275
  O  O194  1  0.689200  0.923900  0.614300  1.0  -1.0369
  O  O195  1  0.521100  0.739900  0.534300  1.0  -0.9063
  O  O196  1  0.218500  0.962100  0.597400  1.0  -0.6778
  O  O197  1  0.139000  0.958300  0.451500  1.0  -0.6382
  O  O198  1  0.909300  0.267000  0.636100  1.0  -0.6525
  O  O199  1  0.017500  0.285600  0.775000  1.0  -0.6526
  O  O200  1  0.356000  0.724300  0.644500  1.0  -0.6822
  O  O201  1  0.472200  0.702000  0.740000  1.0  -0.6927
  O  O202  1  0.941200  0.053900  0.739800  1.0  -0.6883
  O  O203  1  0.897000  0.131400  0.848900  1.0  -0.6423
  O  O204  1  0.304500  0.179900  0.245100  1.0  -0.6616
  O  O205  1  0.320000  0.072500  0.130800  1.0  -0.663
  O  O206  1  0.444400  0.906400  0.593000  1.0  -0.9945
  O  O207  1  0.456400  0.876000  0.421500  1.0  -0.9242
  O  O208  1  0.318200  0.912800  0.463300  1.0  -1.0141
  O  O209  1  0.065600  0.384500  0.969600  1.0  -0.564
  O  O210  1  0.225600  0.401800  0.997900  1.0  -0.5215
  O  O211  1  0.220400  0.757300  0.232000  1.0  -0.8931
  O  O212  1  0.326900  0.944200  0.250900  1.0  -0.9947
  O  O213  1  0.407500  0.829700  0.217600  1.0  -0.9067
  O  O214  1  0.503700  0.946400  0.815500  1.0  -0.6095
  O  O215  1  0.370700  0.973200  0.751300  1.0  -0.7369
  O  O216  1  0.387700  0.177700  0.576100  1.0  -0.9284
  O  O217  1  0.310800  0.076100  0.385700  1.0  -1.0353
  O  O218  1  0.478900  0.260100  0.465700  1.0  -0.9027
  O  O219  1  0.781500  0.037900  0.402600  1.0  -0.6783
  O  O220  1  0.861000  0.041700  0.548500  1.0  -0.6374
  O  O221  1  0.090700  0.733000  0.363900  1.0  -0.6534
  O  O222  1  0.982500  0.714400  0.225000  1.0  -0.6524
  O  O223  1  0.644000  0.275700  0.355500  1.0  -0.6839
  O  O224  1  0.527800  0.298000  0.260000  1.0  -0.6889
  O  O225  1  0.058800  0.946100  0.260200  1.0  -0.689
  O  O226  1  0.103000  0.868600  0.151100  1.0  -0.6437
  O  O227  1  0.695500  0.820100  0.754900  1.0  -0.668
  O  O228  1  0.680000  0.927500  0.869200  1.0  -0.6621
