# generated using pymatgen
data_CdH8C14S2(N3O)2
_symmetry_space_group_name_H-M   'P 1'
_cell_length_a   10.98250000
_cell_length_b   11.60120000
_cell_length_c   16.85780000
_cell_angle_alpha   90.00000000
_cell_angle_beta   90.00000000
_cell_angle_gamma   94.75800000
_symmetry_Int_Tables_number   1
_chemical_formula_structural   CdH8C14S2(N3O)2
_chemical_formula_sum   'Cd4 H32 C56 S8 N24 O8'
_cell_volume   2140.45365702
_cell_formula_units_Z   4
loop_
 _symmetry_equiv_pos_site_id
 _symmetry_equiv_pos_as_xyz
  1  'x, y, z'
loop_
 _atom_site_type_symbol
 _atom_site_label
 _atom_site_symmetry_multiplicity
 _atom_site_fract_x
 _atom_site_fract_y
 _atom_site_fract_z
 _atom_site_occupancy
 _atom_site_charge
  Cd  Cd1  1  0.837510  0.755140  0.745920  1.0  0.7674
  Cd  Cd2  1  0.662490  0.244860  0.245920  1.0  0.7665
  Cd  Cd3  1  0.162490  0.244860  0.254080  1.0  0.7665
  Cd  Cd4  1  0.337510  0.755140  0.754080  1.0  0.7675
  H  H5  1  0.248400  0.037800  0.156300  1.0  0.0756
  H  H6  1  0.260500  0.948500  0.035700  1.0  0.1318
  H  H7  1  0.049100  0.181000  0.945500  1.0  0.1352
  H  H8  1  0.052400  0.269100  0.067300  1.0  0.0735
  H  H9  1  0.011900  0.233700  0.426300  1.0  0.0762
  H  H10  1  0.997200  0.329100  0.545000  1.0  0.1312
  H  H11  1  0.297300  0.528200  0.485300  1.0  0.1247
  H  H12  1  0.302000  0.428400  0.368700  1.0  0.0679
  H  H13  1  0.251600  0.962200  0.656300  1.0  0.0757
  H  H14  1  0.239500  0.051500  0.535700  1.0  0.132
  H  H15  1  0.450900  0.819000  0.445500  1.0  0.1353
  H  H16  1  0.447600  0.730900  0.567300  1.0  0.0736
  H  H17  1  0.488100  0.766300  0.926300  1.0  0.0759
  H  H18  1  0.502800  0.670900  0.045000  1.0  0.1307
  H  H19  1  0.202700  0.471800  0.985300  1.0  0.1238
  H  H20  1  0.198000  0.571600  0.868700  1.0  0.0681
  H  H21  1  0.751600  0.962200  0.843700  1.0  0.0761
  H  H22  1  0.739500  0.051500  0.964300  1.0  0.1319
  H  H23  1  0.950900  0.819000  0.054500  1.0  0.1355
  H  H24  1  0.947600  0.730900  0.932700  1.0  0.074
  H  H25  1  0.988100  0.766300  0.573700  1.0  0.0758
  H  H26  1  0.002800  0.670900  0.455000  1.0  0.1302
  H  H27  1  0.702700  0.471800  0.514700  1.0  0.1242
  H  H28  1  0.698000  0.571600  0.631300  1.0  0.0677
  H  H29  1  0.748400  0.037800  0.343700  1.0  0.0755
  H  H30  1  0.760500  0.948500  0.464300  1.0  0.1314
  H  H31  1  0.549100  0.181000  0.554500  1.0  0.1356
  H  H32  1  0.552400  0.269100  0.432700  1.0  0.0733
  H  H33  1  0.511900  0.233700  0.073700  1.0  0.0758
  H  H34  1  0.497200  0.329100  0.955000  1.0  0.1306
  H  H35  1  0.797300  0.528200  0.014700  1.0  0.1249
  H  H36  1  0.802000  0.428400  0.131300  1.0  0.0679
  C  C37  1  0.210100  0.068400  0.112800  1.0  0.1664
  C  C38  1  0.216100  0.012900  0.040940  1.0  -0.1603
  C  C39  1  0.155300  0.054400  0.976770  1.0  0.0247
  C  C40  1  0.092100  0.151300  0.987280  1.0  -0.1868
  C  C41  1  0.094000  0.203100  0.060880  1.0  0.1703
  C  C42  1  0.156700  0.991500  0.901680  1.0  0.3459
  C  C43  1  0.097000  0.929800  0.786510  1.0  0.392
  C  C44  1  0.069800  0.294400  0.438300  1.0  0.1694
  C  C45  1  0.060000  0.351400  0.509840  1.0  -0.1813
  C  C46  1  0.144600  0.441500  0.528180  1.0  0.0236
  C  C47  1  0.237200  0.469100  0.474400  1.0  -0.1624
  C  C48  1  0.239600  0.408100  0.404600  1.0  0.1694
  C  C49  1  0.140800  0.508800  0.601310  1.0  0.3453
  C  C50  1  0.071800  0.572500  0.710980  1.0  0.3955
  C  C51  1  0.289900  0.931600  0.612800  1.0  0.1652
  C  C52  1  0.283900  0.987100  0.540940  1.0  -0.1608
  C  C53  1  0.344700  0.945600  0.476770  1.0  0.0262
  C  C54  1  0.407900  0.848700  0.487280  1.0  -0.1869
  C  C55  1  0.406000  0.796900  0.560880  1.0  0.1702
  C  C56  1  0.343300  0.008500  0.401680  1.0  0.3448
  C  C57  1  0.403000  0.070200  0.286510  1.0  0.3942
  C  C58  1  0.430200  0.705600  0.938300  1.0  0.1705
  C  C59  1  0.440000  0.648600  0.009840  1.0  -0.1814
  C  C60  1  0.355400  0.558500  0.028180  1.0  0.0262
  C  C61  1  0.262800  0.530900  0.974400  1.0  -0.1605
  C  C62  1  0.260400  0.591900  0.904600  1.0  0.1699
  C  C63  1  0.359200  0.491200  0.101310  1.0  0.3449
  C  C64  1  0.428200  0.427500  0.210980  1.0  0.4016
  C  C65  1  0.789900  0.931600  0.887200  1.0  0.1656
  C  C66  1  0.783900  0.987100  0.959060  1.0  -0.1606
  C  C67  1  0.844700  0.945600  0.023230  1.0  0.0263
  C  C68  1  0.907900  0.848700  0.012720  1.0  -0.1854
  C  C69  1  0.906000  0.796900  0.939120  1.0  0.1706
  C  C70  1  0.843300  0.008500  0.098320  1.0  0.3451
  C  C71  1  0.903000  0.070200  0.213490  1.0  0.3937
  C  C72  1  0.930200  0.705600  0.561700  1.0  0.1705
  C  C73  1  0.940000  0.648600  0.490160  1.0  -0.1817
  C  C74  1  0.855400  0.558500  0.471820  1.0  0.0257
  C  C75  1  0.762800  0.530900  0.525600  1.0  -0.1604
  C  C76  1  0.760400  0.591900  0.595400  1.0  0.1701
  C  C77  1  0.859200  0.491200  0.398690  1.0  0.3471
  C  C78  1  0.928200  0.427500  0.289020  1.0  0.403
  C  C79  1  0.710100  0.068400  0.387200  1.0  0.1658
  C  C80  1  0.716100  0.012900  0.459060  1.0  -0.1605
  C  C81  1  0.655300  0.054400  0.523230  1.0  0.0238
  C  C82  1  0.592100  0.151300  0.512720  1.0  -0.1864
  C  C83  1  0.594000  0.203100  0.439120  1.0  0.1711
  C  C84  1  0.656700  0.991500  0.598320  1.0  0.3449
  C  C85  1  0.597000  0.929800  0.713490  1.0  0.3927
  C  C86  1  0.569800  0.294400  0.061700  1.0  0.1698
  C  C87  1  0.560000  0.351400  0.990160  1.0  -0.1821
  C  C88  1  0.644600  0.441500  0.971820  1.0  0.0248
  C  C89  1  0.737200  0.469100  0.025600  1.0  -0.162
  C  C90  1  0.739600  0.408100  0.095400  1.0  0.1691
  C  C91  1  0.640800  0.508800  0.898690  1.0  0.3463
  C  C92  1  0.571800  0.572500  0.789020  1.0  0.3985
  S  S93  1  0.008620  0.918920  0.703750  1.0  -0.4688
  S  S94  1  0.973810  0.580480  0.788340  1.0  -0.4677
  S  S95  1  0.491380  0.081080  0.203750  1.0  -0.4703
  S  S96  1  0.526190  0.419520  0.288340  1.0  -0.4669
  S  S97  1  0.991380  0.081080  0.296250  1.0  -0.4726
  S  S98  1  0.026190  0.419520  0.211660  1.0  -0.4561
  S  S99  1  0.508620  0.918920  0.796250  1.0  -0.4714
  S  S100  1  0.473810  0.580480  0.711660  1.0  -0.4564
  N  N101  1  0.152200  0.163700  0.123310  1.0  -0.3242
  N  N102  1  0.229700  0.915100  0.882450  1.0  -0.2808
  N  N103  1  0.191700  0.875300  0.807220  1.0  -0.2565
  N  N104  1  0.158000  0.322100  0.385640  1.0  -0.3303
  N  N105  1  0.222200  0.586100  0.625310  1.0  -0.2645
  N  N106  1  0.178700  0.627400  0.697010  1.0  -0.2671
  N  N107  1  0.347800  0.836300  0.623310  1.0  -0.3244
  N  N108  1  0.270300  0.084900  0.382450  1.0  -0.2803
  N  N109  1  0.308300  0.124700  0.307220  1.0  -0.2568
  N  N110  1  0.342000  0.677900  0.885640  1.0  -0.3308
  N  N111  1  0.277800  0.413900  0.125310  1.0  -0.2639
  N  N112  1  0.321300  0.372600  0.197010  1.0  -0.2679
  N  N113  1  0.847800  0.836300  0.876690  1.0  -0.3263
  N  N114  1  0.770300  0.084900  0.117550  1.0  -0.28
  N  N115  1  0.808300  0.124700  0.192780  1.0  -0.2565
  N  N116  1  0.842000  0.677900  0.614360  1.0  -0.3315
  N  N117  1  0.777800  0.413900  0.374690  1.0  -0.2643
  N  N118  1  0.821300  0.372600  0.302990  1.0  -0.2686
  N  N119  1  0.652200  0.163700  0.376690  1.0  -0.3253
  N  N120  1  0.729700  0.915100  0.617550  1.0  -0.2808
  N  N121  1  0.691700  0.875300  0.692780  1.0  -0.2562
  N  N122  1  0.658000  0.322100  0.114360  1.0  -0.3294
  N  N123  1  0.722200  0.586100  0.874690  1.0  -0.2645
  N  N124  1  0.678700  0.627400  0.802990  1.0  -0.268
  O  O125  1  0.071730  0.007870  0.845080  1.0  -0.2216
  O  O126  1  0.043410  0.494060  0.650780  1.0  -0.2238
  O  O127  1  0.428270  0.992130  0.345080  1.0  -0.2208
  O  O128  1  0.456590  0.505940  0.150780  1.0  -0.2241
  O  O129  1  0.928270  0.992130  0.154920  1.0  -0.2233
  O  O130  1  0.956590  0.505940  0.349220  1.0  -0.2238
  O  O131  1  0.571730  0.007870  0.654920  1.0  -0.2224
  O  O132  1  0.543410  0.494060  0.849220  1.0  -0.2215
