# generated using pymatgen
data_CuH2(C5O4)2
_symmetry_space_group_name_H-M   'P 1'
_cell_length_a   8.88710000
_cell_length_b   11.49310000
_cell_length_c   16.45700000
_cell_angle_alpha   90.00000000
_cell_angle_beta   90.00000000
_cell_angle_gamma   90.00000000
_symmetry_Int_Tables_number   1
_chemical_formula_structural   CuH2(C5O4)2
_chemical_formula_sum   'Cu4 H8 C40 O32'
_cell_volume   1680.92339452
_cell_formula_units_Z   4
loop_
 _symmetry_equiv_pos_site_id
 _symmetry_equiv_pos_as_xyz
  1  'x, y, z'
loop_
 _atom_site_type_symbol
 _atom_site_label
 _atom_site_symmetry_multiplicity
 _atom_site_fract_x
 _atom_site_fract_y
 _atom_site_fract_z
 _atom_site_occupancy
 _atom_site_charge
  Cu  Cu1  1  0.000000  0.001910  0.000000  1.0  0.9411
  Cu  Cu2  1  0.500000  0.501910  0.000000  1.0  0.9411
  Cu  Cu3  1  0.000000  0.001910  0.500000  1.0  0.9411
  Cu  Cu4  1  0.500000  0.501910  0.500000  1.0  0.9411
  H  H5  1  0.085600  0.910600  0.250000  1.0  0.153
  H  H6  1  0.408100  0.597100  0.250000  1.0  0.1025
  H  H7  1  0.585600  0.410600  0.250000  1.0  0.153
  H  H8  1  0.908100  0.097100  0.250000  1.0  0.1025
  H  H9  1  0.914400  0.910600  0.750000  1.0  0.1533
  H  H10  1  0.591900  0.597100  0.750000  1.0  0.1016
  H  H11  1  0.414400  0.410600  0.750000  1.0  0.1533
  H  H12  1  0.091900  0.097100  0.750000  1.0  0.1016
  C  C13  1  0.195900  0.796200  0.174900  1.0  -0.0528
  C  C14  1  0.294700  0.701300  0.177700  1.0  -0.0203
  C  C15  1  0.154500  0.857000  0.098500  1.0  0.7381
  C  C16  1  0.334200  0.640200  0.097600  1.0  0.7343
  C  C17  1  0.695900  0.296200  0.174900  1.0  -0.0528
  C  C18  1  0.794700  0.201300  0.177700  1.0  -0.0203
  C  C19  1  0.654500  0.357000  0.098500  1.0  0.7381
  C  C20  1  0.834200  0.140200  0.097600  1.0  0.7343
  C  C21  1  0.804100  0.796200  0.825100  1.0  -0.0533
  C  C22  1  0.705300  0.701300  0.822300  1.0  -0.0202
  C  C23  1  0.845500  0.857000  0.901500  1.0  0.739
  C  C24  1  0.665800  0.640200  0.902400  1.0  0.7342
  C  C25  1  0.304100  0.296200  0.825100  1.0  -0.0533
  C  C26  1  0.205300  0.201300  0.822300  1.0  -0.0202
  C  C27  1  0.345500  0.357000  0.901500  1.0  0.739
  C  C28  1  0.165800  0.140200  0.902400  1.0  0.7342
  C  C29  1  0.804100  0.796200  0.674900  1.0  -0.053
  C  C30  1  0.705300  0.701300  0.677700  1.0  -0.0203
  C  C31  1  0.845500  0.857000  0.598500  1.0  0.7388
  C  C32  1  0.665800  0.640200  0.597600  1.0  0.7343
  C  C33  1  0.304100  0.296200  0.674900  1.0  -0.053
  C  C34  1  0.205300  0.201300  0.677700  1.0  -0.0203
  C  C35  1  0.345500  0.357000  0.598500  1.0  0.7388
  C  C36  1  0.165800  0.140200  0.597600  1.0  0.7343
  C  C37  1  0.195900  0.796200  0.325100  1.0  -0.0528
  C  C38  1  0.294700  0.701300  0.322300  1.0  -0.0202
  C  C39  1  0.154500  0.857000  0.401500  1.0  0.7385
  C  C40  1  0.334200  0.640200  0.402400  1.0  0.7341
  C  C41  1  0.695900  0.296200  0.325100  1.0  -0.0528
  C  C42  1  0.794700  0.201300  0.322300  1.0  -0.0202
  C  C43  1  0.654500  0.357000  0.401500  1.0  0.7385
  C  C44  1  0.834200  0.140200  0.402400  1.0  0.7341
  C  C45  1  0.148200  0.845700  0.250000  1.0  0.0258
  C  C46  1  0.340700  0.659000  0.250000  1.0  0.0503
  C  C47  1  0.648200  0.345700  0.250000  1.0  0.0258
  C  C48  1  0.840700  0.159000  0.250000  1.0  0.0503
  C  C49  1  0.851800  0.845700  0.750000  1.0  0.0277
  C  C50  1  0.659300  0.659000  0.750000  1.0  0.0506
  C  C51  1  0.351800  0.345700  0.750000  1.0  0.0277
  C  C52  1  0.159300  0.159000  0.750000  1.0  0.0506
  O  O53  1  0.015600  0.885100  0.089200  1.0  -0.5298
  O  O54  1  0.254100  0.883500  0.049200  1.0  -0.4983
  O  O55  1  0.471100  0.615500  0.086500  1.0  -0.5473
  O  O56  1  0.230600  0.615800  0.050700  1.0  -0.4604
  O  O57  1  0.515600  0.385100  0.089200  1.0  -0.5298
  O  O58  1  0.754100  0.383500  0.049200  1.0  -0.4983
  O  O59  1  0.971100  0.115500  0.086500  1.0  -0.5474
  O  O60  1  0.730600  0.115800  0.050700  1.0  -0.4604
  O  O61  1  0.984400  0.885100  0.910800  1.0  -0.5295
  O  O62  1  0.745900  0.883500  0.950800  1.0  -0.4991
  O  O63  1  0.528900  0.615500  0.913500  1.0  -0.5471
  O  O64  1  0.769400  0.615800  0.949300  1.0  -0.4607
  O  O65  1  0.484400  0.385100  0.910800  1.0  -0.5295
  O  O66  1  0.245900  0.383500  0.950800  1.0  -0.4991
  O  O67  1  0.028900  0.115500  0.913500  1.0  -0.5473
  O  O68  1  0.269400  0.115800  0.949300  1.0  -0.4607
  O  O69  1  0.984400  0.885100  0.589200  1.0  -0.5303
  O  O70  1  0.745900  0.883500  0.549200  1.0  -0.4991
  O  O71  1  0.528900  0.615500  0.586500  1.0  -0.5473
  O  O72  1  0.769400  0.615800  0.550700  1.0  -0.4607
  O  O73  1  0.484400  0.385100  0.589200  1.0  -0.5303
  O  O74  1  0.245900  0.383500  0.549200  1.0  -0.4991
  O  O75  1  0.028900  0.115500  0.586500  1.0  -0.5475
  O  O76  1  0.269400  0.115800  0.550700  1.0  -0.4607
  O  O77  1  0.015600  0.885100  0.410800  1.0  -0.529
  O  O78  1  0.254100  0.883500  0.450800  1.0  -0.5005
  O  O79  1  0.471100  0.615500  0.413500  1.0  -0.5471
  O  O80  1  0.230600  0.615800  0.449300  1.0  -0.4587
  O  O81  1  0.515600  0.385100  0.410800  1.0  -0.529
  O  O82  1  0.754100  0.383500  0.450800  1.0  -0.5005
  O  O83  1  0.971100  0.115500  0.413500  1.0  -0.5472
  O  O84  1  0.730600  0.115800  0.449300  1.0  -0.4587
