# generated using pymatgen
data_CdMo6P4O25
_symmetry_space_group_name_H-M   'P 1'
_cell_length_a   15.12300000
_cell_length_b   12.30500000
_cell_length_c   19.26400000
_cell_angle_alpha   90.00000000
_cell_angle_beta   98.62000000
_cell_angle_gamma   90.00000000
_symmetry_Int_Tables_number   1
_chemical_formula_structural   CdMo6P4O25
_chemical_formula_sum   'Cd4 Mo24 P16 O100'
_cell_volume   3544.31559016
_cell_formula_units_Z   4
loop_
 _symmetry_equiv_pos_site_id
 _symmetry_equiv_pos_as_xyz
  1  'x, y, z'
loop_
 _atom_site_type_symbol
 _atom_site_label
 _atom_site_symmetry_multiplicity
 _atom_site_fract_x
 _atom_site_fract_y
 _atom_site_fract_z
 _atom_site_occupancy
 _atom_site_charge
  Cd  Cd1  1  0.500000  0.245700  0.500000  1.0  1.0873
  Cd  Cd2  1  0.500400  0.251000  0.000600  1.0  1.1695
  Cd  Cd3  1  0.000000  0.754300  0.000000  1.0  1.0879
  Cd  Cd4  1  0.000400  0.749000  0.500600  1.0  1.1692
  Mo  Mo5  1  0.482600  0.395800  0.676600  1.0  1.0888
  Mo  Mo6  1  0.376400  0.492700  0.576000  1.0  1.3318
  Mo  Mo7  1  0.251400  0.341700  0.442800  1.0  1.4565
  Mo  Mo8  1  0.262000  0.130500  0.443900  1.0  1.163
  Mo  Mo9  1  0.400000  0.996400  0.579000  1.0  1.3066
  Mo  Mo10  1  0.493700  0.111000  0.680900  1.0  1.3144
  Mo  Mo11  1  0.502300  0.392700  0.322000  1.0  1.309
  Mo  Mo12  1  0.593500  0.505000  0.419100  1.0  1.2843
  Mo  Mo13  1  0.735100  0.369200  0.559100  1.0  1.321
  Mo  Mo14  1  0.744700  0.159400  0.561000  1.0  1.2514
  Mo  Mo15  1  0.614900  0.000400  0.425200  1.0  1.2845
  Mo  Mo16  1  0.515300  0.103100  0.324400  1.0  1.433
  Mo  Mo17  1  0.982600  0.604200  0.176600  1.0  1.0884
  Mo  Mo18  1  0.876400  0.507300  0.076000  1.0  1.3301
  Mo  Mo19  1  0.751400  0.658300  0.942800  1.0  1.4564
  Mo  Mo20  1  0.762000  0.869500  0.943900  1.0  1.163
  Mo  Mo21  1  0.900000  0.003600  0.079000  1.0  1.3071
  Mo  Mo22  1  0.993700  0.889000  0.180900  1.0  1.3174
  Mo  Mo23  1  0.002300  0.607300  0.822000  1.0  1.3084
  Mo  Mo24  1  0.093500  0.495000  0.919100  1.0  1.2815
  Mo  Mo25  1  0.235100  0.630800  0.059100  1.0  1.3207
  Mo  Mo26  1  0.244700  0.840600  0.061000  1.0  1.2522
  Mo  Mo27  1  0.114900  0.999600  0.925200  1.0  1.2854
  Mo  Mo28  1  0.015300  0.896900  0.824400  1.0  1.4324
  P  P29  1  0.305000  0.241000  0.610000  1.0  1.8339
  P  P30  1  0.465000  0.249000  0.823000  1.0  1.6483
  P  P31  1  0.161000  0.514000  0.541000  1.0  1.7193
  P  P32  1  0.183000  0.952000  0.548000  1.0  1.6728
  P  P33  1  0.700000  0.262000  0.394000  1.0  1.7371
  P  P34  1  0.533000  0.242000  0.178000  1.0  1.6901
  P  P35  1  0.810000  0.556000  0.458000  1.0  1.6556
  P  P36  1  0.838000  0.977000  0.462000  1.0  1.697
  P  P37  1  0.805000  0.759000  0.110000  1.0  1.8336
  P  P38  1  0.965000  0.751000  0.323000  1.0  1.6483
  P  P39  1  0.661000  0.486000  0.041000  1.0  1.7193
  P  P40  1  0.683000  0.048000  0.048000  1.0  1.673
  P  P41  1  0.200000  0.738000  0.894000  1.0  1.7371
  P  P42  1  0.033000  0.758000  0.678000  1.0  1.6904
  P  P43  1  0.310000  0.444000  0.958000  1.0  1.6552
  P  P44  1  0.338000  0.023000  0.962000  1.0  1.6975
  O  O45  1  0.364000  0.470000  0.671000  1.0  -0.636
  O  O46  1  0.479000  0.391000  0.570000  1.0  -0.6499
  O  O47  1  0.464000  0.356000  0.780000  1.0  -0.6668
  O  O48  1  0.560000  0.254000  0.683000  1.0  -0.5267
  O  O49  1  0.386000  0.249000  0.663000  1.0  -0.7432
  O  O50  1  0.344000  0.461000  0.466000  1.0  -0.6082
  O  O51  1  0.255000  0.569000  0.561000  1.0  -0.6683
  O  O52  1  0.297000  0.341000  0.566000  1.0  -0.732
  O  O53  1  0.350000  0.248000  0.444000  1.0  -0.7116
  O  O54  1  0.171000  0.250000  0.468000  1.0  -0.5752
  O  O55  1  0.161000  0.444000  0.474000  1.0  -0.6258
  O  O56  1  0.310000  0.145000  0.560000  1.0  -0.7619
  O  O57  1  0.184000  0.007000  0.472000  1.0  -0.6675
  O  O58  1  0.361000  0.018000  0.475000  1.0  -0.5878
  O  O59  1  0.391000  0.013000  0.680000  1.0  -0.5645
  O  O60  1  0.278000  0.922000  0.581000  1.0  -0.6525
  O  O61  1  0.492000  0.116000  0.579000  1.0  -0.6851
  O  O62  1  0.474000  0.158000  0.778000  1.0  -0.5416
  O  O63  1  0.603000  0.259000  0.347000  1.0  -0.8041
  O  O64  1  0.610000  0.476000  0.324000  1.0  -0.5982
  O  O65  1  0.508000  0.392000  0.425000  1.0  -0.7171
  O  O66  1  0.430000  0.239000  0.323000  1.0  -0.6112
  O  O67  1  0.521000  0.354000  0.219000  1.0  -0.6627
  O  O68  1  0.696000  0.366000  0.441000  1.0  -0.7932
  O  O69  1  0.626000  0.482000  0.535000  1.0  -0.6181
  O  O70  1  0.714000  0.590000  0.432000  1.0  -0.6414
  O  O71  1  0.637000  0.263000  0.558000  1.0  -0.7097
  O  O72  1  0.817000  0.491000  0.523000  1.0  -0.638
  O  O73  1  0.826000  0.266000  0.541000  1.0  -0.5753
  O  O74  1  0.646000  0.028000  0.534000  1.0  -0.6012
  O  O75  1  0.832000  0.045000  0.529000  1.0  -0.6862
  O  O76  1  0.704000  0.160000  0.446000  1.0  -0.7465
  O  O77  1  0.748000  0.943000  0.430000  1.0  -0.5813
  O  O78  1  0.524000  0.112000  0.423000  1.0  -0.7073
  O  O79  1  0.622000  0.028000  0.324000  1.0  -0.6054
  O  O80  1  0.512000  0.147000  0.221000  1.0  -0.6452
  O  O81  1  0.214000  0.225000  0.642000  1.0  -0.5101
  O  O82  1  0.531000  0.248000  0.891000  1.0  -0.6603
  O  O83  1  0.363000  0.243000  0.837000  1.0  -0.3841
  O  O84  1  0.140000  0.445000  0.605000  1.0  -0.4933
  O  O85  1  0.094000  0.609000  0.528000  1.0  -0.7642
  O  O86  1  0.121000  0.857000  0.547000  1.0  -0.7379
  O  O87  1  0.143000  0.032000  0.594000  1.0  -0.5339
  O  O88  1  0.774000  0.263000  0.355000  1.0  -0.5056
  O  O89  1  0.474000  0.236000  0.112000  1.0  -0.576
  O  O90  1  0.634000  0.242000  0.162000  1.0  -0.3932
  O  O91  1  0.842000  0.475000  0.397000  1.0  -0.5194
  O  O92  1  0.867000  0.655000  0.467000  1.0  -0.7784
  O  O93  1  0.866000  0.070000  0.407000  1.0  -0.4623
  O  O94  1  0.916000  0.910000  0.469000  1.0  -0.5838
  O  O95  1  0.864000  0.530000  0.171000  1.0  -0.6376
  O  O96  1  0.979000  0.609000  0.070000  1.0  -0.6495
  O  O97  1  0.964000  0.644000  0.280000  1.0  -0.6679
  O  O98  1  0.060000  0.746000  0.183000  1.0  -0.5264
  O  O99  1  0.886000  0.751000  0.163000  1.0  -0.743
  O  O100  1  0.844000  0.539000  0.966000  1.0  -0.6066
  O  O101  1  0.755000  0.431000  0.061000  1.0  -0.6698
  O  O102  1  0.797000  0.659000  0.066000  1.0  -0.7322
  O  O103  1  0.850000  0.752000  0.944000  1.0  -0.7116
  O  O104  1  0.671000  0.750000  0.968000  1.0  -0.5748
  O  O105  1  0.661000  0.556000  0.974000  1.0  -0.6257
  O  O106  1  0.810000  0.855000  0.060000  1.0  -0.7615
  O  O107  1  0.684000  0.993000  0.972000  1.0  -0.6676
  O  O108  1  0.861000  0.982000  0.975000  1.0  -0.592
  O  O109  1  0.891000  0.987000  0.180000  1.0  -0.5637
  O  O110  1  0.778000  0.078000  0.081000  1.0  -0.6523
  O  O111  1  0.992000  0.884000  0.079000  1.0  -0.6855
  O  O112  1  0.974000  0.842000  0.278000  1.0  -0.542
  O  O113  1  0.103000  0.741000  0.847000  1.0  -0.8041
  O  O114  1  0.110000  0.524000  0.824000  1.0  -0.5979
  O  O115  1  0.008000  0.608000  0.925000  1.0  -0.717
  O  O116  1  0.930000  0.761000  0.823000  1.0  -0.6116
  O  O117  1  0.021000  0.646000  0.719000  1.0  -0.6626
  O  O118  1  0.196000  0.634000  0.941000  1.0  -0.7928
  O  O119  1  0.126000  0.518000  0.035000  1.0  -0.6229
  O  O120  1  0.214000  0.410000  0.932000  1.0  -0.6407
  O  O121  1  0.137000  0.737000  0.058000  1.0  -0.7098
  O  O122  1  0.317000  0.509000  0.023000  1.0  -0.638
  O  O123  1  0.326000  0.734000  0.041000  1.0  -0.575
  O  O124  1  0.146000  0.972000  0.034000  1.0  -0.5981
  O  O125  1  0.332000  0.955000  0.029000  1.0  -0.6868
  O  O126  1  0.204000  0.840000  0.946000  1.0  -0.7462
  O  O127  1  0.248000  0.057000  0.930000  1.0  -0.5821
  O  O128  1  0.024000  0.888000  0.923000  1.0  -0.7075
  O  O129  1  0.122000  0.972000  0.824000  1.0  -0.6072
  O  O130  1  0.012000  0.853000  0.721000  1.0  -0.647
  O  O131  1  0.714000  0.775000  0.142000  1.0  -0.5098
  O  O132  1  0.031000  0.752000  0.391000  1.0  -0.6602
  O  O133  1  0.863000  0.757000  0.337000  1.0  -0.3841
  O  O134  1  0.640000  0.555000  0.105000  1.0  -0.4927
  O  O135  1  0.594000  0.391000  0.028000  1.0  -0.7639
  O  O136  1  0.621000  0.143000  0.047000  1.0  -0.7392
  O  O137  1  0.643000  0.968000  0.094000  1.0  -0.5347
  O  O138  1  0.274000  0.737000  0.855000  1.0  -0.5064
  O  O139  1  0.974000  0.764000  0.612000  1.0  -0.5761
  O  O140  1  0.134000  0.758000  0.662000  1.0  -0.3933
  O  O141  1  0.342000  0.525000  0.897000  1.0  -0.5189
  O  O142  1  0.367000  0.345000  0.967000  1.0  -0.7787
  O  O143  1  0.366000  0.930000  0.907000  1.0  -0.4618
  O  O144  1  0.416000  0.090000  0.969000  1.0  -0.5834
