# generated using pymatgen
data_CdMo6P4O25
_symmetry_space_group_name_H-M   'P 1'
_cell_length_a   15.12300000
_cell_length_b   12.30500000
_cell_length_c   19.26400000
_cell_angle_alpha   90.00000000
_cell_angle_beta   98.62000000
_cell_angle_gamma   90.00000000
_symmetry_Int_Tables_number   1
_chemical_formula_structural   CdMo6P4O25
_chemical_formula_sum   'Cd4 Mo24 P16 O100'
_cell_volume   3544.31559016
_cell_formula_units_Z   4
loop_
 _symmetry_equiv_pos_site_id
 _symmetry_equiv_pos_as_xyz
  1  'x, y, z'
loop_
 _atom_site_type_symbol
 _atom_site_label
 _atom_site_symmetry_multiplicity
 _atom_site_fract_x
 _atom_site_fract_y
 _atom_site_fract_z
 _atom_site_occupancy
 _atom_site_charge
  Cd  Cd1  1  0.000000  0.000000  0.000000  1.0  0.9719
  Cd  Cd2  1  0.500000  0.500000  0.500000  1.0  0.9719
  Cd  Cd3  1  0.000000  0.000000  0.500000  1.0  1.1794
  Cd  Cd4  1  0.500000  0.500000  0.000000  1.0  1.1794
  Mo  Mo5  1  0.016400  0.146400  0.823900  1.0  1.3083
  Mo  Mo6  1  0.119300  0.246200  0.924600  1.0  1.3101
  Mo  Mo7  1  0.246600  0.091000  0.059000  1.0  1.2982
  Mo  Mo8  1  0.236500  0.880500  0.057600  1.0  1.2974
  Mo  Mo9  1  0.096700  0.745600  0.920100  1.0  1.3059
  Mo  Mo10  1  0.004400  0.859100  0.820600  1.0  1.3241
  Mo  Mo11  1  0.483600  0.646400  0.676100  1.0  1.3061
  Mo  Mo12  1  0.380700  0.746200  0.575400  1.0  1.31
  Mo  Mo13  1  0.253400  0.591000  0.441000  1.0  1.2996
  Mo  Mo14  1  0.263500  0.380500  0.442400  1.0  1.2985
  Mo  Mo15  1  0.403300  0.245600  0.579900  1.0  1.3072
  Mo  Mo16  1  0.495600  0.359100  0.679400  1.0  1.3227
  Mo  Mo17  1  0.983600  0.853600  0.176100  1.0  1.3036
  Mo  Mo18  1  0.880700  0.753800  0.075400  1.0  1.3084
  Mo  Mo19  1  0.753400  0.909000  0.941000  1.0  1.2999
  Mo  Mo20  1  0.763500  0.119500  0.942400  1.0  1.2986
  Mo  Mo21  1  0.903300  0.254400  0.079900  1.0  1.3056
  Mo  Mo22  1  0.995600  0.140900  0.179400  1.0  1.3251
  Mo  Mo23  1  0.516400  0.353600  0.323900  1.0  1.3065
  Mo  Mo24  1  0.619300  0.253800  0.424600  1.0  1.3067
  Mo  Mo25  1  0.746600  0.409000  0.559000  1.0  1.2982
  Mo  Mo26  1  0.736500  0.619500  0.557600  1.0  1.298
  Mo  Mo27  1  0.596700  0.754400  0.420100  1.0  1.306
  Mo  Mo28  1  0.504400  0.640900  0.320600  1.0  1.3255
  P  P29  1  0.197700  0.989600  0.892400  1.0  1.9339
  P  P30  1  0.034200  0.003400  0.677400  1.0  1.7076
  P  P31  1  0.338700  0.268400  0.960100  1.0  1.765
  P  P32  1  0.313600  0.698000  0.955700  1.0  1.6799
  P  P33  1  0.302300  0.489600  0.607600  1.0  1.9319
  P  P34  1  0.465800  0.503400  0.822600  1.0  1.7076
  P  P35  1  0.161300  0.768400  0.539900  1.0  1.765
  P  P36  1  0.186400  0.198000  0.544300  1.0  1.6793
  P  P37  1  0.802300  0.010400  0.107600  1.0  1.9319
  P  P38  1  0.965800  0.996600  0.322600  1.0  1.7077
  P  P39  1  0.661300  0.731600  0.039900  1.0  1.7655
  P  P40  1  0.686400  0.302000  0.044300  1.0  1.6795
  P  P41  1  0.697700  0.510400  0.392400  1.0  1.9338
  P  P42  1  0.534200  0.496600  0.177400  1.0  1.7077
  P  P43  1  0.838700  0.231600  0.460100  1.0  1.7653
  P  P44  1  0.813600  0.802000  0.455700  1.0  1.6801
  O  O45  1  0.129000  0.221800  0.826700  1.0  -0.6051
  O  O46  1  0.022200  0.139000  0.926500  1.0  -0.6942
  O  O47  1  0.024000  0.104600  0.720300  1.0  -0.6547
  O  O48  1  0.934700  0.008800  0.819700  1.0  -0.563
  O  O49  1  0.108400  0.995400  0.842000  1.0  -0.8375
  O  O50  1  0.151100  0.217200  0.033100  1.0  -0.5719
  O  O51  1  0.246500  0.312100  0.933200  1.0  -0.6397
  O  O52  1  0.202900  0.091000  0.940300  1.0  -0.7821
  O  O53  1  0.142800  0.992400  0.057400  1.0  -0.7011
  O  O54  1  0.327700  0.979800  0.036500  1.0  -0.5762
  O  O55  1  0.335700  0.200800  0.026600  1.0  -0.6526
  O  O56  1  0.193300  0.889200  0.940100  1.0  -0.7857
  O  O57  1  0.316800  0.757700  0.025700  1.0  -0.6399
  O  O58  1  0.132300  0.768200  0.030400  1.0  -0.585
  O  O59  1  0.108700  0.768600  0.821300  1.0  -0.6064
  O  O60  1  0.217600  0.666300  0.926400  1.0  -0.6602
  O  O61  1  0.009000  0.862400  0.923500  1.0  -0.6949
  O  O62  1  0.023400  0.900800  0.720700  1.0  -0.6536
  O  O63  1  0.279600  0.980800  0.856500  1.0  -0.5557
  O  O64  1  0.970800  0.006900  0.610100  1.0  -0.6613
  O  O65  1  0.134800  0.000800  0.662200  1.0  -0.3908
  O  O66  1  0.363700  0.188000  0.902200  1.0  -0.45
  O  O67  1  0.412100  0.349100  0.970400  1.0  -0.7808
  O  O68  1  0.373400  0.601000  0.960300  1.0  -0.7787
  O  O69  1  0.348800  0.777900  0.900000  1.0  -0.4821
  O  O70  1  0.371000  0.721800  0.673300  1.0  -0.6041
  O  O71  1  0.477800  0.639000  0.573500  1.0  -0.6943
  O  O72  1  0.476000  0.604600  0.779700  1.0  -0.6535
  O  O73  1  0.565300  0.508800  0.680300  1.0  -0.5663
  O  O74  1  0.391600  0.495400  0.658000  1.0  -0.8397
  O  O75  1  0.348900  0.717200  0.466900  1.0  -0.5749
  O  O76  1  0.253500  0.812100  0.566800  1.0  -0.6383
  O  O77  1  0.297100  0.591000  0.559700  1.0  -0.7815
  O  O78  1  0.357200  0.492400  0.442600  1.0  -0.6994
  O  O79  1  0.172300  0.479800  0.463500  1.0  -0.572
  O  O80  1  0.164300  0.700800  0.473400  1.0  -0.6548
  O  O81  1  0.306700  0.389200  0.559900  1.0  -0.7845
  O  O82  1  0.183200  0.257700  0.474300  1.0  -0.641
  O  O83  1  0.367700  0.268200  0.469600  1.0  -0.5802
  O  O84  1  0.391300  0.268600  0.678700  1.0  -0.611
  O  O85  1  0.282400  0.166300  0.573600  1.0  -0.6608
  O  O86  1  0.491000  0.362400  0.576500  1.0  -0.6943
  O  O87  1  0.476600  0.400800  0.779300  1.0  -0.6536
  O  O88  1  0.220400  0.480800  0.643500  1.0  -0.552
  O  O89  1  0.529200  0.506900  0.889900  1.0  -0.6625
  O  O90  1  0.365200  0.500800  0.837800  1.0  -0.39
  O  O91  1  0.136300  0.688000  0.597800  1.0  -0.451
  O  O92  1  0.087900  0.849100  0.529600  1.0  -0.7807
  O  O93  1  0.126600  0.101000  0.539700  1.0  -0.7802
  O  O94  1  0.151200  0.277900  0.600000  1.0  -0.4803
  O  O95  1  0.871000  0.778200  0.173300  1.0  -0.6073
  O  O96  1  0.977800  0.861000  0.073500  1.0  -0.6958
  O  O97  1  0.976000  0.895400  0.279700  1.0  -0.6548
  O  O98  1  0.065300  0.991200  0.180300  1.0  -0.5662
  O  O99  1  0.891600  0.004600  0.158000  1.0  -0.8396
  O  O100  1  0.848900  0.782800  0.966900  1.0  -0.5728
  O  O101  1  0.753500  0.687900  0.066800  1.0  -0.6401
  O  O102  1  0.797100  0.909000  0.059700  1.0  -0.7815
  O  O103  1  0.857200  0.007600  0.942600  1.0  -0.6993
  O  O104  1  0.672300  0.020200  0.963500  1.0  -0.572
  O  O105  1  0.664300  0.799200  0.973400  1.0  -0.654
  O  O106  1  0.806700  0.110800  0.059900  1.0  -0.7845
  O  O107  1  0.683200  0.242300  0.974300  1.0  -0.6414
  O  O108  1  0.867700  0.231800  0.969600  1.0  -0.5833
  O  O109  1  0.891300  0.231400  0.178700  1.0  -0.6077
  O  O110  1  0.782400  0.333700  0.073600  1.0  -0.6608
  O  O111  1  0.991000  0.137600  0.076500  1.0  -0.6928
  O  O112  1  0.976600  0.099200  0.279300  1.0  -0.6536
  O  O113  1  0.720400  0.019200  0.143500  1.0  -0.5519
  O  O114  1  0.029200  0.993100  0.389900  1.0  -0.6623
  O  O115  1  0.865200  0.999200  0.337800  1.0  -0.39
  O  O116  1  0.636300  0.812000  0.097800  1.0  -0.4511
  O  O117  1  0.587900  0.650900  0.029600  1.0  -0.7807
  O  O118  1  0.626600  0.399000  0.039700  1.0  -0.7793
  O  O119  1  0.651200  0.222100  0.100000  1.0  -0.4814
  O  O120  1  0.629000  0.278200  0.326700  1.0  -0.6023
  O  O121  1  0.522200  0.361000  0.426500  1.0  -0.6964
  O  O122  1  0.524000  0.395400  0.220300  1.0  -0.6543
  O  O123  1  0.434700  0.491200  0.319700  1.0  -0.5629
  O  O124  1  0.608400  0.504600  0.342000  1.0  -0.8375
  O  O125  1  0.651100  0.282800  0.533100  1.0  -0.5763
  O  O126  1  0.746500  0.187900  0.433200  1.0  -0.6404
  O  O127  1  0.702900  0.409000  0.440300  1.0  -0.782
  O  O128  1  0.642800  0.507600  0.557400  1.0  -0.7011
  O  O129  1  0.827700  0.520200  0.536500  1.0  -0.5763
  O  O130  1  0.835700  0.299200  0.526600  1.0  -0.652
  O  O131  1  0.693300  0.610800  0.440100  1.0  -0.7857
  O  O132  1  0.816800  0.742300  0.525700  1.0  -0.6402
  O  O133  1  0.632300  0.731800  0.530400  1.0  -0.5808
  O  O134  1  0.608700  0.731400  0.321300  1.0  -0.6081
  O  O135  1  0.717600  0.833700  0.426400  1.0  -0.6615
  O  O136  1  0.509000  0.637600  0.423500  1.0  -0.693
  O  O137  1  0.523400  0.599200  0.220700  1.0  -0.6535
  O  O138  1  0.779600  0.519200  0.356500  1.0  -0.5555
  O  O139  1  0.470800  0.493100  0.110100  1.0  -0.6612
  O  O140  1  0.634800  0.499200  0.162200  1.0  -0.3908
  O  O141  1  0.863700  0.312000  0.402200  1.0  -0.4508
  O  O142  1  0.912100  0.150900  0.470400  1.0  -0.781
  O  O143  1  0.873400  0.899000  0.460300  1.0  -0.7805
  O  O144  1  0.848800  0.722100  0.400000  1.0  -0.4823
