# generated using pymatgen
data_AgH8(C2N)4
_symmetry_space_group_name_H-M   'P 1'
_cell_length_a   21.85290000
_cell_length_b   15.50190000
_cell_length_c   16.89850000
_cell_angle_alpha   90.00000000
_cell_angle_beta   90.00000000
_cell_angle_gamma   90.00000000
_symmetry_Int_Tables_number   1
_chemical_formula_structural   AgH8(C2N)4
_chemical_formula_sum   'Ag16 H128 C128 N64'
_cell_volume   5724.56070941
_cell_formula_units_Z   16
loop_
 _symmetry_equiv_pos_site_id
 _symmetry_equiv_pos_as_xyz
  1  'x, y, z'
loop_
 _atom_site_type_symbol
 _atom_site_label
 _atom_site_symmetry_multiplicity
 _atom_site_fract_x
 _atom_site_fract_y
 _atom_site_fract_z
 _atom_site_occupancy
 _atom_site_charge
  Ag  Ag1  1  0.141220  0.294490  0.453400  1.0  0.283
  Ag  Ag2  1  0.146780  0.966800  0.240100  1.0  0.3406
  Ag  Ag3  1  0.641220  0.794490  0.453400  1.0  0.283
  Ag  Ag4  1  0.646780  0.466800  0.240100  1.0  0.3406
  Ag  Ag5  1  0.858780  0.294490  0.453400  1.0  0.2829
  Ag  Ag6  1  0.853220  0.966800  0.240100  1.0  0.3411
  Ag  Ag7  1  0.358780  0.794490  0.453400  1.0  0.2829
  Ag  Ag8  1  0.353220  0.466800  0.240100  1.0  0.3411
  Ag  Ag9  1  0.858780  0.705510  0.953400  1.0  0.2826
  Ag  Ag10  1  0.853220  0.033200  0.740100  1.0  0.3412
  Ag  Ag11  1  0.358780  0.205510  0.953400  1.0  0.2826
  Ag  Ag12  1  0.353220  0.533200  0.740100  1.0  0.3412
  Ag  Ag13  1  0.141220  0.705510  0.953400  1.0  0.2829
  Ag  Ag14  1  0.146780  0.033200  0.740100  1.0  0.3406
  Ag  Ag15  1  0.641220  0.205510  0.953400  1.0  0.2829
  Ag  Ag16  1  0.646780  0.533200  0.740100  1.0  0.3406
  H  H17  1  0.086600  0.341100  0.277100  1.0  0.049
  H  H18  1  0.066900  0.276500  0.154300  1.0  0.0848
  H  H19  1  0.079500  0.128900  0.144500  1.0  0.056
  H  H20  1  0.138200  0.120800  0.361500  1.0  -0.0074
  H  H21  1  0.252100  0.361700  0.558300  1.0  0.0563
  H  H22  1  0.348900  0.425300  0.550100  1.0  0.0734
  H  H23  1  0.384200  0.463700  0.424800  1.0  0.0461
  H  H24  1  0.227600  0.398700  0.332500  1.0  0.0313
  H  H25  1  0.092000  0.361400  0.623000  1.0  0.0588
  H  H26  1  0.091400  0.792000  0.323300  1.0  0.0446
  H  H27  1  0.586600  0.841100  0.277100  1.0  0.049
  H  H28  1  0.566900  0.776500  0.154300  1.0  0.0848
  H  H29  1  0.579500  0.628900  0.144500  1.0  0.056
  H  H30  1  0.638200  0.620800  0.361500  1.0  -0.0074
  H  H31  1  0.752100  0.861700  0.558300  1.0  0.0563
  H  H32  1  0.848900  0.925300  0.550100  1.0  0.0734
  H  H33  1  0.884200  0.963700  0.424800  1.0  0.0461
  H  H34  1  0.727600  0.898700  0.332500  1.0  0.0313
  H  H35  1  0.592000  0.861400  0.623000  1.0  0.0588
  H  H36  1  0.591400  0.292000  0.323300  1.0  0.0446
  H  H37  1  0.725000  0.818300  0.961300  1.0  0.0591
  H  H38  1  0.669100  0.906100  0.047600  1.0  0.0844
  H  H39  1  0.718700  0.963000  0.158000  1.0  0.0461
  H  H40  1  0.870400  0.851700  0.093400  1.0  0.0166
  H  H41  1  0.225000  0.318300  0.961300  1.0  0.0591
  H  H42  1  0.169100  0.406100  0.047600  1.0  0.0844
  H  H43  1  0.218700  0.463000  0.158000  1.0  0.0461
  H  H44  1  0.370400  0.351700  0.093400  1.0  0.0166
  H  H45  1  0.275000  0.818300  0.961300  1.0  0.059
  H  H46  1  0.330900  0.906100  0.047600  1.0  0.0851
  H  H47  1  0.281300  0.963000  0.158000  1.0  0.0457
  H  H48  1  0.129600  0.851700  0.093400  1.0  0.0182
  H  H49  1  0.775000  0.318300  0.961300  1.0  0.059
  H  H50  1  0.830900  0.406100  0.047600  1.0  0.0851
  H  H51  1  0.781300  0.463000  0.158000  1.0  0.0457
  H  H52  1  0.629600  0.351700  0.093400  1.0  0.0182
  H  H53  1  0.913400  0.341100  0.277100  1.0  0.0487
  H  H54  1  0.933100  0.276500  0.154300  1.0  0.0852
  H  H55  1  0.920500  0.128900  0.144500  1.0  0.0563
  H  H56  1  0.861800  0.120800  0.361500  1.0  -0.0073
  H  H57  1  0.747900  0.361700  0.558300  1.0  0.0561
  H  H58  1  0.651100  0.425300  0.550100  1.0  0.0736
  H  H59  1  0.615800  0.463700  0.424800  1.0  0.0463
  H  H60  1  0.772400  0.398700  0.332500  1.0  0.0318
  H  H61  1  0.908000  0.361400  0.623000  1.0  0.0585
  H  H62  1  0.908600  0.792000  0.323300  1.0  0.0442
  H  H63  1  0.413400  0.841100  0.277100  1.0  0.0487
  H  H64  1  0.433100  0.776500  0.154300  1.0  0.0852
  H  H65  1  0.420500  0.628900  0.144500  1.0  0.0563
  H  H66  1  0.361800  0.620800  0.361500  1.0  -0.0073
  H  H67  1  0.247900  0.861700  0.558300  1.0  0.0561
  H  H68  1  0.151100  0.925300  0.550100  1.0  0.0736
  H  H69  1  0.115800  0.963700  0.424800  1.0  0.0463
  H  H70  1  0.272400  0.898700  0.332500  1.0  0.0318
  H  H71  1  0.408000  0.861400  0.623000  1.0  0.0585
  H  H72  1  0.408600  0.292000  0.323300  1.0  0.0442
  H  H73  1  0.000000  0.386900  0.690000  1.0  0.0873
  H  H74  1  0.000000  0.283700  0.437800  1.0  0.0022
  H  H75  1  0.000000  0.722400  0.355300  1.0  0.0884
  H  H76  1  0.000000  0.987100  0.238500  1.0  0.006
  H  H77  1  0.500000  0.886900  0.690000  1.0  0.0873
  H  H78  1  0.500000  0.783700  0.437800  1.0  0.0022
  H  H79  1  0.500000  0.222400  0.355300  1.0  0.0884
  H  H80  1  0.500000  0.487100  0.238500  1.0  0.006
  H  H81  1  0.275000  0.181700  0.461300  1.0  0.0589
  H  H82  1  0.330900  0.093900  0.547600  1.0  0.0849
  H  H83  1  0.281300  0.037000  0.658000  1.0  0.0452
  H  H84  1  0.129600  0.148300  0.593400  1.0  0.0182
  H  H85  1  0.775000  0.681700  0.461300  1.0  0.0589
  H  H86  1  0.830900  0.593900  0.547600  1.0  0.0849
  H  H87  1  0.781300  0.537000  0.658000  1.0  0.0452
  H  H88  1  0.629600  0.648300  0.593400  1.0  0.0182
  H  H89  1  0.913400  0.658900  0.777100  1.0  0.05
  H  H90  1  0.933100  0.723500  0.654300  1.0  0.0849
  H  H91  1  0.920500  0.871100  0.644500  1.0  0.0558
  H  H92  1  0.861800  0.879200  0.861500  1.0  -0.0071
  H  H93  1  0.747900  0.638300  0.058300  1.0  0.0561
  H  H94  1  0.651100  0.574700  0.050100  1.0  0.0737
  H  H95  1  0.615800  0.536300  0.924800  1.0  0.0467
  H  H96  1  0.772400  0.601300  0.832500  1.0  0.0317
  H  H97  1  0.908000  0.638600  0.123000  1.0  0.0585
  H  H98  1  0.908600  0.208000  0.823300  1.0  0.0444
  H  H99  1  0.413400  0.158900  0.777100  1.0  0.05
  H  H100  1  0.433100  0.223500  0.654300  1.0  0.0849
  H  H101  1  0.420500  0.371100  0.644500  1.0  0.0558
  H  H102  1  0.361800  0.379200  0.861500  1.0  -0.0071
  H  H103  1  0.247900  0.138300  0.058300  1.0  0.0561
  H  H104  1  0.151100  0.074700  0.050100  1.0  0.0737
  H  H105  1  0.115800  0.036300  0.924800  1.0  0.0467
  H  H106  1  0.272400  0.101300  0.832500  1.0  0.0317
  H  H107  1  0.408000  0.138600  0.123000  1.0  0.0585
  H  H108  1  0.408600  0.708000  0.823300  1.0  0.0444
  H  H109  1  0.086600  0.658900  0.777100  1.0  0.0504
  H  H110  1  0.066900  0.723500  0.654300  1.0  0.0846
  H  H111  1  0.079500  0.871100  0.644500  1.0  0.0556
  H  H112  1  0.138200  0.879200  0.861500  1.0  -0.0072
  H  H113  1  0.252100  0.638300  0.058300  1.0  0.0563
  H  H114  1  0.348900  0.574700  0.050100  1.0  0.0735
  H  H115  1  0.384200  0.536300  0.924800  1.0  0.0465
  H  H116  1  0.227600  0.601300  0.832500  1.0  0.031
  H  H117  1  0.092000  0.638600  0.123000  1.0  0.0587
  H  H118  1  0.091400  0.208000  0.823300  1.0  0.0447
  H  H119  1  0.586600  0.158900  0.777100  1.0  0.0504
  H  H120  1  0.566900  0.223500  0.654300  1.0  0.0846
  H  H121  1  0.579500  0.371100  0.644500  1.0  0.0556
  H  H122  1  0.638200  0.379200  0.861500  1.0  -0.0072
  H  H123  1  0.752100  0.138300  0.058300  1.0  0.0563
  H  H124  1  0.848900  0.074700  0.050100  1.0  0.0735
  H  H125  1  0.884200  0.036300  0.924800  1.0  0.0465
  H  H126  1  0.727600  0.101300  0.832500  1.0  0.031
  H  H127  1  0.592000  0.138600  0.123000  1.0  0.0587
  H  H128  1  0.591400  0.708000  0.823300  1.0  0.0447
  H  H129  1  0.725000  0.181700  0.461300  1.0  0.059
  H  H130  1  0.669100  0.093900  0.547600  1.0  0.0843
  H  H131  1  0.718700  0.037000  0.658000  1.0  0.0463
  H  H132  1  0.870400  0.148300  0.593400  1.0  0.0166
  H  H133  1  0.225000  0.681700  0.461300  1.0  0.059
  H  H134  1  0.169100  0.593900  0.547600  1.0  0.0843
  H  H135  1  0.218700  0.537000  0.658000  1.0  0.0463
  H  H136  1  0.370400  0.648300  0.593400  1.0  0.0166
  H  H137  1  0.000000  0.613100  0.190000  1.0  0.0875
  H  H138  1  0.000000  0.716300  0.937800  1.0  0.0022
  H  H139  1  0.000000  0.277600  0.855300  1.0  0.0869
  H  H140  1  0.000000  0.012900  0.738500  1.0  0.0058
  H  H141  1  0.500000  0.113100  0.190000  1.0  0.0875
  H  H142  1  0.500000  0.216300  0.937800  1.0  0.0022
  H  H143  1  0.500000  0.777600  0.855300  1.0  0.0869
  H  H144  1  0.500000  0.512900  0.738500  1.0  0.0058
  C  C145  1  0.093600  0.281000  0.270700  1.0  0.1109
  C  C146  1  0.080800  0.243400  0.198100  1.0  -0.1879
  C  C147  1  0.089400  0.156900  0.192800  1.0  0.1608
  C  C148  1  0.122500  0.153400  0.318400  1.0  0.3022
  C  C149  1  0.266800  0.381300  0.508500  1.0  0.1327
  C  C150  1  0.324300  0.417100  0.504300  1.0  -0.1426
  C  C151  1  0.344200  0.440500  0.430100  1.0  0.1465
  C  C152  1  0.253700  0.401000  0.377400  1.0  0.349
  C  C153  1  0.054200  0.350100  0.597400  1.0  0.1452
  C  C154  1  0.053600  0.818600  0.310000  1.0  0.1186
  C  C155  1  0.593600  0.781000  0.270700  1.0  0.1109
  C  C156  1  0.580800  0.743400  0.198100  1.0  -0.1879
  C  C157  1  0.589400  0.656900  0.192800  1.0  0.1608
  C  C158  1  0.622500  0.653400  0.318400  1.0  0.3022
  C  C159  1  0.766800  0.881300  0.508500  1.0  0.1327
  C  C160  1  0.824300  0.917100  0.504300  1.0  -0.1426
  C  C161  1  0.844200  0.940500  0.430100  1.0  0.1465
  C  C162  1  0.753700  0.901000  0.377400  1.0  0.349
  C  C163  1  0.554200  0.850100  0.597400  1.0  0.1452
  C  C164  1  0.553600  0.318600  0.310000  1.0  0.1186
  C  C165  1  0.744400  0.842200  0.006600  1.0  0.1321
  C  C166  1  0.711100  0.894100  0.057100  1.0  -0.195
  C  C167  1  0.741100  0.928100  0.122000  1.0  0.0834
  C  C168  1  0.828200  0.862700  0.084100  1.0  0.3087
  C  C169  1  0.244400  0.342200  0.006600  1.0  0.1321
  C  C170  1  0.211100  0.394100  0.057100  1.0  -0.195
  C  C171  1  0.241100  0.428100  0.122000  1.0  0.0834
  C  C172  1  0.328200  0.362700  0.084100  1.0  0.3087
  C  C173  1  0.255600  0.842200  0.006600  1.0  0.1326
  C  C174  1  0.288900  0.894100  0.057100  1.0  -0.1934
  C  C175  1  0.258900  0.928100  0.122000  1.0  0.0842
  C  C176  1  0.171800  0.862700  0.084100  1.0  0.3085
  C  C177  1  0.755600  0.342200  0.006600  1.0  0.1326
  C  C178  1  0.788900  0.394100  0.057100  1.0  -0.1934
  C  C179  1  0.758900  0.428100  0.122000  1.0  0.0842
  C  C180  1  0.671800  0.362700  0.084100  1.0  0.3085
  C  C181  1  0.906400  0.281000  0.270700  1.0  0.1112
  C  C182  1  0.919200  0.243400  0.198100  1.0  -0.1873
  C  C183  1  0.910600  0.156900  0.192800  1.0  0.162
  C  C184  1  0.877500  0.153400  0.318400  1.0  0.3015
  C  C185  1  0.733200  0.381300  0.508500  1.0  0.1331
  C  C186  1  0.675700  0.417100  0.504300  1.0  -0.144
  C  C187  1  0.655800  0.440500  0.430100  1.0  0.146
  C  C188  1  0.746300  0.401000  0.377400  1.0  0.3488
  C  C189  1  0.945800  0.350100  0.597400  1.0  0.1446
  C  C190  1  0.946400  0.818600  0.310000  1.0  0.1181
  C  C191  1  0.406400  0.781000  0.270700  1.0  0.1112
  C  C192  1  0.419200  0.743400  0.198100  1.0  -0.1873
  C  C193  1  0.410600  0.656900  0.192800  1.0  0.162
  C  C194  1  0.377500  0.653400  0.318400  1.0  0.3015
  C  C195  1  0.233200  0.881300  0.508500  1.0  0.1331
  C  C196  1  0.175700  0.917100  0.504300  1.0  -0.144
  C  C197  1  0.155800  0.940500  0.430100  1.0  0.146
  C  C198  1  0.246300  0.901000  0.377400  1.0  0.3488
  C  C199  1  0.445800  0.850100  0.597400  1.0  0.1446
  C  C200  1  0.446400  0.318600  0.310000  1.0  0.1181
  C  C201  1  0.000000  0.365900  0.637200  1.0  -0.1877
  C  C202  1  0.000000  0.305400  0.490300  1.0  0.3009
  C  C203  1  0.000000  0.776900  0.329600  1.0  -0.185
  C  C204  1  0.000000  0.930400  0.259700  1.0  0.3393
  C  C205  1  0.500000  0.865900  0.637200  1.0  -0.1877
  C  C206  1  0.500000  0.805400  0.490300  1.0  0.3009
  C  C207  1  0.500000  0.276900  0.329600  1.0  -0.185
  C  C208  1  0.500000  0.430400  0.259700  1.0  0.3393
  C  C209  1  0.255600  0.157800  0.506600  1.0  0.1326
  C  C210  1  0.288900  0.105900  0.557100  1.0  -0.1934
  C  C211  1  0.258900  0.071900  0.622000  1.0  0.0842
  C  C212  1  0.171800  0.137300  0.584100  1.0  0.3087
  C  C213  1  0.755600  0.657800  0.506600  1.0  0.1326
  C  C214  1  0.788900  0.605900  0.557100  1.0  -0.1934
  C  C215  1  0.758900  0.571900  0.622000  1.0  0.0842
  C  C216  1  0.671800  0.637300  0.584100  1.0  0.3087
  C  C217  1  0.906400  0.719000  0.770700  1.0  0.1108
  C  C218  1  0.919200  0.756600  0.698100  1.0  -0.1877
  C  C219  1  0.910600  0.843100  0.692800  1.0  0.1619
  C  C220  1  0.877500  0.846600  0.818400  1.0  0.3012
  C  C221  1  0.733200  0.618700  0.008500  1.0  0.1322
  C  C222  1  0.675700  0.582900  0.004300  1.0  -0.1443
  C  C223  1  0.655800  0.559500  0.930100  1.0  0.1463
  C  C224  1  0.746300  0.599000  0.877400  1.0  0.349
  C  C225  1  0.945800  0.649900  0.097400  1.0  0.1444
  C  C226  1  0.946400  0.181400  0.810000  1.0  0.1175
  C  C227  1  0.406400  0.219000  0.770700  1.0  0.1108
  C  C228  1  0.419200  0.256600  0.698100  1.0  -0.1877
  C  C229  1  0.410600  0.343100  0.692800  1.0  0.1619
  C  C230  1  0.377500  0.346600  0.818400  1.0  0.3012
  C  C231  1  0.233200  0.118700  0.008500  1.0  0.1322
  C  C232  1  0.175700  0.082900  0.004300  1.0  -0.1443
  C  C233  1  0.155800  0.059500  0.930100  1.0  0.1463
  C  C234  1  0.246300  0.099000  0.877400  1.0  0.349
  C  C235  1  0.445800  0.149900  0.097400  1.0  0.1444
  C  C236  1  0.446400  0.681400  0.810000  1.0  0.1175
  C  C237  1  0.093600  0.719000  0.770700  1.0  0.1109
  C  C238  1  0.080800  0.756600  0.698100  1.0  -0.1882
  C  C239  1  0.089400  0.843100  0.692800  1.0  0.1608
  C  C240  1  0.122500  0.846600  0.818400  1.0  0.3019
  C  C241  1  0.266800  0.618700  0.008500  1.0  0.1318
  C  C242  1  0.324300  0.582900  0.004300  1.0  -0.1431
  C  C243  1  0.344200  0.559500  0.930100  1.0  0.1464
  C  C244  1  0.253700  0.599000  0.877400  1.0  0.3492
  C  C245  1  0.054200  0.649900  0.097400  1.0  0.1456
  C  C246  1  0.053600  0.181400  0.810000  1.0  0.1184
  C  C247  1  0.593600  0.219000  0.770700  1.0  0.1109
  C  C248  1  0.580800  0.256600  0.698100  1.0  -0.1882
  C  C249  1  0.589400  0.343100  0.692800  1.0  0.1608
  C  C250  1  0.622500  0.346600  0.818400  1.0  0.3019
  C  C251  1  0.766800  0.118700  0.008500  1.0  0.1318
  C  C252  1  0.824300  0.082900  0.004300  1.0  -0.1431
  C  C253  1  0.844200  0.059500  0.930100  1.0  0.1464
  C  C254  1  0.753700  0.099000  0.877400  1.0  0.3492
  C  C255  1  0.554200  0.149900  0.097400  1.0  0.1456
  C  C256  1  0.553600  0.681400  0.810000  1.0  0.1184
  C  C257  1  0.744400  0.157800  0.506600  1.0  0.1325
  C  C258  1  0.711100  0.105900  0.557100  1.0  -0.1949
  C  C259  1  0.741100  0.071900  0.622000  1.0  0.0834
  C  C260  1  0.828200  0.137300  0.584100  1.0  0.3092
  C  C261  1  0.244400  0.657800  0.506600  1.0  0.1325
  C  C262  1  0.211100  0.605900  0.557100  1.0  -0.1949
  C  C263  1  0.241100  0.571900  0.622000  1.0  0.0834
  C  C264  1  0.328200  0.637300  0.584100  1.0  0.3092
  C  C265  1  0.000000  0.634100  0.137200  1.0  -0.1887
  C  C266  1  0.000000  0.694600  0.990300  1.0  0.3009
  C  C267  1  0.000000  0.223100  0.829600  1.0  -0.1853
  C  C268  1  0.000000  0.069600  0.759700  1.0  0.3392
  C  C269  1  0.500000  0.134100  0.137200  1.0  -0.1887
  C  C270  1  0.500000  0.194600  0.990300  1.0  0.3009
  C  C271  1  0.500000  0.723100  0.829600  1.0  -0.1853
  C  C272  1  0.500000  0.569600  0.759700  1.0  0.3392
  N  N273  1  0.114800  0.236800  0.330500  1.0  -0.3603
  N  N274  1  0.110600  0.109700  0.251600  1.0  -0.3819
  N  N275  1  0.231300  0.373200  0.445300  1.0  -0.3761
  N  N276  1  0.310500  0.432300  0.366700  1.0  -0.3757
  N  N277  1  0.054200  0.319500  0.524300  1.0  -0.3652
  N  N278  1  0.054800  0.895300  0.272800  1.0  -0.3768
  N  N279  1  0.614800  0.736800  0.330500  1.0  -0.3603
  N  N280  1  0.610600  0.609700  0.251600  1.0  -0.3819
  N  N281  1  0.731300  0.873200  0.445300  1.0  -0.3761
  N  N282  1  0.810500  0.932300  0.366700  1.0  -0.3757
  N  N283  1  0.554200  0.819500  0.524300  1.0  -0.3652
  N  N284  1  0.554800  0.395300  0.272800  1.0  -0.3768
  N  N285  1  0.804100  0.824700  0.020200  1.0  -0.4127
  N  N286  1  0.800800  0.913700  0.136100  1.0  -0.3656
  N  N287  1  0.304100  0.324700  0.020200  1.0  -0.4127
  N  N288  1  0.300800  0.413700  0.136100  1.0  -0.3656
  N  N289  1  0.195900  0.824700  0.020200  1.0  -0.414
  N  N290  1  0.199200  0.913700  0.136100  1.0  -0.3666
  N  N291  1  0.695900  0.324700  0.020200  1.0  -0.414
  N  N292  1  0.699200  0.413700  0.136100  1.0  -0.3666
  N  N293  1  0.885200  0.236800  0.330500  1.0  -0.3603
  N  N294  1  0.889400  0.109700  0.251600  1.0  -0.3825
  N  N295  1  0.768700  0.373200  0.445300  1.0  -0.3764
  N  N296  1  0.689500  0.432300  0.366700  1.0  -0.3757
  N  N297  1  0.945800  0.319500  0.524300  1.0  -0.3618
  N  N298  1  0.945200  0.895300  0.272800  1.0  -0.3769
  N  N299  1  0.385200  0.736800  0.330500  1.0  -0.3603
  N  N300  1  0.389400  0.609700  0.251600  1.0  -0.3825
  N  N301  1  0.268700  0.873200  0.445300  1.0  -0.3764
  N  N302  1  0.189500  0.932300  0.366700  1.0  -0.3757
  N  N303  1  0.445800  0.819500  0.524300  1.0  -0.3618
  N  N304  1  0.445200  0.395300  0.272800  1.0  -0.3769
  N  N305  1  0.195900  0.175300  0.520200  1.0  -0.4139
  N  N306  1  0.199200  0.086300  0.636100  1.0  -0.3663
  N  N307  1  0.695900  0.675300  0.520200  1.0  -0.4139
  N  N308  1  0.699200  0.586300  0.636100  1.0  -0.3663
  N  N309  1  0.885200  0.763200  0.830500  1.0  -0.36
  N  N310  1  0.889400  0.890300  0.751600  1.0  -0.3822
  N  N311  1  0.768700  0.626800  0.945300  1.0  -0.3767
  N  N312  1  0.689500  0.567700  0.866700  1.0  -0.3765
  N  N313  1  0.945800  0.680500  0.024300  1.0  -0.361
  N  N314  1  0.945200  0.104700  0.772800  1.0  -0.3776
  N  N315  1  0.385200  0.263200  0.830500  1.0  -0.36
  N  N316  1  0.389400  0.390300  0.751600  1.0  -0.3822
  N  N317  1  0.268700  0.126800  0.945300  1.0  -0.3767
  N  N318  1  0.189500  0.067700  0.866700  1.0  -0.3765
  N  N319  1  0.445800  0.180500  0.024300  1.0  -0.361
  N  N320  1  0.445200  0.604700  0.772800  1.0  -0.3776
  N  N321  1  0.114800  0.763200  0.830500  1.0  -0.3594
  N  N322  1  0.110600  0.890300  0.751600  1.0  -0.3818
  N  N323  1  0.231300  0.626800  0.945300  1.0  -0.3748
  N  N324  1  0.310500  0.567700  0.866700  1.0  -0.3765
  N  N325  1  0.054200  0.680500  0.024300  1.0  -0.3645
  N  N326  1  0.054800  0.104700  0.772800  1.0  -0.3772
  N  N327  1  0.614800  0.263200  0.830500  1.0  -0.3594
  N  N328  1  0.610600  0.390300  0.751600  1.0  -0.3818
  N  N329  1  0.731300  0.126800  0.945300  1.0  -0.3748
  N  N330  1  0.810500  0.067700  0.866700  1.0  -0.3765
  N  N331  1  0.554200  0.180500  0.024300  1.0  -0.3645
  N  N332  1  0.554800  0.604700  0.772800  1.0  -0.3772
  N  N333  1  0.804100  0.175300  0.520200  1.0  -0.4132
  N  N334  1  0.800800  0.086300  0.636100  1.0  -0.3655
  N  N335  1  0.304100  0.675300  0.520200  1.0  -0.4132
  N  N336  1  0.300800  0.586300  0.636100  1.0  -0.3655
