# generated using pymatgen
data_CdH10C12(NO)4
_symmetry_space_group_name_H-M   'P 1'
_cell_length_a   17.35040000
_cell_length_b   17.35040000
_cell_length_c   17.35040000
_cell_angle_alpha   64.97300000
_cell_angle_beta   81.14640000
_cell_angle_gamma   115.02700000
_symmetry_Int_Tables_number   1
_chemical_formula_structural   CdH10C12(NO)4
_chemical_formula_sum   'Cd8 H80 C96 N32 O32'
_cell_volume   3920.06621067
_cell_formula_units_Z   8
loop_
 _symmetry_equiv_pos_site_id
 _symmetry_equiv_pos_as_xyz
  1  'x, y, z'
loop_
 _atom_site_type_symbol
 _atom_site_label
 _atom_site_symmetry_multiplicity
 _atom_site_fract_x
 _atom_site_fract_y
 _atom_site_fract_z
 _atom_site_occupancy
 _atom_site_charge
  Cd  Cd1  1  0.334320  0.538520  0.051960  1.0  0.967
  Cd  Cd2  1  0.090480  0.038520  0.795800  1.0  0.9651
  Cd  Cd3  1  0.909520  0.961480  0.204200  1.0  0.9658
  Cd  Cd4  1  0.665680  0.461480  0.948040  1.0  0.9674
  Cd  Cd5  1  0.295800  0.886280  0.165680  1.0  0.9668
  Cd  Cd6  1  0.551960  0.386280  0.409520  1.0  0.9659
  Cd  Cd7  1  0.448040  0.613720  0.590480  1.0  0.9666
  Cd  Cd8  1  0.704200  0.113720  0.834320  1.0  0.9659
  H  H9  1  0.204600  0.396000  0.287200  1.0  0.117
  H  H10  1  0.407800  0.392000  0.162000  1.0  0.0915
  H  H11  1  0.177700  0.281400  0.466900  1.0  0.1033
  H  H12  1  0.274800  0.189400  0.485600  1.0  0.1344
  H  H13  1  0.164000  0.345800  0.040200  1.0  0.1097
  H  H14  1  0.427900  0.546000  0.875700  1.0  0.0918
  H  H15  1  0.122300  0.235100  0.954200  1.0  0.0883
  H  H16  1  0.282500  0.301500  0.822600  1.0  0.123
  H  H17  1  0.363000  0.291900  0.322900  1.0  0.2971
  H  H18  1  0.366300  0.435500  0.824800  1.0  0.2871
  H  H19  1  0.183200  0.896000  0.808600  1.0  0.1168
  H  H20  1  0.054000  0.892000  0.015800  1.0  0.0921
  H  H21  1  0.248300  0.781400  0.896300  1.0  0.1054
  H  H22  1  0.175000  0.689400  0.085400  1.0  0.137
  H  H23  1  0.886000  0.845800  0.818200  1.0  0.1106
  H  H24  1  0.921700  0.046000  0.881900  1.0  0.0924
  H  H25  1  0.689300  0.735100  0.887200  1.0  0.0883
  H  H26  1  0.624100  0.801500  0.981000  1.0  0.1229
  H  H27  1  0.114800  0.791900  0.071100  1.0  0.2958
  H  H28  1  0.760300  0.935500  0.930800  1.0  0.2879
  H  H29  1  0.816800  0.104000  0.191400  1.0  0.1167
  H  H30  1  0.946000  0.108000  0.984200  1.0  0.0921
  H  H31  1  0.751700  0.218600  0.103700  1.0  0.1041
  H  H32  1  0.825000  0.310600  0.914600  1.0  0.1378
  H  H33  1  0.114000  0.154200  0.181800  1.0  0.1127
  H  H34  1  0.078300  0.954000  0.118100  1.0  0.0915
  H  H35  1  0.310700  0.264900  0.112800  1.0  0.0877
  H  H36  1  0.375900  0.198500  0.019000  1.0  0.1234
  H  H37  1  0.885200  0.208100  0.928900  1.0  0.2963
  H  H38  1  0.239700  0.064500  0.069200  1.0  0.2872
  H  H39  1  0.795400  0.604000  0.712800  1.0  0.1158
  H  H40  1  0.592200  0.608000  0.838000  1.0  0.0913
  H  H41  1  0.822300  0.718600  0.533100  1.0  0.1051
  H  H42  1  0.725200  0.810600  0.514400  1.0  0.1346
  H  H43  1  0.836000  0.654200  0.959800  1.0  0.1085
  H  H44  1  0.572100  0.454000  0.124300  1.0  0.0909
  H  H45  1  0.877700  0.764900  0.045800  1.0  0.088
  H  H46  1  0.717500  0.698500  0.177400  1.0  0.1224
  H  H47  1  0.637000  0.708100  0.677100  1.0  0.297
  H  H48  1  0.633700  0.564500  0.175200  1.0  0.2867
  H  H49  1  0.308600  0.991800  0.295400  1.0  0.1187
  H  H50  1  0.515800  0.069800  0.092200  1.0  0.0925
  H  H51  1  0.396300  0.144600  0.322300  1.0  0.1032
  H  H52  1  0.585400  0.260400  0.225200  1.0  0.1354
  H  H53  1  0.318200  0.704200  0.336000  1.0  0.11
  H  H54  1  0.381900  0.803600  0.072100  1.0  0.0932
  H  H55  1  0.387200  0.576500  0.377700  1.0  0.0878
  H  H56  1  0.481000  0.605100  0.217500  1.0  0.1233
  H  H57  1  0.571100  0.185900  0.137000  1.0  0.2959
  H  H58  1  0.430800  0.691100  0.133700  1.0  0.2859
  H  H59  1  0.787200  0.491800  0.316800  1.0  0.1165
  H  H60  1  0.662000  0.569800  0.446000  1.0  0.0928
  H  H61  1  0.966900  0.644600  0.251700  1.0  0.1046
  H  H62  1  0.985600  0.760400  0.325000  1.0  0.137
  H  H63  1  0.540200  0.204200  0.614000  1.0  0.111
  H  H64  1  0.375700  0.303600  0.578300  1.0  0.0929
  H  H65  1  0.454200  0.076500  0.810700  1.0  0.0881
  H  H66  1  0.322600  0.105100  0.875900  1.0  0.1227
  H  H67  1  0.822900  0.685900  0.385200  1.0  0.2965
  H  H68  1  0.324800  0.191100  0.739700  1.0  0.2877
  H  H69  1  0.212800  0.508200  0.683200  1.0  0.1179
  H  H70  1  0.338000  0.430200  0.554000  1.0  0.0926
  H  H71  1  0.033100  0.355400  0.748300  1.0  0.1041
  H  H72  1  0.014400  0.239600  0.675000  1.0  0.1378
  H  H73  1  0.459800  0.795800  0.386000  1.0  0.1122
  H  H74  1  0.624300  0.696400  0.421700  1.0  0.0926
  H  H75  1  0.545800  0.923500  0.189300  1.0  0.0879
  H  H76  1  0.677400  0.894900  0.124100  1.0  0.1232
  H  H77  1  0.177100  0.314100  0.614800  1.0  0.2969
  H  H78  1  0.675200  0.808900  0.260300  1.0  0.2867
  H  H79  1  0.691400  0.008200  0.704600  1.0  0.1176
  H  H80  1  0.484200  0.930200  0.907800  1.0  0.0924
  H  H81  1  0.603700  0.855400  0.677700  1.0  0.1038
  H  H82  1  0.414600  0.739600  0.774800  1.0  0.1345
  H  H83  1  0.681800  0.295800  0.664000  1.0  0.11
  H  H84  1  0.618100  0.196400  0.927900  1.0  0.0923
  H  H85  1  0.612800  0.423500  0.622300  1.0  0.0879
  H  H86  1  0.519000  0.394900  0.782500  1.0  0.1235
  H  H87  1  0.428900  0.814100  0.863000  1.0  0.2956
  H  H88  1  0.569200  0.308900  0.866300  1.0  0.2853
  C  C89  1  0.265800  0.322600  0.345000  1.0  0.0622
  C  C90  1  0.249200  0.381200  0.276800  1.0  0.0082
  C  C91  1  0.360100  0.379200  0.208100  1.0  0.2272
  C  C92  1  0.219800  0.268500  0.444100  1.0  -0.0452
  C  C93  1  0.231600  0.202400  0.505800  1.0  -0.2706
  C  C94  1  0.177800  0.148500  0.606100  1.0  0.6764
  C  C95  1  0.241300  0.358100  0.929200  1.0  0.0519
  C  C96  1  0.222100  0.380800  0.992900  1.0  0.014
  C  C97  1  0.366800  0.490900  0.902900  1.0  0.2415
  C  C98  1  0.185900  0.277100  0.917400  1.0  -0.0517
  C  C99  1  0.218800  0.259500  0.859300  1.0  -0.2772
  C  C100  1  0.161300  0.176000  0.846900  1.0  0.6846
  C  C101  1  0.167600  0.822600  0.943200  1.0  0.0636
  C  C102  1  0.158000  0.881200  0.868000  1.0  0.0075
  C  C103  1  0.087300  0.879200  0.980900  1.0  0.229
  C  C104  1  0.212600  0.768500  0.951300  1.0  -0.0471
  C  C105  1  0.208200  0.702400  0.029200  1.0  -0.2735
  C  C106  1  0.254600  0.648500  0.029300  1.0  0.677
  C  C107  1  0.787300  0.858100  0.883200  1.0  0.0528
  C  C108  1  0.873700  0.880800  0.841300  1.0  0.0153
  C  C109  1  0.893800  0.990900  0.875900  1.0  0.2425
  C  C110  1  0.694500  0.777100  0.908800  1.0  -0.0522
  C  C111  1  0.618800  0.759500  0.959300  1.0  -0.2751
  C  C112  1  0.522900  0.676000  0.985300  1.0  0.6835
  C  C113  1  0.832400  0.177400  0.056800  1.0  0.0637
  C  C114  1  0.842000  0.118800  0.132000  1.0  0.0054
  C  C115  1  0.912700  0.120800  0.019100  1.0  0.2289
  C  C116  1  0.787400  0.231500  0.048700  1.0  -0.0476
  C  C117  1  0.791800  0.297600  0.970800  1.0  -0.2711
  C  C118  1  0.745400  0.351500  0.970700  1.0  0.6778
  C  C119  1  0.212700  0.141900  0.116800  1.0  0.0529
  C  C120  1  0.126300  0.119200  0.158700  1.0  0.0152
  C  C121  1  0.106200  0.009100  0.124100  1.0  0.2428
  C  C122  1  0.305500  0.222900  0.091200  1.0  -0.0514
  C  C123  1  0.381200  0.240500  0.040700  1.0  -0.2748
  C  C124  1  0.477100  0.324000  0.014700  1.0  0.6836
  C  C125  1  0.734200  0.677400  0.655000  1.0  0.0614
  C  C126  1  0.750800  0.618800  0.723200  1.0  0.0106
  C  C127  1  0.639900  0.620800  0.791900  1.0  0.2289
  C  C128  1  0.780200  0.731500  0.555900  1.0  -0.0457
  C  C129  1  0.768400  0.797600  0.494200  1.0  -0.276
  C  C130  1  0.822200  0.851500  0.393900  1.0  0.6773
  C  C131  1  0.758700  0.641900  0.070800  1.0  0.051
  C  C132  1  0.777900  0.619200  0.007100  1.0  0.0155
  C  C133  1  0.633200  0.509100  0.097100  1.0  0.2417
  C  C134  1  0.814100  0.722900  0.082600  1.0  -0.0537
  C  C135  1  0.781200  0.740500  0.140700  1.0  -0.2794
  C  C136  1  0.838700  0.824000  0.153100  1.0  0.6827
  C  C137  1  0.443200  0.110800  0.234200  1.0  0.0643
  C  C138  1  0.368000  0.026000  0.250800  1.0  0.0043
  C  C139  1  0.480900  0.068200  0.139900  1.0  0.2305
  C  C140  1  0.451300  0.163900  0.280200  1.0  -0.0508
  C  C141  1  0.529200  0.237400  0.268400  1.0  -0.2735
  C  C142  1  0.529300  0.283900  0.322200  1.0  0.6841
  C  C143  1  0.383200  0.670500  0.258700  1.0  0.053
  C  C144  1  0.341300  0.715000  0.277900  1.0  0.014
  C  C145  1  0.375900  0.769700  0.133200  1.0  0.2415
  C  C146  1  0.408800  0.603300  0.314100  1.0  -0.0507
  C  C147  1  0.459300  0.578100  0.281200  1.0  -0.275
  C  C148  1  0.485300  0.508200  0.338700  1.0  0.6829
  C  C149  1  0.845000  0.610800  0.332400  1.0  0.0614
  C  C150  1  0.776800  0.526000  0.342000  1.0  0.0047
  C  C151  1  0.708100  0.568200  0.412700  1.0  0.2299
  C  C152  1  0.944100  0.663900  0.287400  1.0  -0.0465
  C  C153  1  0.005800  0.737400  0.291800  1.0  -0.2742
  C  C154  1  0.106100  0.783900  0.245400  1.0  0.6779
  C  C155  1  0.429200  0.170500  0.712700  1.0  0.0518
  C  C156  1  0.492900  0.215000  0.626300  1.0  0.014
  C  C157  1  0.402900  0.269700  0.606200  1.0  0.2431
  C  C158  1  0.417400  0.103300  0.805500  1.0  -0.0524
  C  C159  1  0.359300  0.078100  0.881200  1.0  -0.2801
  C  C160  1  0.346900  0.008200  0.977100  1.0  0.6824
  C  C161  1  0.155000  0.389200  0.667600  1.0  0.0634
  C  C162  1  0.223200  0.474000  0.658000  1.0  0.0043
  C  C163  1  0.291900  0.431800  0.587300  1.0  0.2282
  C  C164  1  0.055900  0.336100  0.712600  1.0  -0.0485
  C  C165  1  0.994200  0.262600  0.708200  1.0  -0.27
  C  C166  1  0.893900  0.216100  0.754600  1.0  0.6791
  C  C167  1  0.570800  0.829500  0.287300  1.0  0.0517
  C  C168  1  0.507100  0.785000  0.373700  1.0  0.0157
  C  C169  1  0.597100  0.730300  0.393800  1.0  0.2423
  C  C170  1  0.582600  0.896700  0.194500  1.0  -0.0509
  C  C171  1  0.640700  0.921900  0.118800  1.0  -0.278
  C  C172  1  0.653100  0.991800  0.022900  1.0  0.6833
  C  C173  1  0.556800  0.889200  0.765800  1.0  0.0633
  C  C174  1  0.632000  0.974000  0.749200  1.0  0.0063
  C  C175  1  0.519100  0.931800  0.860100  1.0  0.2308
  C  C176  1  0.548700  0.836100  0.719800  1.0  -0.0504
  C  C177  1  0.470800  0.762600  0.731600  1.0  -0.2784
  C  C178  1  0.470700  0.716100  0.677800  1.0  0.6883
  C  C179  1  0.616800  0.329500  0.741300  1.0  0.0523
  C  C180  1  0.658700  0.285000  0.722100  1.0  0.0147
  C  C181  1  0.624100  0.230300  0.866800  1.0  0.2429
  C  C182  1  0.591200  0.396700  0.685900  1.0  -0.0538
  C  C183  1  0.540700  0.421900  0.718800  1.0  -0.2741
  C  C184  1  0.514700  0.491800  0.661300  1.0  0.6824
  N  N185  1  0.306800  0.415100  0.191500  1.0  -0.406
  N  N186  1  0.337400  0.323000  0.298000  1.0  -0.2241
  N  N187  1  0.300900  0.462600  0.976900  1.0  -0.4012
  N  N188  1  0.334700  0.430500  0.872000  1.0  -0.2149
  N  N189  1  0.106600  0.915100  0.891700  1.0  -0.4099
  N  N190  1  0.121000  0.823000  0.014400  1.0  -0.2191
  N  N191  1  0.939500  0.962600  0.838300  1.0  -0.4018
  N  N192  1  0.802500  0.930500  0.904200  1.0  -0.2182
  N  N193  1  0.893400  0.084900  0.108300  1.0  -0.4121
  N  N194  1  0.879000  0.177000  0.985600  1.0  -0.2167
  N  N195  1  0.060500  0.037400  0.161700  1.0  -0.4029
  N  N196  1  0.197500  0.069500  0.095800  1.0  -0.2172
  N  N197  1  0.693200  0.584900  0.808500  1.0  -0.4058
  N  N198  1  0.662600  0.677000  0.702000  1.0  -0.2215
  N  N199  1  0.699100  0.537400  0.023100  1.0  -0.3992
  N  N200  1  0.665300  0.569500  0.128000  1.0  -0.2145
  N  N201  1  0.391700  0.998300  0.193200  1.0  -0.4133
  N  N202  1  0.514400  0.135400  0.162600  1.0  -0.2226
  N  N203  1  0.338300  0.777800  0.199100  1.0  -0.3983
  N  N204  1  0.404200  0.706700  0.165300  1.0  -0.2172
  N  N205  1  0.691500  0.498300  0.393400  1.0  -0.408
  N  N206  1  0.798000  0.635400  0.379000  1.0  -0.219
  N  N207  1  0.476900  0.277800  0.560500  1.0  -0.3987
  N  N208  1  0.372000  0.206700  0.697500  1.0  -0.2175
  N  N209  1  0.308500  0.501700  0.606600  1.0  -0.4082
  N  N210  1  0.202000  0.364600  0.621000  1.0  -0.2212
  N  N211  1  0.523100  0.722200  0.439500  1.0  -0.3991
  N  N212  1  0.628000  0.793300  0.302500  1.0  -0.2176
  N  N213  1  0.608300  0.001700  0.806800  1.0  -0.4108
  N  N214  1  0.485600  0.864600  0.837400  1.0  -0.2226
  N  N215  1  0.661700  0.222200  0.800900  1.0  -0.3957
  N  N216  1  0.595800  0.293300  0.834700  1.0  -0.2163
  O  O217  1  0.076000  0.125700  0.883300  1.0  -0.6037
  O  O218  1  0.206900  0.160200  0.797900  1.0  -0.6281
  O  O219  1  0.134700  0.177400  0.638900  1.0  -0.6203
  O  O220  1  0.174600  0.067000  0.660800  1.0  -0.6356
  O  O221  1  0.509000  0.625700  0.950300  1.0  -0.6027
  O  O222  1  0.458100  0.660200  0.046700  1.0  -0.627
  O  O223  1  0.316300  0.677400  0.957300  1.0  -0.6203
  O  O224  1  0.227800  0.567000  0.107600  1.0  -0.639
  O  O225  1  0.491000  0.374300  0.049700  1.0  -0.6027
  O  O226  1  0.541900  0.339800  0.953300  1.0  -0.6274
  O  O227  1  0.683700  0.322600  0.042700  1.0  -0.6186
  O  O228  1  0.772200  0.433000  0.892400  1.0  -0.6423
  O  O229  1  0.924000  0.874300  0.116700  1.0  -0.6047
  O  O230  1  0.793100  0.839800  0.202100  1.0  -0.627
  O  O231  1  0.865300  0.822600  0.361100  1.0  -0.6193
  O  O232  1  0.825400  0.933000  0.339200  1.0  -0.6391
  O  O233  1  0.450300  0.459300  0.424000  1.0  -0.6033
  O  O234  1  0.546700  0.504800  0.293100  1.0  -0.6275
  O  O235  1  0.457300  0.273600  0.365300  1.0  -0.6183
  O  O236  1  0.607600  0.335400  0.325400  1.0  -0.6335
  O  O237  1  0.383300  0.959300  0.991000  1.0  -0.6048
  O  O238  1  0.297900  0.004800  0.041900  1.0  -0.627
  O  O239  1  0.138900  0.773600  0.183700  1.0  -0.6207
  O  O240  1  0.160800  0.835400  0.272200  1.0  -0.6348
  O  O241  1  0.616700  0.040700  0.009000  1.0  -0.6041
  O  O242  1  0.702100  0.995200  0.958100  1.0  -0.6279
  O  O243  1  0.861100  0.226400  0.816300  1.0  -0.6197
  O  O244  1  0.839200  0.164600  0.727800  1.0  -0.636
  O  O245  1  0.549700  0.540700  0.576000  1.0  -0.6025
  O  O246  1  0.453300  0.495200  0.706900  1.0  -0.6268
  O  O247  1  0.542700  0.726400  0.634700  1.0  -0.6188
  O  O248  1  0.392400  0.664600  0.674600  1.0  -0.6339
