# generated using pymatgen
data_Tm(CO)6
_symmetry_space_group_name_H-M   'P 1'
_cell_length_a   10.37400000
_cell_length_b   18.44300000
_cell_length_c   18.44300000
_cell_angle_alpha   90.00000000
_cell_angle_beta   90.00000000
_cell_angle_gamma   90.00000000
_symmetry_Int_Tables_number   1
_chemical_formula_structural   Tm(CO)6
_chemical_formula_sum   'Tm16 C96 O96'
_cell_volume   3528.65643913
_cell_formula_units_Z   16
loop_
 _symmetry_equiv_pos_site_id
 _symmetry_equiv_pos_as_xyz
  1  'x, y, z'
loop_
 _atom_site_type_symbol
 _atom_site_label
 _atom_site_symmetry_multiplicity
 _atom_site_fract_x
 _atom_site_fract_y
 _atom_site_fract_z
 _atom_site_occupancy
 _atom_site_charge
  Tm  Tm1  1  0.652250  0.973680  0.254570  1.0  2.2291
  Tm  Tm2  1  0.652250  0.526320  0.245430  1.0  2.2299
  Tm  Tm3  1  0.652250  0.245430  0.973680  1.0  2.2297
  Tm  Tm4  1  0.652250  0.254570  0.526320  1.0  2.23
  Tm  Tm5  1  0.847750  0.026320  0.754570  1.0  2.2288
  Tm  Tm6  1  0.847750  0.473680  0.745430  1.0  2.2297
  Tm  Tm7  1  0.847750  0.754570  0.473680  1.0  2.2295
  Tm  Tm8  1  0.847750  0.745430  0.026320  1.0  2.2297
  Tm  Tm9  1  0.347750  0.026320  0.745430  1.0  2.2297
  Tm  Tm10  1  0.347750  0.473680  0.754570  1.0  2.229
  Tm  Tm11  1  0.347750  0.754570  0.026320  1.0  2.2297
  Tm  Tm12  1  0.347750  0.745430  0.473680  1.0  2.2295
  Tm  Tm13  1  0.152250  0.973680  0.245430  1.0  2.2299
  Tm  Tm14  1  0.152250  0.526320  0.254570  1.0  2.2291
  Tm  Tm15  1  0.152250  0.245430  0.526320  1.0  2.2299
  Tm  Tm16  1  0.152250  0.254570  0.973680  1.0  2.2297
  C  C17  1  0.928200  0.021400  0.439100  1.0  -0.0573
  C  C18  1  0.979700  0.951600  0.442500  1.0  -0.1104
  C  C19  1  0.950700  0.070100  0.495900  1.0  -0.0595
  C  C20  1  0.840100  0.045000  0.378400  1.0  0.6899
  C  C21  1  0.972200  0.898500  0.379700  1.0  0.8399
  C  C22  1  0.898700  0.147000  0.495400  1.0  0.8044
  C  C23  1  0.928200  0.478600  0.060900  1.0  -0.0563
  C  C24  1  0.979700  0.548400  0.057500  1.0  -0.1104
  C  C25  1  0.950700  0.429900  0.004100  1.0  -0.0589
  C  C26  1  0.840100  0.455000  0.121600  1.0  0.6886
  C  C27  1  0.972200  0.601500  0.120300  1.0  0.8418
  C  C28  1  0.898700  0.353000  0.004600  1.0  0.8048
  C  C29  1  0.928200  0.060900  0.021400  1.0  -0.0573
  C  C30  1  0.979700  0.057500  0.951600  1.0  -0.1108
  C  C31  1  0.950700  0.004100  0.070100  1.0  -0.0583
  C  C32  1  0.840100  0.121600  0.045000  1.0  0.6889
  C  C33  1  0.972200  0.120300  0.898500  1.0  0.839
  C  C34  1  0.898700  0.004600  0.147000  1.0  0.8064
  C  C35  1  0.928200  0.439100  0.478600  1.0  -0.0583
  C  C36  1  0.979700  0.442500  0.548400  1.0  -0.1112
  C  C37  1  0.950700  0.495900  0.429900  1.0  -0.0585
  C  C38  1  0.840100  0.378400  0.455000  1.0  0.6879
  C  C39  1  0.972200  0.379700  0.601500  1.0  0.8374
  C  C40  1  0.898700  0.495400  0.353000  1.0  0.8067
  C  C41  1  0.571800  0.978600  0.939100  1.0  -0.0572
  C  C42  1  0.520300  0.048400  0.942500  1.0  -0.1102
  C  C43  1  0.549300  0.929900  0.995900  1.0  -0.0591
  C  C44  1  0.659900  0.955000  0.878400  1.0  0.6866
  C  C45  1  0.527800  0.101500  0.879700  1.0  0.8414
  C  C46  1  0.601300  0.853000  0.995400  1.0  0.8039
  C  C47  1  0.571800  0.521400  0.560900  1.0  -0.0567
  C  C48  1  0.520300  0.451600  0.557500  1.0  -0.1104
  C  C49  1  0.549300  0.570100  0.504100  1.0  -0.0593
  C  C50  1  0.659900  0.545000  0.621600  1.0  0.6884
  C  C51  1  0.527800  0.398500  0.620300  1.0  0.8413
  C  C52  1  0.601300  0.647000  0.504600  1.0  0.8046
  C  C53  1  0.571800  0.939100  0.521400  1.0  -0.0574
  C  C54  1  0.520300  0.942500  0.451600  1.0  -0.1113
  C  C55  1  0.549300  0.995900  0.570100  1.0  -0.0581
  C  C56  1  0.659900  0.878400  0.545000  1.0  0.6871
  C  C57  1  0.527800  0.879700  0.398500  1.0  0.8367
  C  C58  1  0.601300  0.995400  0.647000  1.0  0.8075
  C  C59  1  0.571800  0.560900  0.978600  1.0  -0.0578
  C  C60  1  0.520300  0.557500  0.048400  1.0  -0.1105
  C  C61  1  0.549300  0.504100  0.929900  1.0  -0.059
  C  C62  1  0.659900  0.621600  0.955000  1.0  0.6888
  C  C63  1  0.527800  0.620300  0.101500  1.0  0.8384
  C  C64  1  0.601300  0.504600  0.853000  1.0  0.8059
  C  C65  1  0.071800  0.978600  0.560900  1.0  -0.0564
  C  C66  1  0.020300  0.048400  0.557500  1.0  -0.1103
  C  C67  1  0.049300  0.929900  0.504100  1.0  -0.0589
  C  C68  1  0.159900  0.955000  0.621600  1.0  0.6877
  C  C69  1  0.027800  0.101500  0.620300  1.0  0.8422
  C  C70  1  0.101300  0.853000  0.504600  1.0  0.8102
  C  C71  1  0.071800  0.521400  0.939100  1.0  -0.0572
  C  C72  1  0.020300  0.451600  0.942500  1.0  -0.1103
  C  C73  1  0.049300  0.570100  0.995900  1.0  -0.0595
  C  C74  1  0.159900  0.545000  0.878400  1.0  0.6885
  C  C75  1  0.027800  0.398500  0.879700  1.0  0.84
  C  C76  1  0.101300  0.647000  0.995400  1.0  0.8101
  C  C77  1  0.071800  0.939100  0.978600  1.0  -0.0582
  C  C78  1  0.020300  0.942500  0.048400  1.0  -0.1112
  C  C79  1  0.049300  0.995900  0.929900  1.0  -0.0585
  C  C80  1  0.159900  0.878400  0.955000  1.0  0.686
  C  C81  1  0.027800  0.879700  0.101500  1.0  0.8375
  C  C82  1  0.101300  0.995400  0.853000  1.0  0.8117
  C  C83  1  0.071800  0.560900  0.521400  1.0  -0.0572
  C  C84  1  0.020300  0.557500  0.451600  1.0  -0.1107
  C  C85  1  0.049300  0.504100  0.570100  1.0  -0.0584
  C  C86  1  0.159900  0.621600  0.545000  1.0  0.6881
  C  C87  1  0.027800  0.620300  0.398500  1.0  0.8392
  C  C88  1  0.101300  0.504600  0.647000  1.0  0.8125
  C  C89  1  0.428200  0.021400  0.060900  1.0  -0.0567
  C  C90  1  0.479700  0.951600  0.057500  1.0  -0.1104
  C  C91  1  0.450700  0.070100  0.004100  1.0  -0.0594
  C  C92  1  0.340100  0.045000  0.121600  1.0  0.6888
  C  C93  1  0.472200  0.898500  0.120300  1.0  0.8411
  C  C94  1  0.398700  0.147000  0.004600  1.0  0.8105
  C  C95  1  0.428200  0.478600  0.439100  1.0  -0.0572
  C  C96  1  0.479700  0.548400  0.442500  1.0  -0.1103
  C  C97  1  0.450700  0.429900  0.495900  1.0  -0.0592
  C  C98  1  0.340100  0.455000  0.378400  1.0  0.6885
  C  C99  1  0.472200  0.601500  0.379700  1.0  0.841
  C  C100  1  0.398700  0.353000  0.495400  1.0  0.8101
  C  C101  1  0.428200  0.060900  0.478600  1.0  -0.0579
  C  C102  1  0.479700  0.057500  0.548400  1.0  -0.1107
  C  C103  1  0.450700  0.004100  0.429900  1.0  -0.059
  C  C104  1  0.340100  0.121600  0.455000  1.0  0.6899
  C  C105  1  0.472200  0.120300  0.601500  1.0  0.8379
  C  C106  1  0.398700  0.004600  0.353000  1.0  0.8124
  C  C107  1  0.428200  0.439100  0.021400  1.0  -0.0573
  C  C108  1  0.479700  0.442500  0.951600  1.0  -0.1114
  C  C109  1  0.450700  0.495900  0.070100  1.0  -0.058
  C  C110  1  0.340100  0.378400  0.045000  1.0  0.6883
  C  C111  1  0.472200  0.379700  0.898500  1.0  0.8367
  C  C112  1  0.398700  0.495400  0.147000  1.0  0.8125
  O  O113  1  0.823600  0.111000  0.366500  1.0  -0.5031
  O  O114  1  0.784500  0.994400  0.344000  1.0  -0.8024
  O  O115  1  0.926800  0.837010  0.389950  1.0  -0.7161
  O  O116  1  0.019800  0.917200  0.320390  1.0  -0.7853
  O  O117  1  0.974200  0.196590  0.475600  1.0  -0.7615
  O  O118  1  0.786200  0.157000  0.517500  1.0  -0.7659
  O  O119  1  0.823600  0.389000  0.133500  1.0  -0.5032
  O  O120  1  0.784500  0.505600  0.156000  1.0  -0.8034
  O  O121  1  0.926800  0.662990  0.110050  1.0  -0.7153
  O  O122  1  0.019800  0.582800  0.179610  1.0  -0.785
  O  O123  1  0.974200  0.303410  0.024400  1.0  -0.7605
  O  O124  1  0.786200  0.343000  0.982500  1.0  -0.7668
  O  O125  1  0.823600  0.133500  0.111000  1.0  -0.5072
  O  O126  1  0.784500  0.156000  0.994400  1.0  -0.8071
  O  O127  1  0.926800  0.110050  0.837010  1.0  -0.7189
  O  O128  1  0.019800  0.179610  0.917200  1.0  -0.7833
  O  O129  1  0.974200  0.024400  0.196590  1.0  -0.7638
  O  O130  1  0.786200  0.982500  0.157000  1.0  -0.7647
  O  O131  1  0.823600  0.366500  0.389000  1.0  -0.5055
  O  O132  1  0.784500  0.344000  0.505600  1.0  -0.8045
  O  O133  1  0.926800  0.389950  0.662990  1.0  -0.7182
  O  O134  1  0.019800  0.320390  0.582800  1.0  -0.7834
  O  O135  1  0.974200  0.475600  0.303410  1.0  -0.7624
  O  O136  1  0.786200  0.517500  0.343000  1.0  -0.7655
  O  O137  1  0.676400  0.889000  0.866500  1.0  -0.5024
  O  O138  1  0.715500  0.005600  0.844000  1.0  -0.8067
  O  O139  1  0.573200  0.162990  0.889950  1.0  -0.7161
  O  O140  1  0.480200  0.082800  0.820390  1.0  -0.7851
  O  O141  1  0.525800  0.803410  0.975600  1.0  -0.7604
  O  O142  1  0.713800  0.843000  0.017500  1.0  -0.7661
  O  O143  1  0.676400  0.611000  0.633500  1.0  -0.5021
  O  O144  1  0.715500  0.494400  0.656000  1.0  -0.8067
  O  O145  1  0.573200  0.337010  0.610050  1.0  -0.7153
  O  O146  1  0.480200  0.417200  0.679610  1.0  -0.7845
  O  O147  1  0.525800  0.696590  0.524400  1.0  -0.7608
  O  O148  1  0.713800  0.657000  0.482500  1.0  -0.7667
  O  O149  1  0.676400  0.866500  0.611000  1.0  -0.5057
  O  O150  1  0.715500  0.844000  0.494400  1.0  -0.8095
  O  O151  1  0.573200  0.889950  0.337010  1.0  -0.7184
  O  O152  1  0.480200  0.820390  0.417200  1.0  -0.7837
  O  O153  1  0.525800  0.975600  0.696590  1.0  -0.7615
  O  O154  1  0.713800  0.017500  0.657000  1.0  -0.7653
  O  O155  1  0.676400  0.633500  0.889000  1.0  -0.5038
  O  O156  1  0.715500  0.656000  0.005600  1.0  -0.8098
  O  O157  1  0.573200  0.610050  0.162990  1.0  -0.718
  O  O158  1  0.480200  0.679610  0.082800  1.0  -0.7828
  O  O159  1  0.525800  0.524400  0.803410  1.0  -0.7611
  O  O160  1  0.713800  0.482500  0.843000  1.0  -0.7657
  O  O161  1  0.176400  0.889000  0.633500  1.0  -0.5021
  O  O162  1  0.215500  0.005600  0.656000  1.0  -0.8054
  O  O163  1  0.073200  0.162990  0.610050  1.0  -0.7152
  O  O164  1  0.980200  0.082800  0.679610  1.0  -0.7849
  O  O165  1  0.025800  0.803410  0.524400  1.0  -0.7598
  O  O166  1  0.213800  0.843000  0.482500  1.0  -0.767
  O  O167  1  0.176400  0.611000  0.866500  1.0  -0.5022
  O  O168  1  0.215500  0.494400  0.844000  1.0  -0.8042
  O  O169  1  0.073200  0.337010  0.889950  1.0  -0.7155
  O  O170  1  0.980200  0.417200  0.820390  1.0  -0.7848
  O  O171  1  0.025800  0.696590  0.975600  1.0  -0.76
  O  O172  1  0.213800  0.657000  0.017500  1.0  -0.7661
  O  O173  1  0.176400  0.866500  0.889000  1.0  -0.5042
  O  O174  1  0.215500  0.844000  0.005600  1.0  -0.8063
  O  O175  1  0.073200  0.889950  0.162990  1.0  -0.7179
  O  O176  1  0.980200  0.820390  0.082800  1.0  -0.7831
  O  O177  1  0.025800  0.975600  0.803410  1.0  -0.7615
  O  O178  1  0.213800  0.017500  0.843000  1.0  -0.7657
  O  O179  1  0.176400  0.633500  0.611000  1.0  -0.5057
  O  O180  1  0.215500  0.656000  0.494400  1.0  -0.8088
  O  O181  1  0.073200  0.610050  0.337010  1.0  -0.7187
  O  O182  1  0.980200  0.679610  0.417200  1.0  -0.783
  O  O183  1  0.025800  0.524400  0.696590  1.0  -0.7628
  O  O184  1  0.213800  0.482500  0.657000  1.0  -0.765
  O  O185  1  0.323600  0.111000  0.133500  1.0  -0.5029
  O  O186  1  0.284500  0.994400  0.156000  1.0  -0.8048
  O  O187  1  0.426800  0.837010  0.110050  1.0  -0.7157
  O  O188  1  0.519800  0.917200  0.179610  1.0  -0.7846
  O  O189  1  0.474200  0.196590  0.024400  1.0  -0.7618
  O  O190  1  0.286200  0.157000  0.982500  1.0  -0.7664
  O  O191  1  0.323600  0.389000  0.366500  1.0  -0.5035
  O  O192  1  0.284500  0.505600  0.344000  1.0  -0.8047
  O  O193  1  0.426800  0.662990  0.389950  1.0  -0.7161
  O  O194  1  0.519800  0.582800  0.320390  1.0  -0.7857
  O  O195  1  0.474200  0.303410  0.475600  1.0  -0.7614
  O  O196  1  0.286200  0.343000  0.517500  1.0  -0.7657
  O  O197  1  0.323600  0.133500  0.389000  1.0  -0.505
  O  O198  1  0.284500  0.156000  0.505600  1.0  -0.808
  O  O199  1  0.426800  0.110050  0.662990  1.0  -0.7185
  O  O200  1  0.519800  0.179610  0.582800  1.0  -0.7832
  O  O201  1  0.474200  0.024400  0.303410  1.0  -0.7625
  O  O202  1  0.286200  0.982500  0.343000  1.0  -0.7656
  O  O203  1  0.323600  0.366500  0.111000  1.0  -0.5071
  O  O204  1  0.284500  0.344000  0.994400  1.0  -0.8076
  O  O205  1  0.426800  0.389950  0.837010  1.0  -0.7187
  O  O206  1  0.519800  0.320390  0.917200  1.0  -0.7837
  O  O207  1  0.474200  0.475600  0.196590  1.0  -0.7622
  O  O208  1  0.286200  0.517500  0.157000  1.0  -0.7651
