# generated using pymatgen
data_Zn3P4H3O16
_symmetry_space_group_name_H-M   'P 1'
_cell_length_a   8.45570000
_cell_length_b   9.28440000
_cell_length_c   13.85990000
_cell_angle_alpha   81.11400000
_cell_angle_beta   83.64200000
_cell_angle_gamma   72.62600000
_symmetry_Int_Tables_number   1
_chemical_formula_structural   Zn3P4H3O16
_chemical_formula_sum   'Zn6 P8 H6 O32'
_cell_volume   1023.56823676
_cell_formula_units_Z   2
loop_
 _symmetry_equiv_pos_site_id
 _symmetry_equiv_pos_as_xyz
  1  'x, y, z'
loop_
 _atom_site_type_symbol
 _atom_site_label
 _atom_site_symmetry_multiplicity
 _atom_site_fract_x
 _atom_site_fract_y
 _atom_site_fract_z
 _atom_site_occupancy
 _atom_site_charge
  Zn  Zn1  1  0.293670  0.918300  0.519460  1.0  1.1436
  Zn  Zn2  1  0.745560  0.493700  0.973010  1.0  1.1717
  Zn  Zn3  1  0.637790  0.887880  0.125870  1.0  1.1514
  Zn  Zn4  1  0.706330  0.081700  0.480540  1.0  1.1434
  Zn  Zn5  1  0.254440  0.506300  0.026990  1.0  1.17
  Zn  Zn6  1  0.362210  0.112120  0.874130  1.0  1.152
  P  P7  1  0.581140  0.217100  0.019960  1.0  1.7478
  P  P8  1  0.584700  0.864610  0.363970  1.0  1.7779
  P  P9  1  0.904600  0.566290  0.148740  1.0  1.7772
  P  P10  1  0.016900  0.207930  0.422670  1.0  1.8145
  P  P11  1  0.418860  0.782900  0.980040  1.0  1.7283
  P  P12  1  0.415300  0.135390  0.636030  1.0  1.78
  P  P13  1  0.095400  0.433710  0.851260  1.0  1.7778
  P  P14  1  0.983100  0.792070  0.577330  1.0  1.8229
  H  H15  1  0.769000  0.669400  0.358000  1.0  0.3797
  H  H16  1  0.884700  0.453300  0.282900  1.0  0.3788
  H  H17  1  0.056200  0.281200  0.543800  1.0  0.4261
  H  H18  1  0.231000  0.330600  0.642000  1.0  0.3775
  H  H19  1  0.115300  0.546700  0.717100  1.0  0.3782
  H  H20  1  0.943800  0.718800  0.456200  1.0  0.4276
  O  O21  1  0.166800  0.070300  0.423800  1.0  -0.7922
  O  O22  1  0.471800  0.799200  0.439600  1.0  -0.7483
  O  O23  1  0.596700  0.018000  0.383700  1.0  -0.7554
  O  O24  1  0.859700  0.179000  0.396800  1.0  -0.7328
  O  O25  1  0.814100  0.476700  0.103500  1.0  -0.7662
  O  O26  1  0.091100  0.498000  0.134900  1.0  -0.7666
  O  O27  1  0.709800  0.296500  0.970000  1.0  -0.7588
  O  O28  1  0.435200  0.328600  0.069700  1.0  -0.7684
  O  O29  1  0.664200  0.091800  0.101800  1.0  -0.7156
  O  O30  1  0.850000  0.736200  0.112600  1.0  -0.7556
  O  O31  1  0.531100  0.144300  0.941900  1.0  -0.8203
  O  O32  1  0.530600  0.875700  0.261400  1.0  -0.7522
  O  O33  1  0.767800  0.753800  0.369500  1.0  -0.5931
  O  O34  1  0.857600  0.544300  0.262200  1.0  -0.6261
  O  O35  1  0.057900  0.333600  0.349300  1.0  -0.7341
  O  O36  1  0.976500  0.259700  0.527600  1.0  -0.6803
  O  O37  1  0.833200  0.929700  0.576200  1.0  -0.7923
  O  O38  1  0.528200  0.200800  0.560400  1.0  -0.7478
  O  O39  1  0.403300  0.982000  0.616300  1.0  -0.7557
  O  O40  1  0.140300  0.821000  0.603200  1.0  -0.7322
  O  O41  1  0.185900  0.523300  0.896500  1.0  -0.7676
  O  O42  1  0.908900  0.502000  0.865100  1.0  -0.7664
  O  O43  1  0.290200  0.703500  0.030000  1.0  -0.7598
  O  O44  1  0.564800  0.671400  0.930300  1.0  -0.769
  O  O45  1  0.335800  0.908200  0.898200  1.0  -0.713
  O  O46  1  0.150000  0.263800  0.887400  1.0  -0.7571
  O  O47  1  0.468900  0.855700  0.058100  1.0  -0.8232
  O  O48  1  0.469400  0.124300  0.738600  1.0  -0.7526
  O  O49  1  0.232200  0.246200  0.630500  1.0  -0.5907
  O  O50  1  0.142400  0.455700  0.737800  1.0  -0.6247
  O  O51  1  0.942100  0.666400  0.650700  1.0  -0.733
  O  O52  1  0.023500  0.740300  0.472400  1.0  -0.6754
