# generated using pymatgen
data_Zn6P4O17
_symmetry_space_group_name_H-M   'P 1'
_cell_length_a   5.16010000
_cell_length_b   25.07500000
_cell_length_c   14.98600000
_cell_angle_alpha   90.00000000
_cell_angle_beta   92.61000000
_cell_angle_gamma   90.00000000
_symmetry_Int_Tables_number   1
_chemical_formula_structural   Zn6P4O17
_chemical_formula_sum   'Zn24 P16 O68'
_cell_volume   1937.01968068
_cell_formula_units_Z   4
loop_
 _symmetry_equiv_pos_site_id
 _symmetry_equiv_pos_as_xyz
  1  'x, y, z'
loop_
 _atom_site_type_symbol
 _atom_site_label
 _atom_site_symmetry_multiplicity
 _atom_site_fract_x
 _atom_site_fract_y
 _atom_site_fract_z
 _atom_site_occupancy
 _atom_site_charge
  Zn  Zn1  1  0.351240  0.219440  0.698900  1.0  1.0979
  Zn  Zn2  1  0.751480  0.209780  0.877260  1.0  1.1254
  Zn  Zn3  1  0.843450  0.255960  0.573100  1.0  1.1275
  Zn  Zn4  1  0.809100  0.042020  0.585680  1.0  1.1855
  Zn  Zn5  1  0.158620  0.384020  0.751420  1.0  0.9934
  Zn  Zn6  1  0.414200  0.384270  0.756300  1.0  0.9791
  Zn  Zn7  1  0.148760  0.719440  0.801100  1.0  1.0981
  Zn  Zn8  1  0.748520  0.709780  0.622740  1.0  1.1245
  Zn  Zn9  1  0.656550  0.755960  0.926900  1.0  1.128
  Zn  Zn10  1  0.690900  0.542020  0.914320  1.0  1.1837
  Zn  Zn11  1  0.341380  0.884020  0.748580  1.0  0.9955
  Zn  Zn12  1  0.085800  0.884270  0.743700  1.0  0.9772
  Zn  Zn13  1  0.648760  0.780560  0.301100  1.0  1.0975
  Zn  Zn14  1  0.248520  0.790220  0.122740  1.0  1.1248
  Zn  Zn15  1  0.156550  0.744040  0.426900  1.0  1.128
  Zn  Zn16  1  0.190900  0.957980  0.414320  1.0  1.1837
  Zn  Zn17  1  0.841380  0.615980  0.248580  1.0  0.9954
  Zn  Zn18  1  0.585800  0.615730  0.243700  1.0  0.976
  Zn  Zn19  1  0.851240  0.280560  0.198900  1.0  1.0973
  Zn  Zn20  1  0.251480  0.290220  0.377260  1.0  1.1257
  Zn  Zn21  1  0.343450  0.244040  0.073100  1.0  1.1275
  Zn  Zn22  1  0.309100  0.457980  0.085680  1.0  1.1854
  Zn  Zn23  1  0.658620  0.115980  0.251420  1.0  0.9925
  Zn  Zn24  1  0.914200  0.115730  0.256300  1.0  0.9781
  P  P25  1  0.324200  0.325270  0.579020  1.0  1.8652
  P  P26  1  0.852600  0.153910  0.694470  1.0  1.8088
  P  P27  1  0.268400  0.279800  0.875340  1.0  1.8515
  P  P28  1  0.310000  0.975250  0.615780  1.0  1.8028
  P  P29  1  0.175800  0.825270  0.920980  1.0  1.8658
  P  P30  1  0.647400  0.653910  0.805530  1.0  1.8089
  P  P31  1  0.231600  0.779800  0.624660  1.0  1.8511
  P  P32  1  0.190000  0.475250  0.884220  1.0  1.8034
  P  P33  1  0.675800  0.674730  0.420980  1.0  1.866
  P  P34  1  0.147400  0.846090  0.305530  1.0  1.8101
  P  P35  1  0.731600  0.720200  0.124660  1.0  1.8511
  P  P36  1  0.690000  0.024750  0.384220  1.0  1.8032
  P  P37  1  0.824200  0.174730  0.079020  1.0  1.8646
  P  P38  1  0.352600  0.346090  0.194470  1.0  1.81
  P  P39  1  0.768400  0.220200  0.375340  1.0  1.8515
  P  P40  1  0.810000  0.524750  0.115780  1.0  1.8026
  O  O41  1  0.131700  0.160140  0.666000  1.0  -0.7477
  O  O42  1  0.700600  0.205230  0.660300  1.0  -0.9179
  O  O43  1  0.398000  0.231360  0.827400  1.0  -0.9306
  O  O44  1  0.193100  0.276480  0.624300  1.0  -0.9197
  O  O45  1  0.978900  0.270560  0.880400  1.0  -0.8124
  O  O46  1  0.198200  0.330180  0.485700  1.0  -0.7306
  O  O47  1  0.839300  0.153080  0.796000  1.0  -0.7559
  O  O48  1  0.406000  0.282960  0.967100  1.0  -0.779
  O  O49  1  0.614300  0.315310  0.577300  1.0  -0.8082
  O  O50  1  0.606000  0.982650  0.625200  1.0  -0.7758
  O  O51  1  0.177600  0.029010  0.596900  1.0  -0.752
  O  O52  1  0.724200  0.105220  0.654000  1.0  -0.7596
  O  O53  1  0.250800  0.935620  0.539300  1.0  -0.7755
  O  O54  1  0.327000  0.329470  0.822800  1.0  -0.9282
  O  O55  1  0.270200  0.375650  0.631200  1.0  -0.8487
  O  O56  1  0.215600  0.951770  0.703400  1.0  -0.8524
  O  O57  1  0.777400  0.386500  0.759100  1.0  -0.7417
  O  O58  1  0.368300  0.660140  0.834000  1.0  -0.7475
  O  O59  1  0.799400  0.705230  0.839700  1.0  -0.9192
  O  O60  1  0.102000  0.731360  0.672600  1.0  -0.9311
  O  O61  1  0.306900  0.776480  0.875700  1.0  -0.9192
  O  O62  1  0.521100  0.770560  0.619600  1.0  -0.8115
  O  O63  1  0.301800  0.830180  0.014300  1.0  -0.7319
  O  O64  1  0.660700  0.653080  0.704000  1.0  -0.7556
  O  O65  1  0.094000  0.782960  0.532900  1.0  -0.7785
  O  O66  1  0.885700  0.815310  0.922700  1.0  -0.8068
  O  O67  1  0.894000  0.482650  0.874800  1.0  -0.777
  O  O68  1  0.322400  0.529010  0.903100  1.0  -0.752
  O  O69  1  0.775800  0.605220  0.846000  1.0  -0.7608
  O  O70  1  0.249200  0.435620  0.960700  1.0  -0.7739
  O  O71  1  0.173000  0.829470  0.677200  1.0  -0.9269
  O  O72  1  0.229800  0.875650  0.868800  1.0  -0.8483
  O  O73  1  0.284400  0.451770  0.796600  1.0  -0.8529
  O  O74  1  0.722600  0.886500  0.740900  1.0  -0.7417
  O  O75  1  0.868300  0.839860  0.334000  1.0  -0.747
  O  O76  1  0.299400  0.794770  0.339700  1.0  -0.9209
  O  O77  1  0.602000  0.768640  0.172600  1.0  -0.9319
  O  O78  1  0.806900  0.723520  0.375700  1.0  -0.9191
  O  O79  1  0.021100  0.729440  0.119600  1.0  -0.811
  O  O80  1  0.801800  0.669820  0.514300  1.0  -0.7319
  O  O81  1  0.160700  0.846920  0.204000  1.0  -0.7549
  O  O82  1  0.594000  0.717040  0.032900  1.0  -0.7801
  O  O83  1  0.385700  0.684690  0.422700  1.0  -0.8066
  O  O84  1  0.394000  0.017350  0.374800  1.0  -0.7768
  O  O85  1  0.822400  0.970990  0.403100  1.0  -0.7539
  O  O86  1  0.275800  0.894780  0.346000  1.0  -0.7604
  O  O87  1  0.749200  0.064380  0.460700  1.0  -0.7749
  O  O88  1  0.673000  0.670530  0.177200  1.0  -0.9267
  O  O89  1  0.729800  0.624350  0.368800  1.0  -0.8473
  O  O90  1  0.784400  0.048230  0.296600  1.0  -0.853
  O  O91  1  0.222600  0.613500  0.240900  1.0  -0.7418
  O  O92  1  0.631700  0.339860  0.166000  1.0  -0.7464
  O  O93  1  0.200600  0.294770  0.160300  1.0  -0.9193
  O  O94  1  0.898000  0.268640  0.327400  1.0  -0.9314
  O  O95  1  0.693100  0.223520  0.124300  1.0  -0.9199
  O  O96  1  0.478900  0.229440  0.380400  1.0  -0.8121
  O  O97  1  0.698200  0.169820  0.985700  1.0  -0.7304
  O  O98  1  0.339300  0.346920  0.296000  1.0  -0.7554
  O  O99  1  0.906000  0.217040  0.467100  1.0  -0.7805
  O  O100  1  0.114300  0.184690  0.077300  1.0  -0.8074
  O  O101  1  0.106000  0.517350  0.125200  1.0  -0.7759
  O  O102  1  0.677600  0.470990  0.096900  1.0  -0.7539
  O  O103  1  0.224200  0.394780  0.154000  1.0  -0.7593
  O  O104  1  0.750800  0.564380  0.039300  1.0  -0.7761
  O  O105  1  0.827000  0.170530  0.322800  1.0  -0.9272
  O  O106  1  0.770200  0.124350  0.131200  1.0  -0.8453
  O  O107  1  0.715600  0.548230  0.203400  1.0  -0.8525
  O  O108  1  0.277400  0.113500  0.259100  1.0  -0.7419
