# generated using pymatgen
data_Zn3P4H3O16
_symmetry_space_group_name_H-M   'P 1'
_cell_length_a   8.44080000
_cell_length_b   9.26300000
_cell_length_c   13.84300000
_cell_angle_alpha   81.11900000
_cell_angle_beta   83.64300000
_cell_angle_gamma   72.64700000
_symmetry_Int_Tables_number   1
_chemical_formula_structural   Zn3P4H3O16
_chemical_formula_sum   'Zn6 P8 H6 O32'
_cell_volume   1018.29301867
_cell_formula_units_Z   2
loop_
 _symmetry_equiv_pos_site_id
 _symmetry_equiv_pos_as_xyz
  1  'x, y, z'
loop_
 _atom_site_type_symbol
 _atom_site_label
 _atom_site_symmetry_multiplicity
 _atom_site_fract_x
 _atom_site_fract_y
 _atom_site_fract_z
 _atom_site_occupancy
 _atom_site_charge
  Zn  Zn1  1  0.745560  0.493700  0.473140  1.0  1.1737
  Zn  Zn2  1  0.706290  0.081490  0.980550  1.0  1.1359
  Zn  Zn3  1  0.362470  0.111990  0.374060  1.0  1.1728
  Zn  Zn4  1  0.254440  0.506300  0.526860  1.0  1.1731
  Zn  Zn5  1  0.293710  0.918510  0.019450  1.0  1.136
  Zn  Zn6  1  0.637530  0.888010  0.625940  1.0  1.1719
  P  P7  1  0.904550  0.566460  0.648750  1.0  1.7717
  P  P8  1  0.414960  0.135490  0.136030  1.0  1.7734
  P  P9  1  0.983180  0.791850  0.077140  1.0  1.8217
  P  P10  1  0.581020  0.217230  0.520060  1.0  1.7287
  P  P11  1  0.095450  0.433540  0.351250  1.0  1.7709
  P  P12  1  0.585040  0.864510  0.863970  1.0  1.7724
  P  P13  1  0.016820  0.208150  0.922860  1.0  1.8209
  P  P14  1  0.418980  0.782770  0.479940  1.0  1.7285
  H  H15  1  0.928100  0.471700  0.788500  1.0  0.3669
  H  H16  1  0.217100  0.310600  0.167700  1.0  0.4109
  H  H17  1  0.936100  0.748700  0.947500  1.0  0.3841
  H  H18  1  0.071900  0.528300  0.211500  1.0  0.3661
  H  H19  1  0.782900  0.689400  0.832300  1.0  0.4122
  H  H20  1  0.063900  0.251300  0.052500  1.0  0.3858
  O  O21  1  0.813400  0.476700  0.603200  1.0  -0.771
  O  O22  1  0.092100  0.497900  0.635400  1.0  -0.7733
  O  O23  1  0.710300  0.296500  0.470050  1.0  -0.7501
  O  O24  1  0.434800  0.330000  0.569700  1.0  -0.758
  O  O25  1  0.527800  0.201600  0.060430  1.0  -0.7443
  O  O26  1  0.833000  0.930200  0.076500  1.0  -0.7962
  O  O27  1  0.402700  0.981800  0.116170  1.0  -0.7687
  O  O28  1  0.139900  0.821100  0.102730  1.0  -0.7273
  O  O29  1  0.530600  0.143800  0.442180  1.0  -0.8199
  O  O30  1  0.849300  0.736200  0.612900  1.0  -0.7535
  O  O31  1  0.665100  0.091500  0.601470  1.0  -0.7143
  O  O32  1  0.469900  0.124200  0.239290  1.0  -0.7557
  O  O33  1  0.857000  0.543600  0.762110  1.0  -0.6286
  O  O34  1  0.231700  0.246900  0.130100  1.0  -0.6063
  O  O35  1  0.941300  0.666900  0.151200  1.0  -0.7118
  O  O36  1  0.023300  0.739600  0.972000  1.0  -0.6572
  O  O37  1  0.186600  0.523300  0.396800  1.0  -0.7721
  O  O38  1  0.907900  0.502100  0.364600  1.0  -0.7735
  O  O39  1  0.289700  0.703500  0.529950  1.0  -0.7522
  O  O40  1  0.565200  0.670000  0.430300  1.0  -0.7565
  O  O41  1  0.472200  0.798400  0.939570  1.0  -0.7448
  O  O42  1  0.167000  0.069800  0.923500  1.0  -0.7983
  O  O43  1  0.597300  0.018200  0.883830  1.0  -0.7693
  O  O44  1  0.860100  0.178900  0.897270  1.0  -0.7271
  O  O45  1  0.469400  0.856200  0.557820  1.0  -0.8214
  O  O46  1  0.150700  0.263800  0.387100  1.0  -0.753
  O  O47  1  0.334900  0.908500  0.398530  1.0  -0.7118
  O  O48  1  0.530100  0.875800  0.760710  1.0  -0.7553
  O  O49  1  0.143000  0.456400  0.237890  1.0  -0.6254
  O  O50  1  0.768300  0.753100  0.869900  1.0  -0.6031
  O  O51  1  0.058700  0.333100  0.848800  1.0  -0.7144
  O  O52  1  0.976700  0.260400  0.028000  1.0  -0.6633
