# generated using pymatgen
data_SmC9(IO2)3
_symmetry_space_group_name_H-M   'P 1'
_cell_length_a   14.13410000
_cell_length_b   14.13410000
_cell_length_c   14.13410000
_cell_angle_alpha   90.00000000
_cell_angle_beta   90.00000000
_cell_angle_gamma   90.00000000
_symmetry_Int_Tables_number   1
_chemical_formula_structural   SmC9(IO2)3
_chemical_formula_sum   'Sm4 C36 I12 O24'
_cell_volume   2823.60848951
_cell_formula_units_Z   4
loop_
 _symmetry_equiv_pos_site_id
 _symmetry_equiv_pos_as_xyz
  1  'x, y, z'
loop_
 _atom_site_type_symbol
 _atom_site_label
 _atom_site_symmetry_multiplicity
 _atom_site_fract_x
 _atom_site_fract_y
 _atom_site_fract_z
 _atom_site_occupancy
 _atom_site_charge
  Sm  Sm1  1  0.000490  0.999510  0.499510  1.0  2.1369
  Sm  Sm2  1  0.499510  0.000490  0.999510  1.0  2.1369
  Sm  Sm3  1  0.999510  0.499510  0.000490  1.0  2.1379
  Sm  Sm4  1  0.500490  0.500490  0.500490  1.0  2.1381
  C  C5  1  0.090100  0.164000  0.573200  1.0  0.6614
  C  C6  1  0.129000  0.253600  0.620400  1.0  -0.0758
  C  C7  1  0.084900  0.291400  0.700400  1.0  0.0406
  C  C8  1  0.409900  0.836000  0.073200  1.0  0.6612
  C  C9  1  0.371000  0.746400  0.120400  1.0  -0.0756
  C  C10  1  0.415100  0.708600  0.200400  1.0  0.0381
  C  C11  1  0.909900  0.664000  0.926800  1.0  0.662
  C  C12  1  0.871000  0.753600  0.879600  1.0  -0.0756
  C  C13  1  0.915100  0.791400  0.799600  1.0  0.0386
  C  C14  1  0.590100  0.336000  0.426800  1.0  0.6607
  C  C15  1  0.629000  0.246400  0.379600  1.0  -0.0754
  C  C16  1  0.584900  0.208600  0.299600  1.0  0.0412
  C  C17  1  0.573200  0.090100  0.164000  1.0  0.6618
  C  C18  1  0.620400  0.129000  0.253600  1.0  -0.0785
  C  C19  1  0.700400  0.084900  0.291400  1.0  0.0383
  C  C20  1  0.073200  0.409900  0.836000  1.0  0.6624
  C  C21  1  0.120400  0.371000  0.746400  1.0  -0.0782
  C  C22  1  0.200400  0.415100  0.708600  1.0  0.0369
  C  C23  1  0.926800  0.909900  0.664000  1.0  0.6614
  C  C24  1  0.879600  0.871000  0.753600  1.0  -0.0783
  C  C25  1  0.799600  0.915100  0.791400  1.0  0.0376
  C  C26  1  0.426800  0.590100  0.336000  1.0  0.6617
  C  C27  1  0.379600  0.629000  0.246400  1.0  -0.0785
  C  C28  1  0.299600  0.584900  0.208600  1.0  0.0374
  C  C29  1  0.164000  0.573200  0.090100  1.0  0.6601
  C  C30  1  0.253600  0.620400  0.129000  1.0  -0.0746
  C  C31  1  0.291400  0.700400  0.084900  1.0  0.039
  C  C32  1  0.836000  0.073200  0.409900  1.0  0.6609
  C  C33  1  0.746400  0.120400  0.371000  1.0  -0.0745
  C  C34  1  0.708600  0.200400  0.415100  1.0  0.0406
  C  C35  1  0.664000  0.926800  0.909900  1.0  0.6599
  C  C36  1  0.753600  0.879600  0.871000  1.0  -0.0743
  C  C37  1  0.791400  0.799600  0.915100  1.0  0.0395
  C  C38  1  0.336000  0.426800  0.590100  1.0  0.6605
  C  C39  1  0.246400  0.379600  0.629000  1.0  -0.0746
  C  C40  1  0.208600  0.299600  0.584900  1.0  0.0388
  I  I41  1  0.961940  0.225090  0.751310  1.0  -0.0015
  I  I42  1  0.538060  0.774910  0.251310  1.0  -0.0017
  I  I43  1  0.038060  0.725090  0.748690  1.0  -0.0018
  I  I44  1  0.461940  0.274910  0.248690  1.0  -0.0015
  I  I45  1  0.751310  0.961940  0.225090  1.0  -0.0013
  I  I46  1  0.251310  0.538060  0.774910  1.0  -0.0005
  I  I47  1  0.748690  0.038060  0.725090  1.0  -0.0005
  I  I48  1  0.248690  0.461940  0.274910  1.0  -0.0007
  I  I49  1  0.225090  0.751310  0.961940  1.0  -0.0005
  I  I50  1  0.774910  0.251310  0.538060  1.0  -0.001
  I  I51  1  0.725090  0.748690  0.038060  1.0  -0.0024
  I  I52  1  0.274910  0.248690  0.461940  1.0  -0.0012
  O  O53  1  0.016300  0.171850  0.525600  1.0  -0.657
  O  O54  1  0.132600  0.088340  0.586100  1.0  -0.6769
  O  O55  1  0.483700  0.828150  0.025600  1.0  -0.6567
  O  O56  1  0.367400  0.911660  0.086100  1.0  -0.6756
  O  O57  1  0.983700  0.671850  0.974400  1.0  -0.6579
  O  O58  1  0.867400  0.588340  0.913900  1.0  -0.6757
  O  O59  1  0.516300  0.328150  0.474400  1.0  -0.6564
  O  O60  1  0.632600  0.411660  0.413900  1.0  -0.6766
  O  O61  1  0.525600  0.016300  0.171850  1.0  -0.659
  O  O62  1  0.586100  0.132600  0.088340  1.0  -0.6768
  O  O63  1  0.025600  0.483700  0.828150  1.0  -0.6598
  O  O64  1  0.086100  0.367400  0.911660  1.0  -0.6767
  O  O65  1  0.974400  0.983700  0.671850  1.0  -0.6608
  O  O66  1  0.913900  0.867400  0.588340  1.0  -0.6757
  O  O67  1  0.474400  0.516300  0.328150  1.0  -0.6583
  O  O68  1  0.413900  0.632600  0.411660  1.0  -0.6775
  O  O69  1  0.171850  0.525600  0.016300  1.0  -0.657
  O  O70  1  0.088340  0.586100  0.132600  1.0  -0.6778
  O  O71  1  0.828150  0.025600  0.483700  1.0  -0.6579
  O  O72  1  0.911660  0.086100  0.367400  1.0  -0.6766
  O  O73  1  0.671850  0.974400  0.983700  1.0  -0.6591
  O  O74  1  0.588340  0.913900  0.867400  1.0  -0.6766
  O  O75  1  0.328150  0.474400  0.516300  1.0  -0.6597
  O  O76  1  0.411660  0.413900  0.632600  1.0  -0.6794
