# generated using pymatgen
data_Cu2(CN)3
_symmetry_space_group_name_H-M   'P 1'
_cell_length_a   7.64580000
_cell_length_b   13.52190000
_cell_length_c   16.38450000
_cell_angle_alpha   90.00000000
_cell_angle_beta   90.00000000
_cell_angle_gamma   90.00000000
_symmetry_Int_Tables_number   1
_chemical_formula_structural   Cu2(CN)3
_chemical_formula_sum   'Cu16 C24 N24'
_cell_volume   1693.92370651
_cell_formula_units_Z   8
loop_
 _symmetry_equiv_pos_site_id
 _symmetry_equiv_pos_as_xyz
  1  'x, y, z'
loop_
 _atom_site_type_symbol
 _atom_site_label
 _atom_site_symmetry_multiplicity
 _atom_site_fract_x
 _atom_site_fract_y
 _atom_site_fract_z
 _atom_site_occupancy
 _atom_site_charge
  Cu  Cu1  1  0.126560  0.785220  0.098840  1.0  0.4258
  Cu  Cu2  1  0.801890  0.649270  0.341010  1.0  0.469
  Cu  Cu3  1  0.373440  0.214780  0.598840  1.0  0.4279
  Cu  Cu4  1  0.698110  0.350730  0.841010  1.0  0.4672
  Cu  Cu5  1  0.873440  0.285220  0.401160  1.0  0.4265
  Cu  Cu6  1  0.198110  0.149270  0.158990  1.0  0.4678
  Cu  Cu7  1  0.626560  0.714780  0.901160  1.0  0.4276
  Cu  Cu8  1  0.301890  0.850730  0.658990  1.0  0.4678
  Cu  Cu9  1  0.873440  0.214780  0.901160  1.0  0.4282
  Cu  Cu10  1  0.198110  0.350730  0.658990  1.0  0.4668
  Cu  Cu11  1  0.626560  0.785220  0.401160  1.0  0.426
  Cu  Cu12  1  0.301890  0.649270  0.158990  1.0  0.4687
  Cu  Cu13  1  0.126560  0.714780  0.598840  1.0  0.4273
  Cu  Cu14  1  0.801890  0.850730  0.841010  1.0  0.4682
  Cu  Cu15  1  0.373440  0.285220  0.098840  1.0  0.4262
  Cu  Cu16  1  0.698110  0.149270  0.341010  1.0  0.4681
  C  C17  1  0.868900  0.786220  0.949690  1.0  0.0376
  C  C18  1  0.205500  0.004840  0.143290  1.0  0.0372
  C  C19  1  0.045700  0.703250  0.194830  1.0  -0.0
  C  C20  1  0.631100  0.213780  0.449690  1.0  0.0375
  C  C21  1  0.294500  0.995160  0.643290  1.0  0.038
  C  C22  1  0.454300  0.296750  0.694830  1.0  0.0003
  C  C23  1  0.131100  0.286220  0.550310  1.0  0.0373
  C  C24  1  0.794500  0.504840  0.356710  1.0  0.0373
  C  C25  1  0.954300  0.203250  0.305170  1.0  -0.0022
  C  C26  1  0.368900  0.713780  0.050310  1.0  0.0373
  C  C27  1  0.705500  0.495160  0.856710  1.0  0.0394
  C  C28  1  0.545700  0.796750  0.805170  1.0  -0.0021
  C  C29  1  0.131100  0.213780  0.050310  1.0  0.0373
  C  C30  1  0.794500  0.995160  0.856710  1.0  0.0389
  C  C31  1  0.954300  0.296750  0.805170  1.0  -0.0018
  C  C32  1  0.368900  0.786220  0.550310  1.0  0.0373
  C  C33  1  0.705500  0.004840  0.356710  1.0  0.0381
  C  C34  1  0.545700  0.703250  0.305170  1.0  -0.0025
  C  C35  1  0.868900  0.713780  0.449690  1.0  0.0376
  C  C36  1  0.205500  0.495160  0.643290  1.0  0.0394
  C  C37  1  0.045700  0.796750  0.694830  1.0  1e-04
  C  C38  1  0.631100  0.286220  0.949690  1.0  0.0375
  C  C39  1  0.294500  0.504840  0.143290  1.0  0.0374
  C  C40  1  0.454300  0.203250  0.194830  1.0  0.0002
  N  N41  1  0.960300  0.782380  0.005330  1.0  -0.3227
  N  N42  1  0.181100  0.922660  0.127540  1.0  -0.3139
  N  N43  1  0.953800  0.683220  0.248060  1.0  -0.3315
  N  N44  1  0.539700  0.217620  0.505330  1.0  -0.3229
  N  N45  1  0.318900  0.077340  0.627540  1.0  -0.3162
  N  N46  1  0.546200  0.316780  0.748060  1.0  -0.3316
  N  N47  1  0.039700  0.282380  0.494670  1.0  -0.3224
  N  N48  1  0.818900  0.422660  0.372460  1.0  -0.3149
  N  N49  1  0.046200  0.183220  0.251940  1.0  -0.3312
  N  N50  1  0.460300  0.717620  0.994670  1.0  -0.3224
  N  N51  1  0.681100  0.577340  0.872460  1.0  -0.3166
  N  N52  1  0.453800  0.816780  0.751940  1.0  -0.3319
  N  N53  1  0.039700  0.217620  0.994670  1.0  -0.3222
  N  N54  1  0.818900  0.077340  0.872460  1.0  -0.3167
  N  N55  1  0.046200  0.316780  0.751940  1.0  -0.3317
  N  N56  1  0.460300  0.782380  0.494670  1.0  -0.3225
  N  N57  1  0.681100  0.922660  0.372460  1.0  -0.3145
  N  N58  1  0.453800  0.683220  0.251940  1.0  -0.3314
  N  N59  1  0.960300  0.717620  0.505330  1.0  -0.3227
  N  N60  1  0.181100  0.577340  0.627540  1.0  -0.316
  N  N61  1  0.953800  0.816780  0.748060  1.0  -0.3321
  N  N62  1  0.539700  0.282380  0.005330  1.0  -0.3229
  N  N63  1  0.318900  0.422660  0.127540  1.0  -0.3144
  N  N64  1  0.546200  0.183220  0.248060  1.0  -0.3311
