# generated using pymatgen
data_Fe3H24C42O13
_symmetry_space_group_name_H-M   'P 1'
_cell_length_a   21.80000000
_cell_length_b   21.80000000
_cell_length_c   35.40700000
_cell_angle_alpha   90.00000000
_cell_angle_beta   90.00000000
_cell_angle_gamma   90.00000000
_symmetry_Int_Tables_number   1
_chemical_formula_structural   Fe3H24C42O13
_chemical_formula_sum   'Fe24 H192 C336 O104'
_cell_volume   16826.82268000
_cell_formula_units_Z   8
loop_
 _symmetry_equiv_pos_site_id
 _symmetry_equiv_pos_as_xyz
  1  'x, y, z'
loop_
 _atom_site_type_symbol
 _atom_site_label
 _atom_site_symmetry_multiplicity
 _atom_site_fract_x
 _atom_site_fract_y
 _atom_site_fract_z
 _atom_site_occupancy
 _atom_site_charge
  Fe  Fe1  1  0.719090  0.999800  0.901350  1.0  1.1024
  Fe  Fe2  1  0.657110  0.002700  0.986510  1.0  1.1845
  Fe  Fe3  1  0.807330  0.992760  0.976810  1.0  1.19
  Fe  Fe4  1  0.280910  0.000200  0.401350  1.0  1.1024
  Fe  Fe5  1  0.342890  0.997300  0.486510  1.0  1.1823
  Fe  Fe6  1  0.192670  0.007240  0.476810  1.0  1.1904
  Fe  Fe7  1  0.780910  0.499800  0.348650  1.0  1.102
  Fe  Fe8  1  0.842890  0.502700  0.263490  1.0  1.1826
  Fe  Fe9  1  0.692670  0.492760  0.273190  1.0  1.1918
  Fe  Fe10  1  0.219090  0.500200  0.848650  1.0  1.1011
  Fe  Fe11  1  0.157110  0.497300  0.763490  1.0  1.184
  Fe  Fe12  1  0.307330  0.507240  0.773190  1.0  1.1908
  Fe  Fe13  1  0.500200  0.219090  0.151350  1.0  1.1019
  Fe  Fe14  1  0.497300  0.157110  0.236510  1.0  1.1825
  Fe  Fe15  1  0.507240  0.307330  0.226810  1.0  1.1927
  Fe  Fe16  1  0.499800  0.780910  0.651350  1.0  1.1009
  Fe  Fe17  1  0.502700  0.842890  0.736510  1.0  1.1845
  Fe  Fe18  1  0.492760  0.692670  0.726810  1.0  1.1887
  Fe  Fe19  1  0.999800  0.719090  0.098650  1.0  1.1007
  Fe  Fe20  1  0.002700  0.657110  0.013490  1.0  1.1814
  Fe  Fe21  1  0.992760  0.807330  0.023190  1.0  1.1939
  Fe  Fe22  1  0.000200  0.280910  0.598650  1.0  1.0999
  Fe  Fe23  1  0.997300  0.342890  0.513490  1.0  1.186
  Fe  Fe24  1  0.007240  0.192670  0.523190  1.0  1.1902
  H  H25  1  0.566300  0.885300  0.861400  1.0  0.1218
  H  H26  1  0.503300  0.805200  0.845100  1.0  0.104
  H  H27  1  0.491600  0.754300  0.953700  1.0  0.1126
  H  H28  1  0.557900  0.835900  0.970800  1.0  0.1158
  H  H29  1  0.503600  0.693200  0.842000  1.0  0.116
  H  H30  1  0.434200  0.621500  0.818700  1.0  0.1055
  H  H31  1  0.326500  0.645300  0.907600  1.0  0.1095
  H  H32  1  0.392600  0.719200  0.930400  1.0  0.1127
  H  H33  1  0.921100  0.143400  0.947400  1.0  0.1069
  H  H34  1  0.973300  0.227900  0.930500  1.0  0.1162
  H  H35  1  0.891600  0.226600  0.832400  1.0  0.1278
  H  H36  1  0.833500  0.138000  0.850200  1.0  0.1105
  H  H37  1  0.045300  0.270700  0.907400  1.0  0.1496
  H  H38  1  0.116300  0.349200  0.889900  1.0  0.1248
  H  H39  1  0.006900  0.380700  0.800600  1.0  0.1177
  H  H40  1  0.943100  0.302800  0.819500  1.0  0.1043
  H  H41  1  0.660700  0.149000  0.062900  1.0  0.1376
  H  H42  1  0.669500  0.214900  0.113300  1.0  0.0975
  H  H43  1  0.850800  0.188400  0.115700  1.0  0.1206
  H  H44  1  0.842500  0.116300  0.068300  1.0  0.1221
  H  H45  1  0.687700  0.228800  0.176700  1.0  0.118
  H  H46  1  0.685000  0.315600  0.217500  1.0  0.1072
  H  H47  1  0.846500  0.373300  0.175800  1.0  0.1083
  H  H48  1  0.849400  0.290100  0.135400  1.0  0.1161
  H  H49  1  0.433700  0.114700  0.361400  1.0  0.1212
  H  H50  1  0.496700  0.194800  0.345100  1.0  0.1033
  H  H51  1  0.508400  0.245700  0.453700  1.0  0.1122
  H  H52  1  0.442100  0.164100  0.470800  1.0  0.1154
  H  H53  1  0.496400  0.306800  0.342000  1.0  0.1161
  H  H54  1  0.565800  0.378500  0.318700  1.0  0.1069
  H  H55  1  0.673500  0.354700  0.407600  1.0  0.1093
  H  H56  1  0.607400  0.280800  0.430400  1.0  0.1134
  H  H57  1  0.078900  0.856600  0.447400  1.0  0.1069
  H  H58  1  0.026700  0.772100  0.430500  1.0  0.1165
  H  H59  1  0.108400  0.773400  0.332400  1.0  0.1275
  H  H60  1  0.166500  0.862000  0.350200  1.0  0.1106
  H  H61  1  0.954700  0.729300  0.407400  1.0  0.1497
  H  H62  1  0.883700  0.650800  0.389900  1.0  0.1247
  H  H63  1  0.993100  0.619300  0.300600  1.0  0.1182
  H  H64  1  0.056900  0.697200  0.319500  1.0  0.1045
  H  H65  1  0.339300  0.851000  0.562900  1.0  0.1381
  H  H66  1  0.330500  0.785100  0.613300  1.0  0.0979
  H  H67  1  0.149200  0.811600  0.615700  1.0  0.1212
  H  H68  1  0.157500  0.883700  0.568300  1.0  0.1221
  H  H69  1  0.312300  0.771200  0.676700  1.0  0.1177
  H  H70  1  0.315000  0.684400  0.717500  1.0  0.107
  H  H71  1  0.153500  0.626700  0.675800  1.0  0.1084
  H  H72  1  0.150600  0.709900  0.635400  1.0  0.116
  H  H73  1  0.933700  0.385300  0.388600  1.0  0.1217
  H  H74  1  0.996700  0.305200  0.404900  1.0  0.103
  H  H75  1  0.008400  0.254300  0.296300  1.0  0.1124
  H  H76  1  0.942100  0.335900  0.279200  1.0  0.1165
  H  H77  1  0.996400  0.193200  0.408000  1.0  0.1159
  H  H78  1  0.065800  0.121500  0.431300  1.0  0.1062
  H  H79  1  0.173500  0.145300  0.342400  1.0  0.1095
  H  H80  1  0.107400  0.219200  0.319600  1.0  0.1141
  H  H81  1  0.578900  0.643400  0.302600  1.0  0.1076
  H  H82  1  0.526700  0.727900  0.319500  1.0  0.1146
  H  H83  1  0.608400  0.726600  0.417600  1.0  0.1263
  H  H84  1  0.666500  0.638000  0.399800  1.0  0.1115
  H  H85  1  0.454700  0.770700  0.342600  1.0  0.1491
  H  H86  1  0.383700  0.849200  0.360100  1.0  0.1249
  H  H87  1  0.493100  0.880700  0.449400  1.0  0.1181
  H  H88  1  0.556900  0.802800  0.430500  1.0  0.1042
  H  H89  1  0.839300  0.649000  0.187100  1.0  0.1379
  H  H90  1  0.830500  0.714900  0.136700  1.0  0.098
  H  H91  1  0.649200  0.688400  0.134300  1.0  0.1216
  H  H92  1  0.657500  0.616300  0.181700  1.0  0.1219
  H  H93  1  0.812300  0.728800  0.073300  1.0  0.1183
  H  H94  1  0.815000  0.815600  0.032500  1.0  0.1062
  H  H95  1  0.653500  0.873300  0.074200  1.0  0.1085
  H  H96  1  0.650600  0.790100  0.114600  1.0  0.1162
  H  H97  1  0.066300  0.614700  0.888600  1.0  0.1216
  H  H98  1  0.003300  0.694800  0.904900  1.0  0.1032
  H  H99  1  0.991600  0.745700  0.796300  1.0  0.1125
  H  H100  1  0.057900  0.664100  0.779200  1.0  0.1149
  H  H101  1  0.003600  0.806800  0.908000  1.0  0.1161
  H  H102  1  0.934200  0.878500  0.931300  1.0  0.1061
  H  H103  1  0.826500  0.854700  0.842400  1.0  0.1099
  H  H104  1  0.892600  0.780800  0.819600  1.0  0.1138
  H  H105  1  0.421100  0.356600  0.802600  1.0  0.1076
  H  H106  1  0.473300  0.272100  0.819500  1.0  0.1152
  H  H107  1  0.391600  0.273400  0.917600  1.0  0.1271
  H  H108  1  0.333500  0.362000  0.899800  1.0  0.1108
  H  H109  1  0.545300  0.229300  0.842600  1.0  0.1501
  H  H110  1  0.616300  0.150800  0.860100  1.0  0.1249
  H  H111  1  0.506900  0.119300  0.949400  1.0  0.1184
  H  H112  1  0.443100  0.197200  0.930500  1.0  0.1044
  H  H113  1  0.160700  0.351000  0.687100  1.0  0.1385
  H  H114  1  0.169500  0.285100  0.636700  1.0  0.0976
  H  H115  1  0.350800  0.311600  0.634300  1.0  0.1205
  H  H116  1  0.342500  0.383700  0.681700  1.0  0.1219
  H  H117  1  0.187700  0.271200  0.573300  1.0  0.1181
  H  H118  1  0.185000  0.184400  0.532500  1.0  0.1067
  H  H119  1  0.346500  0.126700  0.574200  1.0  0.1085
  H  H120  1  0.349400  0.209900  0.614600  1.0  0.1162
  H  H121  1  0.614700  0.066300  0.111400  1.0  0.1214
  H  H122  1  0.694800  0.003300  0.095100  1.0  0.1047
  H  H123  1  0.745700  0.991600  0.203700  1.0  0.1128
  H  H124  1  0.664100  0.057900  0.220800  1.0  0.1159
  H  H125  1  0.806800  0.003600  0.092000  1.0  0.1167
  H  H126  1  0.878500  0.934200  0.068700  1.0  0.1067
  H  H127  1  0.854700  0.826500  0.157600  1.0  0.1083
  H  H128  1  0.780800  0.892600  0.180400  1.0  0.1129
  H  H129  1  0.356600  0.421100  0.197400  1.0  0.107
  H  H130  1  0.272100  0.473300  0.180500  1.0  0.116
  H  H131  1  0.273400  0.391600  0.082400  1.0  0.1285
  H  H132  1  0.362000  0.333500  0.100200  1.0  0.1099
  H  H133  1  0.229300  0.545300  0.157400  1.0  0.1505
  H  H134  1  0.150800  0.616300  0.139900  1.0  0.1248
  H  H135  1  0.119300  0.506900  0.050600  1.0  0.118
  H  H136  1  0.197200  0.443100  0.069500  1.0  0.1046
  H  H137  1  0.351000  0.160700  0.312900  1.0  0.1374
  H  H138  1  0.285100  0.169500  0.363300  1.0  0.0988
  H  H139  1  0.311600  0.350800  0.365700  1.0  0.1195
  H  H140  1  0.383700  0.342500  0.318300  1.0  0.1222
  H  H141  1  0.271200  0.187700  0.426700  1.0  0.1175
  H  H142  1  0.184400  0.185000  0.467500  1.0  0.1074
  H  H143  1  0.126700  0.346500  0.425800  1.0  0.1083
  H  H144  1  0.209900  0.349400  0.385400  1.0  0.1156
  H  H145  1  0.385300  0.933700  0.611400  1.0  0.1216
  H  H146  1  0.305200  0.996700  0.595100  1.0  0.1046
  H  H147  1  0.254300  0.008400  0.703700  1.0  0.1128
  H  H148  1  0.335900  0.942100  0.720800  1.0  0.1159
  H  H149  1  0.193200  0.996400  0.592000  1.0  0.116
  H  H150  1  0.121500  0.065800  0.568700  1.0  0.1066
  H  H151  1  0.145300  0.173500  0.657600  1.0  0.1091
  H  H152  1  0.219200  0.107400  0.680400  1.0  0.1134
  H  H153  1  0.643400  0.578900  0.697400  1.0  0.1066
  H  H154  1  0.727900  0.526700  0.680500  1.0  0.1162
  H  H155  1  0.726600  0.608400  0.582400  1.0  0.129
  H  H156  1  0.638000  0.666500  0.600200  1.0  0.1103
  H  H157  1  0.770700  0.454700  0.657400  1.0  0.1498
  H  H158  1  0.849200  0.383700  0.639900  1.0  0.125
  H  H159  1  0.880700  0.493100  0.550600  1.0  0.1183
  H  H160  1  0.802800  0.556900  0.569500  1.0  0.1047
  H  H161  1  0.649000  0.839300  0.812900  1.0  0.138
  H  H162  1  0.714900  0.830500  0.863300  1.0  0.0993
  H  H163  1  0.688400  0.649200  0.865700  1.0  0.1214
  H  H164  1  0.616300  0.657500  0.818300  1.0  0.1215
  H  H165  1  0.728800  0.812300  0.926700  1.0  0.1177
  H  H166  1  0.815600  0.815000  0.967500  1.0  0.1074
  H  H167  1  0.873300  0.653500  0.925800  1.0  0.1082
  H  H168  1  0.790100  0.650600  0.885400  1.0  0.1158
  H  H169  1  0.885300  0.566300  0.138600  1.0  0.1213
  H  H170  1  0.805200  0.503300  0.154900  1.0  0.1038
  H  H171  1  0.754300  0.491600  0.046300  1.0  0.112
  H  H172  1  0.835900  0.557900  0.029200  1.0  0.1159
  H  H173  1  0.693200  0.503600  0.158000  1.0  0.1163
  H  H174  1  0.621500  0.434200  0.181300  1.0  0.1063
  H  H175  1  0.645300  0.326500  0.092400  1.0  0.108
  H  H176  1  0.719200  0.392600  0.069600  1.0  0.1138
  H  H177  1  0.143400  0.921100  0.052600  1.0  0.1071
  H  H178  1  0.227900  0.973300  0.069500  1.0  0.1147
  H  H179  1  0.226600  0.891600  0.167600  1.0  0.1276
  H  H180  1  0.138000  0.833500  0.149800  1.0  0.1109
  H  H181  1  0.270700  0.045300  0.092600  1.0  0.1495
  H  H182  1  0.349200  0.116300  0.110100  1.0  0.1254
  H  H183  1  0.380700  0.006900  0.199400  1.0  0.1183
  H  H184  1  0.302800  0.943100  0.180500  1.0  0.1048
  H  H185  1  0.149000  0.660700  0.937100  1.0  0.1381
  H  H186  1  0.214900  0.669500  0.886700  1.0  0.0994
  H  H187  1  0.188400  0.850800  0.884300  1.0  0.1205
  H  H188  1  0.116300  0.842500  0.931700  1.0  0.1217
  H  H189  1  0.228800  0.687700  0.823300  1.0  0.118
  H  H190  1  0.315600  0.685000  0.782500  1.0  0.1069
  H  H191  1  0.373300  0.846500  0.824200  1.0  0.1079
  H  H192  1  0.290100  0.849400  0.864600  1.0  0.1153
  H  H193  1  0.114700  0.433700  0.638600  1.0  0.1215
  H  H194  1  0.194800  0.496700  0.654900  1.0  0.1041
  H  H195  1  0.245700  0.508400  0.546300  1.0  0.1123
  H  H196  1  0.164100  0.442100  0.529200  1.0  0.1158
  H  H197  1  0.306800  0.496400  0.658000  1.0  0.1162
  H  H198  1  0.378500  0.565800  0.681300  1.0  0.106
  H  H199  1  0.354700  0.673500  0.592400  1.0  0.1098
  H  H200  1  0.280800  0.607400  0.569600  1.0  0.1142
  H  H201  1  0.856600  0.078900  0.552600  1.0  0.1074
  H  H202  1  0.772100  0.026700  0.569500  1.0  0.1142
  H  H203  1  0.773400  0.108400  0.667600  1.0  0.1281
  H  H204  1  0.862000  0.166500  0.649800  1.0  0.111
  H  H205  1  0.729300  0.954700  0.592600  1.0  0.1501
  H  H206  1  0.650800  0.883700  0.610100  1.0  0.1242
  H  H207  1  0.619300  0.993100  0.699400  1.0  0.1186
  H  H208  1  0.697200  0.056900  0.680500  1.0  0.105
  H  H209  1  0.851000  0.339300  0.437100  1.0  0.1382
  H  H210  1  0.785100  0.330500  0.386700  1.0  0.0993
  H  H211  1  0.811600  0.149200  0.384300  1.0  0.1213
  H  H212  1  0.883700  0.157500  0.431700  1.0  0.1217
  H  H213  1  0.771200  0.312300  0.323300  1.0  0.1172
  H  H214  1  0.684400  0.315000  0.282500  1.0  0.1067
  H  H215  1  0.626700  0.153500  0.324200  1.0  0.1085
  H  H216  1  0.709900  0.150600  0.364600  1.0  0.1162
  C  C217  1  0.615200  0.915300  0.928300  1.0  0.6956
  C  C218  1  0.572100  0.865100  0.918300  1.0  -0.065
  C  C219  1  0.552500  0.857500  0.880300  1.0  -0.0779
  C  C220  1  0.514400  0.810800  0.870800  1.0  -0.1276
  C  C221  1  0.490800  0.770300  0.898400  1.0  0.0816
  C  C222  1  0.507400  0.780400  0.934600  1.0  -0.1335
  C  C223  1  0.548100  0.829200  0.945000  1.0  -0.0569
  C  C224  1  0.452000  0.717600  0.887100  1.0  0.0863
  C  C225  1  0.466400  0.685400  0.855000  1.0  -0.2241
  C  C226  1  0.425600  0.641400  0.842000  1.0  -0.0418
  C  C227  1  0.373700  0.625400  0.861200  1.0  -0.0599
  C  C228  1  0.362300  0.655200  0.893600  1.0  -0.0934
  C  C229  1  0.401300  0.700100  0.906900  1.0  -0.1488
  C  C230  1  0.330100  0.581300  0.843800  1.0  0.7091
  C  C231  1  0.828000  0.084500  0.916900  1.0  0.7101
  C  C232  1  0.866800  0.135900  0.901800  1.0  -0.0709
  C  C233  1  0.913300  0.160800  0.923300  1.0  -0.0606
  C  C234  1  0.948300  0.208000  0.912300  1.0  -0.1421
  C  C235  1  0.949400  0.228200  0.876500  1.0  0.2116
  C  C236  1  0.900600  0.207000  0.855700  1.0  -0.11
  C  C237  1  0.861800  0.156100  0.867300  1.0  -0.0798
  C  C238  1  0.991200  0.275400  0.862900  1.0  0.3172
  C  C239  1  0.039400  0.291600  0.884100  1.0  -0.116
  C  C240  1  0.083000  0.338400  0.874000  1.0  -0.1097
  C  C241  1  0.073100  0.366500  0.839600  1.0  -0.108
  C  C242  1  0.018300  0.355900  0.821600  1.0  -0.0938
  C  C243  1  0.979800  0.309900  0.833300  1.0  -0.1233
  C  C244  1  0.117600  0.415100  0.826700  1.0  0.7717
  C  C245  1  0.742600  0.078800  0.030100  1.0  0.6975
  C  C246  1  0.751600  0.126300  0.060800  1.0  -0.1177
  C  C247  1  0.699600  0.156100  0.074100  1.0  -0.146
  C  C248  1  0.705400  0.195900  0.103600  1.0  -0.1292
  C  C249  1  0.759300  0.209300  0.119600  1.0  0.1015
  C  C250  1  0.811700  0.179300  0.105300  1.0  -0.1368
  C  C251  1  0.807100  0.137500  0.076800  1.0  -0.0532
  C  C252  1  0.764500  0.254600  0.148700  1.0  0.0751
  C  C253  1  0.718800  0.259200  0.175200  1.0  -0.1668
  C  C254  1  0.718500  0.310400  0.200600  1.0  -0.0301
  C  C255  1  0.766600  0.352800  0.201000  1.0  -0.1126
  C  C256  1  0.813600  0.344700  0.176100  1.0  -0.0675
  C  C257  1  0.814600  0.296000  0.151200  1.0  -0.1228
  C  C258  1  0.764400  0.407300  0.225400  1.0  0.6743
  C  C259  1  0.384800  0.084700  0.428300  1.0  0.6949
  C  C260  1  0.427900  0.134900  0.418300  1.0  -0.0665
  C  C261  1  0.447500  0.142500  0.380300  1.0  -0.078
  C  C262  1  0.485600  0.189200  0.370800  1.0  -0.1264
  C  C263  1  0.509200  0.229700  0.398400  1.0  0.0815
  C  C264  1  0.492600  0.219600  0.434600  1.0  -0.1323
  C  C265  1  0.451900  0.170800  0.445000  1.0  -0.0562
  C  C266  1  0.548000  0.282400  0.387100  1.0  0.0859
  C  C267  1  0.533600  0.314600  0.355000  1.0  -0.2272
  C  C268  1  0.574400  0.358600  0.342000  1.0  -0.0431
  C  C269  1  0.626300  0.374600  0.361200  1.0  -0.0588
  C  C270  1  0.637700  0.344800  0.393600  1.0  -0.0958
  C  C271  1  0.598700  0.299900  0.406900  1.0  -0.1478
  C  C272  1  0.669900  0.418700  0.343800  1.0  0.7101
  C  C273  1  0.172000  0.915500  0.416900  1.0  0.7098
  C  C274  1  0.133200  0.864100  0.401800  1.0  -0.0718
  C  C275  1  0.086700  0.839200  0.423300  1.0  -0.0618
  C  C276  1  0.051700  0.792000  0.412300  1.0  -0.1427
  C  C277  1  0.050600  0.771800  0.376500  1.0  0.2112
  C  C278  1  0.099400  0.793000  0.355700  1.0  -0.1091
  C  C279  1  0.138200  0.843900  0.367300  1.0  -0.0784
  C  C280  1  0.008800  0.724600  0.362900  1.0  0.3155
  C  C281  1  0.960600  0.708400  0.384100  1.0  -0.1167
  C  C282  1  0.917000  0.661600  0.374000  1.0  -0.1117
  C  C283  1  0.926900  0.633500  0.339600  1.0  -0.1076
  C  C284  1  0.981700  0.644100  0.321600  1.0  -0.0931
  C  C285  1  0.020200  0.690100  0.333333  1.0  -0.1334
  C  C286  1  0.882400  0.584900  0.326700  1.0  0.7728
  C  C287  1  0.257400  0.921200  0.530100  1.0  0.6949
  C  C288  1  0.248400  0.873700  0.560800  1.0  -0.1169
  C  C289  1  0.300400  0.843900  0.574100  1.0  -0.1448
  C  C290  1  0.294600  0.804100  0.603600  1.0  -0.1299
  C  C291  1  0.240700  0.790700  0.619600  1.0  0.101
  C  C292  1  0.188300  0.820700  0.605300  1.0  -0.1396
  C  C293  1  0.192900  0.862500  0.576800  1.0  -0.0551
  C  C294  1  0.235500  0.745400  0.648700  1.0  0.0752
  C  C295  1  0.281200  0.740800  0.675200  1.0  -0.1669
  C  C296  1  0.281500  0.689600  0.700600  1.0  -0.0303
  C  C297  1  0.233400  0.647200  0.701000  1.0  -0.111
  C  C298  1  0.186400  0.655300  0.676100  1.0  -0.0688
  C  C299  1  0.185400  0.704000  0.651200  1.0  -0.1221
  C  C300  1  0.235600  0.592700  0.725400  1.0  0.6741
  C  C301  1  0.884800  0.415300  0.321700  1.0  0.6941
  C  C302  1  0.927900  0.365100  0.331700  1.0  -0.0656
  C  C303  1  0.947500  0.357500  0.369700  1.0  -0.08
  C  C304  1  0.985600  0.310800  0.379200  1.0  -0.1265
  C  C305  1  0.009200  0.270300  0.351600  1.0  0.08
  C  C306  1  0.992600  0.280400  0.315400  1.0  -0.1341
  C  C307  1  0.951900  0.329200  0.305000  1.0  -0.0572
  C  C308  1  0.048000  0.217600  0.362900  1.0  0.084
  C  C309  1  0.033600  0.185400  0.395000  1.0  -0.2247
  C  C310  1  0.074400  0.141400  0.408000  1.0  -0.0438
  C  C311  1  0.126300  0.125400  0.388800  1.0  -0.0611
  C  C312  1  0.137700  0.155200  0.356400  1.0  -0.0967
  C  C313  1  0.098700  0.200100  0.343100  1.0  -0.1516
  C  C314  1  0.169900  0.081300  0.406200  1.0  0.7087
  C  C315  1  0.672000  0.584500  0.333100  1.0  0.7095
  C  C316  1  0.633200  0.635900  0.348200  1.0  -0.0704
  C  C317  1  0.586700  0.660800  0.326700  1.0  -0.0615
  C  C318  1  0.551700  0.708000  0.337700  1.0  -0.1439
  C  C319  1  0.550600  0.728200  0.373500  1.0  0.2112
  C  C320  1  0.599400  0.707000  0.394300  1.0  -0.1076
  C  C321  1  0.638200  0.656100  0.382700  1.0  -0.0782
  C  C322  1  0.508800  0.775400  0.387100  1.0  0.3179
  C  C323  1  0.460600  0.791600  0.365900  1.0  -0.1172
  C  C324  1  0.417000  0.838400  0.376000  1.0  -0.1109
  C  C325  1  0.426900  0.866500  0.410400  1.0  -0.1062
  C  C326  1  0.481700  0.855900  0.428400  1.0  -0.0961
  C  C327  1  0.520200  0.809900  0.416700  1.0  -0.1237
  C  C328  1  0.382400  0.915100  0.423300  1.0  0.7738
  C  C329  1  0.757400  0.578800  0.219900  1.0  0.6957
  C  C330  1  0.748400  0.626300  0.189200  1.0  -0.1154
  C  C331  1  0.800400  0.656100  0.175900  1.0  -0.1459
  C  C332  1  0.794600  0.695900  0.146400  1.0  -0.1297
  C  C333  1  0.740700  0.709300  0.130400  1.0  0.1011
  C  C334  1  0.688300  0.679300  0.144700  1.0  -0.1389
  C  C335  1  0.692900  0.637500  0.173200  1.0  -0.055
  C  C336  1  0.735500  0.754600  0.101300  1.0  0.0751
  C  C337  1  0.781200  0.759200  0.074800  1.0  -0.1688
  C  C338  1  0.781500  0.810400  0.049400  1.0  -0.0299
  C  C339  1  0.733400  0.852800  0.049000  1.0  -0.112
  C  C340  1  0.686400  0.844700  0.073900  1.0  -0.0686
  C  C341  1  0.685400  0.796000  0.098800  1.0  -0.1222
  C  C342  1  0.735600  0.907300  0.024600  1.0  0.6737
  C  C343  1  0.115200  0.584700  0.821700  1.0  0.6954
  C  C344  1  0.072100  0.634900  0.831700  1.0  -0.0657
  C  C345  1  0.052500  0.642500  0.869700  1.0  -0.0783
  C  C346  1  0.014400  0.689200  0.879200  1.0  -0.1287
  C  C347  1  0.990800  0.729700  0.851600  1.0  0.0813
  C  C348  1  0.007400  0.719600  0.815400  1.0  -0.1355
  C  C349  1  0.048100  0.670800  0.805000  1.0  -0.0566
  C  C350  1  0.952000  0.782400  0.862900  1.0  0.0826
  C  C351  1  0.966400  0.814600  0.895000  1.0  -0.2247
  C  C352  1  0.925600  0.858600  0.908000  1.0  -0.041
  C  C353  1  0.873700  0.874600  0.888800  1.0  -0.0572
  C  C354  1  0.862300  0.844800  0.856400  1.0  -0.0941
  C  C355  1  0.901300  0.799900  0.843100  1.0  -0.1501
  C  C356  1  0.830100  0.918700  0.906200  1.0  0.7115
  C  C357  1  0.328000  0.415500  0.833100  1.0  0.7105
  C  C358  1  0.366800  0.364100  0.848200  1.0  -0.0714
  C  C359  1  0.413300  0.339200  0.826700  1.0  -0.0614
  C  C360  1  0.448300  0.292000  0.837700  1.0  -0.1446
  C  C361  1  0.449400  0.271800  0.873500  1.0  0.2112
  C  C362  1  0.400600  0.293000  0.894300  1.0  -0.1102
  C  C363  1  0.361800  0.343900  0.882700  1.0  -0.0804
  C  C364  1  0.491200  0.224600  0.887100  1.0  0.3175
  C  C365  1  0.539400  0.208400  0.865900  1.0  -0.1166
  C  C366  1  0.583000  0.161600  0.876000  1.0  -0.1093
  C  C367  1  0.573100  0.133500  0.910400  1.0  -0.1073
  C  C368  1  0.518300  0.144100  0.928400  1.0  -0.096
  C  C369  1  0.479800  0.190100  0.916700  1.0  -0.1237
  C  C370  1  0.617600  0.084900  0.923300  1.0  0.7714
  C  C371  1  0.242600  0.421200  0.719900  1.0  0.6967
  C  C372  1  0.251600  0.373700  0.689200  1.0  -0.1159
  C  C373  1  0.199600  0.343900  0.675900  1.0  -0.1473
  C  C374  1  0.205400  0.304100  0.646400  1.0  -0.1274
  C  C375  1  0.259300  0.290700  0.630400  1.0  0.102
  C  C376  1  0.311700  0.320700  0.644700  1.0  -0.1375
  C  C377  1  0.307100  0.362500  0.673200  1.0  -0.0533
  C  C378  1  0.264500  0.245400  0.601300  1.0  0.0755
  C  C379  1  0.218800  0.240800  0.574800  1.0  -0.1667
  C  C380  1  0.218500  0.189600  0.549400  1.0  -0.0292
  C  C381  1  0.266600  0.147200  0.549000  1.0  -0.1117
  C  C382  1  0.313600  0.155300  0.573900  1.0  -0.069
  C  C383  1  0.314600  0.204000  0.598800  1.0  -0.1222
  C  C384  1  0.264400  0.092700  0.524600  1.0  0.6742
  C  C385  1  0.584700  0.115200  0.178300  1.0  0.6944
  C  C386  1  0.634900  0.072100  0.168300  1.0  -0.0672
  C  C387  1  0.642500  0.052500  0.130300  1.0  -0.0774
  C  C388  1  0.689200  0.014400  0.120800  1.0  -0.1241
  C  C389  1  0.729700  0.990800  0.148400  1.0  0.0836
  C  C390  1  0.719600  0.007400  0.184600  1.0  -0.1314
  C  C391  1  0.670800  0.048100  0.195000  1.0  -0.0579
  C  C392  1  0.782400  0.952000  0.137100  1.0  0.0859
  C  C393  1  0.814600  0.966400  0.105000  1.0  -0.2219
  C  C394  1  0.858600  0.925600  0.092000  1.0  -0.04
  C  C395  1  0.874600  0.873700  0.111200  1.0  -0.0649
  C  C396  1  0.844800  0.862300  0.143600  1.0  -0.0896
  C  C397  1  0.799900  0.901300  0.156900  1.0  -0.1491
  C  C398  1  0.918700  0.830100  0.093800  1.0  0.7082
  C  C399  1  0.415500  0.328000  0.166900  1.0  0.7094
  C  C400  1  0.364100  0.366800  0.151800  1.0  -0.0705
  C  C401  1  0.339200  0.413300  0.173300  1.0  -0.0615
  C  C402  1  0.292000  0.448300  0.162300  1.0  -0.1422
  C  C403  1  0.271800  0.449400  0.126500  1.0  0.2112
  C  C404  1  0.293000  0.400600  0.105700  1.0  -0.1107
  C  C405  1  0.343900  0.361800  0.117300  1.0  -0.0792
  C  C406  1  0.224600  0.491200  0.112900  1.0  0.3182
  C  C407  1  0.208400  0.539400  0.134100  1.0  -0.1181
  C  C408  1  0.161600  0.583000  0.124000  1.0  -0.1119
  C  C409  1  0.133500  0.573100  0.089600  1.0  -0.1076
  C  C410  1  0.144100  0.518300  0.071600  1.0  -0.095
  C  C411  1  0.190100  0.479800  0.083300  1.0  -0.125
  C  C412  1  0.084900  0.617600  0.076700  1.0  0.7729
  C  C413  1  0.421200  0.242600  0.280100  1.0  0.6993
  C  C414  1  0.373700  0.251600  0.310800  1.0  -0.1166
  C  C415  1  0.343900  0.199600  0.324100  1.0  -0.1476
  C  C416  1  0.304100  0.205400  0.353600  1.0  -0.1306
  C  C417  1  0.290700  0.259300  0.369600  1.0  0.1024
  C  C418  1  0.320700  0.311700  0.355300  1.0  -0.1425
  C  C419  1  0.362500  0.307100  0.326800  1.0  -0.0588
  C  C420  1  0.245400  0.264500  0.398700  1.0  0.0746
  C  C421  1  0.240800  0.218800  0.425200  1.0  -0.1672
  C  C422  1  0.189600  0.218500  0.450600  1.0  -0.0318
  C  C423  1  0.147200  0.266600  0.451000  1.0  -0.113
  C  C424  1  0.155300  0.313600  0.426100  1.0  -0.0615
  C  C425  1  0.204000  0.314600  0.401200  1.0  -0.127
  C  C426  1  0.092700  0.264400  0.475400  1.0  0.6723
  C  C427  1  0.415300  0.884800  0.678300  1.0  0.693
  C  C428  1  0.365100  0.927900  0.668300  1.0  -0.0664
  C  C429  1  0.357500  0.947500  0.630300  1.0  -0.0773
  C  C430  1  0.310800  0.985600  0.620800  1.0  -0.1249
  C  C431  1  0.270300  0.009200  0.648400  1.0  0.0825
  C  C432  1  0.280400  0.992600  0.684600  1.0  -0.1317
  C  C433  1  0.329200  0.951900  0.695000  1.0  -0.0568
  C  C434  1  0.217600  0.048000  0.637100  1.0  0.0864
  C  C435  1  0.185400  0.033600  0.605000  1.0  -0.222
  C  C436  1  0.141400  0.074400  0.592000  1.0  -0.0437
  C  C437  1  0.125400  0.126300  0.611200  1.0  -0.0658
  C  C438  1  0.155200  0.137700  0.643600  1.0  -0.0905
  C  C439  1  0.200100  0.098700  0.656900  1.0  -0.148
  C  C440  1  0.081300  0.169900  0.593800  1.0  0.709
  C  C441  1  0.584500  0.672000  0.666900  1.0  0.7089
  C  C442  1  0.635900  0.633200  0.651800  1.0  -0.0712
  C  C443  1  0.660800  0.586700  0.673300  1.0  -0.0613
  C  C444  1  0.708000  0.551700  0.662300  1.0  -0.1421
  C  C445  1  0.728200  0.550600  0.626500  1.0  0.2115
  C  C446  1  0.707000  0.599400  0.605700  1.0  -0.1106
  C  C447  1  0.656100  0.638200  0.617300  1.0  -0.0805
  C  C448  1  0.775400  0.508800  0.612900  1.0  0.3175
  C  C449  1  0.791600  0.460600  0.634100  1.0  -0.1169
  C  C450  1  0.838400  0.417000  0.624000  1.0  -0.1091
  C  C451  1  0.866500  0.426900  0.589600  1.0  -0.1062
  C  C452  1  0.855900  0.481700  0.571600  1.0  -0.0957
  C  C453  1  0.809900  0.520200  0.583300  1.0  -0.1258
  C  C454  1  0.915100  0.382400  0.576700  1.0  0.7719
  C  C455  1  0.578800  0.757400  0.780100  1.0  0.698
  C  C456  1  0.626300  0.748400  0.810800  1.0  -0.1153
  C  C457  1  0.656100  0.800400  0.824100  1.0  -0.1454
  C  C458  1  0.695900  0.794600  0.853600  1.0  -0.1308
  C  C459  1  0.709300  0.740700  0.869600  1.0  0.103
  C  C460  1  0.679300  0.688300  0.855300  1.0  -0.1438
  C  C461  1  0.637500  0.692900  0.826800  1.0  -0.0609
  C  C462  1  0.754600  0.735500  0.898700  1.0  0.0741
  C  C463  1  0.759200  0.781200  0.925200  1.0  -0.1682
  C  C464  1  0.810400  0.781500  0.950600  1.0  -0.0317
  C  C465  1  0.852800  0.733400  0.951000  1.0  -0.1128
  C  C466  1  0.844700  0.686400  0.926100  1.0  -0.07
  C  C467  1  0.796000  0.685400  0.901200  1.0  -0.125
  C  C468  1  0.907300  0.735600  0.975400  1.0  0.6724
  C  C469  1  0.915300  0.615200  0.071700  1.0  0.6933
  C  C470  1  0.865100  0.572100  0.081700  1.0  -0.0667
  C  C471  1  0.857500  0.552500  0.119700  1.0  -0.0777
  C  C472  1  0.810800  0.514400  0.129200  1.0  -0.1243
  C  C473  1  0.770300  0.490800  0.101600  1.0  0.0818
  C  C474  1  0.780400  0.507400  0.065400  1.0  -0.1322
  C  C475  1  0.829200  0.548100  0.055000  1.0  -0.0574
  C  C476  1  0.717600  0.452000  0.112900  1.0  0.084
  C  C477  1  0.685400  0.466400  0.145000  1.0  -0.2215
  C  C478  1  0.641400  0.425600  0.158000  1.0  -0.0429
  C  C479  1  0.625400  0.373700  0.138800  1.0  -0.0658
  C  C480  1  0.655200  0.362300  0.106400  1.0  -0.0913
  C  C481  1  0.700100  0.401300  0.093100  1.0  -0.1502
  C  C482  1  0.581300  0.330100  0.156200  1.0  0.7087
  C  C483  1  0.084500  0.828000  0.083100  1.0  0.7087
  C  C484  1  0.135900  0.866800  0.098200  1.0  -0.0711
  C  C485  1  0.160800  0.913300  0.076700  1.0  -0.0616
  C  C486  1  0.208000  0.948300  0.087700  1.0  -0.1447
  C  C487  1  0.228200  0.949400  0.123500  1.0  0.2114
  C  C488  1  0.207000  0.900600  0.144300  1.0  -0.1095
  C  C489  1  0.156100  0.861800  0.132700  1.0  -0.0808
  C  C490  1  0.275400  0.991200  0.137100  1.0  0.3176
  C  C491  1  0.291600  0.039400  0.115900  1.0  -0.1196
  C  C492  1  0.338400  0.083000  0.126000  1.0  -0.1105
  C  C493  1  0.366500  0.073100  0.160400  1.0  -0.106
  C  C494  1  0.355900  0.018300  0.178400  1.0  -0.0961
  C  C495  1  0.309900  0.979800  0.166700  1.0  -0.1248
  C  C496  1  0.415100  0.117600  0.173300  1.0  0.7726
  C  C497  1  0.078800  0.742600  0.969900  1.0  0.6986
  C  C498  1  0.126300  0.751600  0.939200  1.0  -0.1142
  C  C499  1  0.156100  0.699600  0.925900  1.0  -0.147
  C  C500  1  0.195900  0.705400  0.896400  1.0  -0.1292
  C  C501  1  0.209300  0.759300  0.880400  1.0  0.103
  C  C502  1  0.179300  0.811700  0.894700  1.0  -0.1416
  C  C503  1  0.137500  0.807100  0.923200  1.0  -0.059
  C  C504  1  0.254600  0.764500  0.851300  1.0  0.0742
  C  C505  1  0.259200  0.718800  0.824800  1.0  -0.1686
  C  C506  1  0.310400  0.718500  0.799400  1.0  -0.0314
  C  C507  1  0.352800  0.766600  0.799000  1.0  -0.1135
  C  C508  1  0.344700  0.813600  0.823900  1.0  -0.0641
  C  C509  1  0.296000  0.814600  0.848800  1.0  -0.1264
  C  C510  1  0.407300  0.764400  0.774600  1.0  0.6721
  C  C511  1  0.084700  0.384800  0.571700  1.0  0.6936
  C  C512  1  0.134900  0.427900  0.581700  1.0  -0.0666
  C  C513  1  0.142500  0.447500  0.619700  1.0  -0.0784
  C  C514  1  0.189200  0.485600  0.629200  1.0  -0.1245
  C  C515  1  0.229700  0.509200  0.601600  1.0  0.0826
  C  C516  1  0.219600  0.492600  0.565400  1.0  -0.1343
  C  C517  1  0.170800  0.451900  0.555000  1.0  -0.0579
  C  C518  1  0.282400  0.548000  0.612900  1.0  0.0827
  C  C519  1  0.314600  0.533600  0.645000  1.0  -0.2223
  C  C520  1  0.358600  0.574400  0.658000  1.0  -0.0392
  C  C521  1  0.374600  0.626300  0.638800  1.0  -0.0647
  C  C522  1  0.344800  0.637700  0.606400  1.0  -0.0897
  C  C523  1  0.299900  0.598700  0.593100  1.0  -0.1508
  C  C524  1  0.418700  0.669900  0.656200  1.0  0.7088
  C  C525  1  0.915500  0.172000  0.583100  1.0  0.7101
  C  C526  1  0.864100  0.133200  0.598200  1.0  -0.0709
  C  C527  1  0.839200  0.086700  0.576700  1.0  -0.0611
  C  C528  1  0.792000  0.051700  0.587700  1.0  -0.1436
  C  C529  1  0.771800  0.050600  0.623500  1.0  0.2113
  C  C530  1  0.793000  0.099400  0.644300  1.0  -0.1101
  C  C531  1  0.843900  0.138200  0.632700  1.0  -0.0792
  C  C532  1  0.724600  0.008800  0.637100  1.0  0.3161
  C  C533  1  0.708400  0.960600  0.615900  1.0  -0.1192
  C  C534  1  0.661600  0.917000  0.626000  1.0  -0.1105
  C  C535  1  0.633500  0.926900  0.660400  1.0  -0.106
  C  C536  1  0.644100  0.981700  0.678400  1.0  -0.0941
  C  C537  1  0.690100  0.020200  0.666667  1.0  -0.135
  C  C538  1  0.584900  0.882400  0.673300  1.0  0.7728
  C  C539  1  0.921200  0.257400  0.469900  1.0  0.6992
  C  C540  1  0.873700  0.248400  0.439200  1.0  -0.1149
  C  C541  1  0.843900  0.300400  0.425900  1.0  -0.1487
  C  C542  1  0.804100  0.294600  0.396400  1.0  -0.1306
  C  C543  1  0.790700  0.240700  0.380400  1.0  0.1029
  C  C544  1  0.820700  0.188300  0.394700  1.0  -0.1437
  C  C545  1  0.862500  0.192900  0.423200  1.0  -0.0614
  C  C546  1  0.745400  0.235500  0.351300  1.0  0.0743
  C  C547  1  0.740800  0.281200  0.324800  1.0  -0.1686
  C  C548  1  0.689600  0.281500  0.299400  1.0  -0.0311
  C  C549  1  0.647200  0.233400  0.299000  1.0  -0.1128
  C  C550  1  0.655300  0.186400  0.323900  1.0  -0.0662
  C  C551  1  0.704000  0.185400  0.348800  1.0  -0.1262
  C  C552  1  0.592700  0.235600  0.274600  1.0  0.6717
  O  O553  1  0.647600  0.939100  0.902400  1.0  -0.6033
  O  O554  1  0.614700  0.931400  0.962700  1.0  -0.6132
  O  O555  1  0.344200  0.559100  0.812800  1.0  -0.621
  O  O556  1  0.279000  0.568800  0.861000  1.0  -0.6029
  O  O557  1  0.838400  0.067800  0.949800  1.0  -0.5975
  O  O558  1  0.788900  0.062500  0.894500  1.0  -0.6304
  O  O559  1  0.107800  0.436700  0.795300  1.0  -0.5949
  O  O560  1  0.157200  0.430100  0.848800  1.0  -0.5993
  O  O561  1  0.790400  0.048700  0.020400  1.0  -0.6086
  O  O562  1  0.689900  0.072800  0.016600  1.0  -0.5732
  O  O563  1  0.810300  0.442000  0.225100  1.0  -0.6018
  O  O564  1  0.716000  0.415900  0.243900  1.0  -0.5733
  O  O565  1  0.726800  0.997700  0.955140  1.0  -1.0175
  O  O566  1  0.352400  0.060900  0.402400  1.0  -0.603
  O  O567  1  0.385300  0.068600  0.462700  1.0  -0.6128
  O  O568  1  0.655800  0.440900  0.312800  1.0  -0.6229
  O  O569  1  0.721000  0.431200  0.361000  1.0  -0.6013
  O  O570  1  0.161600  0.932200  0.449800  1.0  -0.5969
  O  O571  1  0.211100  0.937500  0.394500  1.0  -0.6316
  O  O572  1  0.892200  0.563300  0.295300  1.0  -0.5947
  O  O573  1  0.842800  0.569900  0.348800  1.0  -0.5989
  O  O574  1  0.209600  0.951300  0.520400  1.0  -0.6079
  O  O575  1  0.310100  0.927200  0.516600  1.0  -0.5758
  O  O576  1  0.189700  0.558000  0.725100  1.0  -0.6025
  O  O577  1  0.284000  0.584100  0.743900  1.0  -0.5729
  O  O578  1  0.273200  0.002300  0.455140  1.0  -1.017
  O  O579  1  0.852400  0.439100  0.347600  1.0  -0.6015
  O  O580  1  0.885300  0.431400  0.287300  1.0  -0.6122
  O  O581  1  0.155800  0.059100  0.437200  1.0  -0.6238
  O  O582  1  0.221000  0.068800  0.389000  1.0  -0.604
  O  O583  1  0.661600  0.567800  0.300200  1.0  -0.5974
  O  O584  1  0.711100  0.562500  0.355500  1.0  -0.6312
  O  O585  1  0.392200  0.936700  0.454700  1.0  -0.5938
  O  O586  1  0.342800  0.930100  0.401200  1.0  -0.5993
  O  O587  1  0.709600  0.548700  0.229600  1.0  -0.6076
  O  O588  1  0.810100  0.572800  0.233400  1.0  -0.5762
  O  O589  1  0.689700  0.942000  0.024900  1.0  -0.6027
  O  O590  1  0.784000  0.915900  0.006100  1.0  -0.5733
  O  O591  1  0.773200  0.497700  0.294860  1.0  -1.0167
  O  O592  1  0.147600  0.560900  0.847600  1.0  -0.6035
  O  O593  1  0.114700  0.568600  0.787300  1.0  -0.6137
  O  O594  1  0.844200  0.940900  0.937200  1.0  -0.6223
  O  O595  1  0.779000  0.931200  0.889000  1.0  -0.603
  O  O596  1  0.338400  0.432200  0.800200  1.0  -0.5973
  O  O597  1  0.288900  0.437500  0.855500  1.0  -0.6302
  O  O598  1  0.607800  0.063300  0.954700  1.0  -0.5947
  O  O599  1  0.657200  0.069900  0.901200  1.0  -0.6004
  O  O600  1  0.290400  0.451300  0.729600  1.0  -0.6083
  O  O601  1  0.189900  0.427200  0.733400  1.0  -0.5732
  O  O602  1  0.310300  0.058000  0.524900  1.0  -0.6018
  O  O603  1  0.216000  0.084100  0.506100  1.0  -0.5737
  O  O604  1  0.226800  0.502300  0.794860  1.0  -1.0173
  O  O605  1  0.560900  0.147600  0.152400  1.0  -0.6011
  O  O606  1  0.568600  0.114700  0.212700  1.0  -0.612
  O  O607  1  0.940900  0.844200  0.062800  1.0  -0.6205
  O  O608  1  0.931200  0.779000  0.111000  1.0  -0.6049
  O  O609  1  0.432200  0.338400  0.199800  1.0  -0.5992
  O  O610  1  0.437500  0.288900  0.144500  1.0  -0.6341
  O  O611  1  0.063300  0.607800  0.045300  1.0  -0.5949
  O  O612  1  0.069900  0.657200  0.098800  1.0  -0.603
  O  O613  1  0.451300  0.290400  0.270400  1.0  -0.6117
  O  O614  1  0.427200  0.189900  0.266600  1.0  -0.5759
  O  O615  1  0.058000  0.310300  0.475100  1.0  -0.6
  O  O616  1  0.084100  0.216000  0.493900  1.0  -0.5742
  O  O617  1  0.502300  0.226800  0.205140  1.0  -1.0164
  O  O618  1  0.439100  0.852400  0.652400  1.0  -0.6013
  O  O619  1  0.431400  0.885300  0.712700  1.0  -0.6128
  O  O620  1  0.059100  0.155800  0.562800  1.0  -0.6225
  O  O621  1  0.068800  0.221000  0.611000  1.0  -0.6047
  O  O622  1  0.567800  0.661600  0.699800  1.0  -0.5981
  O  O623  1  0.562500  0.711100  0.644500  1.0  -0.6354
  O  O624  1  0.936700  0.392200  0.545300  1.0  -0.595
  O  O625  1  0.930100  0.342800  0.598800  1.0  -0.604
  O  O626  1  0.548700  0.709600  0.770400  1.0  -0.6122
  O  O627  1  0.572800  0.810100  0.766600  1.0  -0.5766
  O  O628  1  0.942000  0.689700  0.975100  1.0  -0.6023
  O  O629  1  0.915900  0.784000  0.993900  1.0  -0.5741
  O  O630  1  0.497700  0.773200  0.705140  1.0  -1.0167
  O  O631  1  0.939100  0.647600  0.097600  1.0  -0.6009
  O  O632  1  0.931400  0.614700  0.037300  1.0  -0.6119
  O  O633  1  0.559100  0.344200  0.187200  1.0  -0.624
  O  O634  1  0.568800  0.279000  0.139000  1.0  -0.6062
  O  O635  1  0.067800  0.838400  0.050200  1.0  -0.599
  O  O636  1  0.062500  0.788900  0.105500  1.0  -0.6339
  O  O637  1  0.436700  0.107800  0.204700  1.0  -0.5952
  O  O638  1  0.430100  0.157200  0.151200  1.0  -0.605
  O  O639  1  0.048700  0.790400  0.979600  1.0  -0.6103
  O  O640  1  0.072800  0.689900  0.983400  1.0  -0.5777
  O  O641  1  0.442000  0.810300  0.774900  1.0  -0.6008
  O  O642  1  0.415900  0.716000  0.756100  1.0  -0.5741
  O  O643  1  0.997700  0.726800  0.044860  1.0  -1.0172
  O  O644  1  0.060900  0.352400  0.597600  1.0  -0.6014
  O  O645  1  0.068600  0.385300  0.537300  1.0  -0.6128
  O  O646  1  0.440900  0.655800  0.687200  1.0  -0.623
  O  O647  1  0.431200  0.721000  0.639000  1.0  -0.6054
  O  O648  1  0.932200  0.161600  0.550200  1.0  -0.5987
  O  O649  1  0.937500  0.211100  0.605500  1.0  -0.6353
  O  O650  1  0.563300  0.892200  0.704700  1.0  -0.5941
  O  O651  1  0.569900  0.842800  0.651200  1.0  -0.6033
  O  O652  1  0.951300  0.209600  0.479600  1.0  -0.6109
  O  O653  1  0.927200  0.310100  0.483400  1.0  -0.5747
  O  O654  1  0.558000  0.189700  0.274900  1.0  -0.6017
  O  O655  1  0.584100  0.284000  0.256100  1.0  -0.575
  O  O656  1  0.002300  0.273200  0.544860  1.0  -1.0156
