# generated using pymatgen
data_Mn3H22(C21O8)2
_symmetry_space_group_name_H-M   'P 1'
_cell_length_a   9.37960000
_cell_length_b   17.45710000
_cell_length_c   17.45710000
_cell_angle_alpha   103.55900000
_cell_angle_beta   102.82500000
_cell_angle_gamma   77.17490000
_symmetry_Int_Tables_number   1
_chemical_formula_structural   Mn3H22(C21O8)2
_chemical_formula_sum   'Mn6 H44 C84 O32'
_cell_volume   2665.54796646
_cell_formula_units_Z   2
loop_
 _symmetry_equiv_pos_site_id
 _symmetry_equiv_pos_as_xyz
  1  'x, y, z'
loop_
 _atom_site_type_symbol
 _atom_site_label
 _atom_site_symmetry_multiplicity
 _atom_site_fract_x
 _atom_site_fract_y
 _atom_site_fract_z
 _atom_site_occupancy
 _atom_site_charge
  Mn  Mn1  1  0.561000  0.686340  0.180470  1.0  1.1585
  Mn  Mn2  1  0.939000  0.180470  0.686340  1.0  1.1572
  Mn  Mn3  1  0.439000  0.313660  0.819530  1.0  1.1556
  Mn  Mn4  1  0.061000  0.819530  0.313660  1.0  1.1591
  Mn  Mn5  1  0.500000  0.500000  0.000000  1.0  1.2783
  Mn  Mn6  1  0.000000  0.000000  0.500000  1.0  1.2783
  H  H7  1  0.573800  0.626900  0.838300  1.0  0.1294
  H  H8  1  0.573300  0.840700  0.791500  1.0  0.1484
  H  H9  1  0.582500  0.818900  0.016500  1.0  0.1187
  H  H10  1  0.316100  0.935200  0.849400  1.0  0.1223
  H  H11  1  0.199000  0.031800  0.775600  1.0  0.0961
  H  H12  1  0.560100  0.134300  0.841900  1.0  0.0885
  H  H13  1  0.679400  0.035500  0.914100  1.0  0.1142
  H  H14  1  0.315600  0.793900  0.718100  1.0  0.1185
  H  H15  1  0.175800  0.844900  0.608500  1.0  0.0892
  H  H16  1  0.484900  0.728300  0.479100  1.0  0.109
  H  H17  1  0.630400  0.680800  0.589600  1.0  0.1351
  H  H18  1  0.926200  0.838300  0.626900  1.0  0.1308
  H  H19  1  0.926700  0.791500  0.840700  1.0  0.1476
  H  H20  1  0.917500  0.016500  0.818900  1.0  0.1184
  H  H21  1  0.183900  0.849400  0.935200  1.0  0.1234
  H  H22  1  0.301000  0.775600  0.031800  1.0  0.0951
  H  H23  1  0.939900  0.841900  0.134300  1.0  0.0888
  H  H24  1  0.820600  0.914100  0.035500  1.0  0.1137
  H  H25  1  0.184400  0.718100  0.793900  1.0  0.1176
  H  H26  1  0.324200  0.608500  0.844900  1.0  0.0884
  H  H27  1  0.015100  0.479100  0.728300  1.0  0.1089
  H  H28  1  0.869600  0.589600  0.680800  1.0  0.1363
  H  H29  1  0.426200  0.373100  0.161700  1.0  0.1311
  H  H30  1  0.426700  0.159300  0.208500  1.0  0.1482
  H  H31  1  0.417500  0.181100  0.983500  1.0  0.1183
  H  H32  1  0.683900  0.064800  0.150600  1.0  0.1224
  H  H33  1  0.801000  0.968200  0.224400  1.0  0.097
  H  H34  1  0.439900  0.865700  0.158100  1.0  0.0894
  H  H35  1  0.320600  0.964500  0.085900  1.0  0.1148
  H  H36  1  0.684400  0.206100  0.281900  1.0  0.1184
  H  H37  1  0.824200  0.155100  0.391500  1.0  0.09
  H  H38  1  0.515100  0.271700  0.520900  1.0  0.109
  H  H39  1  0.369600  0.319200  0.410400  1.0  0.1349
  H  H40  1  0.073800  0.161700  0.373100  1.0  0.131
  H  H41  1  0.073300  0.208500  0.159300  1.0  0.147
  H  H42  1  0.082500  0.983500  0.181100  1.0  0.1187
  H  H43  1  0.816100  0.150600  0.064800  1.0  0.1233
  H  H44  1  0.699000  0.224400  0.968200  1.0  0.0952
  H  H45  1  0.060100  0.158100  0.865700  1.0  0.0887
  H  H46  1  0.179400  0.085900  0.964500  1.0  0.114
  H  H47  1  0.815600  0.281900  0.206100  1.0  0.1181
  H  H48  1  0.675800  0.391500  0.155100  1.0  0.0885
  H  H49  1  0.984900  0.520900  0.271700  1.0  0.1097
  H  H50  1  0.130400  0.410400  0.319200  1.0  0.136
  C  C51  1  0.579700  0.664510  0.995850  1.0  0.732
  C  C52  1  0.580100  0.715280  0.936400  1.0  -0.0827
  C  C53  1  0.574700  0.681340  0.856140  1.0  -0.2115
  C  C54  1  0.570600  0.729390  0.802870  1.0  0.3123
  C  C55  1  0.573000  0.809300  0.827660  1.0  -0.344
  C  C56  1  0.574900  0.842500  0.907860  1.0  0.2948
  C  C57  1  0.579700  0.795990  0.962590  1.0  -0.2019
  C  C58  1  0.507400  0.976930  0.888690  1.0  0.2817
  C  C59  1  0.365000  0.975440  0.847620  1.0  -0.2251
  C  C60  1  0.295200  0.033110  0.803990  1.0  0.022
  C  C61  1  0.367600  0.093460  0.802060  1.0  -0.2012
  C  C62  1  0.510900  0.094010  0.843330  1.0  0.018
  C  C63  1  0.582300  0.035350  0.886690  1.0  -0.2184
  C  C64  1  0.287600  0.157700  0.756660  1.0  0.7778
  C  C65  1  0.483900  0.730870  0.663270  1.0  0.3034
  C  C66  1  0.349800  0.780450  0.669810  1.0  -0.2561
  C  C67  1  0.265800  0.810300  0.603880  1.0  0.0058
  C  C68  1  0.313800  0.789490  0.531670  1.0  -0.1874
  C  C69  1  0.450100  0.741560  0.527320  1.0  0.0115
  C  C70  1  0.537200  0.712390  0.593170  1.0  -0.2181
  C  C71  1  0.218900  0.814530  0.457590  1.0  0.6908
  C  C72  1  0.920300  0.995850  0.664510  1.0  0.7343
  C  C73  1  0.919900  0.936400  0.715280  1.0  -0.0823
  C  C74  1  0.925300  0.856140  0.681340  1.0  -0.2007
  C  C75  1  0.929400  0.802870  0.729390  1.0  0.3098
  C  C76  1  0.927000  0.827660  0.809300  1.0  -0.3432
  C  C77  1  0.925100  0.907860  0.842500  1.0  0.2944
  C  C78  1  0.920300  0.962590  0.795990  1.0  -0.2027
  C  C79  1  0.992600  0.888690  0.976930  1.0  0.2814
  C  C80  1  0.135000  0.847620  0.975440  1.0  -0.2267
  C  C81  1  0.204800  0.803990  0.033110  1.0  0.0183
  C  C82  1  0.132400  0.802060  0.093460  1.0  -0.1979
  C  C83  1  0.989100  0.843330  0.094010  1.0  0.0104
  C  C84  1  0.917700  0.886690  0.035350  1.0  -0.2158
  C  C85  1  0.212400  0.756660  0.157700  1.0  0.7689
  C  C86  1  0.016100  0.663270  0.730870  1.0  0.3038
  C  C87  1  0.150200  0.669810  0.780450  1.0  -0.2551
  C  C88  1  0.234200  0.603880  0.810300  1.0  0.0032
  C  C89  1  0.186200  0.531670  0.789490  1.0  -0.1876
  C  C90  1  0.049900  0.527320  0.741560  1.0  0.0167
  C  C91  1  0.962800  0.593170  0.712390  1.0  -0.2162
  C  C92  1  0.281100  0.457590  0.814530  1.0  0.6905
  C  C93  1  0.420300  0.335490  0.004150  1.0  0.7324
  C  C94  1  0.419900  0.284720  0.063600  1.0  -0.0898
  C  C95  1  0.425300  0.318660  0.143860  1.0  -0.2114
  C  C96  1  0.429400  0.270610  0.197130  1.0  0.3129
  C  C97  1  0.427000  0.190700  0.172340  1.0  -0.3445
  C  C98  1  0.425100  0.157500  0.092140  1.0  0.2955
  C  C99  1  0.420300  0.204010  0.037410  1.0  -0.2023
  C  C100  1  0.492600  0.023070  0.111310  1.0  0.2839
  C  C101  1  0.635000  0.024560  0.152380  1.0  -0.2267
  C  C102  1  0.704800  0.966890  0.196010  1.0  0.0228
  C  C103  1  0.632400  0.906540  0.197940  1.0  -0.199
  C  C104  1  0.489100  0.905990  0.156670  1.0  0.0177
  C  C105  1  0.417700  0.964650  0.113310  1.0  -0.2163
  C  C106  1  0.712400  0.842300  0.243340  1.0  0.7799
  C  C107  1  0.516100  0.269130  0.336730  1.0  0.3045
  C  C108  1  0.650200  0.219550  0.330190  1.0  -0.2547
  C  C109  1  0.734200  0.189700  0.396120  1.0  0.0036
  C  C110  1  0.686200  0.210510  0.468330  1.0  -0.1869
  C  C111  1  0.549900  0.258440  0.472680  1.0  0.0124
  C  C112  1  0.462800  0.287610  0.406830  1.0  -0.2156
  C  C113  1  0.781100  0.185470  0.542410  1.0  0.6923
  C  C114  1  0.079700  0.004150  0.335490  1.0  0.7341
  C  C115  1  0.080100  0.063600  0.284720  1.0  -0.0796
  C  C116  1  0.074700  0.143860  0.318660  1.0  -0.2021
  C  C117  1  0.070600  0.197130  0.270610  1.0  0.311
  C  C118  1  0.073000  0.172340  0.190700  1.0  -0.3413
  C  C119  1  0.074900  0.092140  0.157500  1.0  0.2952
  C  C120  1  0.079700  0.037410  0.204010  1.0  -0.2016
  C  C121  1  0.007400  0.111310  0.023070  1.0  0.2811
  C  C122  1  0.865000  0.152380  0.024560  1.0  -0.226
  C  C123  1  0.795200  0.196010  0.966890  1.0  0.0177
  C  C124  1  0.867600  0.197940  0.906540  1.0  -0.1947
  C  C125  1  0.010900  0.156670  0.905990  1.0  0.0116
  C  C126  1  0.082300  0.113310  0.964650  1.0  -0.2165
  C  C127  1  0.787600  0.243340  0.842300  1.0  0.7699
  C  C128  1  0.983900  0.336730  0.269130  1.0  0.3037
  C  C129  1  0.849800  0.330190  0.219550  1.0  -0.2572
  C  C130  1  0.765800  0.396120  0.189700  1.0  0.0033
  C  C131  1  0.813800  0.468330  0.210510  1.0  -0.187
  C  C132  1  0.950100  0.472680  0.258440  1.0  0.0164
  C  C133  1  0.037200  0.406830  0.287610  1.0  -0.2173
  C  C134  1  0.718900  0.542410  0.185470  1.0  0.6892
  O  O135  1  0.568900  0.593540  0.968300  1.0  -0.6548
  O  O136  1  0.591300  0.698690  0.067630  1.0  -0.6146
  O  O137  1  0.579400  0.922480  0.937640  1.0  -0.2366
  O  O138  1  0.161700  0.149980  0.717560  1.0  -0.6717
  O  O139  1  0.349900  0.213460  0.757520  1.0  -0.6464
  O  O140  1  0.570700  0.692580  0.723460  1.0  -0.2618
  O  O141  1  0.094400  0.860670  0.459810  1.0  -0.7097
  O  O142  1  0.263700  0.784830  0.392330  1.0  -0.5671
  O  O143  1  0.931100  0.968300  0.593540  1.0  -0.653
  O  O144  1  0.908700  0.067630  0.698690  1.0  -0.6157
  O  O145  1  0.920600  0.937640  0.922480  1.0  -0.236
  O  O146  1  0.338300  0.717560  0.149980  1.0  -0.6773
  O  O147  1  0.150100  0.757520  0.213460  1.0  -0.6516
  O  O148  1  0.929300  0.723460  0.692580  1.0  -0.2648
  O  O149  1  0.405600  0.459810  0.860670  1.0  -0.7122
  O  O150  1  0.236300  0.392330  0.784830  1.0  -0.5664
  O  O151  1  0.431100  0.406460  0.031700  1.0  -0.6549
  O  O152  1  0.408700  0.301310  0.932370  1.0  -0.615
  O  O153  1  0.420600  0.077520  0.062360  1.0  -0.2369
  O  O154  1  0.838300  0.850020  0.282440  1.0  -0.6715
  O  O155  1  0.650100  0.786540  0.242480  1.0  -0.6438
  O  O156  1  0.429300  0.307420  0.276540  1.0  -0.2635
  O  O157  1  0.905600  0.139330  0.540190  1.0  -0.7115
  O  O158  1  0.736300  0.215170  0.607670  1.0  -0.5674
  O  O159  1  0.068900  0.031700  0.406460  1.0  -0.6534
  O  O160  1  0.091300  0.932370  0.301310  1.0  -0.6164
  O  O161  1  0.079400  0.062360  0.077520  1.0  -0.2363
  O  O162  1  0.661700  0.282440  0.850020  1.0  -0.684
  O  O163  1  0.849900  0.242480  0.786540  1.0  -0.6621
  O  O164  1  0.070700  0.276540  0.307420  1.0  -0.264
  O  O165  1  0.594400  0.540190  0.139330  1.0  -0.7117
  O  O166  1  0.763700  0.607670  0.215170  1.0  -0.5651
