# generated using pymatgen
data_CdH24C36(NF2)4
_symmetry_space_group_name_H-M   'P 1'
_cell_length_a   13.45880000
_cell_length_b   13.45880000
_cell_length_c   17.11880000
_cell_angle_alpha   111.33500000
_cell_angle_beta   111.33500000
_cell_angle_gamma   90.49670000
_symmetry_Int_Tables_number   1
_chemical_formula_structural   CdH24C36(NF2)4
_chemical_formula_sum   'Cd2 H48 C72 N8 F16'
_cell_volume   2654.65573473
_cell_formula_units_Z   2
loop_
 _symmetry_equiv_pos_site_id
 _symmetry_equiv_pos_as_xyz
  1  'x, y, z'
loop_
 _atom_site_type_symbol
 _atom_site_label
 _atom_site_symmetry_multiplicity
 _atom_site_fract_x
 _atom_site_fract_y
 _atom_site_fract_z
 _atom_site_occupancy
 _atom_site_charge
  Cd  Cd1  1  0.625380  0.374620  0.250000  1.0  0.5418
  Cd  Cd2  1  0.374620  0.625380  0.750000  1.0  0.5436
  H  H3  1  0.516400  0.154200  0.056400  1.0  0.0757
  H  H4  1  0.821500  0.322300  0.186800  1.0  0.0576
  H  H5  1  0.576400  0.016200  0.953900  1.0  0.1065
  H  H6  1  0.880600  0.193800  0.087400  1.0  0.1072
  H  H7  1  0.729600  0.938000  0.932000  1.0  0.1234
  H  H8  1  0.732400  0.003400  0.887000  1.0  0.121
  H  H9  1  0.626900  0.488900  0.452300  1.0  0.0607
  H  H10  1  0.588500  0.611100  0.275200  1.0  0.0517
  H  H11  1  0.640200  0.662800  0.562900  1.0  0.1148
  H  H12  1  0.606400  0.783200  0.381000  1.0  0.1064
  H  H13  1  0.627400  0.846400  0.606800  1.0  0.105
  H  H14  1  0.713000  0.889400  0.580200  1.0  0.1155
  H  H15  1  0.845800  0.483600  0.443600  1.0  0.0797
  H  H16  1  0.677700  0.178500  0.313200  1.0  0.0574
  H  H17  1  0.983800  0.423600  0.546100  1.0  0.1079
  H  H18  1  0.806200  0.119400  0.412600  1.0  0.1078
  H  H19  1  0.062000  0.270400  0.568000  1.0  0.1209
  H  H20  1  0.996600  0.267600  0.613000  1.0  0.1113
  H  H21  1  0.511100  0.373100  0.047700  1.0  0.0594
  H  H22  1  0.388900  0.411500  0.224800  1.0  0.0519
  H  H23  1  0.337200  0.359800  0.937100  1.0  0.1138
  H  H24  1  0.216800  0.393600  0.119000  1.0  0.106
  H  H25  1  0.153600  0.372600  0.893200  1.0  0.1057
  H  H26  1  0.110600  0.287000  0.919800  1.0  0.1139
  H  H27  1  0.483600  0.845800  0.943600  1.0  0.0769
  H  H28  1  0.178500  0.677700  0.813200  1.0  0.0588
  H  H29  1  0.423600  0.983800  0.046100  1.0  0.1063
  H  H30  1  0.119400  0.806200  0.912600  1.0  0.1084
  H  H31  1  0.270400  0.062000  0.068000  1.0  0.171
  H  H32  1  0.267600  0.996600  0.113000  1.0  0.1109
  H  H33  1  0.373100  0.511100  0.547700  1.0  0.0595
  H  H34  1  0.411500  0.388900  0.724800  1.0  0.053
  H  H35  1  0.359800  0.337200  0.437100  1.0  0.1147
  H  H36  1  0.393600  0.216800  0.619000  1.0  0.1067
  H  H37  1  0.372600  0.153600  0.393200  1.0  0.1055
  H  H38  1  0.287000  0.110600  0.419800  1.0  0.1195
  H  H39  1  0.154200  0.516400  0.556400  1.0  0.0771
  H  H40  1  0.322300  0.821500  0.686800  1.0  0.0579
  H  H41  1  0.016200  0.576400  0.453900  1.0  0.1073
  H  H42  1  0.193800  0.880600  0.587400  1.0  0.1088
  H  H43  1  0.938000  0.729600  0.432000  1.0  0.1162
  H  H44  1  0.003400  0.732400  0.387000  1.0  0.1164
  H  H45  1  0.488900  0.626900  0.952300  1.0  0.0598
  H  H46  1  0.611100  0.588500  0.775200  1.0  0.0516
  H  H47  1  0.662800  0.640200  0.062900  1.0  0.1141
  H  H48  1  0.783200  0.606400  0.881000  1.0  0.1069
  H  H49  1  0.846400  0.627400  0.106800  1.0  0.1052
  H  H50  1  0.889400  0.713000  0.080200  1.0  0.1161
  C  C51  1  0.601250  0.162210  0.065830  1.0  0.1286
  C  C52  1  0.769990  0.258650  0.136730  1.0  0.1287
  C  C53  1  0.630080  0.082040  0.004070  1.0  -0.2454
  C  C54  1  0.805440  0.181780  0.077880  1.0  -0.2161
  C  C55  1  0.734820  0.089660  0.010630  1.0  0.1182
  C  C56  1  0.766310  0.000090  0.943630  1.0  -0.1417
  C  C57  1  0.886850  0.000810  0.972550  1.0  -0.1012
  C  C58  1  0.942740  0.954820  0.032620  1.0  0.1371
  C  C59  1  0.052320  0.954260  0.058870  1.0  0.1415
  C  C60  1  0.621300  0.552740  0.439830  1.0  0.1127
  C  C61  1  0.600470  0.625250  0.335160  1.0  0.1288
  C  C62  1  0.628600  0.652720  0.505490  1.0  -0.2245
  C  C63  1  0.607730  0.727090  0.397010  1.0  -0.2291
  C  C64  1  0.625200  0.743400  0.485730  1.0  0.1059
  C  C65  1  0.641070  0.854170  0.559320  1.0  -0.1559
  C  C66  1  0.568490  0.928490  0.527660  1.0  -0.1082
  C  C67  1  0.467110  0.931070  0.530670  1.0  0.1402
  C  C68  1  0.401740  0.001160  0.504710  1.0  0.138
  C  C69  1  0.837790  0.398750  0.434170  1.0  0.1279
  C  C70  1  0.741350  0.230010  0.363270  1.0  0.1291
  C  C71  1  0.917960  0.369920  0.495930  1.0  -0.2468
  C  C72  1  0.818220  0.194560  0.422120  1.0  -0.219
  C  C73  1  0.910340  0.265180  0.489370  1.0  0.1196
  C  C74  1  0.999910  0.233690  0.556370  1.0  -0.1415
  C  C75  1  0.999190  0.113150  0.527450  1.0  -0.1012
  C  C76  1  0.045180  0.057260  0.467380  1.0  0.1372
  C  C77  1  0.045740  0.947680  0.441130  1.0  0.1437
  C  C78  1  0.447260  0.378700  0.060170  1.0  0.1121
  C  C79  1  0.374750  0.399530  0.164840  1.0  0.1281
  C  C80  1  0.347280  0.371400  0.994510  1.0  -0.2212
  C  C81  1  0.272910  0.392270  0.102990  1.0  -0.2346
  C  C82  1  0.256600  0.374800  0.014270  1.0  0.1058
  C  C83  1  0.145830  0.358930  0.940680  1.0  -0.1567
  C  C84  1  0.071510  0.431510  0.972340  1.0  -0.1086
  C  C85  1  0.068930  0.532890  0.969330  1.0  0.1401
  C  C86  1  0.998840  0.598260  0.995290  1.0  0.1447
  C  C87  1  0.398750  0.837790  0.934170  1.0  0.1302
  C  C88  1  0.230010  0.741350  0.863270  1.0  0.1287
  C  C89  1  0.369920  0.917960  0.995930  1.0  -0.245
  C  C90  1  0.194560  0.818220  0.922120  1.0  -0.2167
  C  C91  1  0.265180  0.910340  0.989370  1.0  0.1193
  C  C92  1  0.233690  0.999910  0.056370  1.0  -0.1491
  C  C93  1  0.113150  0.999190  0.027450  1.0  -0.1007
  C  C94  1  0.057260  0.045180  0.967380  1.0  0.1377
  C  C95  1  0.947680  0.045740  0.941130  1.0  0.143
  C  C96  1  0.378700  0.447260  0.560170  1.0  0.1122
  C  C97  1  0.399530  0.374750  0.664840  1.0  0.1274
  C  C98  1  0.371400  0.347280  0.494510  1.0  -0.217
  C  C99  1  0.392270  0.272910  0.602990  1.0  -0.2339
  C  C100  1  0.374800  0.256600  0.514270  1.0  0.1068
  C  C101  1  0.358930  0.145830  0.440680  1.0  -0.1577
  C  C102  1  0.431510  0.071510  0.472340  1.0  -0.1082
  C  C103  1  0.532890  0.068930  0.469330  1.0  0.1334
  C  C104  1  0.598260  0.998840  0.495290  1.0  0.1446
  C  C105  1  0.162210  0.601250  0.565830  1.0  0.1296
  C  C106  1  0.258650  0.769990  0.636730  1.0  0.1299
  C  C107  1  0.082040  0.630080  0.504070  1.0  -0.2466
  C  C108  1  0.181780  0.805440  0.577880  1.0  -0.219
  C  C109  1  0.089660  0.734820  0.510630  1.0  0.1198
  C  C110  1  0.000090  0.766310  0.443630  1.0  -0.1427
  C  C111  1  0.000810  0.886850  0.472550  1.0  -0.0994
  C  C112  1  0.954820  0.942740  0.532620  1.0  0.1367
  C  C113  1  0.954260  0.052320  0.558870  1.0  0.1424
  C  C114  1  0.552740  0.621300  0.939830  1.0  0.1109
  C  C115  1  0.625250  0.600470  0.835160  1.0  0.1289
  C  C116  1  0.652720  0.628600  0.005490  1.0  -0.226
  C  C117  1  0.727090  0.607730  0.897010  1.0  -0.2267
  C  C118  1  0.743400  0.625200  0.985730  1.0  0.1056
  C  C119  1  0.854170  0.641070  0.059320  1.0  -0.1576
  C  C120  1  0.928490  0.568490  0.027660  1.0  -0.1104
  C  C121  1  0.931070  0.467110  0.030670  1.0  0.1329
  C  C122  1  0.001160  0.401740  0.004710  1.0  0.1383
  N  N123  1  0.669460  0.248800  0.132520  1.0  -0.3473
  N  N124  1  0.609140  0.537660  0.355420  1.0  -0.3632
  N  N125  1  0.751200  0.330540  0.367480  1.0  -0.3488
  N  N126  1  0.462340  0.390860  0.144580  1.0  -0.3622
  N  N127  1  0.330540  0.751200  0.867480  1.0  -0.3464
  N  N128  1  0.390860  0.462340  0.644580  1.0  -0.3633
  N  N129  1  0.248800  0.669460  0.632520  1.0  -0.3486
  N  N130  1  0.537660  0.609140  0.855420  1.0  -0.3638
  F  F131  1  0.888520  0.909460  0.066750  1.0  -0.1381
  F  F132  1  0.100690  0.910490  0.120020  1.0  -0.1469
  F  F133  1  0.431510  0.864710  0.561100  1.0  -0.1449
  F  F134  1  0.304960  0.000340  0.511570  1.0  -0.1368
  F  F135  1  0.090540  0.111480  0.433250  1.0  -0.1379
  F  F136  1  0.089510  0.899310  0.379980  1.0  -0.1458
  F  F137  1  0.135290  0.568490  0.938900  1.0  -0.1461
  F  F138  1  0.999660  0.695040  0.988430  1.0  -0.1375
  F  F139  1  0.111480  0.090540  0.933250  1.0  -0.1373
  F  F140  1  0.899310  0.089510  0.879980  1.0  -0.1465
  F  F141  1  0.568490  0.135290  0.438900  1.0  -0.146
  F  F142  1  0.695040  0.999660  0.488430  1.0  -0.138
  F  F143  1  0.909460  0.888520  0.566750  1.0  -0.1385
  F  F144  1  0.910490  0.100690  0.620020  1.0  -0.1461
  F  F145  1  0.864710  0.431510  0.061100  1.0  -0.1454
  F  F146  1  0.000340  0.304960  0.011570  1.0  -0.1377
