# generated using pymatgen
data_CdH24C36(NF2)4
_symmetry_space_group_name_H-M   'P 1'
_cell_length_a   13.15230000
_cell_length_b   13.15230000
_cell_length_c   16.57650000
_cell_angle_alpha   111.19100000
_cell_angle_beta   111.19100000
_cell_angle_gamma   94.18040000
_symmetry_Int_Tables_number   1
_chemical_formula_structural   CdH24C36(NF2)4
_chemical_formula_sum   'Cd2 H48 C72 N8 F16'
_cell_volume   2423.46872942
_cell_formula_units_Z   2
loop_
 _symmetry_equiv_pos_site_id
 _symmetry_equiv_pos_as_xyz
  1  'x, y, z'
loop_
 _atom_site_type_symbol
 _atom_site_label
 _atom_site_symmetry_multiplicity
 _atom_site_fract_x
 _atom_site_fract_y
 _atom_site_fract_z
 _atom_site_occupancy
 _atom_site_charge
  Cd  Cd1  1  0.123630  0.876370  0.250000  1.0  0.6742
  Cd  Cd2  1  0.876370  0.123630  0.750000  1.0  0.6762
  H  H3  1  0.928700  0.952300  0.314400  1.0  0.0631
  H  H4  1  0.234700  0.138900  0.426700  1.0  0.0523
  H  H5  1  0.875800  0.095800  0.409700  1.0  0.1224
  H  H6  1  0.188400  0.284800  0.525000  1.0  0.1115
  H  H7  1  0.353000  0.817800  0.231800  1.0  0.0658
  H  H8  1  0.045900  0.718700  0.027500  1.0  0.0619
  H  H9  1  0.421800  0.725200  0.124600  1.0  0.1131
  H  H10  1  0.111700  0.621500  0.915800  1.0  0.1114
  H  H11  1  0.340600  0.654600  0.911300  1.0  0.1131
  H  H12  1  0.250300  0.538100  0.872500  1.0  0.108
  H  H13  1  0.040500  0.319500  0.602300  1.0  0.1014
  H  H14  1  0.921500  0.270700  0.529900  1.0  0.1071
  H  H15  1  0.047700  0.071300  0.185600  1.0  0.0637
  H  H16  1  0.861100  0.765300  0.073300  1.0  0.0538
  H  H17  1  0.904200  0.124200  0.090300  1.0  0.1225
  H  H18  1  0.715200  0.811600  0.975000  1.0  0.11
  H  H19  1  0.182200  0.647000  0.268200  1.0  0.0665
  H  H20  1  0.281300  0.954100  0.472500  1.0  0.0607
  H  H21  1  0.274800  0.578200  0.375400  1.0  0.1129
  H  H22  1  0.378500  0.888300  0.584200  1.0  0.1101
  H  H23  1  0.345400  0.659400  0.588700  1.0  0.1185
  H  H24  1  0.461900  0.749700  0.627500  1.0  0.1076
  H  H25  1  0.680500  0.959500  0.897700  1.0  0.1018
  H  H26  1  0.729300  0.078500  0.970100  1.0  0.1063
  H  H27  1  0.071300  0.047700  0.685600  1.0  0.0639
  H  H28  1  0.765300  0.861100  0.573300  1.0  0.0533
  H  H29  1  0.124200  0.904200  0.590300  1.0  0.1223
  H  H30  1  0.811600  0.715200  0.475000  1.0  0.1108
  H  H31  1  0.647000  0.182200  0.768200  1.0  0.0657
  H  H32  1  0.954100  0.281300  0.972500  1.0  0.061
  H  H33  1  0.578200  0.274800  0.875400  1.0  0.1147
  H  H34  1  0.888300  0.378500  0.084200  1.0  0.1103
  H  H35  1  0.659400  0.345400  0.088700  1.0  0.1182
  H  H36  1  0.749700  0.461900  0.127500  1.0  0.1083
  H  H37  1  0.959500  0.680500  0.397700  1.0  0.1021
  H  H38  1  0.078500  0.729300  0.470100  1.0  0.1087
  H  H39  1  0.952300  0.928700  0.814400  1.0  0.0627
  H  H40  1  0.138900  0.234700  0.926700  1.0  0.0538
  H  H41  1  0.095800  0.875800  0.909700  1.0  0.1221
  H  H42  1  0.284800  0.188400  0.025000  1.0  0.111
  H  H43  1  0.817800  0.353000  0.731800  1.0  0.0671
  H  H44  1  0.718700  0.045900  0.527500  1.0  0.0613
  H  H45  1  0.725200  0.421800  0.624600  1.0  0.1133
  H  H46  1  0.621500  0.111700  0.415800  1.0  0.1107
  H  H47  1  0.654600  0.340600  0.411300  1.0  0.1124
  H  H48  1  0.538100  0.250300  0.372500  1.0  0.1071
  H  H49  1  0.319500  0.040500  0.102300  1.0  0.1013
  H  H50  1  0.270700  0.921500  0.029900  1.0  0.1072
  C  C51  1  0.301490  0.779030  0.164150  1.0  0.1197
  C  C52  1  0.124360  0.721180  0.046360  1.0  0.1344
  C  C53  1  0.345380  0.724200  0.100630  1.0  -0.2184
  C  C54  1  0.161740  0.664040  0.978580  1.0  -0.2141
  C  C55  1  0.274110  0.664370  0.004990  1.0  0.1136
  C  C56  1  0.315000  0.601440  0.930420  1.0  -0.1643
  C  C57  1  0.410040  0.549660  0.966410  1.0  -0.0897
  C  C58  1  0.391810  0.444230  0.965240  1.0  0.1318
  C  C59  1  0.478620  0.396460  0.997430  1.0  0.1321
  C  C60  1  0.983430  0.020170  0.358500  1.0  0.1319
  C  C61  1  0.160910  0.127690  0.423500  1.0  0.1364
  C  C62  1  0.950120  0.105280  0.414000  1.0  -0.2406
  C  C63  1  0.133690  0.216710  0.481800  1.0  -0.2425
  C  C64  1  0.029470  0.204970  0.475980  1.0  0.1191
  C  C65  1  0.994920  0.298900  0.538340  1.0  -0.1495
  C  C66  1  0.998590  0.402210  0.518470  1.0  -0.0905
  C  C67  1  0.913970  0.408290  0.442330  1.0  0.133
  C  C68  1  0.914370  0.502810  0.424360  1.0  0.1387
  C  C69  1  0.220970  0.698510  0.335850  1.0  0.1188
  C  C70  1  0.278820  0.875640  0.453640  1.0  0.1323
  C  C71  1  0.275800  0.654620  0.399370  1.0  -0.2299
  C  C72  1  0.335960  0.838260  0.521420  1.0  -0.2202
  C  C73  1  0.335630  0.725890  0.495010  1.0  0.1153
  C  C74  1  0.398560  0.685000  0.569580  1.0  -0.1666
  C  C75  1  0.450340  0.589960  0.533590  1.0  -0.0905
  C  C76  1  0.555770  0.608190  0.534760  1.0  0.1302
  C  C77  1  0.603540  0.521380  0.502570  1.0  0.1349
  C  C78  1  0.979830  0.016570  0.141500  1.0  0.1314
  C  C79  1  0.872310  0.839090  0.076500  1.0  0.1358
  C  C80  1  0.894720  0.049880  0.086000  1.0  -0.2417
  C  C81  1  0.783290  0.866310  0.018200  1.0  -0.241
  C  C82  1  0.795030  0.970530  0.024020  1.0  0.1205
  C  C83  1  0.701100  0.005080  0.961660  1.0  -0.1507
  C  C84  1  0.597790  0.001410  0.981530  1.0  -0.0917
  C  C85  1  0.591710  0.086030  0.057670  1.0  0.1339
  C  C86  1  0.497190  0.085630  0.075640  1.0  0.139
  C  C87  1  0.698510  0.220970  0.835850  1.0  0.1195
  C  C88  1  0.875640  0.278820  0.953640  1.0  0.1348
  C  C89  1  0.654620  0.275800  0.899370  1.0  -0.2287
  C  C90  1  0.838260  0.335960  0.021420  1.0  -0.2225
  C  C91  1  0.725890  0.335630  0.995010  1.0  0.1143
  C  C92  1  0.685000  0.398560  0.069580  1.0  -0.1656
  C  C93  1  0.589960  0.450340  0.033590  1.0  -0.0874
  C  C94  1  0.608190  0.555770  0.034760  1.0  0.1317
  C  C95  1  0.521380  0.603540  0.002570  1.0  0.1358
  C  C96  1  0.016570  0.979830  0.641500  1.0  0.1319
  C  C97  1  0.839090  0.872310  0.576500  1.0  0.1374
  C  C98  1  0.049880  0.894720  0.586000  1.0  -0.2416
  C  C99  1  0.866310  0.783290  0.518200  1.0  -0.243
  C  C100  1  0.970530  0.795030  0.524020  1.0  0.1196
  C  C101  1  0.005080  0.701100  0.461660  1.0  -0.1595
  C  C102  1  0.001410  0.597790  0.481530  1.0  -0.0905
  C  C103  1  0.086030  0.591710  0.557670  1.0  0.1329
  C  C104  1  0.085630  0.497190  0.575640  1.0  0.1465
  C  C105  1  0.779030  0.301490  0.664150  1.0  0.1196
  C  C106  1  0.721180  0.124360  0.546360  1.0  0.1324
  C  C107  1  0.724200  0.345380  0.600630  1.0  -0.2263
  C  C108  1  0.664040  0.161740  0.478580  1.0  -0.2115
  C  C109  1  0.664370  0.274110  0.504990  1.0  0.1144
  C  C110  1  0.601440  0.315000  0.430420  1.0  -0.1622
  C  C111  1  0.549660  0.410040  0.466410  1.0  -0.088
  C  C112  1  0.444230  0.391810  0.465240  1.0  0.1303
  C  C113  1  0.396460  0.478620  0.497430  1.0  0.1329
  C  C114  1  0.020170  0.983430  0.858500  1.0  0.1316
  C  C115  1  0.127690  0.160910  0.923500  1.0  0.1359
  C  C116  1  0.105280  0.950120  0.914000  1.0  -0.2411
  C  C117  1  0.216710  0.133690  0.981800  1.0  -0.2417
  C  C118  1  0.204970  0.029470  0.975980  1.0  0.1194
  C  C119  1  0.298900  0.994920  0.038340  1.0  -0.1573
  C  C120  1  0.402210  0.998590  0.018470  1.0  -0.0928
  C  C121  1  0.408290  0.913970  0.942330  1.0  0.1333
  C  C122  1  0.502810  0.914370  0.924360  1.0  0.1455
  N  N123  1  0.192450  0.778250  0.138470  1.0  -0.3949
  N  N124  1  0.091040  0.026660  0.362800  1.0  -0.3852
  N  N125  1  0.221750  0.807550  0.361530  1.0  -0.3946
  N  N126  1  0.973340  0.908960  0.137200  1.0  -0.3882
  N  N127  1  0.807550  0.221750  0.861530  1.0  -0.3934
  N  N128  1  0.908960  0.973340  0.637200  1.0  -0.3866
  N  N129  1  0.778250  0.192450  0.638470  1.0  -0.3902
  N  N130  1  0.026660  0.091040  0.862800  1.0  -0.3894
  F  F131  1  0.285770  0.386830  0.931870  1.0  -0.1465
  F  F132  1  0.453740  0.293180  0.994150  1.0  -0.1363
  F  F133  1  0.827490  0.317950  0.382750  1.0  -0.1342
  F  F134  1  0.828520  0.501520  0.349170  1.0  -0.1457
  F  F135  1  0.613170  0.714230  0.568130  1.0  -0.1448
  F  F136  1  0.706820  0.546260  0.505850  1.0  -0.1353
  F  F137  1  0.682050  0.172510  0.117250  1.0  -0.1352
  F  F138  1  0.498480  0.171480  0.150830  1.0  -0.143
  F  F139  1  0.714230  0.613170  0.068130  1.0  -0.1466
  F  F140  1  0.546260  0.706820  0.005850  1.0  -0.1364
  F  F141  1  0.172510  0.682050  0.617250  1.0  -0.1346
  F  F142  1  0.171480  0.498480  0.650830  1.0  -0.1448
  F  F143  1  0.386830  0.285770  0.431870  1.0  -0.1464
  F  F144  1  0.293180  0.453740  0.494150  1.0  -0.1348
  F  F145  1  0.317950  0.827490  0.882750  1.0  -0.1347
  F  F146  1  0.501520  0.828520  0.849170  1.0  -0.1444
