# generated using pymatgen
data_CdH24C36(NF2)4
_symmetry_space_group_name_H-M   'P 1'
_cell_length_a   12.82670000
_cell_length_b   12.82670000
_cell_length_c   16.69000000
_cell_angle_alpha   108.68200000
_cell_angle_beta   108.68200000
_cell_angle_gamma   95.97250000
_symmetry_Int_Tables_number   1
_chemical_formula_structural   CdH24C36(NF2)4
_chemical_formula_sum   'Cd2 H48 C72 N8 F16'
_cell_volume   2397.94748823
_cell_formula_units_Z   2
loop_
 _symmetry_equiv_pos_site_id
 _symmetry_equiv_pos_as_xyz
  1  'x, y, z'
loop_
 _atom_site_type_symbol
 _atom_site_label
 _atom_site_symmetry_multiplicity
 _atom_site_fract_x
 _atom_site_fract_y
 _atom_site_fract_z
 _atom_site_occupancy
 _atom_site_charge
  Cd  Cd1  1  0.620740  0.379260  0.250000  1.0  0.675
  Cd  Cd2  1  0.379260  0.620740  0.750000  1.0  0.6755
  H  H3  1  0.849000  0.310600  0.226600  1.0  0.0654
  H  H4  1  0.546100  0.229300  0.037000  1.0  0.0625
  H  H5  1  0.921800  0.218800  0.120900  1.0  0.1175
  H  H6  1  0.609600  0.133200  0.926200  1.0  0.1256
  H  H7  1  0.840100  0.160100  0.911900  1.0  0.1117
  H  H8  1  0.750400  0.046200  0.885200  1.0  0.1145
  H  H9  1  0.730400  0.631800  0.406700  1.0  0.0572
  H  H10  1  0.433200  0.440600  0.338400  1.0  0.0591
  H  H11  1  0.691000  0.780000  0.506000  1.0  0.1112
  H  H12  1  0.385600  0.584000  0.434400  1.0  0.1191
  H  H13  1  0.562600  0.816800  0.608100  1.0  0.1033
  H  H14  1  0.430900  0.769900  0.546200  1.0  0.1133
  H  H15  1  0.689400  0.151000  0.273400  1.0  0.0655
  H  H16  1  0.770700  0.453900  0.463000  1.0  0.066
  H  H17  1  0.781200  0.078200  0.379100  1.0  0.1184
  H  H18  1  0.866800  0.390400  0.573800  1.0  0.1253
  H  H19  1  0.839900  0.159900  0.588100  1.0  0.114
  H  H20  1  0.953800  0.249600  0.614800  1.0  0.1116
  H  H21  1  0.368200  0.269600  0.093300  1.0  0.0577
  H  H22  1  0.559400  0.566800  0.161600  1.0  0.0592
  H  H23  1  0.220000  0.309000  0.994000  1.0  0.1112
  H  H24  1  0.416000  0.614400  0.065600  1.0  0.1196
  H  H25  1  0.183200  0.437400  0.891900  1.0  0.1039
  H  H26  1  0.230100  0.569100  0.953800  1.0  0.1126
  H  H27  1  0.151000  0.689400  0.773400  1.0  0.0658
  H  H28  1  0.453900  0.770700  0.963000  1.0  0.0634
  H  H29  1  0.078200  0.781200  0.879100  1.0  0.1175
  H  H30  1  0.390400  0.866800  0.073800  1.0  0.1253
  H  H31  1  0.159900  0.839900  0.088100  1.0  0.1149
  H  H32  1  0.249600  0.953800  0.114800  1.0  0.1122
  H  H33  1  0.269600  0.368200  0.593300  1.0  0.0579
  H  H34  1  0.566800  0.559400  0.661600  1.0  0.0591
  H  H35  1  0.309000  0.220000  0.494000  1.0  0.1111
  H  H36  1  0.614400  0.416000  0.565600  1.0  0.1195
  H  H37  1  0.437400  0.183200  0.391900  1.0  0.1044
  H  H38  1  0.569100  0.230100  0.453800  1.0  0.1134
  H  H39  1  0.310600  0.849000  0.726600  1.0  0.0668
  H  H40  1  0.229300  0.546100  0.537000  1.0  0.0653
  H  H41  1  0.218800  0.921800  0.620900  1.0  0.1184
  H  H42  1  0.133200  0.609600  0.426200  1.0  0.1258
  H  H43  1  0.160100  0.840100  0.411900  1.0  0.1112
  H  H44  1  0.046200  0.750400  0.385200  1.0  0.1138
  H  H45  1  0.631800  0.730400  0.906700  1.0  0.0569
  H  H46  1  0.440600  0.433200  0.838400  1.0  0.0589
  H  H47  1  0.780000  0.691000  0.006000  1.0  0.1119
  H  H48  1  0.584000  0.385600  0.934400  1.0  0.1195
  H  H49  1  0.816800  0.562600  0.108100  1.0  0.104
  H  H50  1  0.769900  0.430900  0.046200  1.0  0.113
  C  C51  1  0.799610  0.274450  0.164400  1.0  0.1318
  C  C52  1  0.623750  0.226990  0.054410  1.0  0.146
  C  C53  1  0.843880  0.219640  0.101660  1.0  -0.2447
  C  C54  1  0.661110  0.169830  0.987650  1.0  -0.2553
  C  C55  1  0.773800  0.165840  0.010410  1.0  0.1194
  C  C56  1  0.814580  0.105220  0.935950  1.0  -0.1864
  C  C57  1  0.909990  0.050830  0.968220  1.0  -0.098
  C  C58  1  0.022090  0.108170  0.004770  1.0  0.1297
  C  C59  1  0.109290  0.058910  0.035290  1.0  0.129
  C  C60  1  0.658670  0.621770  0.411790  1.0  0.1346
  C  C61  1  0.486380  0.511340  0.372230  1.0  0.1414
  C  C62  1  0.635500  0.710980  0.471230  1.0  -0.2293
  C  C63  1  0.457280  0.596520  0.429610  1.0  -0.2352
  C  C64  1  0.532640  0.700300  0.480230  1.0  0.1277
  C  C65  1  0.505880  0.796420  0.545810  1.0  -0.1598
  C  C66  1  0.505210  0.901090  0.522410  1.0  -0.0933
  C  C67  1  0.418240  0.903760  0.448240  1.0  0.1424
  C  C68  1  0.412890  0.999530  0.427180  1.0  0.1368
  C  C69  1  0.725550  0.200390  0.335600  1.0  0.1304
  C  C70  1  0.773010  0.376250  0.445590  1.0  0.1439
  C  C71  1  0.780360  0.156120  0.398340  1.0  -0.2472
  C  C72  1  0.830170  0.338890  0.512350  1.0  -0.2542
  C  C73  1  0.834160  0.226200  0.489590  1.0  0.1201
  C  C74  1  0.894780  0.185420  0.564050  1.0  -0.1974
  C  C75  1  0.949170  0.090010  0.531780  1.0  -0.0992
  C  C76  1  0.891830  0.977910  0.495230  1.0  0.129
  C  C77  1  0.941090  0.890710  0.464710  1.0  0.1295
  C  C78  1  0.378230  0.341330  0.088210  1.0  0.135
  C  C79  1  0.488660  0.513620  0.127770  1.0  0.1444
  C  C80  1  0.289020  0.364500  0.028770  1.0  -0.2293
  C  C81  1  0.403480  0.542720  0.070390  1.0  -0.2328
  C  C82  1  0.299700  0.467360  0.019770  1.0  0.1297
  C  C83  1  0.203580  0.494120  0.954190  1.0  -0.1614
  C  C84  1  0.098910  0.494790  0.977590  1.0  -0.0935
  C  C85  1  0.096240  0.581760  0.051760  1.0  0.1442
  C  C86  1  0.000470  0.587110  0.072820  1.0  0.1361
  C  C87  1  0.200390  0.725550  0.835600  1.0  0.1318
  C  C88  1  0.376250  0.773010  0.945590  1.0  0.1464
  C  C89  1  0.156120  0.780360  0.898340  1.0  -0.2442
  C  C90  1  0.338890  0.830170  0.012350  1.0  -0.2573
  C  C91  1  0.226200  0.834160  0.989590  1.0  0.1205
  C  C92  1  0.185420  0.894780  0.064050  1.0  -0.1982
  C  C93  1  0.090010  0.949170  0.031780  1.0  -0.0976
  C  C94  1  0.977910  0.891830  0.995230  1.0  0.1289
  C  C95  1  0.890710  0.941090  0.964710  1.0  0.1299
  C  C96  1  0.341330  0.378230  0.588210  1.0  0.1345
  C  C97  1  0.513620  0.488660  0.627770  1.0  0.1435
  C  C98  1  0.364500  0.289020  0.528770  1.0  -0.228
  C  C99  1  0.542720  0.403480  0.570390  1.0  -0.2315
  C  C100  1  0.467360  0.299700  0.519770  1.0  0.1278
  C  C101  1  0.494120  0.203580  0.454190  1.0  -0.1685
  C  C102  1  0.494790  0.098910  0.477590  1.0  -0.0937
  C  C103  1  0.581760  0.096240  0.551760  1.0  0.1431
  C  C104  1  0.587110  0.000470  0.572820  1.0  0.1366
  C  C105  1  0.274450  0.799610  0.664400  1.0  0.1308
  C  C106  1  0.226990  0.623750  0.554410  1.0  0.143
  C  C107  1  0.219640  0.843880  0.601660  1.0  -0.2486
  C  C108  1  0.169830  0.661110  0.487650  1.0  -0.2521
  C  C109  1  0.165840  0.773800  0.510410  1.0  0.1187
  C  C110  1  0.105220  0.814580  0.435950  1.0  -0.1829
  C  C111  1  0.050830  0.909990  0.468220  1.0  -0.0982
  C  C112  1  0.108170  0.022090  0.504770  1.0  0.1296
  C  C113  1  0.058910  0.109290  0.535290  1.0  0.1291
  C  C114  1  0.621770  0.658670  0.911790  1.0  0.1349
  C  C115  1  0.511340  0.486380  0.872230  1.0  0.143
  C  C116  1  0.710980  0.635500  0.971230  1.0  -0.2311
  C  C117  1  0.596520  0.457280  0.929610  1.0  -0.2333
  C  C118  1  0.700300  0.532640  0.980230  1.0  0.1291
  C  C119  1  0.796420  0.505880  0.045810  1.0  -0.1669
  C  C120  1  0.901090  0.505210  0.022410  1.0  -0.0957
  C  C121  1  0.903760  0.418240  0.948240  1.0  0.1422
  C  C122  1  0.999530  0.412890  0.927180  1.0  0.1364
  N  N123  1  0.691020  0.279240  0.142290  1.0  -0.4013
  N  N124  1  0.585340  0.522480  0.361340  1.0  -0.3733
  N  N125  1  0.720760  0.308980  0.357710  1.0  -0.4005
  N  N126  1  0.477520  0.414660  0.138660  1.0  -0.3727
  N  N127  1  0.308980  0.720760  0.857710  1.0  -0.401
  N  N128  1  0.414660  0.477520  0.638660  1.0  -0.3738
  N  N129  1  0.279240  0.691020  0.642290  1.0  -0.4003
  N  N130  1  0.522480  0.585340  0.861340  1.0  -0.3727
  F  F131  1  0.047190  0.216010  0.011110  1.0  -0.1343
  F  F132  1  0.216860  0.119960  0.069750  1.0  -0.1423
  F  F133  1  0.335960  0.809140  0.394400  1.0  -0.1301
  F  F134  1  0.324040  0.993000  0.353840  1.0  -0.1513
  F  F135  1  0.783990  0.952810  0.488890  1.0  -0.1338
  F  F136  1  0.880040  0.783140  0.430250  1.0  -0.1422
  F  F137  1  0.190860  0.664040  0.105600  1.0  -0.1308
  F  F138  1  0.007000  0.675960  0.146160  1.0  -0.1489
  F  F139  1  0.952810  0.783990  0.988890  1.0  -0.1336
  F  F140  1  0.783140  0.880040  0.930250  1.0  -0.1418
  F  F141  1  0.664040  0.190860  0.605600  1.0  -0.1308
  F  F142  1  0.675960  0.007000  0.646160  1.0  -0.1505
  F  F143  1  0.216010  0.047190  0.511110  1.0  -0.1335
  F  F144  1  0.119960  0.216860  0.569750  1.0  -0.142
  F  F145  1  0.809140  0.335960  0.894400  1.0  -0.1307
  F  F146  1  0.993000  0.324040  0.853840  1.0  -0.1503
