# generated using pymatgen
data_CdH24C36(NF2)4
_symmetry_space_group_name_H-M   'P 1'
_cell_length_a   17.03700000
_cell_length_b   19.25500000
_cell_length_c   29.99700000
_cell_angle_alpha   90.00000000
_cell_angle_beta   90.92200000
_cell_angle_gamma   90.00000000
_symmetry_Int_Tables_number   1
_chemical_formula_structural   CdH24C36(NF2)4
_chemical_formula_sum   'Cd8 H192 C288 N32 F64'
_cell_volume   9839.16484242
_cell_formula_units_Z   8
loop_
 _symmetry_equiv_pos_site_id
 _symmetry_equiv_pos_as_xyz
  1  'x, y, z'
loop_
 _atom_site_type_symbol
 _atom_site_label
 _atom_site_symmetry_multiplicity
 _atom_site_fract_x
 _atom_site_fract_y
 _atom_site_fract_z
 _atom_site_occupancy
 _atom_site_charge
  Cd  Cd1  1  0.123460  0.870770  0.125800  1.0  0.7293
  Cd  Cd2  1  0.628580  0.619800  0.124210  1.0  0.725
  Cd  Cd3  1  0.876540  0.370770  0.374200  1.0  0.7297
  Cd  Cd4  1  0.371420  0.119800  0.375790  1.0  0.7256
  Cd  Cd5  1  0.876540  0.129230  0.874200  1.0  0.7297
  Cd  Cd6  1  0.371420  0.380200  0.875790  1.0  0.7256
  Cd  Cd7  1  0.123460  0.629230  0.625800  1.0  0.7294
  Cd  Cd8  1  0.628580  0.880200  0.624210  1.0  0.725
  H  H9  1  0.032600  0.995200  0.177100  1.0  0.0541
  H  H10  1  0.997800  0.937500  0.052800  1.0  0.0663
  H  H11  1  0.928200  0.070400  0.173300  1.0  0.1063
  H  H12  1  0.892100  0.011900  0.045200  1.0  0.1119
  H  H13  1  0.803600  0.094700  0.074200  1.0  0.1034
  H  H14  1  0.784600  0.082200  0.125700  1.0  0.1093
  H  H15  1  0.957100  0.399100  0.123800  1.0  0.1091
  H  H16  1  0.938600  0.386300  0.175300  1.0  0.1063
  H  H17  1  0.849200  0.466900  0.205800  1.0  0.1143
  H  H18  1  0.817800  0.416700  0.075900  1.0  0.1066
  H  H19  1  0.749600  0.547400  0.198000  1.0  0.0583
  H  H20  1  0.716600  0.495800  0.072100  1.0  0.0664
  H  H21  1  0.194500  0.009100  0.083800  1.0  0.0578
  H  H22  1  0.264500  0.921400  0.193100  1.0  0.0613
  H  H23  1  0.366400  0.999600  0.201300  1.0  0.1106
  H  H24  1  0.295700  0.087100  0.086800  1.0  0.1087
  H  H25  1  0.436200  0.097400  0.178600  1.0  0.1105
  H  H26  1  0.458300  0.081400  0.128000  1.0  0.1184
  H  H27  1  0.321400  0.387600  0.068700  1.0  0.1098
  H  H28  1  0.300200  0.403500  0.119500  1.0  0.1172
  H  H29  1  0.447800  0.410600  0.166800  1.0  0.0989
  H  H30  1  0.403200  0.475100  0.041100  1.0  0.1016
  H  H31  1  0.547800  0.490400  0.171000  1.0  0.0598
  H  H32  1  0.502900  0.555000  0.049000  1.0  0.0628
  H  H33  1  0.219000  0.812000  0.218200  1.0  0.0576
  H  H34  1  0.206400  0.730500  0.098800  1.0  0.0617
  H  H35  1  0.294500  0.720800  0.244400  1.0  0.1153
  H  H36  1  0.281200  0.635900  0.121200  1.0  0.1136
  H  H37  1  0.386600  0.622900  0.222700  1.0  0.122
  H  H38  1  0.373000  0.585500  0.175700  1.0  0.1222
  H  H39  1  0.140000  0.402900  0.313600  1.0  0.1322
  H  H40  1  0.125400  0.366400  0.266400  1.0  0.1233
  H  H41  1  0.118800  0.266600  0.325500  1.0  0.1035
  H  H42  1  0.322300  0.349500  0.285200  1.0  0.0948
  H  H43  1  0.189000  0.175000  0.355200  1.0  0.0544
  H  H44  1  0.386700  0.254100  0.314500  1.0  0.0587
  H  H45  1  0.027600  0.816400  0.033200  1.0  0.0676
  H  H46  1  0.044400  0.727800  0.150800  1.0  0.0633
  H  H47  1  0.953300  0.724700  0.005600  1.0  0.1107
  H  H48  1  0.973000  0.633400  0.126000  1.0  0.1088
  H  H49  1  0.865900  0.624200  0.025000  1.0  0.1125
  H  H50  1  0.881200  0.584600  0.071200  1.0  0.1214
  H  H51  1  0.445300  0.671600  0.103100  1.0  0.0544
  H  H52  1  0.640900  0.759900  0.066900  1.0  0.063
  H  H53  1  0.372900  0.762300  0.074200  1.0  0.099
  H  H54  1  0.574100  0.854000  0.038300  1.0  0.1049
  H  H55  1  0.376400  0.865000  0.016600  1.0  0.1227
  H  H56  1  0.386800  0.899300  0.064700  1.0  0.1333
  H  H57  1  0.967400  0.495200  0.322900  1.0  0.0539
  H  H58  1  0.002200  0.437500  0.447200  1.0  0.0669
  H  H59  1  0.071800  0.570400  0.326700  1.0  0.1066
  H  H60  1  0.107900  0.511900  0.454800  1.0  0.1116
  H  H61  1  0.196400  0.594700  0.425800  1.0  0.1034
  H  H62  1  0.215400  0.582200  0.374300  1.0  0.1094
  H  H63  1  0.042900  0.899100  0.376200  1.0  0.1091
  H  H64  1  0.061400  0.886300  0.324700  1.0  0.1065
  H  H65  1  0.150800  0.966900  0.294200  1.0  0.1143
  H  H66  1  0.182200  0.916700  0.424100  1.0  0.1057
  H  H67  1  0.250400  0.047400  0.302000  1.0  0.0582
  H  H68  1  0.283400  0.995800  0.427900  1.0  0.0661
  H  H69  1  0.805500  0.509100  0.416200  1.0  0.0579
  H  H70  1  0.735500  0.421400  0.306900  1.0  0.0609
  H  H71  1  0.633600  0.499600  0.298700  1.0  0.1107
  H  H72  1  0.704300  0.587100  0.413200  1.0  0.1082
  H  H73  1  0.563800  0.597400  0.321400  1.0  0.11
  H  H74  1  0.541700  0.581400  0.372000  1.0  0.1181
  H  H75  1  0.678600  0.887600  0.431300  1.0  0.1091
  H  H76  1  0.699800  0.903500  0.380500  1.0  0.1175
  H  H77  1  0.552200  0.910600  0.333200  1.0  0.1004
  H  H78  1  0.596800  0.975100  0.458900  1.0  0.1014
  H  H79  1  0.452200  0.990400  0.329000  1.0  0.0599
  H  H80  1  0.497100  0.055000  0.451000  1.0  0.0627
  H  H81  1  0.781000  0.312000  0.281800  1.0  0.0568
  H  H82  1  0.793600  0.230500  0.401200  1.0  0.0613
  H  H83  1  0.705500  0.220800  0.255600  1.0  0.116
  H  H84  1  0.718800  0.135900  0.378800  1.0  0.1137
  H  H85  1  0.613400  0.122900  0.277300  1.0  0.1237
  H  H86  1  0.627000  0.085500  0.324300  1.0  0.1245
  H  H87  1  0.860000  0.902900  0.186400  1.0  0.1319
  H  H88  1  0.874600  0.866400  0.233600  1.0  0.1218
  H  H89  1  0.881200  0.766600  0.174500  1.0  0.1033
  H  H90  1  0.677700  0.849500  0.214800  1.0  0.0946
  H  H91  1  0.811000  0.675000  0.144800  1.0  0.0546
  H  H92  1  0.613300  0.754100  0.185500  1.0  0.0589
  H  H93  1  0.972400  0.316400  0.466800  1.0  0.0686
  H  H94  1  0.955600  0.227800  0.349200  1.0  0.0641
  H  H95  1  0.046700  0.224700  0.494400  1.0  0.1107
  H  H96  1  0.027000  0.133400  0.374000  1.0  0.1086
  H  H97  1  0.134100  0.124200  0.475000  1.0  0.1134
  H  H98  1  0.118800  0.084600  0.428800  1.0  0.1191
  H  H99  1  0.554700  0.171600  0.396900  1.0  0.0543
  H  H100  1  0.359100  0.259900  0.433100  1.0  0.0636
  H  H101  1  0.627100  0.262300  0.425800  1.0  0.0987
  H  H102  1  0.425900  0.354000  0.461700  1.0  0.1047
  H  H103  1  0.623600  0.365000  0.483400  1.0  0.1221
  H  H104  1  0.613200  0.399300  0.435300  1.0  0.1326
  H  H105  1  0.967400  0.004800  0.822900  1.0  0.0542
  H  H106  1  0.002200  0.062500  0.947200  1.0  0.0669
  H  H107  1  0.071800  0.929600  0.826700  1.0  0.1066
  H  H108  1  0.107900  0.988100  0.954800  1.0  0.1116
  H  H109  1  0.196400  0.905300  0.925800  1.0  0.1036
  H  H110  1  0.215400  0.917800  0.874300  1.0  0.1094
  H  H111  1  0.042900  0.600900  0.876200  1.0  0.1094
  H  H112  1  0.061400  0.613700  0.824700  1.0  0.1063
  H  H113  1  0.150800  0.533100  0.794200  1.0  0.1142
  H  H114  1  0.182200  0.583300  0.924100  1.0  0.1061
  H  H115  1  0.250400  0.452600  0.802000  1.0  0.0585
  H  H116  1  0.283400  0.504200  0.927900  1.0  0.066
  H  H117  1  0.805500  0.990900  0.916200  1.0  0.0585
  H  H118  1  0.735500  0.078600  0.806900  1.0  0.0605
  H  H119  1  0.633600  0.000400  0.798700  1.0  0.111
  H  H120  1  0.704300  0.912900  0.913200  1.0  0.1082
  H  H121  1  0.563800  0.902600  0.821400  1.0  0.11
  H  H122  1  0.541700  0.918600  0.872000  1.0  0.1178
  H  H123  1  0.678600  0.612400  0.931300  1.0  0.1093
  H  H124  1  0.699800  0.596500  0.880500  1.0  0.1178
  H  H125  1  0.552200  0.589400  0.833200  1.0  0.1005
  H  H126  1  0.596800  0.524900  0.958900  1.0  0.1015
  H  H127  1  0.452200  0.509600  0.829000  1.0  0.0597
  H  H128  1  0.497100  0.445000  0.951000  1.0  0.0629
  H  H129  1  0.781000  0.188000  0.781800  1.0  0.0571
  H  H130  1  0.793600  0.269500  0.901200  1.0  0.0616
  H  H131  1  0.705500  0.279200  0.755600  1.0  0.116
  H  H132  1  0.718800  0.364100  0.878800  1.0  0.1137
  H  H133  1  0.613400  0.377100  0.777300  1.0  0.1236
  H  H134  1  0.627000  0.414500  0.824300  1.0  0.1242
  H  H135  1  0.860000  0.597100  0.686400  1.0  0.1323
  H  H136  1  0.874600  0.633600  0.733600  1.0  0.1216
  H  H137  1  0.881200  0.733400  0.674500  1.0  0.103
  H  H138  1  0.677700  0.650500  0.714800  1.0  0.0944
  H  H139  1  0.811000  0.825000  0.644800  1.0  0.0541
  H  H140  1  0.613300  0.745900  0.685500  1.0  0.0587
  H  H141  1  0.972400  0.183600  0.966800  1.0  0.0687
  H  H142  1  0.955600  0.272200  0.849200  1.0  0.0641
  H  H143  1  0.046700  0.275300  0.994400  1.0  0.1104
  H  H144  1  0.027000  0.366600  0.874000  1.0  0.1091
  H  H145  1  0.134100  0.375800  0.975000  1.0  0.1134
  H  H146  1  0.118800  0.415400  0.928800  1.0  0.1181
  H  H147  1  0.554700  0.328400  0.896900  1.0  0.0537
  H  H148  1  0.359100  0.240100  0.933100  1.0  0.0634
  H  H149  1  0.627100  0.237700  0.925800  1.0  0.0987
  H  H150  1  0.425900  0.146000  0.961700  1.0  0.1043
  H  H151  1  0.623600  0.135000  0.983400  1.0  0.1224
  H  H152  1  0.613200  0.100700  0.935300  1.0  0.133
  H  H153  1  0.032600  0.504800  0.677100  1.0  0.0542
  H  H154  1  0.997800  0.562500  0.552800  1.0  0.0664
  H  H155  1  0.928200  0.429600  0.673300  1.0  0.1062
  H  H156  1  0.892100  0.488100  0.545200  1.0  0.1119
  H  H157  1  0.803600  0.405300  0.574200  1.0  0.1036
  H  H158  1  0.784600  0.417800  0.625700  1.0  0.1094
  H  H159  1  0.957100  0.100900  0.623800  1.0  0.1091
  H  H160  1  0.938600  0.113700  0.675300  1.0  0.1063
  H  H161  1  0.849200  0.033100  0.705800  1.0  0.1144
  H  H162  1  0.817800  0.083300  0.575900  1.0  0.1066
  H  H163  1  0.749600  0.952600  0.698000  1.0  0.0587
  H  H164  1  0.716600  0.004200  0.572100  1.0  0.0663
  H  H165  1  0.194500  0.490900  0.583800  1.0  0.0581
  H  H166  1  0.264500  0.578600  0.693100  1.0  0.0603
  H  H167  1  0.366400  0.500400  0.701300  1.0  0.1107
  H  H168  1  0.295700  0.412900  0.586800  1.0  0.1086
  H  H169  1  0.436200  0.402600  0.678600  1.0  0.1106
  H  H170  1  0.458300  0.418600  0.628000  1.0  0.1179
  H  H171  1  0.321400  0.112400  0.568700  1.0  0.1097
  H  H172  1  0.300200  0.096500  0.619500  1.0  0.1174
  H  H173  1  0.447800  0.089400  0.666800  1.0  0.0991
  H  H174  1  0.403200  0.024900  0.541100  1.0  0.1016
  H  H175  1  0.547800  0.009600  0.671000  1.0  0.0597
  H  H176  1  0.502900  0.945000  0.549000  1.0  0.0628
  H  H177  1  0.219000  0.688000  0.718200  1.0  0.0575
  H  H178  1  0.206400  0.769500  0.598800  1.0  0.0617
  H  H179  1  0.294500  0.779200  0.744400  1.0  0.1153
  H  H180  1  0.281200  0.864100  0.621200  1.0  0.1142
  H  H181  1  0.386600  0.877100  0.722700  1.0  0.1224
  H  H182  1  0.373000  0.914500  0.675700  1.0  0.1218
  H  H183  1  0.140000  0.097100  0.813600  1.0  0.1323
  H  H184  1  0.125400  0.133600  0.766400  1.0  0.123
  H  H185  1  0.118800  0.233400  0.825500  1.0  0.1036
  H  H186  1  0.322300  0.150500  0.785200  1.0  0.0952
  H  H187  1  0.189000  0.325000  0.855200  1.0  0.0539
  H  H188  1  0.386700  0.245900  0.814500  1.0  0.0586
  H  H189  1  0.027600  0.683600  0.533200  1.0  0.0678
  H  H190  1  0.044400  0.772200  0.650800  1.0  0.0634
  H  H191  1  0.953300  0.775300  0.505600  1.0  0.1107
  H  H192  1  0.973000  0.866600  0.626000  1.0  0.1088
  H  H193  1  0.865900  0.875800  0.525000  1.0  0.1129
  H  H194  1  0.881200  0.915400  0.571200  1.0  0.1198
  H  H195  1  0.445300  0.828400  0.603100  1.0  0.0537
  H  H196  1  0.640900  0.740100  0.566900  1.0  0.0628
  H  H197  1  0.372900  0.737700  0.574200  1.0  0.0991
  H  H198  1  0.574100  0.646000  0.538300  1.0  0.1047
  H  H199  1  0.376400  0.635000  0.516600  1.0  0.1225
  H  H200  1  0.386800  0.600700  0.564700  1.0  0.133
  C  C201  1  0.003000  0.997910  0.149990  1.0  0.1125
  C  C202  1  0.982830  0.964470  0.077780  1.0  0.1255
  C  C203  1  0.940700  0.043050  0.148060  1.0  -0.2303
  C  C204  1  0.919460  0.008740  0.072990  1.0  -0.2315
  C  C205  1  0.895880  0.048690  0.109050  1.0  0.1239
  C  C206  1  0.825690  0.097370  0.104920  1.0  -0.2064
  C  C207  1  0.848080  0.170950  0.115070  1.0  -0.0411
  C  C208  1  0.830820  0.202820  0.155030  1.0  0.1283
  C  C209  1  0.888730  0.211570  0.085130  1.0  0.1315
  C  C210  1  0.852130  0.270060  0.163850  1.0  0.1412
  C  C211  1  0.909790  0.278700  0.093980  1.0  0.1408
  C  C212  1  0.892470  0.310600  0.134210  1.0  -0.0672
  C  C213  1  0.915960  0.384290  0.144670  1.0  -0.191
  C  C214  1  0.846950  0.434300  0.141150  1.0  0.1138
  C  C215  1  0.823780  0.473030  0.177690  1.0  -0.2277
  C  C216  1  0.805010  0.443240  0.101450  1.0  -0.2102
  C  C217  1  0.763700  0.520470  0.172860  1.0  0.1264
  C  C218  1  0.744890  0.490800  0.099490  1.0  0.127
  C  C219  1  0.231500  0.005200  0.107720  1.0  0.123
  C  C220  1  0.271200  0.955300  0.170490  1.0  0.143
  C  C221  1  0.333200  0.001600  0.175590  1.0  -0.2548
  C  C222  1  0.291800  0.052600  0.109300  1.0  -0.2569
  C  C223  1  0.346040  0.050010  0.143280  1.0  0.1039
  C  C224  1  0.416060  0.098460  0.147490  1.0  -0.2292
  C  C225  1  0.396500  0.172300  0.134980  1.0  -0.0752
  C  C226  1  0.404020  0.197420  0.092030  1.0  0.1314
  C  C227  1  0.369910  0.218980  0.166290  1.0  0.1389
  C  C228  1  0.388160  0.265410  0.080820  1.0  0.153
  C  C229  1  0.353370  0.286900  0.155100  1.0  0.1362
  C  C230  1  0.361890  0.312090  0.112190  1.0  -0.0406
  C  C231  1  0.342110  0.386510  0.099750  1.0  -0.239
  C  C232  1  0.411820  0.434910  0.103490  1.0  0.112
  C  C233  1  0.457600  0.440100  0.142110  1.0  -0.2318
  C  C234  1  0.431350  0.478110  0.068590  1.0  -0.2325
  C  C235  1  0.516900  0.487950  0.144340  1.0  0.1322
  C  C236  1  0.491320  0.525450  0.073420  1.0  0.1135
  C  C237  1  0.231850  0.775640  0.198190  1.0  0.1406
  C  C238  1  0.224450  0.728330  0.128930  1.0  0.1458
  C  C239  1  0.276970  0.721220  0.214230  1.0  -0.1877
  C  C240  1  0.269290  0.671450  0.142050  1.0  -0.2461
  C  C241  1  0.296500  0.666890  0.185650  1.0  0.127
  C  C242  1  0.345900  0.605780  0.201560  1.0  -0.281
  C  C243  1  0.298900  0.549070  0.224200  1.0  -0.0352
  C  C244  1  0.252300  0.503500  0.200010  1.0  0.1565
  C  C245  1  0.301220  0.538520  0.269690  1.0  0.1401
  C  C246  1  0.211100  0.450560  0.219780  1.0  0.1556
  C  C247  1  0.260360  0.485340  0.289250  1.0  0.1728
  C  C248  1  0.213360  0.439490  0.265120  1.0  0.0062
  C  C249  1  0.166730  0.382540  0.287580  1.0  -0.2774
  C  C250  1  0.213180  0.320420  0.303230  1.0  0.1156
  C  C251  1  0.174410  0.266010  0.323540  1.0  -0.221
  C  C252  1  0.293200  0.314340  0.299790  1.0  -0.2046
  C  C253  1  0.216790  0.211120  0.340820  1.0  0.1458
  C  C254  1  0.331420  0.257070  0.317470  1.0  0.1224
  C  C255  1  0.016320  0.778610  0.052470  1.0  0.1346
  C  C256  1  0.026350  0.727080  0.120630  1.0  0.1419
  C  C257  1  0.971930  0.723740  0.035630  1.0  -0.2013
  C  C258  1  0.983300  0.670580  0.106110  1.0  -0.2302
  C  C259  1  0.955080  0.667990  0.062620  1.0  0.133
  C  C260  1  0.907380  0.606950  0.045680  1.0  -0.2685
  C  C261  1  0.956230  0.552870  0.021780  1.0  -0.0457
  C  C262  1  0.956200  0.546380  0.975980  1.0  0.146
  C  C263  1  0.999070  0.494950  0.954950  1.0  0.1614
  C  C264  1  0.472150  0.709380  0.089860  1.0  0.1403
  C  C265  1  0.585330  0.760750  0.069070  1.0  0.1365
  C  C266  1  0.428510  0.763610  0.072870  1.0  -0.2309
  C  C267  1  0.545830  0.817190  0.051680  1.0  -0.1961
  C  C268  1  0.465300  0.820040  0.053820  1.0  0.1123
  C  C269  1  0.415720  0.881630  0.038700  1.0  -0.3402
  C  C270  1  0.460100  0.941550  0.018380  1.0  -0.0005
  C  C271  1  0.506200  0.985720  0.044040  1.0  0.192
  C  C272  1  0.545150  0.042110  0.026440  1.0  0.1606
  C  C273  1  0.997000  0.497910  0.350010  1.0  0.1116
  C  C274  1  0.017170  0.464470  0.422220  1.0  0.1252
  C  C275  1  0.059300  0.543050  0.351940  1.0  -0.2308
  C  C276  1  0.080540  0.508740  0.427010  1.0  -0.2329
  C  C277  1  0.104120  0.548690  0.390950  1.0  0.124
  C  C278  1  0.174310  0.597370  0.395080  1.0  -0.2084
  C  C279  1  0.151920  0.670950  0.384930  1.0  -0.0425
  C  C280  1  0.169180  0.702820  0.344970  1.0  0.13
  C  C281  1  0.111270  0.711570  0.414870  1.0  0.131
  C  C282  1  0.147870  0.770060  0.336150  1.0  0.1417
  C  C283  1  0.090210  0.778700  0.406020  1.0  0.1382
  C  C284  1  0.107530  0.810600  0.365790  1.0  -0.0665
  C  C285  1  0.084040  0.884290  0.355330  1.0  -0.1883
  C  C286  1  0.153050  0.934300  0.358850  1.0  0.1135
  C  C287  1  0.176220  0.973030  0.322310  1.0  -0.228
  C  C288  1  0.194990  0.943240  0.398550  1.0  -0.2088
  C  C289  1  0.236300  0.020470  0.327140  1.0  0.1259
  C  C290  1  0.255110  0.990800  0.400510  1.0  0.1281
  C  C291  1  0.768500  0.505200  0.392280  1.0  0.1237
  C  C292  1  0.728800  0.455300  0.329510  1.0  0.1426
  C  C293  1  0.666800  0.501600  0.324410  1.0  -0.2554
  C  C294  1  0.708200  0.552600  0.390700  1.0  -0.2576
  C  C295  1  0.653960  0.550010  0.356720  1.0  0.104
  C  C296  1  0.583940  0.598460  0.352510  1.0  -0.2269
  C  C297  1  0.603500  0.672300  0.365020  1.0  -0.0757
  C  C298  1  0.595980  0.697420  0.407970  1.0  0.1275
  C  C299  1  0.630090  0.718980  0.333710  1.0  0.1405
  C  C300  1  0.611840  0.765410  0.419180  1.0  0.1531
  C  C301  1  0.646630  0.786900  0.344900  1.0  0.1401
  C  C302  1  0.638110  0.812090  0.387810  1.0  -0.0411
  C  C303  1  0.657890  0.886510  0.400250  1.0  -0.2392
  C  C304  1  0.588180  0.934910  0.396510  1.0  0.112
  C  C305  1  0.542400  0.940100  0.357890  1.0  -0.231
  C  C306  1  0.568650  0.978110  0.431410  1.0  -0.2338
  C  C307  1  0.483100  0.987950  0.355660  1.0  0.1303
  C  C308  1  0.508680  0.025450  0.426580  1.0  0.1123
  C  C309  1  0.768150  0.275640  0.301810  1.0  0.1413
  C  C310  1  0.775550  0.228330  0.371070  1.0  0.1466
  C  C311  1  0.723030  0.221220  0.285770  1.0  -0.1867
  C  C312  1  0.730710  0.171450  0.357950  1.0  -0.2479
  C  C313  1  0.703500  0.166890  0.314350  1.0  0.1272
  C  C314  1  0.654100  0.105780  0.298440  1.0  -0.2803
  C  C315  1  0.701100  0.049070  0.275800  1.0  -0.036
  C  C316  1  0.747700  0.003500  0.299990  1.0  0.1542
  C  C317  1  0.698780  0.038520  0.230310  1.0  0.141
  C  C318  1  0.788900  0.950560  0.280220  1.0  0.1511
  C  C319  1  0.739640  0.985340  0.210750  1.0  0.1761
  C  C320  1  0.786640  0.939490  0.234880  1.0  0.0062
  C  C321  1  0.833270  0.882540  0.212420  1.0  -0.2802
  C  C322  1  0.786820  0.820420  0.196770  1.0  0.1157
  C  C323  1  0.825590  0.766010  0.176460  1.0  -0.2188
  C  C324  1  0.706800  0.814340  0.200210  1.0  -0.2046
  C  C325  1  0.783210  0.711120  0.159180  1.0  0.1442
  C  C326  1  0.668580  0.757070  0.182530  1.0  0.1221
  C  C327  1  0.983680  0.278610  0.447530  1.0  0.1328
  C  C328  1  0.973650  0.227080  0.379370  1.0  0.1405
  C  C329  1  0.028070  0.223740  0.464370  1.0  -0.2016
  C  C330  1  0.016700  0.170580  0.393890  1.0  -0.23
  C  C331  1  0.044920  0.167990  0.437380  1.0  0.1326
  C  C332  1  0.092620  0.106950  0.454320  1.0  -0.2695
  C  C333  1  0.043770  0.052870  0.478220  1.0  -0.0453
  C  C334  1  0.043800  0.046380  0.524020  1.0  0.1452
  C  C335  1  0.000930  0.994950  0.545050  1.0  0.16
  C  C336  1  0.527850  0.209380  0.410140  1.0  0.1397
  C  C337  1  0.414670  0.260750  0.430930  1.0  0.1354
  C  C338  1  0.571490  0.263610  0.427130  1.0  -0.2274
  C  C339  1  0.454170  0.317190  0.448320  1.0  -0.1978
  C  C340  1  0.534700  0.320040  0.446180  1.0  0.112
  C  C341  1  0.584280  0.381630  0.461300  1.0  -0.3394
  C  C342  1  0.539900  0.441550  0.481620  1.0  -0.0011
  C  C343  1  0.493800  0.485720  0.455960  1.0  0.1927
  C  C344  1  0.454850  0.542110  0.473560  1.0  0.1631
  C  C345  1  0.997000  0.002090  0.850010  1.0  0.1118
  C  C346  1  0.017170  0.035530  0.922220  1.0  0.1245
  C  C347  1  0.059300  0.956950  0.851940  1.0  -0.2311
  C  C348  1  0.080540  0.991260  0.927010  1.0  -0.2328
  C  C349  1  0.104120  0.951310  0.890950  1.0  0.1243
  C  C350  1  0.174310  0.902630  0.895080  1.0  -0.2084
  C  C351  1  0.151920  0.829050  0.884930  1.0  -0.0436
  C  C352  1  0.169180  0.797180  0.844970  1.0  0.13
  C  C353  1  0.111270  0.788430  0.914870  1.0  0.1308
  C  C354  1  0.147870  0.729940  0.836150  1.0  0.1416
  C  C355  1  0.090210  0.721300  0.906020  1.0  0.1383
  C  C356  1  0.107530  0.689400  0.865790  1.0  -0.0653
  C  C357  1  0.084040  0.615710  0.855330  1.0  -0.1889
  C  C358  1  0.153050  0.565700  0.858850  1.0  0.1131
  C  C359  1  0.176220  0.526970  0.822310  1.0  -0.2278
  C  C360  1  0.194990  0.556760  0.898550  1.0  -0.2091
  C  C361  1  0.236300  0.479530  0.827140  1.0  0.1263
  C  C362  1  0.255110  0.509200  0.900510  1.0  0.1272
  C  C363  1  0.768500  0.994800  0.892280  1.0  0.1241
  C  C364  1  0.728800  0.044700  0.829510  1.0  0.1422
  C  C365  1  0.666800  0.998400  0.824410  1.0  -0.2559
  C  C366  1  0.708200  0.947400  0.890700  1.0  -0.2567
  C  C367  1  0.653960  0.949990  0.856720  1.0  0.104
  C  C368  1  0.583940  0.901540  0.852510  1.0  -0.2277
  C  C369  1  0.603500  0.827700  0.865020  1.0  -0.0767
  C  C370  1  0.595980  0.802580  0.907970  1.0  0.1276
  C  C371  1  0.630090  0.781020  0.833710  1.0  0.1403
  C  C372  1  0.611840  0.734590  0.919180  1.0  0.1532
  C  C373  1  0.646630  0.713100  0.844900  1.0  0.1403
  C  C374  1  0.638110  0.687910  0.887810  1.0  -0.0399
  C  C375  1  0.657890  0.613490  0.900250  1.0  -0.2389
  C  C376  1  0.588180  0.565090  0.896510  1.0  0.1115
  C  C377  1  0.542400  0.559900  0.857890  1.0  -0.2304
  C  C378  1  0.568650  0.521890  0.931410  1.0  -0.2336
  C  C379  1  0.483100  0.512050  0.855660  1.0  0.1298
  C  C380  1  0.508680  0.474550  0.926580  1.0  0.1125
  C  C381  1  0.768150  0.224360  0.801810  1.0  0.1406
  C  C382  1  0.775550  0.271670  0.871070  1.0  0.1464
  C  C383  1  0.723030  0.278780  0.785770  1.0  -0.187
  C  C384  1  0.730710  0.328550  0.857950  1.0  -0.247
  C  C385  1  0.703500  0.333110  0.814350  1.0  0.1269
  C  C386  1  0.654100  0.394220  0.798440  1.0  -0.2798
  C  C387  1  0.701100  0.450930  0.775800  1.0  -0.0361
  C  C388  1  0.747700  0.496500  0.799990  1.0  0.1541
  C  C389  1  0.698780  0.461480  0.730310  1.0  0.14
  C  C390  1  0.788900  0.549440  0.780220  1.0  0.1511
  C  C391  1  0.739640  0.514660  0.710750  1.0  0.1754
  C  C392  1  0.786640  0.560510  0.734880  1.0  0.0055
  C  C393  1  0.833270  0.617460  0.712420  1.0  -0.2812
  C  C394  1  0.786820  0.679580  0.696770  1.0  0.1157
  C  C395  1  0.825590  0.733990  0.676460  1.0  -0.2192
  C  C396  1  0.706800  0.685660  0.700210  1.0  -0.2049
  C  C397  1  0.783210  0.788880  0.659180  1.0  0.1445
  C  C398  1  0.668580  0.742930  0.682530  1.0  0.1223
  C  C399  1  0.983680  0.221390  0.947530  1.0  0.134
  C  C400  1  0.973650  0.272920  0.879370  1.0  0.1404
  C  C401  1  0.028070  0.276260  0.964370  1.0  -0.2016
  C  C402  1  0.016700  0.329420  0.893890  1.0  -0.2291
  C  C403  1  0.044920  0.332010  0.937380  1.0  0.1324
  C  C404  1  0.092620  0.393050  0.954320  1.0  -0.2692
  C  C405  1  0.043770  0.447130  0.978220  1.0  -0.0449
  C  C406  1  0.043800  0.453620  0.024020  1.0  0.1371
  C  C407  1  0.000930  0.505050  0.045050  1.0  0.16
  C  C408  1  0.527850  0.290620  0.910140  1.0  0.1394
  C  C409  1  0.414670  0.239250  0.930930  1.0  0.1352
  C  C410  1  0.571490  0.236390  0.927130  1.0  -0.2275
  C  C411  1  0.454170  0.182810  0.948320  1.0  -0.1973
  C  C412  1  0.534700  0.179960  0.946180  1.0  0.112
  C  C413  1  0.584280  0.118370  0.961300  1.0  -0.3395
  C  C414  1  0.539900  0.058450  0.981620  1.0  -0.0012
  C  C415  1  0.493800  0.014280  0.955960  1.0  0.1923
  C  C416  1  0.454850  0.957890  0.973560  1.0  0.1652
  C  C417  1  0.003000  0.502090  0.649990  1.0  0.1128
  C  C418  1  0.982830  0.535530  0.577780  1.0  0.1249
  C  C419  1  0.940700  0.456950  0.648060  1.0  -0.2295
  C  C420  1  0.919460  0.491260  0.572990  1.0  -0.2321
  C  C421  1  0.895880  0.451310  0.609050  1.0  0.1241
  C  C422  1  0.825690  0.402630  0.604920  1.0  -0.2062
  C  C423  1  0.848080  0.329050  0.615070  1.0  -0.0422
  C  C424  1  0.830820  0.297180  0.655030  1.0  0.1288
  C  C425  1  0.888730  0.288430  0.585130  1.0  0.1313
  C  C426  1  0.852130  0.229940  0.663850  1.0  0.1412
  C  C427  1  0.909790  0.221300  0.593980  1.0  0.1409
  C  C428  1  0.892470  0.189400  0.634210  1.0  -0.0663
  C  C429  1  0.915960  0.115710  0.644670  1.0  -0.1915
  C  C430  1  0.846950  0.065700  0.641150  1.0  0.1137
  C  C431  1  0.823780  0.026970  0.677690  1.0  -0.2277
  C  C432  1  0.805010  0.056760  0.601450  1.0  -0.2094
  C  C433  1  0.763700  0.979530  0.672860  1.0  0.1268
  C  C434  1  0.744890  0.009200  0.599490  1.0  0.1261
  C  C435  1  0.231500  0.494800  0.607720  1.0  0.1231
  C  C436  1  0.271200  0.544700  0.670490  1.0  0.142
  C  C437  1  0.333200  0.498400  0.675590  1.0  -0.2555
  C  C438  1  0.291800  0.447400  0.609300  1.0  -0.2571
  C  C439  1  0.346040  0.449990  0.643280  1.0  0.1041
  C  C440  1  0.416060  0.401540  0.647490  1.0  -0.2297
  C  C441  1  0.396500  0.327700  0.634980  1.0  -0.0761
  C  C442  1  0.404020  0.302580  0.592030  1.0  0.1312
  C  C443  1  0.369910  0.281020  0.666290  1.0  0.1388
  C  C444  1  0.388160  0.234590  0.580820  1.0  0.153
  C  C445  1  0.353370  0.213100  0.655100  1.0  0.136
  C  C446  1  0.361890  0.187910  0.612190  1.0  -0.0393
  C  C447  1  0.342110  0.113490  0.599750  1.0  -0.2387
  C  C448  1  0.411820  0.065090  0.603490  1.0  0.1117
  C  C449  1  0.457600  0.059900  0.642110  1.0  -0.2316
  C  C450  1  0.431350  0.021890  0.568590  1.0  -0.2325
  C  C451  1  0.516900  0.012050  0.644340  1.0  0.1317
  C  C452  1  0.491320  0.974550  0.573420  1.0  0.1134
  C  C453  1  0.231850  0.724360  0.698190  1.0  0.1414
  C  C454  1  0.224450  0.771670  0.628930  1.0  0.1457
  C  C455  1  0.276970  0.778780  0.714230  1.0  -0.1877
  C  C456  1  0.269290  0.828550  0.642050  1.0  -0.2455
  C  C457  1  0.296500  0.833110  0.685650  1.0  0.1267
  C  C458  1  0.345900  0.894220  0.701560  1.0  -0.2808
  C  C459  1  0.298900  0.950930  0.724200  1.0  -0.0352
  C  C460  1  0.252300  0.996500  0.700010  1.0  0.1566
  C  C461  1  0.301220  0.961480  0.769690  1.0  0.1397
  C  C462  1  0.211100  0.049440  0.719780  1.0  0.1558
  C  C463  1  0.260360  0.014660  0.789250  1.0  0.173
  C  C464  1  0.213360  0.060510  0.765120  1.0  0.0053
  C  C465  1  0.166730  0.117460  0.787580  1.0  -0.2777
  C  C466  1  0.213180  0.179580  0.803230  1.0  0.1157
  C  C467  1  0.174410  0.233990  0.823540  1.0  -0.2214
  C  C468  1  0.293200  0.185660  0.799790  1.0  -0.2049
  C  C469  1  0.216790  0.288880  0.840820  1.0  0.1453
  C  C470  1  0.331420  0.242930  0.817470  1.0  0.1226
  C  C471  1  0.016320  0.721390  0.552470  1.0  0.1339
  C  C472  1  0.026350  0.772920  0.620630  1.0  0.1418
  C  C473  1  0.971930  0.776260  0.535630  1.0  -0.2018
  C  C474  1  0.983300  0.829420  0.606110  1.0  -0.2293
  C  C475  1  0.955080  0.832010  0.562620  1.0  0.1329
  C  C476  1  0.907380  0.893050  0.545680  1.0  -0.2681
  C  C477  1  0.956230  0.947130  0.521780  1.0  -0.0453
  C  C478  1  0.956200  0.953620  0.475980  1.0  0.1373
  C  C479  1  0.999070  0.005050  0.454950  1.0  0.1609
  C  C480  1  0.472150  0.790620  0.589860  1.0  0.1392
  C  C481  1  0.585330  0.739250  0.569070  1.0  0.1364
  C  C482  1  0.428510  0.736390  0.572870  1.0  -0.2308
  C  C483  1  0.545830  0.682810  0.551680  1.0  -0.1956
  C  C484  1  0.465300  0.679960  0.553820  1.0  0.1123
  C  C485  1  0.415720  0.618370  0.538700  1.0  -0.3399
  C  C486  1  0.460100  0.558450  0.518380  1.0  -0.0006
  C  C487  1  0.506200  0.514280  0.544040  1.0  0.1918
  C  C488  1  0.545150  0.457890  0.526440  1.0  0.1631
  N  N489  1  0.024530  0.957700  0.116160  1.0  -0.3711
  N  N490  1  0.724000  0.530620  0.134230  1.0  -0.386
  N  N491  1  0.221010  0.955090  0.136550  1.0  -0.3562
  N  N492  1  0.534060  0.531650  0.111000  1.0  -0.3885
  N  N493  1  0.205400  0.780090  0.156320  1.0  -0.3763
  N  N494  1  0.294810  0.205840  0.338430  1.0  -0.3642
  N  N495  1  0.043900  0.780900  0.094390  1.0  -0.3732
  N  N496  1  0.550530  0.707290  0.088660  1.0  -0.3765
  N  N497  1  0.975470  0.457700  0.383840  1.0  -0.3721
  N  N498  1  0.276000  0.030620  0.365770  1.0  -0.3877
  N  N499  1  0.778990  0.455090  0.363450  1.0  -0.3543
  N  N500  1  0.465940  0.031650  0.389000  1.0  -0.3858
  N  N501  1  0.794600  0.280090  0.343680  1.0  -0.3767
  N  N502  1  0.705190  0.705840  0.161570  1.0  -0.3665
  N  N503  1  0.956100  0.280900  0.405610  1.0  -0.3725
  N  N504  1  0.449470  0.207290  0.411340  1.0  -0.3792
  N  N505  1  0.975470  0.042300  0.883840  1.0  -0.3731
  N  N506  1  0.276000  0.469380  0.865770  1.0  -0.3865
  N  N507  1  0.778990  0.044910  0.863450  1.0  -0.3558
  N  N508  1  0.465940  0.468350  0.889000  1.0  -0.3851
  N  N509  1  0.794600  0.219910  0.843680  1.0  -0.3737
  N  N510  1  0.705190  0.794160  0.661570  1.0  -0.3664
  N  N511  1  0.956100  0.219100  0.905610  1.0  -0.3717
  N  N512  1  0.449470  0.292710  0.911340  1.0  -0.3785
  N  N513  1  0.024530  0.542300  0.616160  1.0  -0.3734
  N  N514  1  0.724000  0.969380  0.634230  1.0  -0.3861
  N  N515  1  0.221010  0.544910  0.636550  1.0  -0.355
  N  N516  1  0.534060  0.968350  0.611000  1.0  -0.386
  N  N517  1  0.205400  0.719910  0.656320  1.0  -0.3751
  N  N518  1  0.294810  0.294160  0.838430  1.0  -0.3657
  N  N519  1  0.043900  0.719100  0.594390  1.0  -0.371
  N  N520  1  0.550530  0.792710  0.588660  1.0  -0.3782
  F  F521  1  0.792330  0.166750  0.186190  1.0  -0.1548
  F  F522  1  0.907620  0.184180  0.045360  1.0  -0.1682
  F  F523  1  0.833870  0.297790  0.203890  1.0  -0.1764
  F  F524  1  0.948920  0.314980  0.062900  1.0  -0.1549
  F  F525  1  0.429660  0.154390  0.059960  1.0  -0.1403
  F  F526  1  0.359960  0.198890  0.208490  1.0  -0.1701
  F  F527  1  0.397240  0.285920  0.038610  1.0  -0.165
  F  F528  1  0.327870  0.330290  0.187230  1.0  -0.145
  F  F529  1  0.246220  0.511070  0.155410  1.0  -0.1496
  F  F530  1  0.345690  0.579850  0.296080  1.0  -0.1669
  F  F531  1  0.166440  0.409320  0.193480  1.0  -0.1565
  F  F532  1  0.266150  0.477530  0.333980  1.0  -0.1477
  F  F533  1  0.913160  0.589880  0.950530  1.0  -0.1579
  F  F534  1  0.994970  0.491670  0.910130  1.0  -0.1421
  F  F535  1  0.514230  0.973660  0.088270  1.0  -0.1554
  F  F536  1  0.588970  0.081320  0.054140  1.0  -0.1644
  F  F537  1  0.207670  0.666750  0.313810  1.0  -0.1536
  F  F538  1  0.092380  0.684180  0.454640  1.0  -0.1655
  F  F539  1  0.166130  0.797790  0.296110  1.0  -0.172
  F  F540  1  0.051080  0.814980  0.437100  1.0  -0.1574
  F  F541  1  0.570340  0.654390  0.440040  1.0  -0.142
  F  F542  1  0.640040  0.698890  0.291510  1.0  -0.1686
  F  F543  1  0.602760  0.785920  0.461390  1.0  -0.1699
  F  F544  1  0.672130  0.830290  0.312770  1.0  -0.1443
  F  F545  1  0.753780  0.011070  0.344590  1.0  -0.1493
  F  F546  1  0.654310  0.079850  0.203920  1.0  -0.1655
  F  F547  1  0.833560  0.909320  0.306520  1.0  -0.158
  F  F548  1  0.733850  0.977530  0.166020  1.0  -0.1475
  F  F549  1  0.086840  0.089880  0.549470  1.0  -0.1585
  F  F550  1  0.005030  0.991670  0.589870  1.0  -0.1444
  F  F551  1  0.485770  0.473660  0.411730  1.0  -0.1539
  F  F552  1  0.411030  0.581320  0.445860  1.0  -0.1631
  F  F553  1  0.207670  0.833250  0.813810  1.0  -0.1542
  F  F554  1  0.092380  0.815820  0.954640  1.0  -0.1662
  F  F555  1  0.166130  0.702210  0.796110  1.0  -0.1748
  F  F556  1  0.051080  0.685020  0.937100  1.0  -0.1578
  F  F557  1  0.570340  0.845610  0.940040  1.0  -0.142
  F  F558  1  0.640040  0.801110  0.791510  1.0  -0.1685
  F  F559  1  0.602760  0.714080  0.961390  1.0  -0.17
  F  F560  1  0.672130  0.669710  0.812770  1.0  -0.1449
  F  F561  1  0.753780  0.488930  0.844590  1.0  -0.1491
  F  F562  1  0.654310  0.420150  0.703920  1.0  -0.1657
  F  F563  1  0.833560  0.590680  0.806520  1.0  -0.158
  F  F564  1  0.733850  0.522470  0.666020  1.0  -0.1471
  F  F565  1  0.086840  0.410120  0.049470  1.0  -0.1584
  F  F566  1  0.005030  0.508330  0.089870  1.0  -0.1444
  F  F567  1  0.485770  0.026340  0.911730  1.0  -0.1533
  F  F568  1  0.411030  0.918680  0.945860  1.0  -0.1629
  F  F569  1  0.792330  0.333250  0.686190  1.0  -0.1549
  F  F570  1  0.907620  0.315820  0.545360  1.0  -0.1691
  F  F571  1  0.833870  0.202210  0.703890  1.0  -0.1718
  F  F572  1  0.948920  0.185020  0.562900  1.0  -0.1549
  F  F573  1  0.429660  0.345610  0.559960  1.0  -0.1403
  F  F574  1  0.359960  0.301110  0.708490  1.0  -0.1706
  F  F575  1  0.397240  0.214080  0.538610  1.0  -0.1656
  F  F576  1  0.327870  0.169710  0.687230  1.0  -0.1459
  F  F577  1  0.246220  0.988930  0.655410  1.0  -0.1496
  F  F578  1  0.345690  0.920150  0.796080  1.0  -0.1673
  F  F579  1  0.166440  0.090680  0.693480  1.0  -0.1567
  F  F580  1  0.266150  0.022470  0.833980  1.0  -0.1477
  F  F581  1  0.913160  0.910120  0.450530  1.0  -0.1573
  F  F582  1  0.994970  0.008330  0.410130  1.0  -0.1418
  F  F583  1  0.514230  0.526340  0.588270  1.0  -0.1552
  F  F584  1  0.588970  0.418680  0.554140  1.0  -0.1644
