# generated using pymatgen
data_CdH24C36(NF2)4
_symmetry_space_group_name_H-M   'P 1'
_cell_length_a   13.03660000
_cell_length_b   13.03660000
_cell_length_c   16.24000000
_cell_angle_alpha   109.53900000
_cell_angle_beta   109.53900000
_cell_angle_gamma   95.47480000
_symmetry_Int_Tables_number   1
_chemical_formula_structural   CdH24C36(NF2)4
_chemical_formula_sum   'Cd2 H48 C72 N8 F16'
_cell_volume   2383.62602447
_cell_formula_units_Z   2
loop_
 _symmetry_equiv_pos_site_id
 _symmetry_equiv_pos_as_xyz
  1  'x, y, z'
loop_
 _atom_site_type_symbol
 _atom_site_label
 _atom_site_symmetry_multiplicity
 _atom_site_fract_x
 _atom_site_fract_y
 _atom_site_fract_z
 _atom_site_occupancy
 _atom_site_charge
  Cd  Cd1  1  0.621150  0.378850  0.250000  1.0  0.6414
  Cd  Cd2  1  0.378850  0.621150  0.750000  1.0  0.6421
  H  H3  1  0.431400  0.444400  0.327900  1.0  0.059
  H  H4  1  0.730100  0.632100  0.416600  1.0  0.0614
  H  H5  1  0.379400  0.587600  0.423400  1.0  0.114
  H  H6  1  0.684400  0.782000  0.512300  1.0  0.1121
  H  H7  1  0.544500  0.217300  0.029000  1.0  0.0635
  H  H8  1  0.843000  0.312800  0.222800  1.0  0.0544
  H  H9  1  0.612600  0.124000  0.920000  1.0  0.1156
  H  H10  1  0.918600  0.222600  0.122000  1.0  0.1162
  H  H11  1  0.755500  0.042500  0.877800  1.0  0.1145
  H  H12  1  0.841100  0.154300  0.908500  1.0  0.1189
  H  H13  1  0.415400  0.768400  0.534300  1.0  0.1116
  H  H14  1  0.544100  0.815900  0.609000  1.0  0.105
  H  H15  1  0.555600  0.568600  0.172100  1.0  0.0605
  H  H16  1  0.367900  0.269900  0.083400  1.0  0.0623
  H  H17  1  0.412400  0.620600  0.076600  1.0  0.1144
  H  H18  1  0.218000  0.315600  0.987700  1.0  0.1118
  H  H19  1  0.782700  0.455500  0.471000  1.0  0.0655
  H  H20  1  0.687200  0.157000  0.277200  1.0  0.0559
  H  H21  1  0.876000  0.387400  0.580000  1.0  0.1153
  H  H22  1  0.777400  0.081400  0.378000  1.0  0.1131
  H  H23  1  0.957500  0.244500  0.622200  1.0  0.1129
  H  H24  1  0.845700  0.158900  0.591500  1.0  0.125
  H  H25  1  0.231600  0.584600  0.965700  1.0  0.1115
  H  H26  1  0.184100  0.455900  0.891000  1.0  0.1044
  H  H27  1  0.568600  0.555600  0.672100  1.0  0.0596
  H  H28  1  0.269900  0.367900  0.583400  1.0  0.0619
  H  H29  1  0.620600  0.412400  0.576600  1.0  0.1145
  H  H30  1  0.315600  0.218000  0.487700  1.0  0.1118
  H  H31  1  0.455500  0.782700  0.971000  1.0  0.0668
  H  H32  1  0.157000  0.687200  0.777200  1.0  0.0554
  H  H33  1  0.387400  0.876000  0.080000  1.0  0.115
  H  H34  1  0.081400  0.777400  0.878000  1.0  0.1174
  H  H35  1  0.244500  0.957500  0.122200  1.0  0.1136
  H  H36  1  0.158900  0.845700  0.091500  1.0  0.1237
  H  H37  1  0.584600  0.231600  0.465700  1.0  0.1121
  H  H38  1  0.455900  0.184100  0.391000  1.0  0.1045
  H  H39  1  0.444400  0.431400  0.827900  1.0  0.06
  H  H40  1  0.632100  0.730100  0.916600  1.0  0.0624
  H  H41  1  0.587600  0.379400  0.923400  1.0  0.1146
  H  H42  1  0.782000  0.684400  0.012300  1.0  0.113
  H  H43  1  0.217300  0.544500  0.529000  1.0  0.0649
  H  H44  1  0.312800  0.843000  0.722800  1.0  0.053
  H  H45  1  0.124000  0.612600  0.420000  1.0  0.1161
  H  H46  1  0.222600  0.918600  0.622000  1.0  0.1132
  H  H47  1  0.042500  0.755500  0.377800  1.0  0.1139
  H  H48  1  0.154300  0.841100  0.408500  1.0  0.1184
  H  H49  1  0.768400  0.415400  0.034300  1.0  0.111
  H  H50  1  0.815900  0.544100  0.109000  1.0  0.105
  C  C51  1  0.622840  0.220140  0.047330  1.0  0.1243
  C  C52  1  0.797910  0.275110  0.163650  1.0  0.1463
  C  C53  1  0.661000  0.162800  0.979760  1.0  -0.2265
  C  C54  1  0.842620  0.219700  0.100230  1.0  -0.2361
  C  C55  1  0.773360  0.161920  0.005380  1.0  0.1029
  C  C56  1  0.815210  0.100670  0.930270  1.0  -0.1586
  C  C57  1  0.910440  0.049540  0.966330  1.0  -0.104
  C  C58  1  0.892030  0.946370  0.972520  1.0  0.1296
  C  C59  1  0.978600  0.898360  0.004260  1.0  0.1308
  C  C60  1  0.484400  0.514000  0.366500  1.0  0.1415
  C  C61  1  0.657300  0.622500  0.417400  1.0  0.1317
  C  C62  1  0.452000  0.599600  0.422800  1.0  -0.2339
  C  C63  1  0.630400  0.713000  0.475000  1.0  -0.2328
  C  C64  1  0.526190  0.702270  0.477820  1.0  0.1295
  C  C65  1  0.494840  0.797220  0.542110  1.0  -0.1688
  C  C66  1  0.499530  0.901230  0.520060  1.0  -0.1015
  C  C67  1  0.415750  0.907490  0.443980  1.0  0.1346
  C  C68  1  0.414840  0.002920  0.424530  1.0  0.1327
  C  C69  1  0.779860  0.377160  0.452670  1.0  0.122
  C  C70  1  0.724890  0.202090  0.336350  1.0  0.1459
  C  C71  1  0.837200  0.339000  0.520240  1.0  -0.2223
  C  C72  1  0.780300  0.157380  0.399770  1.0  -0.2312
  C  C73  1  0.838080  0.226640  0.494620  1.0  0.1049
  C  C74  1  0.899330  0.184790  0.569730  1.0  -0.1584
  C  C75  1  0.950460  0.089560  0.533670  1.0  -0.1062
  C  C76  1  0.053630  0.107970  0.527480  1.0  0.1298
  C  C77  1  0.101640  0.021400  0.495740  1.0  0.1313
  C  C78  1  0.486000  0.515600  0.133500  1.0  0.1443
  C  C79  1  0.377500  0.342700  0.082600  1.0  0.1306
  C  C80  1  0.400400  0.548000  0.077200  1.0  -0.2347
  C  C81  1  0.287000  0.369600  0.025000  1.0  -0.2355
  C  C82  1  0.297730  0.473810  0.022180  1.0  0.1314
  C  C83  1  0.202780  0.505160  0.957890  1.0  -0.1708
  C  C84  1  0.098770  0.500470  0.979940  1.0  -0.1023
  C  C85  1  0.092510  0.584250  0.056020  1.0  0.1353
  C  C86  1  0.997080  0.585160  0.075470  1.0  0.1348
  C  C87  1  0.377160  0.779860  0.952670  1.0  0.1248
  C  C88  1  0.202090  0.724890  0.836350  1.0  0.1473
  C  C89  1  0.339000  0.837200  0.020240  1.0  -0.2275
  C  C90  1  0.157380  0.780300  0.899770  1.0  -0.2367
  C  C91  1  0.226640  0.838080  0.994620  1.0  0.1036
  C  C92  1  0.184790  0.899330  0.069730  1.0  -0.1604
  C  C93  1  0.089560  0.950460  0.033670  1.0  -0.1032
  C  C94  1  0.107970  0.053630  0.027480  1.0  0.1293
  C  C95  1  0.021400  0.101640  0.995740  1.0  0.1328
  C  C96  1  0.515600  0.486000  0.633500  1.0  0.1431
  C  C97  1  0.342700  0.377500  0.582600  1.0  0.1323
  C  C98  1  0.548000  0.400400  0.577200  1.0  -0.2351
  C  C99  1  0.369600  0.287000  0.525000  1.0  -0.2344
  C  C100  1  0.473810  0.297730  0.522180  1.0  0.1294
  C  C101  1  0.505160  0.202780  0.457890  1.0  -0.1769
  C  C102  1  0.500470  0.098770  0.479940  1.0  -0.1024
  C  C103  1  0.584250  0.092510  0.556020  1.0  0.1346
  C  C104  1  0.585160  0.997080  0.575470  1.0  0.133
  C  C105  1  0.220140  0.622840  0.547330  1.0  0.1224
  C  C106  1  0.275110  0.797910  0.663650  1.0  0.1459
  C  C107  1  0.162800  0.661000  0.479760  1.0  -0.2233
  C  C108  1  0.219700  0.842620  0.600230  1.0  -0.2367
  C  C109  1  0.161920  0.773360  0.505380  1.0  0.1032
  C  C110  1  0.100670  0.815210  0.430270  1.0  -0.1557
  C  C111  1  0.049540  0.910440  0.466330  1.0  -0.1037
  C  C112  1  0.946370  0.892030  0.472520  1.0  0.1293
  C  C113  1  0.898360  0.978600  0.504260  1.0  0.1305
  C  C114  1  0.514000  0.484400  0.866500  1.0  0.1429
  C  C115  1  0.622500  0.657300  0.917400  1.0  0.1318
  C  C116  1  0.599600  0.452000  0.922800  1.0  -0.2336
  C  C117  1  0.713000  0.630400  0.975000  1.0  -0.2352
  C  C118  1  0.702270  0.526190  0.977820  1.0  0.1307
  C  C119  1  0.797220  0.494840  0.042110  1.0  -0.1755
  C  C120  1  0.901230  0.499530  0.020060  1.0  -0.1041
  C  C121  1  0.907490  0.415750  0.943980  1.0  0.1346
  C  C122  1  0.002920  0.414840  0.924530  1.0  0.1334
  N  N123  1  0.689720  0.276960  0.139010  1.0  -0.3981
  N  N124  1  0.586160  0.524060  0.363780  1.0  -0.3643
  N  N125  1  0.723040  0.310280  0.360990  1.0  -0.3983
  N  N126  1  0.475940  0.413840  0.136220  1.0  -0.3672
  N  N127  1  0.310280  0.723040  0.860990  1.0  -0.398
  N  N128  1  0.413840  0.475940  0.636220  1.0  -0.3661
  N  N129  1  0.276960  0.689720  0.639010  1.0  -0.3961
  N  N130  1  0.524060  0.586160  0.863780  1.0  -0.367
  F  F131  1  0.786210  0.890910  0.946020  1.0  -0.1398
  F  F132  1  0.954030  0.796870  0.007220  1.0  -0.1364
  F  F133  1  0.330610  0.816670  0.386160  1.0  -0.1319
  F  F134  1  0.328940  0.001420  0.349660  1.0  -0.1408
  F  F135  1  0.109090  0.213790  0.553980  1.0  -0.1393
  F  F136  1  0.203130  0.045970  0.492780  1.0  -0.1348
  F  F137  1  0.183330  0.669390  0.113840  1.0  -0.1321
  F  F138  1  0.998580  0.671060  0.150340  1.0  -0.14
  F  F139  1  0.213790  0.109090  0.053980  1.0  -0.1395
  F  F140  1  0.045970  0.203130  0.992780  1.0  -0.1351
  F  F141  1  0.669390  0.183330  0.613840  1.0  -0.1322
  F  F142  1  0.671060  0.998580  0.650340  1.0  -0.1406
  F  F143  1  0.890910  0.786210  0.446020  1.0  -0.1396
  F  F144  1  0.796870  0.954030  0.507220  1.0  -0.1352
  F  F145  1  0.816670  0.330610  0.886160  1.0  -0.1324
  F  F146  1  0.001420  0.328940  0.849660  1.0  -0.1401
