# generated using pymatgen
data_CdH24C36(NF2)4
_symmetry_space_group_name_H-M   'P 1'
_cell_length_a   13.04700000
_cell_length_b   13.27900000
_cell_length_c   16.61450000
_cell_angle_alpha   111.12100000
_cell_angle_beta   109.44200000
_cell_angle_gamma   92.73400000
_symmetry_Int_Tables_number   1
_chemical_formula_structural   CdH24C36(NF2)4
_chemical_formula_sum   'Cd2 H48 C72 N8 F16'
_cell_volume   2485.59422761
_cell_formula_units_Z   2
loop_
 _symmetry_equiv_pos_site_id
 _symmetry_equiv_pos_as_xyz
  1  'x, y, z'
loop_
 _atom_site_type_symbol
 _atom_site_label
 _atom_site_symmetry_multiplicity
 _atom_site_fract_x
 _atom_site_fract_y
 _atom_site_fract_z
 _atom_site_occupancy
 _atom_site_charge
  Cd  Cd1  1  0.617480  0.379190  0.250770  1.0  0.681
  Cd  Cd2  1  0.382520  0.620810  0.749230  1.0  0.6814
  H  H3  1  0.541900  0.221000  0.030900  1.0  0.0645
  H  H4  1  0.846200  0.317300  0.220100  1.0  0.0662
  H  H5  1  0.605200  0.125300  0.918300  1.0  0.1078
  H  H6  1  0.915900  0.220600  0.112800  1.0  0.1123
  H  H7  1  0.748700  0.036000  0.874200  1.0  0.1113
  H  H8  1  0.831900  0.144900  0.898800  1.0  0.1112
  H  H9  1  0.359100  0.271700  0.097100  1.0  0.0625
  H  H10  1  0.542800  0.554100  0.162200  1.0  0.0563
  H  H11  1  0.216100  0.307900  0.987400  1.0  0.0886
  H  H12  1  0.398400  0.601900  0.065600  1.0  0.1131
  H  H13  1  0.217600  0.560800  0.949000  1.0  0.1133
  H  H14  1  0.173600  0.432600  0.883600  1.0  0.1073
  H  H15  1  0.449800  0.449900  0.357000  1.0  0.0562
  H  H16  1  0.719500  0.637800  0.398000  1.0  0.065
  H  H17  1  0.396900  0.596300  0.452700  1.0  0.1178
  H  H18  1  0.673200  0.790200  0.492200  1.0  0.1081
  H  H19  1  0.558300  0.826000  0.615700  1.0  0.1065
  H  H20  1  0.429700  0.783500  0.550300  1.0  0.11
  H  H21  1  0.693000  0.159900  0.271900  1.0  0.0616
  H  H22  1  0.769900  0.456000  0.470800  1.0  0.0754
  H  H23  1  0.791900  0.088700  0.376300  1.0  0.1214
  H  H24  1  0.873600  0.395900  0.579800  1.0  0.1249
  H  H25  1  0.971100  0.256900  0.614800  1.0  0.1194
  H  H26  1  0.859600  0.182700  0.597400  1.0  0.1215
  H  H27  1  0.458100  0.779000  0.969100  1.0  0.0641
  H  H28  1  0.153800  0.682700  0.779900  1.0  0.0661
  H  H29  1  0.394800  0.874700  0.081700  1.0  0.107
  H  H30  1  0.084100  0.779400  0.887200  1.0  0.112
  H  H31  1  0.251300  0.964000  0.125800  1.0  0.1117
  H  H32  1  0.168100  0.855100  0.101200  1.0  0.1106
  H  H33  1  0.640900  0.728300  0.902900  1.0  0.062
  H  H34  1  0.457200  0.445900  0.837800  1.0  0.0559
  H  H35  1  0.783900  0.692100  0.012600  1.0  0.091
  H  H36  1  0.601600  0.398100  0.934400  1.0  0.1128
  H  H37  1  0.782400  0.439200  0.051000  1.0  0.1127
  H  H38  1  0.826400  0.567400  0.116400  1.0  0.1083
  H  H39  1  0.550200  0.550100  0.643000  1.0  0.0569
  H  H40  1  0.280500  0.362200  0.602000  1.0  0.0644
  H  H41  1  0.603100  0.403700  0.547300  1.0  0.1184
  H  H42  1  0.326800  0.209800  0.507800  1.0  0.1077
  H  H43  1  0.441700  0.174000  0.384300  1.0  0.106
  H  H44  1  0.570300  0.216500  0.449700  1.0  0.1091
  H  H45  1  0.307000  0.840100  0.728100  1.0  0.0632
  H  H46  1  0.230100  0.544000  0.529200  1.0  0.075
  H  H47  1  0.208100  0.911300  0.623700  1.0  0.122
  H  H48  1  0.126400  0.604100  0.420200  1.0  0.1247
  H  H49  1  0.028900  0.743100  0.385200  1.0  0.1202
  H  H50  1  0.140400  0.817300  0.402600  1.0  0.1158
  C  C51  1  0.619200  0.221400  0.048000  1.0  0.127
  C  C52  1  0.796000  0.276800  0.157800  1.0  0.1333
  C  C53  1  0.656600  0.163700  0.980400  1.0  -0.2326
  C  C54  1  0.838600  0.219800  0.094000  1.0  -0.2486
  C  C55  1  0.768500  0.159900  0.000400  1.0  0.1164
  C  C56  1  0.809700  0.095500  0.925100  1.0  -0.2055
  C  C57  1  0.907100  0.045800  0.962800  1.0  -0.0657
  C  C58  1  0.015900  0.102400  0.995900  1.0  0.1456
  C  C59  1  0.104500  0.057800  0.031800  1.0  0.1282
  C  C60  1  0.369600  0.338600  0.089700  1.0  0.1103
  C  C61  1  0.474400  0.503400  0.128300  1.0  0.1379
  C  C62  1  0.281800  0.361900  0.025100  1.0  -0.1835
  C  C63  1  0.388300  0.532400  0.069000  1.0  -0.2251
  C  C64  1  0.289000  0.459900  0.015600  1.0  0.0988
  C  C65  1  0.193200  0.488300  0.947700  1.0  -0.1828
  C  C66  1  0.092500  0.491300  0.973700  1.0  -0.083
  C  C67  1  0.087300  0.583700  0.045300  1.0  0.1368
  C  C68  1  0.997900  0.592300  0.069800  1.0  0.157
  C  C69  1  0.495700  0.520600  0.384800  1.0  0.1537
  C  C70  1  0.652700  0.629700  0.408200  1.0  0.115
  C  C71  1  0.463200  0.606900  0.442400  1.0  -0.2459
  C  C72  1  0.626300  0.720200  0.465600  1.0  -0.1918
  C  C73  1  0.532600  0.709400  0.484400  1.0  0.1212
  C  C74  1  0.504000  0.805600  0.551600  1.0  -0.211
  C  C75  1  0.505100  0.906700  0.525100  1.0  -0.0815
  C  C76  1  0.416900  0.913100  0.452100  1.0  0.1632
  C  C77  1  0.411100  0.002700  0.426900  1.0  0.1356
  C  C78  1  0.730400  0.208500  0.335300  1.0  0.1393
  C  C79  1  0.776000  0.380700  0.451400  1.0  0.1243
  C  C80  1  0.789100  0.164800  0.397200  1.0  -0.2405
  C  C81  1  0.836800  0.345300  0.517000  1.0  -0.2491
  C  C82  1  0.844200  0.235500  0.491500  1.0  0.1028
  C  C83  1  0.909000  0.196600  0.566900  1.0  -0.2621
  C  C84  1  0.955600  0.093900  0.532800  1.0  -0.0724
  C  C85  1  0.060000  0.105600  0.531700  1.0  0.1444
  C  C86  1  0.103400  0.011900  0.500300  1.0  0.1712
  C  C87  1  0.380800  0.778600  0.952000  1.0  0.1267
  C  C88  1  0.204000  0.723200  0.842200  1.0  0.1317
  C  C89  1  0.343400  0.836300  0.019600  1.0  -0.2321
  C  C90  1  0.161400  0.780200  0.906000  1.0  -0.2505
  C  C91  1  0.231500  0.840100  0.999600  1.0  0.1168
  C  C92  1  0.190300  0.904500  0.074900  1.0  -0.1984
  C  C93  1  0.092900  0.954200  0.037200  1.0  -0.0588
  C  C94  1  0.984100  0.897600  0.004100  1.0  0.1414
  C  C95  1  0.895500  0.942200  0.968200  1.0  0.1282
  C  C96  1  0.630400  0.661400  0.910300  1.0  0.11
  C  C97  1  0.525600  0.496600  0.871700  1.0  0.1383
  C  C98  1  0.718200  0.638100  0.974900  1.0  -0.1746
  C  C99  1  0.611700  0.467600  0.931000  1.0  -0.2224
  C  C100  1  0.711000  0.540100  0.984400  1.0  0.0994
  C  C101  1  0.806800  0.511700  0.052300  1.0  -0.1793
  C  C102  1  0.907500  0.508700  0.026300  1.0  -0.0822
  C  C103  1  0.912700  0.416300  0.954700  1.0  0.1366
  C  C104  1  0.002100  0.407700  0.930200  1.0  0.1564
  C  C105  1  0.504300  0.479400  0.615200  1.0  0.154
  C  C106  1  0.347300  0.370300  0.591800  1.0  0.1134
  C  C107  1  0.536800  0.393100  0.557600  1.0  -0.2444
  C  C108  1  0.373700  0.279800  0.534400  1.0  -0.1932
  C  C109  1  0.467400  0.290600  0.515600  1.0  0.1216
  C  C110  1  0.496000  0.194400  0.448400  1.0  -0.226
  C  C111  1  0.494900  0.093300  0.474900  1.0  -0.0827
  C  C112  1  0.583100  0.086900  0.547900  1.0  0.1688
  C  C113  1  0.588900  0.997300  0.573100  1.0  0.1392
  C  C114  1  0.269600  0.791500  0.664700  1.0  0.1397
  C  C115  1  0.224000  0.619300  0.548600  1.0  0.1241
  C  C116  1  0.210900  0.835200  0.602800  1.0  -0.2434
  C  C117  1  0.163200  0.654700  0.483000  1.0  -0.2471
  C  C118  1  0.155800  0.764500  0.508500  1.0  0.1017
  C  C119  1  0.091000  0.803400  0.433100  1.0  -0.2342
  C  C120  1  0.044400  0.906100  0.467200  1.0  -0.0736
  C  C121  1  0.940000  0.894400  0.468300  1.0  0.139
  C  C122  1  0.896600  0.988100  0.499700  1.0  0.1652
  N  N123  1  0.686900  0.279600  0.138500  1.0  -0.392
  N  N124  1  0.467600  0.409300  0.140900  1.0  -0.3757
  N  N125  1  0.585300  0.529400  0.365900  1.0  -0.3777
  N  N126  1  0.723500  0.313300  0.359200  1.0  -0.4005
  N  N127  1  0.313100  0.720400  0.861500  1.0  -0.3964
  N  N128  1  0.532400  0.590700  0.859100  1.0  -0.3765
  N  N129  1  0.414700  0.470600  0.634100  1.0  -0.3794
  N  N130  1  0.276500  0.686700  0.640800  1.0  -0.395
  F  F131  1  0.033100  0.202800  0.993600  1.0  -0.1369
  F  F132  1  0.206700  0.116300  0.060600  1.0  -0.1436
  F  F133  1  0.175000  0.669800  0.091300  1.0  -0.1402
  F  F134  1  0.001900  0.685000  0.139500  1.0  -0.1455
  F  F135  1  0.331200  0.826100  0.401000  1.0  -0.1417
  F  F136  1  0.322300  0.001000  0.354200  1.0  -0.1536
  F  F137  1  0.121300  0.204900  0.561600  1.0  -0.1308
  F  F138  1  0.205100  0.026600  0.501100  1.0  -0.1365
  F  F139  1  0.966900  0.797200  0.006400  1.0  -0.1388
  F  F140  1  0.793300  0.883700  0.939400  1.0  -0.1426
  F  F141  1  0.825000  0.330200  0.908700  1.0  -0.1413
  F  F142  1  0.998100  0.315000  0.860500  1.0  -0.1464
  F  F143  1  0.668800  0.173900  0.599000  1.0  -0.1411
  F  F144  1  0.677700  0.999000  0.645800  1.0  -0.153
  F  F145  1  0.878700  0.795100  0.438400  1.0  -0.1316
  F  F146  1  0.794900  0.973400  0.498900  1.0  -0.1354
