# generated using pymatgen
data_CdH24C36(NF2)4
_symmetry_space_group_name_H-M   'P 1'
_cell_length_a   12.92990000
_cell_length_b   13.18000000
_cell_length_c   16.52030000
_cell_angle_alpha   111.36100000
_cell_angle_beta   108.27800000
_cell_angle_gamma   93.77800000
_symmetry_Int_Tables_number   1
_chemical_formula_structural   CdH24C36(NF2)4
_chemical_formula_sum   'Cd2 H48 C72 N8 F16'
_cell_volume   2437.44171257
_cell_formula_units_Z   2
loop_
 _symmetry_equiv_pos_site_id
 _symmetry_equiv_pos_as_xyz
  1  'x, y, z'
loop_
 _atom_site_type_symbol
 _atom_site_label
 _atom_site_symmetry_multiplicity
 _atom_site_fract_x
 _atom_site_fract_y
 _atom_site_fract_z
 _atom_site_occupancy
 _atom_site_charge
  Cd  Cd1  1  0.382660  0.624790  0.254130  1.0  0.6728
  Cd  Cd2  1  0.617340  0.375210  0.745870  1.0  0.6719
  H  H3  1  0.456800  0.799100  0.473800  1.0  0.0529
  H  H4  1  0.161500  0.674400  0.291100  1.0  0.0934
  H  H5  1  0.391600  0.895100  0.584000  1.0  0.0968
  H  H6  1  0.082300  0.762600  0.395100  1.0  0.0873
  H  H7  1  0.151900  0.849200  0.596200  1.0  0.1098
  H  H8  1  0.237100  0.959100  0.627800  1.0  0.1621
  H  H9  1  0.307600  0.844000  0.229600  1.0  0.0527
  H  H10  1  0.211800  0.538700  0.040400  1.0  0.0738
  H  H11  1  0.215400  0.909800  0.125900  1.0  0.1329
  H  H12  1  0.115300  0.602100  0.932700  1.0  0.0982
  H  H13  1  0.142700  0.815300  0.911500  1.0  0.2651
  H  H14  1  0.037400  0.741600  0.892300  1.0  0.1008
  H  H15  1  0.297300  0.364100  0.120100  1.0  0.0528
  H  H16  1  0.544100  0.561700  0.137300  1.0  0.0586
  H  H17  1  0.352800  0.212500  0.027500  1.0  0.1147
  H  H18  1  0.597800  0.420200  0.042200  1.0  0.0877
  H  H19  1  0.586700  0.223000  0.966300  1.0  0.123
  H  H20  1  0.469300  0.181600  0.897900  1.0  0.1787
  H  H21  1  0.463000  0.445000  0.331000  1.0  0.0575
  H  H22  1  0.627600  0.745100  0.413300  1.0  0.0608
  H  H23  1  0.598000  0.412000  0.441000  1.0  0.092
  H  H24  1  0.776000  0.708400  0.517300  1.0  0.0878
  H  H25  1  0.825600  0.587500  0.615000  1.0  0.1048
  H  H26  1  0.777800  0.463000  0.559000  1.0  0.1099
  H  H27  1  0.543200  0.200900  0.526200  1.0  0.052
  H  H28  1  0.838500  0.325600  0.708900  1.0  0.0931
  H  H29  1  0.608400  0.104900  0.416000  1.0  0.0964
  H  H30  1  0.917700  0.237400  0.604900  1.0  0.0882
  H  H31  1  0.848100  0.150800  0.403800  1.0  0.1072
  H  H32  1  0.762900  0.040900  0.372200  1.0  0.1607
  H  H33  1  0.692400  0.156000  0.770400  1.0  0.0531
  H  H34  1  0.788200  0.461300  0.959600  1.0  0.0741
  H  H35  1  0.784600  0.090200  0.874100  1.0  0.1355
  H  H36  1  0.884700  0.397900  0.067300  1.0  0.0971
  H  H37  1  0.857300  0.184700  0.088500  1.0  0.2661
  H  H38  1  0.962600  0.258400  0.107700  1.0  0.1004
  H  H39  1  0.702700  0.635900  0.879900  1.0  0.0525
  H  H40  1  0.455900  0.438300  0.862700  1.0  0.0588
  H  H41  1  0.647200  0.787500  0.972500  1.0  0.1149
  H  H42  1  0.402200  0.579800  0.957800  1.0  0.0869
  H  H43  1  0.413300  0.777000  0.033700  1.0  0.1232
  H  H44  1  0.530700  0.818400  0.102100  1.0  0.1796
  H  H45  1  0.537000  0.555000  0.669000  1.0  0.0579
  H  H46  1  0.372400  0.254900  0.586700  1.0  0.0601
  H  H47  1  0.402000  0.588000  0.559000  1.0  0.092
  H  H48  1  0.224000  0.291600  0.482700  1.0  0.0888
  H  H49  1  0.174400  0.412500  0.385000  1.0  0.1049
  H  H50  1  0.222200  0.537000  0.441000  1.0  0.1103
  C  C51  1  0.380780  0.789110  0.457780  1.0  0.15
  C  C52  1  0.204890  0.714800  0.350100  1.0  0.1093
  C  C53  1  0.341770  0.846930  0.526230  1.0  -0.1986
  C  C54  1  0.159340  0.769500  0.414510  1.0  -0.1873
  C  C55  1  0.228020  0.837960  0.505190  1.0  0.0951
  C  C56  1  0.182390  0.902270  0.578720  1.0  -0.2002
  C  C57  1  0.088390  0.952710  0.539540  1.0  -0.0756
  C  C58  1  0.107990  0.053900  0.532920  1.0  0.1271
  C  C59  1  0.022420  0.099720  0.495490  1.0  0.1362
  C  C60  1  0.269660  0.796410  0.169450  1.0  0.1068
  C  C61  1  0.214190  0.618130  0.058130  1.0  0.1091
  C  C62  1  0.212490  0.837370  0.106480  1.0  -0.2023
  C  C63  1  0.155180  0.653050  0.991190  1.0  -0.1931
  C  C64  1  0.154510  0.765420  0.014440  1.0  0.0837
  C  C65  1  0.095170  0.802390  0.938420  1.0  -0.2333
  C  C66  1  0.047450  0.904720  0.971300  1.0  -0.0777
  C  C67  1  0.944840  0.897650  0.980650  1.0  0.116
  C  C68  1  0.899320  0.990090  0.008460  1.0  0.117
  C  C69  1  0.360500  0.371090  0.102790  1.0  0.0874
  C  C70  1  0.504530  0.489900  0.113160  1.0  0.1172
  C  C71  1  0.389460  0.280470  0.046570  1.0  -0.197
  C  C72  1  0.536840  0.403530  0.056360  1.0  -0.1507
  C  C73  1  0.480060  0.295260  0.022180  1.0  0.0511
  C  C74  1  0.513950  0.198720  0.958970  1.0  -0.2314
  C  C75  1  0.505850  0.096100  0.979670  1.0  -0.0422
  C  C76  1  0.584670  0.088870  0.055070  1.0  0.1398
  C  C77  1  0.579800  0.995570  0.074980  1.0  0.1278
  C  C78  1  0.529850  0.499200  0.369700  1.0  0.1344
  C  C79  1  0.627160  0.672650  0.418750  1.0  0.1241
  C  C80  1  0.614990  0.473920  0.429200  1.0  -0.1272
  C  C81  1  0.715640  0.653870  0.480930  1.0  -0.1719
  C  C82  1  0.710080  0.552330  0.487260  1.0  0.0931
  C  C83  1  0.805030  0.528590  0.555210  1.0  -0.2092
  C  C84  1  0.905190  0.515120  0.526480  1.0  -0.0457
  C  C85  1  0.906580  0.419630  0.455560  1.0  0.1229
  C  C86  1  0.997770  0.404180  0.429450  1.0  0.1112
  C  C87  1  0.619220  0.210890  0.542220  1.0  0.1489
  C  C88  1  0.795110  0.285200  0.649900  1.0  0.1094
  C  C89  1  0.658230  0.153070  0.473770  1.0  -0.2003
  C  C90  1  0.840660  0.230500  0.585490  1.0  -0.1849
  C  C91  1  0.771980  0.162040  0.494810  1.0  0.0945
  C  C92  1  0.817610  0.097730  0.421280  1.0  -0.198
  C  C93  1  0.911610  0.047290  0.460460  1.0  -0.0757
  C  C94  1  0.892010  0.946100  0.467080  1.0  0.122
  C  C95  1  0.977580  0.900280  0.504510  1.0  0.1345
  C  C96  1  0.730340  0.203590  0.830550  1.0  0.1078
  C  C97  1  0.785810  0.381870  0.941870  1.0  0.11
  C  C98  1  0.787510  0.162630  0.893520  1.0  -0.2011
  C  C99  1  0.844820  0.346950  0.008810  1.0  -0.1939
  C  C100  1  0.845490  0.234580  0.985560  1.0  0.0853
  C  C101  1  0.904830  0.197610  0.061580  1.0  -0.2426
  C  C102  1  0.952550  0.095280  0.028700  1.0  -0.0781
  C  C103  1  0.055160  0.102350  0.019350  1.0  0.1154
  C  C104  1  0.100680  0.009910  0.991540  1.0  0.1207
  C  C105  1  0.639500  0.628910  0.897210  1.0  0.0875
  C  C106  1  0.495470  0.510100  0.886840  1.0  0.118
  C  C107  1  0.610540  0.719530  0.953430  1.0  -0.1988
  C  C108  1  0.463160  0.596470  0.943640  1.0  -0.1521
  C  C109  1  0.519940  0.704740  0.977820  1.0  0.0512
  C  C110  1  0.486050  0.801280  0.041030  1.0  -0.2378
  C  C111  1  0.494150  0.903900  0.020330  1.0  -0.0419
  C  C112  1  0.415330  0.911130  0.944930  1.0  0.1392
  C  C113  1  0.420200  0.004430  0.925020  1.0  0.1301
  C  C114  1  0.470150  0.500800  0.630300  1.0  0.133
  C  C115  1  0.372840  0.327350  0.581250  1.0  0.1251
  C  C116  1  0.385010  0.526080  0.570800  1.0  -0.1276
  C  C117  1  0.284360  0.346130  0.519070  1.0  -0.1706
  C  C118  1  0.289920  0.447670  0.512740  1.0  0.0941
  C  C119  1  0.194970  0.471410  0.444790  1.0  -0.2201
  C  C120  1  0.094810  0.484880  0.473520  1.0  -0.0442
  C  C121  1  0.093420  0.580370  0.544440  1.0  0.1234
  C  C122  1  0.002230  0.595820  0.570550  1.0  0.1111
  N  N123  1  0.314490  0.723240  0.369940  1.0  -0.3848
  N  N124  1  0.272060  0.688120  0.146780  1.0  -0.3806
  N  N125  1  0.416550  0.475570  0.137690  1.0  -0.382
  N  N126  1  0.533800  0.597340  0.364130  1.0  -0.371
  N  N127  1  0.685510  0.276760  0.630060  1.0  -0.3841
  N  N128  1  0.727940  0.311880  0.853220  1.0  -0.3854
  N  N129  1  0.583450  0.524430  0.862310  1.0  -0.382
  N  N130  1  0.466200  0.402660  0.635870  1.0  -0.3705
  F  F131  1  0.213780  0.108470  0.563760  1.0  -0.1516
  F  F132  1  0.047760  0.199140  0.492770  1.0  -0.1487
  F  F133  1  0.886810  0.797430  0.961250  1.0  -0.1804
  F  F134  1  0.798500  0.975950  0.015860  1.0  -0.1476
  F  F135  1  0.670080  0.176650  0.112360  1.0  -0.1791
  F  F136  1  0.661830  0.995760  0.149350  1.0  -0.1622
  F  F137  1  0.814410  0.337640  0.408980  1.0  -0.1799
  F  F138  1  0.990690  0.308390  0.358440  1.0  -0.1614
  F  F139  1  0.786220  0.891530  0.436240  1.0  -0.1519
  F  F140  1  0.952240  0.800860  0.507230  1.0  -0.15
  F  F141  1  0.113190  0.202570  0.038750  1.0  -0.1795
  F  F142  1  0.201500  0.024050  0.984140  1.0  -0.1483
  F  F143  1  0.329920  0.823350  0.887640  1.0  -0.1811
  F  F144  1  0.338170  0.004240  0.850650  1.0  -0.1623
  F  F145  1  0.185590  0.662360  0.591020  1.0  -0.1769
  F  F146  1  0.009310  0.691610  0.641560  1.0  -0.1611
