# generated using pymatgen
data_ZnH8C16(NO2)2
_symmetry_space_group_name_H-M   'P 1'
_cell_length_a   12.78330000
_cell_length_b   25.55990000
_cell_length_c   25.55990000
_cell_angle_alpha   90.00000000
_cell_angle_beta   90.00000000
_cell_angle_gamma   90.00000000
_symmetry_Int_Tables_number   1
_chemical_formula_structural   ZnH8C16(NO2)2
_chemical_formula_sum   'Zn12 H96 C192 N24 O48'
_cell_volume   8351.43839478
_cell_formula_units_Z   12
loop_
 _symmetry_equiv_pos_site_id
 _symmetry_equiv_pos_as_xyz
  1  'x, y, z'
loop_
 _atom_site_type_symbol
 _atom_site_label
 _atom_site_symmetry_multiplicity
 _atom_site_fract_x
 _atom_site_fract_y
 _atom_site_fract_z
 _atom_site_occupancy
 _atom_site_charge
  Zn  Zn1  1  0.839500  0.955580  0.794850  1.0  1.113
  Zn  Zn2  1  0.839500  0.044420  0.205150  1.0  1.1114
  Zn  Zn3  1  0.339500  0.705150  0.455580  1.0  1.1137
  Zn  Zn4  1  0.339500  0.294850  0.544420  1.0  1.1154
  Zn  Zn5  1  0.660500  0.544420  0.294850  1.0  1.1143
  Zn  Zn6  1  0.660500  0.455580  0.705150  1.0  1.1123
  Zn  Zn7  1  0.160500  0.794850  0.955580  1.0  1.1144
  Zn  Zn8  1  0.160500  0.205150  0.044420  1.0  1.1133
  Zn  Zn9  1  0.000000  0.874860  0.874860  1.0  1.1213
  Zn  Zn10  1  0.000000  0.125140  0.125140  1.0  1.1212
  Zn  Zn11  1  0.500000  0.625140  0.374860  1.0  1.1214
  Zn  Zn12  1  0.500000  0.374860  0.625140  1.0  1.1208
  H  H13  1  0.900700  0.771400  0.613100  1.0  0.129
  H  H14  1  0.850100  0.833700  0.675400  1.0  0.1197
  H  H15  1  0.120100  0.812500  0.753400  1.0  0.1204
  H  H16  1  0.166800  0.747500  0.694800  1.0  0.1297
  H  H17  1  0.275900  0.632000  0.678000  1.0  0.1309
  H  H18  1  0.418800  0.576600  0.698500  1.0  0.1308
  H  H19  1  0.375900  0.501000  0.561000  1.0  0.1181
  H  H20  1  0.236800  0.556900  0.539500  1.0  0.1093
  H  H21  1  0.009900  0.571600  0.485000  1.0  0.1236
  H  H22  1  0.905000  0.551900  0.413100  1.0  0.0818
  H  H23  1  0.739600  0.683300  0.437500  1.0  0.1178
  H  H24  1  0.855800  0.709000  0.502700  1.0  0.1346
  H  H25  1  0.900700  0.228600  0.386900  1.0  0.1304
  H  H26  1  0.850100  0.166300  0.324600  1.0  0.12
  H  H27  1  0.120100  0.187500  0.246600  1.0  0.1206
  H  H28  1  0.166800  0.252500  0.305200  1.0  0.1299
  H  H29  1  0.275900  0.368000  0.322000  1.0  0.1308
  H  H30  1  0.418800  0.423400  0.301500  1.0  0.1319
  H  H31  1  0.375900  0.499000  0.439000  1.0  0.1178
  H  H32  1  0.236800  0.443100  0.460500  1.0  0.1103
  H  H33  1  0.009900  0.428400  0.515000  1.0  0.1253
  H  H34  1  0.905000  0.448100  0.586900  1.0  0.0836
  H  H35  1  0.739600  0.316700  0.562500  1.0  0.1167
  H  H36  1  0.855800  0.291000  0.497300  1.0  0.1342
  H  H37  1  0.400700  0.886900  0.271400  1.0  0.1287
  H  H38  1  0.350100  0.824600  0.333700  1.0  0.1196
  H  H39  1  0.620100  0.746600  0.312500  1.0  0.1216
  H  H40  1  0.666800  0.805200  0.247500  1.0  0.1297
  H  H41  1  0.775900  0.822000  0.132000  1.0  0.131
  H  H42  1  0.918800  0.801500  0.076600  1.0  0.1309
  H  H43  1  0.875900  0.939000  0.001000  1.0  0.118
  H  H44  1  0.736800  0.960500  0.056900  1.0  0.1103
  H  H45  1  0.509900  0.015000  0.071600  1.0  0.1231
  H  H46  1  0.405000  0.086900  0.051900  1.0  0.0828
  H  H47  1  0.239600  0.062500  0.183300  1.0  0.1173
  H  H48  1  0.355800  0.997300  0.209000  1.0  0.1348
  H  H49  1  0.400700  0.113100  0.728600  1.0  0.1277
  H  H50  1  0.350100  0.175400  0.666300  1.0  0.119
  H  H51  1  0.620100  0.253400  0.687500  1.0  0.1211
  H  H52  1  0.666800  0.194800  0.752500  1.0  0.1296
  H  H53  1  0.775900  0.178000  0.868000  1.0  0.1314
  H  H54  1  0.918800  0.198500  0.923400  1.0  0.1324
  H  H55  1  0.875900  0.061000  0.999000  1.0  0.1184
  H  H56  1  0.736800  0.039500  0.943100  1.0  0.1096
  H  H57  1  0.509900  0.985000  0.928400  1.0  0.1239
  H  H58  1  0.405000  0.913100  0.948100  1.0  0.0855
  H  H59  1  0.239600  0.937500  0.816700  1.0  0.1166
  H  H60  1  0.355800  0.002700  0.791000  1.0  0.1352
  H  H61  1  0.599300  0.728600  0.113100  1.0  0.1296
  H  H62  1  0.649900  0.666300  0.175400  1.0  0.1195
  H  H63  1  0.379900  0.687500  0.253400  1.0  0.1205
  H  H64  1  0.333200  0.752500  0.194800  1.0  0.1297
  H  H65  1  0.224100  0.868000  0.178000  1.0  0.1312
  H  H66  1  0.081200  0.923400  0.198500  1.0  0.1314
  H  H67  1  0.124100  0.999000  0.061000  1.0  0.1182
  H  H68  1  0.263200  0.943100  0.039500  1.0  0.1096
  H  H69  1  0.490100  0.928400  0.985000  1.0  0.1245
  H  H70  1  0.595000  0.948100  0.913100  1.0  0.0821
  H  H71  1  0.760400  0.816700  0.937500  1.0  0.1174
  H  H72  1  0.644200  0.791000  0.002700  1.0  0.1343
  H  H73  1  0.599300  0.271400  0.886900  1.0  0.1302
  H  H74  1  0.649900  0.333700  0.824600  1.0  0.1194
  H  H75  1  0.379900  0.312500  0.746600  1.0  0.1212
  H  H76  1  0.333200  0.247500  0.805200  1.0  0.1297
  H  H77  1  0.224100  0.132000  0.822000  1.0  0.1302
  H  H78  1  0.081200  0.076600  0.801500  1.0  0.1317
  H  H79  1  0.124100  0.001000  0.939000  1.0  0.1187
  H  H80  1  0.263200  0.056900  0.960500  1.0  0.1108
  H  H81  1  0.490100  0.071600  0.015000  1.0  0.124
  H  H82  1  0.595000  0.051900  0.086900  1.0  0.0843
  H  H83  1  0.760400  0.183300  0.062500  1.0  0.1178
  H  H84  1  0.644200  0.209000  0.997300  1.0  0.1346
  H  H85  1  0.099300  0.613100  0.771400  1.0  0.128
  H  H86  1  0.149900  0.675400  0.833700  1.0  0.1193
  H  H87  1  0.879900  0.753400  0.812500  1.0  0.1214
  H  H88  1  0.833200  0.694800  0.747500  1.0  0.1295
  H  H89  1  0.724100  0.678000  0.632000  1.0  0.1308
  H  H90  1  0.581200  0.698500  0.576600  1.0  0.1318
  H  H91  1  0.624100  0.561000  0.501000  1.0  0.1182
  H  H92  1  0.763200  0.539500  0.556900  1.0  0.1099
  H  H93  1  0.990100  0.485000  0.571600  1.0  0.1234
  H  H94  1  0.095000  0.413100  0.551900  1.0  0.0843
  H  H95  1  0.260400  0.437500  0.683300  1.0  0.1182
  H  H96  1  0.144200  0.502700  0.709000  1.0  0.1352
  H  H97  1  0.099300  0.386900  0.228600  1.0  0.129
  H  H98  1  0.149900  0.324600  0.166300  1.0  0.1193
  H  H99  1  0.879900  0.246600  0.187500  1.0  0.1214
  H  H100  1  0.833200  0.305200  0.252500  1.0  0.1297
  H  H101  1  0.724100  0.322000  0.368000  1.0  0.1304
  H  H102  1  0.581200  0.301500  0.423400  1.0  0.1308
  H  H103  1  0.624100  0.439000  0.499000  1.0  0.1187
  H  H104  1  0.763200  0.460500  0.443100  1.0  0.1106
  H  H105  1  0.990100  0.515000  0.428400  1.0  0.1241
  H  H106  1  0.095000  0.586900  0.448100  1.0  0.0836
  H  H107  1  0.260400  0.562500  0.316700  1.0  0.1175
  H  H108  1  0.144200  0.497300  0.291000  1.0  0.1349
  C  C109  1  0.945000  0.873400  0.753400  1.0  0.6937
  C  C110  1  0.502000  0.492400  0.651700  1.0  0.6405
  C  C111  1  0.742000  0.596600  0.376300  1.0  0.6931
  C  C112  1  0.057000  0.705600  0.616400  1.0  0.3321
  C  C113  1  0.167000  0.635400  0.595800  1.0  0.3185
  C  C114  1  0.020000  0.653000  0.542800  1.0  0.2964
  C  C115  1  0.034000  0.750100  0.651600  1.0  -0.1101
  C  C116  1  0.943000  0.778000  0.642800  1.0  0.0942
  C  C117  1  0.916000  0.817100  0.678000  1.0  -0.0502
  C  C118  1  0.984000  0.832000  0.717400  1.0  -0.1419
  C  C119  1  0.075000  0.804200  0.724900  1.0  -0.0614
  C  C120  1  0.102000  0.764900  0.691100  1.0  -0.0753
  C  C121  1  0.254000  0.600000  0.606000  1.0  -0.0453
  C  C122  1  0.300000  0.606100  0.654100  1.0  -0.0667
  C  C123  1  0.382000  0.572700  0.666500  1.0  -0.0141
  C  C124  1  0.408000  0.533800  0.631000  1.0  -0.1252
  C  C125  1  0.356000  0.528100  0.584400  1.0  -0.0322
  C  C126  1  0.275000  0.561100  0.571000  1.0  -0.0841
  C  C127  1  0.941000  0.641900  0.502000  1.0  -0.0536
  C  C128  1  0.956000  0.595100  0.474700  1.0  -0.0622
  C  C129  1  0.893000  0.582900  0.432500  1.0  -0.1562
  C  C130  1  0.811000  0.615400  0.418600  1.0  -0.105
  C  C131  1  0.797000  0.661200  0.446200  1.0  -0.0295
  C  C132  1  0.863000  0.675900  0.486200  1.0  -0.0991
  C  C133  1  0.945000  0.126600  0.246600  1.0  0.6914
  C  C134  1  0.502000  0.507600  0.348300  1.0  0.6439
  C  C135  1  0.742000  0.403400  0.623700  1.0  0.6927
  C  C136  1  0.057000  0.294400  0.383600  1.0  0.3336
  C  C137  1  0.167000  0.364600  0.404200  1.0  0.3197
  C  C138  1  0.020000  0.347000  0.457200  1.0  0.2971
  C  C139  1  0.034000  0.249900  0.348400  1.0  -0.1086
  C  C140  1  0.943000  0.222000  0.357200  1.0  0.0954
  C  C141  1  0.916000  0.182900  0.322000  1.0  -0.0509
  C  C142  1  0.984000  0.168000  0.282600  1.0  -0.1441
  C  C143  1  0.075000  0.195800  0.275100  1.0  -0.062
  C  C144  1  0.102000  0.235100  0.308900  1.0  -0.0748
  C  C145  1  0.254000  0.400000  0.394000  1.0  -0.0469
  C  C146  1  0.300000  0.393900  0.345900  1.0  -0.0664
  C  C147  1  0.382000  0.427300  0.333500  1.0  -0.0161
  C  C148  1  0.408000  0.466200  0.369000  1.0  -0.1262
  C  C149  1  0.356000  0.471900  0.415600  1.0  -0.032
  C  C150  1  0.275000  0.438900  0.429000  1.0  -0.0837
  C  C151  1  0.941000  0.358100  0.498000  1.0  -0.0522
  C  C152  1  0.956000  0.404900  0.525300  1.0  -0.0627
  C  C153  1  0.893000  0.417100  0.567500  1.0  -0.1573
  C  C154  1  0.811000  0.384600  0.581400  1.0  -0.1049
  C  C155  1  0.797000  0.338800  0.553800  1.0  -0.0281
  C  C156  1  0.863000  0.324100  0.513800  1.0  -0.1013
  C  C157  1  0.445000  0.746600  0.373400  1.0  0.6928
  C  C158  1  0.002000  0.848300  0.992400  1.0  0.6409
  C  C159  1  0.242000  0.123700  0.096600  1.0  0.6911
  C  C160  1  0.557000  0.883600  0.205600  1.0  0.3352
  C  C161  1  0.667000  0.904200  0.135400  1.0  0.3199
  C  C162  1  0.520000  0.957200  0.153000  1.0  0.3001
  C  C163  1  0.534000  0.848400  0.250100  1.0  -0.1096
  C  C164  1  0.443000  0.857200  0.278000  1.0  0.095
  C  C165  1  0.416000  0.822000  0.317100  1.0  -0.0476
  C  C166  1  0.484000  0.782600  0.332000  1.0  -0.1411
  C  C167  1  0.575000  0.775100  0.304200  1.0  -0.0624
  C  C168  1  0.602000  0.808900  0.264900  1.0  -0.0747
  C  C169  1  0.754000  0.894000  0.100000  1.0  -0.0481
  C  C170  1  0.800000  0.845900  0.106100  1.0  -0.0635
  C  C171  1  0.882000  0.833500  0.072700  1.0  -0.0177
  C  C172  1  0.908000  0.869000  0.033800  1.0  -0.1263
  C  C173  1  0.856000  0.915600  0.028100  1.0  -0.0314
  C  C174  1  0.775000  0.929000  0.061100  1.0  -0.0858
  C  C175  1  0.441000  0.998000  0.141900  1.0  -0.0536
  C  C176  1  0.456000  0.025300  0.095100  1.0  -0.061
  C  C177  1  0.393000  0.067500  0.082900  1.0  -0.1557
  C  C178  1  0.311000  0.081400  0.115400  1.0  -0.1022
  C  C179  1  0.297000  0.053800  0.161200  1.0  -0.0306
  C  C180  1  0.363000  0.013800  0.175900  1.0  -0.1022
  C  C181  1  0.445000  0.253400  0.626600  1.0  0.6938
  C  C182  1  0.002000  0.151700  0.007600  1.0  0.6421
  C  C183  1  0.242000  0.876300  0.903400  1.0  0.6903
  C  C184  1  0.557000  0.116400  0.794400  1.0  0.3319
  C  C185  1  0.667000  0.095800  0.864600  1.0  0.3228
  C  C186  1  0.520000  0.042800  0.847000  1.0  0.2959
  C  C187  1  0.534000  0.151600  0.749900  1.0  -0.1083
  C  C188  1  0.443000  0.142800  0.722000  1.0  0.0981
  C  C189  1  0.416000  0.178000  0.682900  1.0  -0.0472
  C  C190  1  0.484000  0.217400  0.668000  1.0  -0.1412
  C  C191  1  0.575000  0.224900  0.695800  1.0  -0.0613
  C  C192  1  0.602000  0.191100  0.735100  1.0  -0.0733
  C  C193  1  0.754000  0.106000  0.900000  1.0  -0.0496
  C  C194  1  0.800000  0.154100  0.893900  1.0  -0.0631
  C  C195  1  0.882000  0.166500  0.927300  1.0  -0.0175
  C  C196  1  0.908000  0.131000  0.966200  1.0  -0.1275
  C  C197  1  0.856000  0.084400  0.971900  1.0  -0.0304
  C  C198  1  0.775000  0.071000  0.938900  1.0  -0.0843
  C  C199  1  0.441000  0.002000  0.858100  1.0  -0.0551
  C  C200  1  0.456000  0.974700  0.904900  1.0  -0.0575
  C  C201  1  0.393000  0.932500  0.917100  1.0  -0.1561
  C  C202  1  0.311000  0.918600  0.884600  1.0  -0.1028
  C  C203  1  0.297000  0.946200  0.838800  1.0  -0.0301
  C  C204  1  0.363000  0.986200  0.824100  1.0  -0.1027
  C  C205  1  0.555000  0.626600  0.253400  1.0  0.6924
  C  C206  1  0.998000  0.007600  0.151700  1.0  0.6404
  C  C207  1  0.758000  0.903400  0.876300  1.0  0.693
  C  C208  1  0.443000  0.794400  0.116400  1.0  0.3325
  C  C209  1  0.333000  0.864600  0.095800  1.0  0.3179
  C  C210  1  0.480000  0.847000  0.042800  1.0  0.2953
  C  C211  1  0.466000  0.749900  0.151600  1.0  -0.1063
  C  C212  1  0.557000  0.722000  0.142800  1.0  0.0948
  C  C213  1  0.584000  0.682900  0.178000  1.0  -0.05
  C  C214  1  0.516000  0.668000  0.217400  1.0  -0.1425
  C  C215  1  0.425000  0.695800  0.224900  1.0  -0.0631
  C  C216  1  0.398000  0.735100  0.191100  1.0  -0.076
  C  C217  1  0.246000  0.900000  0.106000  1.0  -0.0464
  C  C218  1  0.200000  0.893900  0.154100  1.0  -0.0664
  C  C219  1  0.118000  0.927300  0.166500  1.0  -0.0166
  C  C220  1  0.092000  0.966200  0.131000  1.0  -0.1276
  C  C221  1  0.144000  0.971900  0.084400  1.0  -0.0331
  C  C222  1  0.225000  0.938900  0.071000  1.0  -0.0833
  C  C223  1  0.559000  0.858100  0.002000  1.0  -0.0526
  C  C224  1  0.544000  0.904900  0.974700  1.0  -0.0614
  C  C225  1  0.607000  0.917100  0.932500  1.0  -0.1565
  C  C226  1  0.689000  0.884600  0.918600  1.0  -0.1047
  C  C227  1  0.703000  0.838800  0.946200  1.0  -0.0299
  C  C228  1  0.637000  0.824100  0.986200  1.0  -0.1011
  C  C229  1  0.555000  0.373400  0.746600  1.0  0.6927
  C  C230  1  0.998000  0.992400  0.848300  1.0  0.6416
  C  C231  1  0.758000  0.096600  0.123700  1.0  0.6918
  C  C232  1  0.443000  0.205600  0.883600  1.0  0.3327
  C  C233  1  0.333000  0.135400  0.904200  1.0  0.3173
  C  C234  1  0.480000  0.153000  0.957200  1.0  0.296
  C  C235  1  0.466000  0.250100  0.848400  1.0  -0.1086
  C  C236  1  0.557000  0.278000  0.857200  1.0  0.0975
  C  C237  1  0.584000  0.317100  0.822000  1.0  -0.0481
  C  C238  1  0.516000  0.332000  0.782600  1.0  -0.142
  C  C239  1  0.425000  0.304200  0.775100  1.0  -0.0618
  C  C240  1  0.398000  0.264900  0.808900  1.0  -0.0753
  C  C241  1  0.246000  0.100000  0.894000  1.0  -0.0451
  C  C242  1  0.200000  0.106100  0.845900  1.0  -0.0649
  C  C243  1  0.118000  0.072700  0.833500  1.0  -0.0153
  C  C244  1  0.092000  0.033800  0.869000  1.0  -0.1263
  C  C245  1  0.144000  0.028100  0.915600  1.0  -0.0333
  C  C246  1  0.225000  0.061100  0.929000  1.0  -0.0837
  C  C247  1  0.559000  0.141900  0.998000  1.0  -0.0517
  C  C248  1  0.544000  0.095100  0.025300  1.0  -0.0606
  C  C249  1  0.607000  0.082900  0.067500  1.0  -0.1565
  C  C250  1  0.689000  0.115400  0.081400  1.0  -0.1044
  C  C251  1  0.703000  0.161200  0.053800  1.0  -0.0292
  C  C252  1  0.637000  0.175900  0.013800  1.0  -0.0996
  C  C253  1  0.055000  0.753400  0.873400  1.0  0.6928
  C  C254  1  0.498000  0.651700  0.492400  1.0  0.641
  C  C255  1  0.258000  0.376300  0.596600  1.0  0.6899
  C  C256  1  0.943000  0.616400  0.705600  1.0  0.3361
  C  C257  1  0.833000  0.595800  0.635400  1.0  0.3184
  C  C258  1  0.980000  0.542800  0.653000  1.0  0.2986
  C  C259  1  0.966000  0.651600  0.750100  1.0  -0.1091
  C  C260  1  0.057000  0.642800  0.778000  1.0  0.0976
  C  C261  1  0.084000  0.678000  0.817100  1.0  -0.0486
  C  C262  1  0.016000  0.717400  0.832000  1.0  -0.1426
  C  C263  1  0.925000  0.724900  0.804200  1.0  -0.0629
  C  C264  1  0.898000  0.691100  0.764900  1.0  -0.0739
  C  C265  1  0.746000  0.606000  0.600000  1.0  -0.0466
  C  C266  1  0.700000  0.654100  0.606100  1.0  -0.0632
  C  C267  1  0.618000  0.666500  0.572700  1.0  -0.0181
  C  C268  1  0.592000  0.631000  0.533800  1.0  -0.1289
  C  C269  1  0.644000  0.584400  0.528100  1.0  -0.0321
  C  C270  1  0.725000  0.571000  0.561100  1.0  -0.0851
  C  C271  1  0.059000  0.502000  0.641900  1.0  -0.0539
  C  C272  1  0.044000  0.474700  0.595100  1.0  -0.0576
  C  C273  1  0.107000  0.432500  0.582900  1.0  -0.1548
  C  C274  1  0.189000  0.418600  0.615400  1.0  -0.1031
  C  C275  1  0.203000  0.446200  0.661200  1.0  -0.0321
  C  C276  1  0.137000  0.486200  0.675900  1.0  -0.1014
  C  C277  1  0.055000  0.246600  0.126600  1.0  0.6933
  C  C278  1  0.498000  0.348300  0.507600  1.0  0.6393
  C  C279  1  0.258000  0.623700  0.403400  1.0  0.6901
  C  C280  1  0.943000  0.383600  0.294400  1.0  0.333
  C  C281  1  0.833000  0.404200  0.364600  1.0  0.3218
  C  C282  1  0.980000  0.457200  0.347000  1.0  0.2974
  C  C283  1  0.966000  0.348400  0.249900  1.0  -0.1077
  C  C284  1  0.057000  0.357200  0.222000  1.0  0.0987
  C  C285  1  0.084000  0.322000  0.182900  1.0  -0.0474
  C  C286  1  0.016000  0.282600  0.168000  1.0  -0.1419
  C  C287  1  0.925000  0.275100  0.195800  1.0  -0.0625
  C  C288  1  0.898000  0.308900  0.235100  1.0  -0.0746
  C  C289  1  0.746000  0.394000  0.400000  1.0  -0.0484
  C  C290  1  0.700000  0.345900  0.393900  1.0  -0.0626
  C  C291  1  0.618000  0.333500  0.427300  1.0  -0.018
  C  C292  1  0.592000  0.369000  0.466200  1.0  -0.1283
  C  C293  1  0.644000  0.415600  0.471900  1.0  -0.0324
  C  C294  1  0.725000  0.429000  0.438900  1.0  -0.0859
  C  C295  1  0.059000  0.498000  0.358100  1.0  -0.0557
  C  C296  1  0.044000  0.525300  0.404900  1.0  -0.0574
  C  C297  1  0.107000  0.567500  0.417100  1.0  -0.1553
  C  C298  1  0.189000  0.581400  0.384600  1.0  -0.1023
  C  C299  1  0.203000  0.553800  0.338800  1.0  -0.0309
  C  C300  1  0.137000  0.513800  0.324100  1.0  -0.1028
  N  N301  1  0.993300  0.693900  0.574300  1.0  -0.4304
  N  N302  1  0.138000  0.673500  0.630700  1.0  -0.4269
  N  N303  1  0.103000  0.621200  0.555700  1.0  -0.4311
  N  N304  1  0.993300  0.306100  0.425700  1.0  -0.4314
  N  N305  1  0.138000  0.326500  0.369300  1.0  -0.427
  N  N306  1  0.103000  0.378800  0.444300  1.0  -0.4314
  N  N307  1  0.493300  0.925700  0.193900  1.0  -0.4305
  N  N308  1  0.638000  0.869300  0.173500  1.0  -0.4237
  N  N309  1  0.603000  0.944300  0.121200  1.0  -0.4303
  N  N310  1  0.493300  0.074300  0.806100  1.0  -0.4282
  N  N311  1  0.638000  0.130700  0.826500  1.0  -0.423
  N  N312  1  0.603000  0.055700  0.878800  1.0  -0.4306
  N  N313  1  0.506700  0.806100  0.074300  1.0  -0.4303
  N  N314  1  0.362000  0.826500  0.130700  1.0  -0.4297
  N  N315  1  0.397000  0.878800  0.055700  1.0  -0.4318
  N  N316  1  0.506700  0.193900  0.925700  1.0  -0.4326
  N  N317  1  0.362000  0.173500  0.869300  1.0  -0.4279
  N  N318  1  0.397000  0.121200  0.944300  1.0  -0.4302
  N  N319  1  0.006700  0.574300  0.693900  1.0  -0.4292
  N  N320  1  0.862000  0.630700  0.673500  1.0  -0.4261
  N  N321  1  0.897000  0.555700  0.621200  1.0  -0.4308
  N  N322  1  0.006700  0.425700  0.306100  1.0  -0.4296
  N  N323  1  0.862000  0.369300  0.326500  1.0  -0.4261
  N  N324  1  0.897000  0.444300  0.378800  1.0  -0.4298
  O  O325  1  0.007300  0.877700  0.793600  1.0  -0.6569
  O  O326  1  0.869500  0.902100  0.744300  1.0  -0.5926
  O  O327  1  0.502800  0.457500  0.622300  1.0  -0.5857
  O  O328  1  0.554600  0.505000  0.687600  1.0  -0.535
  O  O329  1  0.758600  0.561900  0.347800  1.0  -0.5552
  O  O330  1  0.665500  0.629800  0.372400  1.0  -0.6672
  O  O331  1  0.007300  0.122300  0.206400  1.0  -0.6566
  O  O332  1  0.869500  0.097900  0.255700  1.0  -0.5914
  O  O333  1  0.502800  0.542500  0.377700  1.0  -0.5857
  O  O334  1  0.554600  0.495000  0.312400  1.0  -0.5383
  O  O335  1  0.758600  0.438100  0.652200  1.0  -0.5541
  O  O336  1  0.665500  0.370200  0.627600  1.0  -0.6671
  O  O337  1  0.507300  0.706400  0.377700  1.0  -0.6554
  O  O338  1  0.369500  0.755700  0.402100  1.0  -0.5924
  O  O339  1  0.002800  0.877700  0.957500  1.0  -0.586
  O  O340  1  0.054600  0.812400  0.005000  1.0  -0.5373
  O  O341  1  0.258600  0.152200  0.061900  1.0  -0.5555
  O  O342  1  0.165500  0.127600  0.129800  1.0  -0.6691
  O  O343  1  0.507300  0.293600  0.622300  1.0  -0.6533
  O  O344  1  0.369500  0.244300  0.597900  1.0  -0.5938
  O  O345  1  0.002800  0.122300  0.042500  1.0  -0.5859
  O  O346  1  0.054600  0.187600  0.995000  1.0  -0.5372
  O  O347  1  0.258600  0.847800  0.938100  1.0  -0.5546
  O  O348  1  0.165500  0.872400  0.870200  1.0  -0.6683
  O  O349  1  0.492700  0.622300  0.293600  1.0  -0.6599
  O  O350  1  0.630500  0.597900  0.244300  1.0  -0.5924
  O  O351  1  0.997200  0.042500  0.122300  1.0  -0.5852
  O  O352  1  0.945400  0.995000  0.187600  1.0  -0.5365
  O  O353  1  0.741400  0.938100  0.847800  1.0  -0.5559
  O  O354  1  0.834500  0.870200  0.872400  1.0  -0.6681
  O  O355  1  0.492700  0.377700  0.706400  1.0  -0.6582
  O  O356  1  0.630500  0.402100  0.755700  1.0  -0.5899
  O  O357  1  0.997200  0.957500  0.877700  1.0  -0.5864
  O  O358  1  0.945400  0.005000  0.812400  1.0  -0.5392
  O  O359  1  0.741400  0.061900  0.152200  1.0  -0.5543
  O  O360  1  0.834500  0.129800  0.127600  1.0  -0.669
  O  O361  1  0.992700  0.793600  0.877700  1.0  -0.6566
  O  O362  1  0.130500  0.744300  0.902100  1.0  -0.5949
  O  O363  1  0.497200  0.622300  0.457500  1.0  -0.5861
  O  O364  1  0.445400  0.687600  0.505000  1.0  -0.5373
  O  O365  1  0.241400  0.347800  0.561900  1.0  -0.5542
  O  O366  1  0.334500  0.372400  0.629800  1.0  -0.6692
  O  O367  1  0.992700  0.206400  0.122300  1.0  -0.6547
  O  O368  1  0.130500  0.255700  0.097900  1.0  -0.5951
  O  O369  1  0.497200  0.377700  0.542500  1.0  -0.5855
  O  O370  1  0.445400  0.312400  0.495000  1.0  -0.5361
  O  O371  1  0.241400  0.652200  0.438100  1.0  -0.5543
  O  O372  1  0.334500  0.627600  0.370200  1.0  -0.6683
