# generated using pymatgen
data_ZnH20C20S2(NO2)2
_symmetry_space_group_name_H-M   'P 1'
_cell_length_a   11.53120000
_cell_length_b   14.82190000
_cell_length_c   14.82190000
_cell_angle_alpha   90.00000000
_cell_angle_beta   90.00000000
_cell_angle_gamma   90.00000000
_symmetry_Int_Tables_number   1
_chemical_formula_structural   ZnH20C20S2(NO2)2
_chemical_formula_sum   'Zn4 H80 C80 S8 N8 O16'
_cell_volume   2533.27456357
_cell_formula_units_Z   4
loop_
 _symmetry_equiv_pos_site_id
 _symmetry_equiv_pos_as_xyz
  1  'x, y, z'
loop_
 _atom_site_type_symbol
 _atom_site_label
 _atom_site_symmetry_multiplicity
 _atom_site_fract_x
 _atom_site_fract_y
 _atom_site_fract_z
 _atom_site_occupancy
 _atom_site_charge
  Zn  Zn1  1  0.750000  0.887470  0.112530  1.0  0.9159
  Zn  Zn2  1  0.250000  0.112530  0.887470  1.0  0.9158
  Zn  Zn3  1  0.500000  0.387470  0.387470  1.0  0.9159
  Zn  Zn4  1  0.000000  0.612530  0.612530  1.0  0.9158
  H  H5  1  0.438600  0.366500  0.089400  1.0  0.1504
  H  H6  1  0.558400  0.407700  0.053700  1.0  0.1472
  H  H7  1  0.546300  0.301300  0.069800  1.0  0.1374
  H  H8  1  0.888500  0.311300  0.291000  1.0  0.1467
  H  H9  1  0.902100  0.416500  0.269100  1.0  0.139
  H  H10  1  0.881800  0.383800  0.370800  1.0  0.1391
  H  H11  1  0.652300  0.200000  0.218400  1.0  0.1308
  H  H12  1  0.653800  0.044700  0.212400  1.0  0.0684
  H  H13  1  0.891800  0.045100  0.022700  1.0  0.0859
  H  H14  1  0.899600  0.200800  0.023400  1.0  0.1395
  H  H15  1  0.938600  0.633500  0.910600  1.0  0.1507
  H  H16  1  0.058400  0.592300  0.946300  1.0  0.1473
  H  H17  1  0.046300  0.698700  0.930200  1.0  0.1377
  H  H18  1  0.388500  0.688700  0.709000  1.0  0.1448
  H  H19  1  0.402100  0.583500  0.730900  1.0  0.1389
  H  H20  1  0.381800  0.616200  0.629200  1.0  0.1384
  H  H21  1  0.152300  0.800000  0.781600  1.0  0.1311
  H  H22  1  0.153800  0.955300  0.787600  1.0  0.0682
  H  H23  1  0.391800  0.954900  0.977300  1.0  0.0856
  H  H24  1  0.399600  0.799200  0.976600  1.0  0.1389
  H  H25  1  0.188600  0.410600  0.866500  1.0  0.1499
  H  H26  1  0.308400  0.446300  0.907700  1.0  0.1466
  H  H27  1  0.296300  0.430200  0.801300  1.0  0.1362
  H  H28  1  0.638500  0.209000  0.811300  1.0  0.1435
  H  H29  1  0.652100  0.230900  0.916500  1.0  0.1384
  H  H30  1  0.631800  0.129200  0.883800  1.0  0.1391
  H  H31  1  0.402300  0.281600  0.700000  1.0  0.1307
  H  H32  1  0.403800  0.287600  0.544700  1.0  0.0683
  H  H33  1  0.641800  0.477300  0.545100  1.0  0.086
  H  H34  1  0.649600  0.476600  0.700800  1.0  0.1391
  H  H35  1  0.688600  0.589400  0.133500  1.0  0.1507
  H  H36  1  0.808400  0.553700  0.092300  1.0  0.1459
  H  H37  1  0.796300  0.569800  0.198700  1.0  0.1369
  H  H38  1  0.138500  0.791000  0.188700  1.0  0.1438
  H  H39  1  0.152100  0.769100  0.083500  1.0  0.1374
  H  H40  1  0.131800  0.870800  0.116200  1.0  0.1397
  H  H41  1  0.902300  0.718400  0.300000  1.0  0.1306
  H  H42  1  0.903800  0.712400  0.455300  1.0  0.0686
  H  H43  1  0.141800  0.522700  0.454900  1.0  0.0858
  H  H44  1  0.149600  0.523400  0.299200  1.0  0.1391
  H  H45  1  0.311400  0.133500  0.589400  1.0  0.1469
  H  H46  1  0.191600  0.092300  0.553700  1.0  0.147
  H  H47  1  0.203700  0.198700  0.569800  1.0  0.1372
  H  H48  1  0.861500  0.188700  0.791000  1.0  0.1447
  H  H49  1  0.847900  0.083500  0.769100  1.0  0.1382
  H  H50  1  0.868200  0.116200  0.870800  1.0  0.1385
  H  H51  1  0.097700  0.300000  0.718400  1.0  0.1313
  H  H52  1  0.096200  0.455300  0.712400  1.0  0.0676
  H  H53  1  0.858200  0.454900  0.522700  1.0  0.0861
  H  H54  1  0.850400  0.299200  0.523400  1.0  0.1381
  H  H55  1  0.811400  0.866500  0.410600  1.0  0.1482
  H  H56  1  0.691600  0.907700  0.446300  1.0  0.147
  H  H57  1  0.703700  0.801300  0.430200  1.0  0.1371
  H  H58  1  0.361500  0.811300  0.209000  1.0  0.146
  H  H59  1  0.347900  0.916500  0.230900  1.0  0.1388
  H  H60  1  0.368200  0.883800  0.129200  1.0  0.1384
  H  H61  1  0.597700  0.700000  0.281600  1.0  0.1306
  H  H62  1  0.596200  0.544700  0.287600  1.0  0.068
  H  H63  1  0.358200  0.545100  0.477300  1.0  0.0861
  H  H64  1  0.350400  0.700800  0.476600  1.0  0.1385
  H  H65  1  0.561400  0.089400  0.366500  1.0  0.1456
  H  H66  1  0.441600  0.053700  0.407700  1.0  0.1471
  H  H67  1  0.453700  0.069800  0.301300  1.0  0.1369
  H  H68  1  0.111500  0.291000  0.311300  1.0  0.1435
  H  H69  1  0.097900  0.269100  0.416500  1.0  0.138
  H  H70  1  0.118200  0.370800  0.383800  1.0  0.1397
  H  H71  1  0.347700  0.218400  0.200000  1.0  0.1307
  H  H72  1  0.346200  0.212400  0.044700  1.0  0.0681
  H  H73  1  0.108200  0.022700  0.045100  1.0  0.0861
  H  H74  1  0.100400  0.023400  0.200800  1.0  0.1385
  H  H75  1  0.061400  0.910600  0.633500  1.0  0.1482
  H  H76  1  0.941600  0.946300  0.592300  1.0  0.1468
  H  H77  1  0.953700  0.930200  0.698700  1.0  0.1363
  H  H78  1  0.611500  0.709000  0.688700  1.0  0.1434
  H  H79  1  0.597900  0.730900  0.583500  1.0  0.138
  H  H80  1  0.618200  0.629200  0.616200  1.0  0.1398
  H  H81  1  0.847700  0.781600  0.800000  1.0  0.1304
  H  H82  1  0.846200  0.787600  0.955300  1.0  0.0678
  H  H83  1  0.608200  0.977300  0.954900  1.0  0.0859
  H  H84  1  0.600400  0.976600  0.799200  1.0  0.1385
  C  C85  1  0.523200  0.361100  0.091770  1.0  -0.4918
  C  C86  1  0.563800  0.372730  0.187850  1.0  0.5472
  C  C87  1  0.685300  0.366230  0.207170  1.0  -0.4634
  C  C88  1  0.734200  0.379480  0.294270  1.0  0.5506
  C  C89  1  0.862800  0.372100  0.307400  1.0  -0.4771
  C  C90  1  0.776600  0.218380  0.121050  1.0  0.1032
  C  C91  1  0.702300  0.169660  0.177520  1.0  -0.2053
  C  C92  1  0.703100  0.077220  0.172700  1.0  0.1763
  C  C93  1  0.842000  0.077320  0.062280  1.0  0.1653
  C  C94  1  0.847700  0.170080  0.062630  1.0  -0.2111
  C  C95  1  0.023200  0.638900  0.908230  1.0  -0.4934
  C  C96  1  0.063800  0.627270  0.812150  1.0  0.551
  C  C97  1  0.185300  0.633770  0.792830  1.0  -0.4641
  C  C98  1  0.234200  0.620520  0.705730  1.0  0.5521
  C  C99  1  0.362800  0.627900  0.692600  1.0  -0.4774
  C  C100  1  0.276600  0.781620  0.878950  1.0  0.1094
  C  C101  1  0.202300  0.830340  0.822480  1.0  -0.2057
  C  C102  1  0.203100  0.922780  0.827300  1.0  0.1771
  C  C103  1  0.342000  0.922680  0.937720  1.0  0.1653
  C  C104  1  0.347700  0.829920  0.937370  1.0  -0.2111
  C  C105  1  0.273200  0.408230  0.861100  1.0  -0.4922
  C  C106  1  0.313800  0.312150  0.872730  1.0  0.5472
  C  C107  1  0.435300  0.292830  0.866230  1.0  -0.4624
  C  C108  1  0.484200  0.205730  0.879480  1.0  0.5491
  C  C109  1  0.612800  0.192600  0.872100  1.0  -0.4766
  C  C110  1  0.526600  0.378950  0.718380  1.0  0.0998
  C  C111  1  0.452300  0.322480  0.669660  1.0  -0.2057
  C  C112  1  0.453100  0.327300  0.577220  1.0  0.1771
  C  C113  1  0.592000  0.437720  0.577320  1.0  0.1673
  C  C114  1  0.597700  0.437370  0.670080  1.0  -0.2063
  C  C115  1  0.773200  0.591770  0.138900  1.0  -0.4924
  C  C116  1  0.813800  0.687850  0.127270  1.0  0.5483
  C  C117  1  0.935300  0.707170  0.133770  1.0  -0.4632
  C  C118  1  0.984200  0.794270  0.120520  1.0  0.5498
  C  C119  1  0.112800  0.807400  0.127900  1.0  -0.4765
  C  C120  1  0.026600  0.621050  0.281620  1.0  0.0959
  C  C121  1  0.952300  0.677520  0.330340  1.0  -0.2047
  C  C122  1  0.953100  0.672700  0.422780  1.0  0.1774
  C  C123  1  0.092000  0.562280  0.422680  1.0  0.1674
  C  C124  1  0.097700  0.562630  0.329920  1.0  -0.2069
  C  C125  1  0.226800  0.138900  0.591770  1.0  -0.4935
  C  C126  1  0.186200  0.127270  0.687850  1.0  0.5487
  C  C127  1  0.064700  0.133770  0.707170  1.0  -0.4639
  C  C128  1  0.015800  0.120520  0.794270  1.0  0.5508
  C  C129  1  0.887200  0.127900  0.807400  1.0  -0.4755
  C  C130  1  0.973400  0.281620  0.621050  1.0  0.0917
  C  C131  1  0.047700  0.330340  0.677520  1.0  -0.207
  C  C132  1  0.046900  0.422780  0.672700  1.0  0.1768
  C  C133  1  0.908000  0.422680  0.562280  1.0  0.1667
  C  C134  1  0.902300  0.329920  0.562630  1.0  -0.2107
  C  C135  1  0.726800  0.861100  0.408230  1.0  -0.4945
  C  C136  1  0.686200  0.872730  0.312150  1.0  0.5499
  C  C137  1  0.564700  0.866230  0.292830  1.0  -0.4629
  C  C138  1  0.515800  0.879480  0.205730  1.0  0.5532
  C  C139  1  0.387200  0.872100  0.192600  1.0  -0.4757
  C  C140  1  0.473400  0.718380  0.378950  1.0  0.0826
  C  C141  1  0.547700  0.669660  0.322480  1.0  -0.2071
  C  C142  1  0.546900  0.577220  0.327300  1.0  0.1762
  C  C143  1  0.408000  0.577320  0.437720  1.0  0.1661
  C  C144  1  0.402300  0.670080  0.437370  1.0  -0.2113
  C  C145  1  0.476800  0.091770  0.361100  1.0  -0.493
  C  C146  1  0.436200  0.187850  0.372730  1.0  0.5476
  C  C147  1  0.314700  0.207170  0.366230  1.0  -0.463
  C  C148  1  0.265800  0.294270  0.379480  1.0  0.5507
  C  C149  1  0.137200  0.307400  0.372100  1.0  -0.4744
  C  C150  1  0.223400  0.121050  0.218380  1.0  0.0797
  C  C151  1  0.297700  0.177520  0.169660  1.0  -0.2066
  C  C152  1  0.296900  0.172700  0.077220  1.0  0.1776
  C  C153  1  0.158000  0.062280  0.077320  1.0  0.1683
  C  C154  1  0.152300  0.062630  0.170080  1.0  -0.2067
  C  C155  1  0.976800  0.908230  0.638900  1.0  -0.4936
  C  C156  1  0.936200  0.812150  0.627270  1.0  0.5478
  C  C157  1  0.814700  0.792830  0.633770  1.0  -0.4618
  C  C158  1  0.765800  0.705730  0.620520  1.0  0.5496
  C  C159  1  0.637200  0.692600  0.627900  1.0  -0.4755
  C  C160  1  0.723400  0.878950  0.781620  1.0  0.076
  C  C161  1  0.797700  0.822480  0.830340  1.0  -0.2066
  C  C162  1  0.796900  0.827300  0.922780  1.0  0.1778
  C  C163  1  0.658000  0.937720  0.922680  1.0  0.1685
  C  C164  1  0.652300  0.937370  0.829920  1.0  -0.2066
  S  S165  1  0.779790  0.337060  0.118580  1.0  -0.0026
  S  S166  1  0.279790  0.662940  0.881420  1.0  -0.0049
  S  S167  1  0.529790  0.381420  0.837060  1.0  -0.0043
  S  S168  1  0.029790  0.618580  0.162940  1.0  -0.003
  S  S169  1  0.970210  0.162940  0.618580  1.0  -0.0032
  S  S170  1  0.470210  0.837060  0.381420  1.0  -0.0046
  S  S171  1  0.220210  0.118580  0.337060  1.0  -0.0053
  S  S172  1  0.720210  0.881420  0.662940  1.0  -0.0034
  N  N173  1  0.769400  0.030010  0.115230  1.0  -0.3492
  N  N174  1  0.269400  0.969990  0.884770  1.0  -0.3504
  N  N175  1  0.519400  0.384770  0.530010  1.0  -0.3508
  N  N176  1  0.019400  0.615230  0.469990  1.0  -0.3489
  N  N177  1  0.980600  0.469990  0.615230  1.0  -0.3497
  N  N178  1  0.480600  0.530010  0.384770  1.0  -0.3503
  N  N179  1  0.230600  0.115230  0.030010  1.0  -0.351
  N  N180  1  0.730600  0.884770  0.969990  1.0  -0.3501
  O  O181  1  0.487130  0.387010  0.246050  1.0  -0.5315
  O  O182  1  0.676030  0.397330  0.364870  1.0  -0.5405
  O  O183  1  0.987130  0.612990  0.753950  1.0  -0.5306
  O  O184  1  0.176030  0.602670  0.635130  1.0  -0.5406
  O  O185  1  0.237130  0.253950  0.887010  1.0  -0.531
  O  O186  1  0.426030  0.135130  0.897330  1.0  -0.5403
  O  O187  1  0.737130  0.746050  0.112990  1.0  -0.531
  O  O188  1  0.926030  0.864870  0.102670  1.0  -0.5388
  O  O189  1  0.262870  0.112990  0.746050  1.0  -0.5308
  O  O190  1  0.073970  0.102670  0.864870  1.0  -0.5399
  O  O191  1  0.762870  0.887010  0.253950  1.0  -0.5294
  O  O192  1  0.573970  0.897330  0.135130  1.0  -0.5401
  O  O193  1  0.512870  0.246050  0.387010  1.0  -0.5307
  O  O194  1  0.323970  0.364870  0.397330  1.0  -0.5394
  O  O195  1  0.012870  0.753950  0.612990  1.0  -0.53
  O  O196  1  0.823970  0.635130  0.602670  1.0  -0.5387
