# generated using pymatgen
data_NiH12C15NO4
_symmetry_space_group_name_H-M   'P 1'
_cell_length_a   9.43440000
_cell_length_b   18.51740000
_cell_length_c   18.51740000
_cell_angle_alpha   90.00000000
_cell_angle_beta   90.00000000
_cell_angle_gamma   90.00000000
_symmetry_Int_Tables_number   1
_chemical_formula_structural   NiH12C15NO4
_chemical_formula_sum   'Ni4 H48 C60 N4 O16'
_cell_volume   3235.00012308
_cell_formula_units_Z   4
loop_
 _symmetry_equiv_pos_site_id
 _symmetry_equiv_pos_as_xyz
  1  'x, y, z'
loop_
 _atom_site_type_symbol
 _atom_site_label
 _atom_site_symmetry_multiplicity
 _atom_site_fract_x
 _atom_site_fract_y
 _atom_site_fract_z
 _atom_site_occupancy
 _atom_site_charge
  Ni  Ni1  1  0.692200  0.248370  0.252490  1.0  0.7385
  Ni  Ni2  1  0.433850  0.247330  0.253400  1.0  0.7386
  Ni  Ni3  1  0.308200  0.748580  0.752570  1.0  0.7401
  Ni  Ni4  1  0.566810  0.747170  0.753500  1.0  0.7402
  H  H5  1  0.190500  0.498210  0.489730  1.0  0.1051
  H  H6  1  0.811510  0.999470  0.517800  1.0  0.1088
  H  H7  1  0.183770  0.216540  0.139280  1.0  0.0841
  H  H8  1  0.331290  0.092310  0.094490  1.0  0.0838
  H  H9  1  0.795780  0.399140  0.092070  1.0  0.0857
  H  H10  1  0.053060  0.832430  0.672810  1.0  0.0808
  H  H11  1  0.056830  0.772090  0.863800  1.0  0.0788
  H  H12  1  0.059060  0.636150  0.715840  1.0  0.0876
  H  H13  1  0.197630  0.001010  0.492330  1.0  0.1148
  H  H14  1  0.803490  0.099560  0.416980  1.0  0.0873
  H  H15  1  0.797300  0.794140  0.857970  1.0  0.0902
  H  H16  1  0.816990  0.715280  0.639180  1.0  0.0868
  H  H17  1  0.190130  0.499340  0.018160  1.0  0.106
  H  H18  1  0.919580  0.149600  0.314710  1.0  0.0902
  H  H19  1  0.206200  0.899270  0.592780  1.0  0.0862
  H  H20  1  0.794480  0.814160  0.656770  1.0  0.0884
  H  H21  1  0.202790  0.293210  0.358940  1.0  0.0913
  H  H22  1  0.817610  0.858120  0.780230  1.0  0.0854
  H  H23  1  0.326310  0.414120  0.103700  1.0  0.0853
  H  H24  1  0.333333  0.086870  0.407630  1.0  0.0923
  H  H25  1  0.197600  0.599660  0.917540  1.0  0.0872
  H  H26  1  0.203800  0.129610  0.239310  1.0  0.0834
  H  H27  1  0.921210  0.241340  0.133870  1.0  0.0835
  H  H28  1  0.804560  0.504910  0.511160  1.0  0.1078
  H  H29  1  0.810010  0.997970  0.990160  1.0  0.109
  H  H30  1  0.821980  0.664710  0.833720  1.0  0.0751
  H  H31  1  0.178210  0.164410  0.333540  1.0  0.0768
  H  H32  1  0.195650  0.004830  0.010980  1.0  0.1082
  H  H33  1  0.803810  0.500870  0.992020  1.0  0.1152
  H  H34  1  0.801390  0.097290  0.092480  1.0  0.0845
  H  H35  1  0.673500  0.908970  0.907570  1.0  0.08
  H  H36  1  0.183240  0.358020  0.281860  1.0  0.0853
  H  H37  1  0.796730  0.629330  0.739700  1.0  0.0847
  H  H38  1  0.668710  0.592320  0.594750  1.0  0.0852
  H  H39  1  0.205850  0.315290  0.157850  1.0  0.0898
  H  H40  1  0.941750  0.136700  0.215140  1.0  0.0855
  H  H41  1  0.201530  0.903560  0.911070  1.0  0.0825
  H  H42  1  0.077090  0.851970  0.802370  1.0  0.0899
  H  H43  1  0.675850  0.914570  0.603810  1.0  0.0834
  H  H44  1  0.947370  0.333333  0.173840  1.0  0.083
  H  H45  1  0.667800  0.587010  0.907640  1.0  0.0908
  H  H46  1  0.799000  0.403790  0.411240  1.0  0.0827
  H  H47  1  0.942830  0.271740  0.364280  1.0  0.0796
  H  H48  1  0.080720  0.650010  0.815300  1.0  0.086
  H  H49  1  0.327190  0.409500  0.407000  1.0  0.0823
  H  H50  1  0.923590  0.351890  0.303120  1.0  0.0863
  H  H51  1  0.198610  0.597200  0.592530  1.0  0.0801
  H  H52  1  0.079530  0.740110  0.633750  1.0  0.083
  C  C53  1  0.434490  0.069220  0.069770  1.0  0.069
  C  C54  1  0.020080  0.796830  0.809220  1.0  -0.0137
  C  C55  1  0.702070  0.072560  0.439250  1.0  0.0013
  C  C56  1  0.703350  0.018470  0.013420  1.0  0.0595
  C  C57  1  0.978800  0.170950  0.264130  1.0  -0.0146
  C  C58  1  0.144360  0.172510  0.273910  1.0  0.0019
  C  C59  1  0.019300  0.772480  0.678050  1.0  -0.009
  C  C60  1  0.435770  0.653060  0.850270  1.0  0.5355
  C  C61  1  0.856080  0.672460  0.774070  1.0  0.0019
  C  C62  1  0.296450  0.519340  0.994100  1.0  0.0191
  C  C63  1  0.021690  0.670830  0.764460  1.0  -0.0143
  C  C64  1  0.561960  0.344550  0.348580  1.0  0.5358
  C  C65  1  0.562130  0.403260  0.405800  1.0  -0.1648
  C  C66  1  0.981180  0.273290  0.178560  1.0  -0.0047
  C  C67  1  0.146750  0.263540  0.176300  1.0  -0.012
  C  C68  1  0.705030  0.019380  0.493860  1.0  0.0209
  C  C69  1  0.428830  0.488310  0.020950  1.0  -0.0894
  C  C70  1  0.299850  0.571800  0.568000  1.0  0.0169
  C  C71  1  0.571860  0.934300  0.577270  1.0  0.0488
  C  C72  1  0.429920  0.434120  0.077100  1.0  0.0474
  C  C73  1  0.569510  0.931780  0.931530  1.0  0.0621
  C  C74  1  0.560860  0.345050  0.158130  1.0  0.5476
  C  C75  1  0.565140  0.097010  0.096330  1.0  -0.1776
  C  C76  1  0.697820  0.481370  0.016800  1.0  0.0105
  C  C77  1  0.440240  0.845170  0.658290  1.0  0.5454
  C  C78  1  0.565140  0.153010  0.350140  1.0  0.5299
  C  C79  1  0.433830  0.596420  0.909430  1.0  -0.1615
  C  C80  1  0.854640  0.802800  0.803180  1.0  -0.0093
  C  C81  1  0.572730  0.988440  0.521010  1.0  -0.0843
  C  C82  1  0.145740  0.302520  0.304170  1.0  -0.009
  C  C83  1  0.853770  0.762670  0.675740  1.0  -0.0086
  C  C84  1  0.429680  0.488200  0.485600  1.0  -0.0895
  C  C85  1  0.567370  0.096150  0.409050  1.0  -0.161
  C  C86  1  0.436100  0.012900  0.490670  1.0  -0.0728
  C  C87  1  0.564380  0.566900  0.934440  1.0  0.0435
  C  C88  1  0.437130  0.653570  0.655540  1.0  0.5505
  C  C89  1  0.698790  0.483820  0.487470  1.0  0.0006
  C  C90  1  0.441200  0.904010  0.601310  1.0  -0.1617
  C  C91  1  0.560580  0.403890  0.101150  1.0  -0.1614
  C  C92  1  0.565590  0.569330  0.569900  1.0  0.0672
  C  C93  1  0.980220  0.296660  0.309890  1.0  -0.0095
  C  C94  1  0.303640  0.981550  0.517110  1.0  0.0292
  C  C95  1  0.695080  0.427480  0.070690  1.0  -0.0071
  C  C96  1  0.562910  0.153350  0.155580  1.0  0.5384
  C  C97  1  0.306590  0.927640  0.571020  1.0  0.0168
  C  C98  1  0.570740  0.987920  0.985850  1.0  -0.1012
  C  C99  1  0.303740  0.929170  0.934110  1.0  0.0196
  C  C100  1  0.433940  0.014010  0.014680  1.0  -0.0645
  C  C101  1  0.438370  0.844180  0.848880  1.0  0.5355
  C  C102  1  0.301440  0.983640  0.987410  1.0  0.0437
  C  C103  1  0.297050  0.518690  0.513210  1.0  0.0635
  C  C104  1  0.438480  0.902790  0.906160  1.0  -0.1616
  C  C105  1  0.700300  0.071710  0.068060  1.0  0.041
  C  C106  1  0.299250  0.572810  0.939770  1.0  0.004
  C  C107  1  0.696710  0.429480  0.434010  1.0  -0.0027
  C  C108  1  0.431080  0.432240  0.431070  1.0  0.0574
  C  C109  1  0.436900  0.066680  0.434230  1.0  0.0426
  C  C110  1  0.565360  0.512870  0.990640  1.0  -0.0758
  C  C111  1  0.434840  0.597170  0.596360  1.0  -0.1769
  C  C112  1  0.566230  0.514200  0.514710  1.0  -0.0846
  N  N113  1  0.078070  0.747040  0.750600  1.0  -0.2424
  N  N114  1  0.922370  0.247190  0.250850  1.0  -0.2401
  N  N115  1  0.203370  0.246050  0.251720  1.0  -0.2384
  N  N116  1  0.797090  0.745830  0.751300  1.0  -0.2366
  O  O117  1  0.686850  0.166440  0.187170  1.0  -0.5698
  O  O118  1  0.440820  0.164580  0.318350  1.0  -0.5801
  O  O119  1  0.437960  0.183520  0.170060  1.0  -0.5697
  O  O120  1  0.562290  0.683430  0.670150  1.0  -0.5678
  O  O121  1  0.688150  0.185680  0.336580  1.0  -0.5981
  O  O122  1  0.561110  0.811050  0.836730  1.0  -0.5663
  O  O123  1  0.313050  0.666960  0.686950  1.0  -0.5666
  O  O124  1  0.312720  0.685490  0.836500  1.0  -0.6001
  O  O125  1  0.437900  0.331630  0.190810  1.0  -0.5957
  O  O126  1  0.685190  0.331720  0.316090  1.0  -0.5761
  O  O127  1  0.684610  0.312560  0.169400  1.0  -0.5749
  O  O128  1  0.560060  0.664580  0.818430  1.0  -0.5827
  O  O129  1  0.438860  0.311690  0.336490  1.0  -0.5699
  O  O130  1  0.315120  0.831890  0.816220  1.0  -0.5805
  O  O131  1  0.316120  0.813030  0.669580  1.0  -0.5836
  O  O132  1  0.563150  0.831480  0.690940  1.0  -0.5917
