# generated using pymatgen
data_NiH12C15NO4
_symmetry_space_group_name_H-M   'P 1'
_cell_length_a   9.01160000
_cell_length_b   9.34010000
_cell_length_c   23.21100000
_cell_angle_alpha   93.92710000
_cell_angle_beta   95.29680000
_cell_angle_gamma   105.61800000
_symmetry_Int_Tables_number   1
_chemical_formula_structural   NiH12C15NO4
_chemical_formula_sum   'Ni4 H48 C60 N4 O16'
_cell_volume   1864.58948222
_cell_formula_units_Z   4
loop_
 _symmetry_equiv_pos_site_id
 _symmetry_equiv_pos_as_xyz
  1  'x, y, z'
loop_
 _atom_site_type_symbol
 _atom_site_label
 _atom_site_symmetry_multiplicity
 _atom_site_fract_x
 _atom_site_fract_y
 _atom_site_fract_z
 _atom_site_occupancy
 _atom_site_charge
  Ni  Ni1  1  0.196960  0.295710  0.780900  1.0  0.8169
  Ni  Ni2  1  0.198180  0.555550  0.786870  1.0  0.7979
  Ni  Ni3  1  0.802850  0.491290  0.296550  1.0  0.8122
  Ni  Ni4  1  0.791140  0.747820  0.309980  1.0  0.7357
  H  H5  1  0.221650  0.780150  0.690880  1.0  0.1135
  H  H6  1  0.574540  0.364180  0.441010  1.0  0.0722
  H  H7  1  0.984500  0.743320  0.820820  1.0  0.0778
  H  H8  1  0.011020  0.179130  0.625250  1.0  0.0655
  H  H9  1  0.205000  0.041420  0.685280  1.0  0.0604
  H  H10  1  0.021890  0.318030  0.365990  1.0  0.0682
  H  H11  1  0.722520  0.428710  0.118530  1.0  0.0831
  H  H12  1  0.999680  0.383310  0.170650  1.0  0.0908
  H  H13  1  0.434730  0.115360  0.759930  1.0  0.0691
  H  H14  1  0.109940  0.879520  0.167660  1.0  0.0521
  H  H15  1  0.855870  0.860890  0.512220  1.0  0.0775
  H  H16  1  0.413080  0.792800  0.045950  1.0  0.0454
  H  H17  1  0.408330  0.872290  0.843950  1.0  0.0752
  H  H18  1  0.580630  0.187720  0.256860  1.0  0.1274
  H  H19  1  0.595510  0.937710  0.341270  1.0  0.081
  H  H20  1  0.153970  0.851540  0.056780  1.0  0.0266
  H  H21  1  0.675600  0.340750  0.901000  1.0  0.066
  H  H22  1  0.585240  0.912000  0.259300  1.0  0.1115
  H  H23  1  0.235350  0.625530  0.597750  1.0  0.0744
  H  H24  1  0.012860  0.258660  0.519190  1.0  0.0717
  H  H25  1  0.563940  0.261410  0.541010  1.0  0.0824
  H  H26  1  0.406170  0.126360  0.836400  1.0  0.086
  H  H27  1  0.115030  0.703980  0.966290  1.0  0.0745
  H  H28  1  0.131900  0.228670  0.970200  1.0  0.0675
  H  H29  1  0.026900  0.054040  0.370900  1.0  0.0792
  H  H30  1  0.996200  0.982810  0.704710  1.0  0.0757
  H  H31  1  0.794800  0.227780  0.215560  1.0  0.086
  H  H32  1  0.128740  0.077290  0.866430  1.0  0.1099
  H  H33  1  0.779620  0.958960  0.214230  1.0  0.0877
  H  H34  1  0.455080  0.271550  0.644420  1.0  0.0779
  H  H35  1  0.813860  0.560060  0.675800  1.0  0.074
  H  H36  1  0.757940  0.347890  0.009960  1.0  0.0669
  H  H37  1  0.003640  0.268860  0.252650  1.0  0.0761
  H  H38  1  0.795580  0.741790  0.609810  1.0  0.0523
  H  H39  1  0.066280  0.227330  0.078000  1.0  0.0871
  H  H40  1  0.990490  0.014280  0.247450  1.0  0.075
  H  H41  1  0.434480  0.851240  0.761960  1.0  0.0785
  H  H42  1  0.252010  0.727930  0.497060  1.0  0.0771
  H  H43  1  0.467350  0.760690  0.157010  1.0  0.076
  H  H44  1  0.152660  0.821610  0.875520  1.0  0.0675
  H  H45  1  0.577390  0.191480  0.336740  1.0  0.0594
  H  H46  1  0.845680  0.264820  0.404820  1.0  0.1016
  H  H47  1  0.989150  0.453190  0.452450  1.0  0.085
  H  H48  1  0.376820  0.733710  0.397190  1.0  0.0794
  H  H49  1  0.416300  0.684890  0.938460  1.0  0.0591
  H  H50  1  0.022480  0.724960  0.709390  1.0  0.1058
  H  H51  1  0.966800  0.001810  0.805070  1.0  0.0607
  H  H52  1  0.836590  0.007780  0.398740  1.0  0.0847
  C  C53  1  0.354040  0.054110  0.792480  1.0  -0.0201
  C  C54  1  0.952370  0.366410  0.721660  1.0  0.4225
  C  C55  1  0.084550  0.475610  0.086690  1.0  -0.08
  C  C56  1  0.644680  0.160790  0.298850  1.0  0.0407
  C  C57  1  0.666350  0.512020  0.098530  1.0  0.0038
  C  C58  1  0.138770  0.813350  0.721290  1.0  -0.1117
  C  C59  1  0.842340  0.482180  0.640900  1.0  0.015
  C  C60  1  0.658920  0.605880  0.203220  1.0  0.4556
  C  C61  1  0.055040  0.487560  0.147470  1.0  0.0955
  C  C62  1  0.135000  0.434700  0.894670  1.0  0.4413
  C  C63  1  0.695850  0.435300  0.993300  1.0  0.1215
  C  C64  1  0.343060  0.446530  0.622160  1.0  -0.1853
  C  C65  1  0.899010  0.234140  0.363970  1.0  -0.0195
  C  C66  1  0.915090  0.649870  0.471170  1.0  -0.1006
  C  C67  1  0.309380  0.547190  0.584010  1.0  0.0656
  C  C68  1  0.326970  0.648580  0.485310  1.0  0.0484
  C  C69  1  0.956110  0.312160  0.554910  1.0  0.242
  C  C70  1  0.503930  0.441750  0.456830  1.0  0.072
  C  C71  1  0.066510  0.630950  0.176270  1.0  -0.1477
  C  C72  1  0.100180  0.761450  0.144210  1.0  0.0649
  C  C73  1  0.626590  0.512480  0.037240  1.0  -0.1358
  C  C74  1  0.292590  0.447130  0.684070  1.0  0.4788
  C  C75  1  0.486900  0.712590  0.061920  1.0  0.0902
  C  C76  1  0.116940  0.455070  0.960340  1.0  -0.1754
  C  C77  1  0.870800  0.743530  0.518930  1.0  0.1362
  C  C78  1  0.844980  0.527920  0.582620  1.0  -0.0732
  C  C79  1  0.101610  0.836820  0.829370  1.0  -0.0014
  C  C80  1  0.925930  0.672240  0.407100  1.0  0.4637
  C  C81  1  0.012350  0.645780  0.235980  1.0  0.5021
  C  C82  1  0.530810  0.511260  0.913620  1.0  -0.1521
  C  C83  1  0.491390  0.609770  0.956340  1.0  0.1336
  C  C84  1  0.433120  0.344430  0.609470  1.0  -0.0204
  C  C85  1  0.362740  0.887550  0.796820  1.0  0.0212
  C  C86  1  0.952840  0.272080  0.611790  1.0  0.0963
  C  C87  1  0.453070  0.437590  0.514950  1.0  -0.1367
  C  C88  1  0.646760  0.986830  0.300790  1.0  0.0725
  C  C89  1  0.467990  0.538050  0.416210  1.0  -0.1304
  C  C90  1  0.938530  0.511500  0.485860  1.0  -0.0482
  C  C91  1  0.874120  0.203940  0.254130  1.0  0.0247
  C  C92  1  0.915550  0.451820  0.540470  1.0  -0.1932
  C  C93  1  0.089500  0.337740  0.055950  1.0  0.0853
  C  C94  1  0.444980  0.491690  0.848780  1.0  0.4183
  C  C95  1  0.556480  0.565090  0.362190  1.0  0.4436
  C  C96  1  0.912290  0.365350  0.656770  1.0  -0.1134
  C  C97  1  0.102520  0.601530  0.051990  1.0  -0.1144
  C  C98  1  0.830370  0.677080  0.570030  1.0  0.2328
  C  C99  1  0.870040  0.035230  0.250330  1.0  0.0384
  C  C100  1  0.123890  0.978440  0.717020  1.0  0.0512
  C  C101  1  0.091270  0.001580  0.822930  1.0  0.0242
  C  C102  1  0.105650  0.594010  0.988140  1.0  0.1561
  C  C103  1  0.358450  0.541890  0.526850  1.0  -0.09
  C  C104  1  0.635720  0.416770  0.934430  1.0  0.0933
  C  C105  1  0.119840  0.746130  0.084330  1.0  0.1294
  C  C106  1  0.617910  0.609540  0.139410  1.0  -0.1249
  C  C107  1  0.536990  0.617230  0.018960  1.0  -0.1301
  C  C108  1  0.120660  0.333590  0.996720  1.0  0.119
  C  C109  1  0.523150  0.708250  0.121410  1.0  0.1337
  C  C110  1  0.387130  0.651110  0.431110  1.0  0.1073
  C  C111  1  0.902430  0.065810  0.363270  1.0  -0.0986
  C  C112  1  0.492850  0.341460  0.556210  1.0  0.0996
  N  N113  1  0.189730  0.071120  0.777180  1.0  -0.2462
  N  N114  1  0.809550  0.260840  0.307310  1.0  -0.2667
  N  N115  1  0.816450  0.976160  0.305650  1.0  -0.1627
  N  N116  1  0.197340  0.786540  0.783280  1.0  -0.2735
  O  O117  1  0.418720  0.361150  0.818330  1.0  -0.6182
  O  O118  1  0.292580  0.577950  0.709860  1.0  -0.6289
  O  O119  1  0.897910  0.791300  0.382950  1.0  -0.5961
  O  O120  1  0.974980  0.504410  0.252690  1.0  -0.6074
  O  O121  1  0.662780  0.477210  0.221710  1.0  -0.5872
  O  O122  1  0.670270  0.730850  0.237130  1.0  -0.6153
  O  O123  1  0.403530  0.611820  0.829570  1.0  -0.5896
  O  O124  1  0.940240  0.556860  0.376370  1.0  -0.6265
  O  O125  1  0.165930  0.308960  0.873100  1.0  -0.6443
  O  O126  1  0.978090  0.497310  0.754270  1.0  -0.6024
  O  O127  1  0.983680  0.762450  0.259040  1.0  -0.6128
  O  O128  1  0.577800  0.700570  0.345820  1.0  -0.6214
  O  O129  1  0.273700  0.315900  0.705010  1.0  -0.5944
  O  O130  1  0.130840  0.549610  0.865860  1.0  -0.5995
  O  O131  1  0.617350  0.459820  0.339800  1.0  -0.6088
  O  O132  1  0.976960  0.246400  0.746320  1.0  -0.6
