# generated using pymatgen
data_NiH12C15NO4
_symmetry_space_group_name_H-M   'P 1'
_cell_length_a   9.21160000
_cell_length_b   17.94020000
_cell_length_c   19.15890000
_cell_angle_alpha   90.10110000
_cell_angle_beta   91.06560000
_cell_angle_gamma   91.45830000
_symmetry_Int_Tables_number   1
_chemical_formula_structural   NiH12C15NO4
_chemical_formula_sum   'Ni4 H48 C60 N4 O16'
_cell_volume   3164.57966923
_cell_formula_units_Z   4
loop_
 _symmetry_equiv_pos_site_id
 _symmetry_equiv_pos_as_xyz
  1  'x, y, z'
loop_
 _atom_site_type_symbol
 _atom_site_label
 _atom_site_symmetry_multiplicity
 _atom_site_fract_x
 _atom_site_fract_y
 _atom_site_fract_z
 _atom_site_occupancy
 _atom_site_charge
  Ni  Ni1  1  0.655480  0.308440  0.754770  1.0  0.7274
  Ni  Ni2  1  0.511510  0.803810  0.254280  1.0  0.7245
  Ni  Ni3  1  0.397320  0.302800  0.753870  1.0  0.7197
  Ni  Ni4  1  0.253160  0.800280  0.251900  1.0  0.7596
  H  H5  1  0.132930  0.373760  0.657120  1.0  0.072
  H  H6  1  0.140410  0.185780  0.748610  1.0  0.0834
  H  H7  1  0.619630  0.995810  0.385510  1.0  0.0817
  H  H8  1  0.760500  0.177280  0.573200  1.0  0.0826
  H  H9  1  0.751970  0.714060  0.175480  1.0  0.0891
  H  H10  1  0.895850  0.385830  0.837670  1.0  0.0786
  H  H11  1  0.017080  0.883750  0.333600  1.0  0.092
  H  H12  1  0.003130  0.684230  0.283040  1.0  0.0827
  H  H13  1  0.875330  0.188020  0.774060  1.0  0.0867
  H  H14  1  0.142830  0.649290  0.416380  1.0  0.0811
  H  H15  1  0.910520  0.427580  0.748360  1.0  0.079
  H  H16  1  0.169500  0.230310  0.836500  1.0  0.0805
  H  H17  1  0.279560  0.476360  0.611040  1.0  0.0821
  H  H18  1  0.136950  0.558900  0.522760  1.0  0.0942
  H  H19  1  0.871190  0.339170  0.641740  1.0  0.0897
  H  H20  1  0.011420  0.701090  0.186770  1.0  0.0846
  H  H21  1  0.745120  0.595260  0.992010  1.0  0.1055
  H  H22  1  0.141620  0.044840  0.517830  1.0  0.1042
  H  H23  1  0.733350  0.680620  0.267760  1.0  0.0848
  H  H24  1  0.759820  0.917000  0.220020  1.0  0.0745
  H  H25  1  0.767370  0.564880  0.501820  1.0  0.0994
  H  H26  1  0.761730  0.075680  0.035090  1.0  0.1138
  H  H27  1  0.758550  0.090820  0.464810  1.0  0.1061
  H  H28  1  0.029040  0.785070  0.366110  1.0  0.0764
  H  H29  1  0.743190  0.845380  0.147960  1.0  0.0676
  H  H30  1  0.282590  0.139620  0.599030  1.0  0.0861
  H  H31  1  0.151270  0.587260  0.137090  1.0  0.0832
  H  H32  1  0.626650  0.644580  0.412240  1.0  0.0836
  H  H33  1  0.154760  0.928040  0.065840  1.0  0.0855
  H  H34  1  0.904800  0.238060  0.660230  1.0  0.0685
  H  H35  1  0.760670  0.770580  0.362830  1.0  0.0841
  H  H36  1  0.153350  0.018480  0.960520  1.0  0.0987
  H  H37  1  0.144420  0.951360  0.416030  1.0  0.0758
  H  H38  1  0.297310  0.417230  0.944190  1.0  0.0855
  H  H39  1  0.156810  0.483310  0.042880  1.0  0.1026
  H  H40  1  0.743220  0.496420  0.890200  1.0  0.0876
  H  H41  1  0.154660  0.364460  0.847760  1.0  0.0698
  H  H42  1  0.026300  0.912780  0.210560  1.0  0.0778
  H  H43  1  0.298250  0.111760  0.879910  1.0  0.0792
  H  H44  1  0.758710  0.171820  0.931400  1.0  0.0863
  H  H45  1  0.753750  0.873230  0.346350  1.0  0.0949
  H  H46  1  0.606160  0.659630  0.088310  1.0  0.0898
  H  H47  1  0.007590  0.835010  0.144880  1.0  0.0775
  H  H48  1  0.164850  0.273260  0.637630  1.0  0.089
  H  H49  1  0.911880  0.251720  0.851280  1.0  0.071
  H  H50  1  0.179580  0.426090  0.769300  1.0  0.0987
  H  H51  1  0.624860  0.978190  0.108730  1.0  0.0838
  H  H52  1  0.762670  0.477780  0.610430  1.0  0.0814
  C  C53  1  0.968850  0.855290  0.198900  1.0  0.0195
  C  C54  1  0.249560  0.983810  0.432580  1.0  0.0322
  C  C55  1  0.526310  0.039980  0.016620  1.0  -0.1229
  C  C56  1  0.524270  0.398420  0.853720  1.0  0.5281
  C  C57  1  0.254150  0.578930  0.104220  1.0  0.0505
  C  C58  1  0.257730  0.522490  0.052540  1.0  0.0657
  C  C59  1  0.380820  0.627740  0.116720  1.0  -0.164
  C  C60  1  0.259030  0.960650  0.049950  1.0  0.0185
  C  C61  1  0.524390  0.213180  0.653960  1.0  0.5406
  C  C62  1  0.382800  0.550420  0.528360  1.0  -0.1026
  C  C63  1  0.522030  0.988360  0.074680  1.0  0.0591
  C  C64  1  0.940510  0.240800  0.793480  1.0  0.0163
  C  C65  1  0.385480  0.893700  0.151500  1.0  0.5376
  C  C66  1  0.390130  0.949230  0.091290  1.0  -0.2073
  C  C67  1  0.382600  0.074980  0.510490  1.0  -0.1089
  C  C68  1  0.799440  0.858940  0.201810  1.0  0.0132
  C  C69  1  0.248420  0.626400  0.440820  1.0  0.0303
  C  C70  1  0.260110  0.009770  0.992260  1.0  0.0197
  C  C71  1  0.528930  0.142920  0.900970  1.0  -0.1624
  C  C72  1  0.515090  0.008300  0.415660  1.0  0.0407
  C  C73  1  0.398920  0.101420  0.915330  1.0  0.0523
  C  C74  1  0.393420  0.050290  0.973790  1.0  -0.0961
  C  C75  1  0.383330  0.969340  0.396220  1.0  -0.1594
  C  C76  1  0.385400  0.650940  0.410990  1.0  -0.1674
  C  C77  1  0.961660  0.721900  0.238000  1.0  0.0002
  C  C78  1  0.654090  0.147670  0.553940  1.0  0.0428
  C  C79  1  0.792150  0.724240  0.232370  1.0  0.0058
  C  C80  1  0.515100  0.563220  0.023280  1.0  -0.085
  C  C81  1  0.117480  0.373600  0.790400  1.0  0.0027
  C  C82  1  0.384670  0.707930  0.352550  1.0  0.53
  C  C83  1  0.107960  0.235500  0.783540  1.0  -0.009
  C  C84  1  0.521190  0.160800  0.591480  1.0  -0.1641
  C  C85  1  0.528540  0.201380  0.843460  1.0  0.5077
  C  C86  1  0.659180  0.133790  0.944010  1.0  0.0342
  C  C87  1  0.384120  0.909490  0.339980  1.0  0.5448
  C  C88  1  0.644120  0.556670  0.980470  1.0  0.0584
  C  C89  1  0.517590  0.061670  0.472400  1.0  -0.1273
  C  C90  1  0.658490  0.083140  0.000420  1.0  0.0571
  C  C91  1  0.936540  0.298520  0.676680  1.0  0.0079
  C  C92  1  0.509180  0.618900  0.077670  1.0  0.0457
  C  C93  1  0.519830  0.624500  0.438020  1.0  0.0623
  C  C94  1  0.248710  0.035090  0.488570  1.0  0.0238
  C  C95  1  0.386920  0.126310  0.568930  1.0  0.0757
  C  C96  1  0.246480  0.577310  0.498340  1.0  0.0415
  C  C97  1  0.803400  0.818270  0.327020  1.0  -0.0065
  C  C98  1  0.520240  0.474470  0.614720  1.0  -0.1561
  C  C99  1  0.377770  0.692000  0.168850  1.0  0.5434
  C  C100  1  0.656970  0.500010  0.585550  1.0  0.0155
  C  C101  1  0.104740  0.313380  0.674780  1.0  -0.0057
  C  C102  1  0.948350  0.378740  0.783650  1.0  -0.0105
  C  C103  1  0.393110  0.458820  0.954980  1.0  0.0403
  C  C104  1  0.385480  0.499520  0.586880  1.0  0.0698
  C  C105  1  0.652180  0.100560  0.494770  1.0  0.0585
  C  C106  1  0.522700  0.413020  0.668900  1.0  0.5318
  C  C107  1  0.644990  0.503470  0.926190  1.0  0.0059
  C  C108  1  0.387130  0.513920  0.010270  1.0  -0.1029
  C  C109  1  0.973360  0.823400  0.325240  1.0  0.032
  C  C110  1  0.521840  0.574370  0.497130  1.0  -0.0953
  C  C111  1  0.519210  0.454260  0.913460  1.0  -0.1542
  C  C112  1  0.658240  0.547620  0.527050  1.0  0.0438
  N  N113  1  0.025890  0.799960  0.253200  1.0  -0.2021
  N  N114  1  0.740250  0.801410  0.253840  1.0  -0.2374
  N  N115  1  0.168840  0.306280  0.749050  1.0  -0.2533
  N  N116  1  0.883180  0.306860  0.751710  1.0  -0.2308
  O  O117  1  0.510820  0.877440  0.330060  1.0  -0.5904
  O  O118  1  0.258540  0.739360  0.337580  1.0  -0.5646
  O  O119  1  0.251960  0.706300  0.197640  1.0  -0.5884
  O  O120  1  0.511260  0.721900  0.322170  1.0  -0.5697
  O  O121  1  0.398120  0.243540  0.669050  1.0  -0.5669
  O  O122  1  0.509360  0.885510  0.187000  1.0  -0.5714
  O  O123  1  0.404050  0.357340  0.842010  1.0  -0.5947
  O  O124  1  0.650620  0.224480  0.687350  1.0  -0.5813
  O  O125  1  0.648400  0.378280  0.676260  1.0  -0.577
  O  O126  1  0.400290  0.397620  0.702170  1.0  -0.5899
  O  O127  1  0.260040  0.858420  0.163470  1.0  -0.5646
  O  O128  1  0.502710  0.729410  0.179390  1.0  -0.6019
  O  O129  1  0.650920  0.241300  0.835670  1.0  -0.5791
  O  O130  1  0.646950  0.395820  0.818570  1.0  -0.5816
  O  O131  1  0.258840  0.892880  0.307340  1.0  -0.5973
  O  O132  1  0.405160  0.208750  0.807380  1.0  -0.6001
