# generated using pymatgen
data_CdH15(C9O2)3
_symmetry_space_group_name_H-M   'P 1'
_cell_length_a   8.98600000
_cell_length_b   14.91500000
_cell_length_c   26.75900000
_cell_angle_alpha   96.27200000
_cell_angle_beta   90.00000000
_cell_angle_gamma   90.00000000
_symmetry_Int_Tables_number   1
_chemical_formula_structural   CdH15(C9O2)3
_chemical_formula_sum   'Cd4 H60 C108 O24'
_cell_volume   3564.94024774
_cell_formula_units_Z   4
loop_
 _symmetry_equiv_pos_site_id
 _symmetry_equiv_pos_as_xyz
  1  'x, y, z'
loop_
 _atom_site_type_symbol
 _atom_site_label
 _atom_site_symmetry_multiplicity
 _atom_site_fract_x
 _atom_site_fract_y
 _atom_site_fract_z
 _atom_site_occupancy
 _atom_site_charge
  Cd  Cd1  1  0.812280  0.558840  0.858510  1.0  1.0738
  Cd  Cd2  1  0.687720  0.058840  0.358510  1.0  1.0727
  Cd  Cd3  1  0.312280  0.941160  0.641490  1.0  1.0737
  Cd  Cd4  1  0.187720  0.441160  0.141490  1.0  1.0727
  H  H5  1  0.997600  0.408600  0.996100  1.0  0.1008
  H  H6  1  0.982200  0.248500  0.865400  1.0  0.1095
  H  H7  1  0.402400  0.682000  0.974900  1.0  0.1145
  H  H8  1  0.257600  0.798200  0.012600  1.0  0.103
  H  H9  1  0.464400  0.971000  0.930700  1.0  0.1148
  H  H10  1  0.608500  0.854300  0.893300  1.0  0.1019
  H  H11  1  0.230900  0.921600  0.068300  1.0  0.1085
  H  H12  1  0.031300  0.161700  0.065900  1.0  0.1105
  H  H13  1  0.256200  0.051700  0.944900  1.0  0.1112
  H  H14  1  0.229800  0.971200  0.156500  1.0  0.1199
  H  H15  1  0.124300  0.965200  0.234700  1.0  0.11
  H  H16  1  0.758400  0.086400  0.191100  1.0  0.11
  H  H17  1  0.862400  0.096000  0.113100  1.0  0.1057
  H  H18  1  0.091600  0.291300  0.035500  1.0  0.1039
  H  H19  1  0.076300  0.130900  0.905000  1.0  0.0989
  H  H20  1  0.502400  0.908600  0.496100  1.0  0.1009
  H  H21  1  0.517800  0.748500  0.365400  1.0  0.1094
  H  H22  1  0.097600  0.182000  0.474900  1.0  0.1145
  H  H23  1  0.242400  0.298200  0.512600  1.0  0.1032
  H  H24  1  0.035600  0.471000  0.430700  1.0  0.1145
  H  H25  1  0.891500  0.354300  0.393300  1.0  0.102
  H  H26  1  0.269100  0.421600  0.568300  1.0  0.1088
  H  H27  1  0.468700  0.661700  0.565900  1.0  0.1105
  H  H28  1  0.243800  0.551700  0.444900  1.0  0.1111
  H  H29  1  0.270200  0.471200  0.656500  1.0  0.1203
  H  H30  1  0.375700  0.465200  0.734700  1.0  0.1102
  H  H31  1  0.741600  0.586400  0.691100  1.0  0.11
  H  H32  1  0.637600  0.596000  0.613100  1.0  0.1058
  H  H33  1  0.408400  0.791300  0.535500  1.0  0.1038
  H  H34  1  0.423700  0.630900  0.405000  1.0  0.099
  H  H35  1  0.497600  0.091400  0.503900  1.0  0.1009
  H  H36  1  0.482200  0.251500  0.634600  1.0  0.1095
  H  H37  1  0.902400  0.818000  0.525100  1.0  0.1157
  H  H38  1  0.757600  0.701800  0.487400  1.0  0.1036
  H  H39  1  0.964400  0.529000  0.569300  1.0  0.1151
  H  H40  1  0.108500  0.645700  0.606700  1.0  0.1019
  H  H41  1  0.730900  0.578400  0.431700  1.0  0.1086
  H  H42  1  0.531300  0.338300  0.434100  1.0  0.1107
  H  H43  1  0.756200  0.448300  0.555100  1.0  0.1106
  H  H44  1  0.729800  0.528800  0.343500  1.0  0.1214
  H  H45  1  0.624300  0.534800  0.265300  1.0  0.1107
  H  H46  1  0.258400  0.413600  0.308900  1.0  0.11
  H  H47  1  0.362400  0.404000  0.386900  1.0  0.1048
  H  H48  1  0.591600  0.208700  0.464500  1.0  0.1043
  H  H49  1  0.576300  0.369100  0.595000  1.0  0.099
  H  H50  1  0.002400  0.591400  0.003900  1.0  0.1011
  H  H51  1  0.017800  0.751500  0.134600  1.0  0.1097
  H  H52  1  0.597600  0.318000  0.025100  1.0  0.1159
  H  H53  1  0.742400  0.201800  0.987400  1.0  0.1031
  H  H54  1  0.535600  0.029000  0.069300  1.0  0.1148
  H  H55  1  0.391500  0.145700  0.106700  1.0  0.1019
  H  H56  1  0.769100  0.078400  0.931700  1.0  0.1089
  H  H57  1  0.968700  0.838300  0.934100  1.0  0.1105
  H  H58  1  0.743800  0.948300  0.055100  1.0  0.1107
  H  H59  1  0.770200  0.028800  0.843500  1.0  0.1198
  H  H60  1  0.875700  0.034800  0.765300  1.0  0.11
  H  H61  1  0.241600  0.913600  0.808900  1.0  0.1096
  H  H62  1  0.137600  0.904000  0.886900  1.0  0.1049
  H  H63  1  0.908400  0.708700  0.964500  1.0  0.1043
  H  H64  1  0.923700  0.869100  0.095000  1.0  0.0992
  C  C65  1  0.012400  0.352700  0.977710  1.0  -0.0204
  C  C66  1  0.977500  0.341200  0.926730  1.0  -0.1206
  C  C67  1  0.003200  0.257100  0.899670  1.0  -0.0356
  C  C68  1  0.918200  0.417100  0.901180  1.0  0.6481
  C  C69  1  0.861200  0.023300  0.271870  1.0  0.6394
  C  C70  1  0.522000  0.755900  0.931070  1.0  -0.1227
  C  C71  1  0.415900  0.740200  0.966280  1.0  -0.0361
  C  C72  1  0.328900  0.810100  0.989020  1.0  -0.1263
  C  C73  1  0.347600  0.898200  0.976710  1.0  0.0465
  C  C74  1  0.452400  0.913200  0.940090  1.0  -0.1219
  C  C75  1  0.538800  0.843200  0.917590  1.0  -0.0271
  C  C76  1  0.258100  0.974200  0.002480  1.0  0.0413
  C  C77  1  0.207400  0.971000  0.051410  1.0  -0.1219
  C  C78  1  0.121400  0.041000  0.075400  1.0  0.0418
  C  C79  1  0.088000  0.114800  0.050010  1.0  -0.1046
  C  C80  1  0.138100  0.120100  0.000970  1.0  0.0469
  C  C81  1  0.222800  0.049100  0.977570  1.0  -0.1226
  C  C82  1  0.058800  0.035700  0.126080  1.0  0.0569
  C  C83  1  0.135600  0.995400  0.163230  1.0  -0.1312
  C  C84  1  0.071500  0.991300  0.210110  1.0  -0.0338
  C  C85  1  0.931400  0.025100  0.220850  1.0  -0.114
  C  C86  1  0.853600  0.063800  0.184230  1.0  -0.0354
  C  C87  1  0.916000  0.069500  0.137360  1.0  -0.1425
  C  C88  1  0.091400  0.197700  0.974730  1.0  0.0463
  C  C89  1  0.068600  0.282300  0.001400  1.0  -0.1238
  C  C90  1  0.059500  0.186500  0.923440  1.0  -0.124
  C  C91  1  0.619700  0.682000  0.907120  1.0  0.6392
  C  C92  1  0.487600  0.852700  0.477710  1.0  -0.0202
  C  C93  1  0.522500  0.841200  0.426730  1.0  -0.121
  C  C94  1  0.496800  0.757100  0.399670  1.0  -0.0346
  C  C95  1  0.581800  0.917100  0.401180  1.0  0.6475
  C  C96  1  0.638800  0.523300  0.771870  1.0  0.6392
  C  C97  1  0.978000  0.255900  0.431070  1.0  -0.1218
  C  C98  1  0.084100  0.240200  0.466280  1.0  -0.036
  C  C99  1  0.171100  0.310100  0.489020  1.0  -0.1273
  C  C100  1  0.152400  0.398200  0.476710  1.0  0.0462
  C  C101  1  0.047600  0.413200  0.440090  1.0  -0.1215
  C  C102  1  0.961200  0.343200  0.417590  1.0  -0.0266
  C  C103  1  0.241900  0.474200  0.502480  1.0  0.0407
  C  C104  1  0.292600  0.471000  0.551410  1.0  -0.1231
  C  C105  1  0.378600  0.541000  0.575400  1.0  0.0405
  C  C106  1  0.412000  0.614800  0.550010  1.0  -0.104
  C  C107  1  0.361900  0.620100  0.500970  1.0  0.0468
  C  C108  1  0.277200  0.549100  0.477570  1.0  -0.1224
  C  C109  1  0.441200  0.535700  0.626080  1.0  0.0561
  C  C110  1  0.364400  0.495400  0.663230  1.0  -0.1324
  C  C111  1  0.428500  0.491300  0.710110  1.0  -0.0335
  C  C112  1  0.568600  0.525100  0.720850  1.0  -0.1137
  C  C113  1  0.646400  0.563800  0.684230  1.0  -0.0343
  C  C114  1  0.584000  0.569500  0.637360  1.0  -0.1419
  C  C115  1  0.408600  0.697700  0.474730  1.0  0.0466
  C  C116  1  0.431400  0.782300  0.501400  1.0  -0.1247
  C  C117  1  0.440500  0.686500  0.423440  1.0  -0.1232
  C  C118  1  0.880300  0.182000  0.407120  1.0  0.6399
  C  C119  1  0.512400  0.147300  0.522290  1.0  -0.0207
  C  C120  1  0.477500  0.158800  0.573270  1.0  -0.122
  C  C121  1  0.503200  0.242900  0.600330  1.0  -0.0376
  C  C122  1  0.418200  0.082900  0.598820  1.0  0.6482
  C  C123  1  0.361200  0.476700  0.228130  1.0  0.6373
  C  C124  1  0.022000  0.744100  0.568930  1.0  -0.1182
  C  C125  1  0.915900  0.759800  0.533720  1.0  -0.0341
  C  C126  1  0.828900  0.689900  0.510980  1.0  -0.1255
  C  C127  1  0.847600  0.601800  0.523290  1.0  0.0465
  C  C128  1  0.952400  0.586800  0.559910  1.0  -0.1205
  C  C129  1  0.038800  0.656800  0.582410  1.0  -0.0272
  C  C130  1  0.758100  0.525800  0.497520  1.0  0.0406
  C  C131  1  0.707400  0.529000  0.448590  1.0  -0.1227
  C  C132  1  0.621400  0.459000  0.424600  1.0  0.0472
  C  C133  1  0.588000  0.385200  0.449990  1.0  -0.1046
  C  C134  1  0.638100  0.379900  0.499030  1.0  0.047
  C  C135  1  0.722800  0.450900  0.522430  1.0  -0.1251
  C  C136  1  0.558800  0.464300  0.373920  1.0  0.0526
  C  C137  1  0.635600  0.504600  0.336770  1.0  -0.1306
  C  C138  1  0.571500  0.508700  0.289890  1.0  -0.0333
  C  C139  1  0.431400  0.474900  0.279150  1.0  -0.1136
  C  C140  1  0.353600  0.436200  0.315770  1.0  -0.034
  C  C141  1  0.416000  0.430500  0.362640  1.0  -0.1404
  C  C142  1  0.591400  0.302300  0.525270  1.0  0.0464
  C  C143  1  0.568600  0.217700  0.498600  1.0  -0.1223
  C  C144  1  0.559500  0.313500  0.576560  1.0  -0.1229
  C  C145  1  0.119700  0.818000  0.592880  1.0  0.6399
  C  C146  1  0.987600  0.647300  0.022290  1.0  -0.0203
  C  C147  1  0.022500  0.658800  0.073270  1.0  -0.1228
  C  C148  1  0.996800  0.742900  0.100330  1.0  -0.0362
  C  C149  1  0.081800  0.582900  0.098820  1.0  0.648
  C  C150  1  0.138800  0.976700  0.728130  1.0  0.636
  C  C151  1  0.478000  0.244100  0.068930  1.0  -0.117
  C  C152  1  0.584100  0.259800  0.033720  1.0  -0.0336
  C  C153  1  0.671100  0.189900  0.010980  1.0  -0.126
  C  C154  1  0.652400  0.101800  0.023290  1.0  0.0464
  C  C155  1  0.547600  0.086800  0.059910  1.0  -0.1207
  C  C156  1  0.461200  0.156800  0.082410  1.0  -0.0271
  C  C157  1  0.741900  0.025800  0.997520  1.0  0.0404
  C  C158  1  0.792600  0.029000  0.948590  1.0  -0.1235
  C  C159  1  0.878600  0.959000  0.924600  1.0  0.0463
  C  C160  1  0.912000  0.885200  0.949990  1.0  -0.1044
  C  C161  1  0.861900  0.879900  0.999030  1.0  0.0468
  C  C162  1  0.777200  0.950900  0.022430  1.0  -0.126
  C  C163  1  0.941200  0.964300  0.873920  1.0  0.0522
  C  C164  1  0.864400  0.004600  0.836770  1.0  -0.1302
  C  C165  1  0.928500  0.008700  0.789890  1.0  -0.0335
  C  C166  1  0.068600  0.974900  0.779150  1.0  -0.1134
  C  C167  1  0.146400  0.936200  0.815770  1.0  -0.034
  C  C168  1  0.084000  0.930500  0.862640  1.0  -0.1418
  C  C169  1  0.908600  0.802300  0.025270  1.0  0.0467
  C  C170  1  0.931400  0.717700  0.998600  1.0  -0.1224
  C  C171  1  0.940500  0.813500  0.076560  1.0  -0.1241
  C  C172  1  0.380300  0.318000  0.092880  1.0  0.6403
  O  O173  1  0.932600  0.995300  0.306550  1.0  -0.4922
  O  O174  1  0.730400  0.054000  0.276760  1.0  -0.5673
  O  O175  1  0.884200  0.405370  0.856200  1.0  -0.535
  O  O176  1  0.903400  0.493230  0.926330  1.0  -0.5536
  O  O177  1  0.721500  0.700450  0.878290  1.0  -0.5602
  O  O178  1  0.597400  0.602200  0.917200  1.0  -0.5319
  O  O179  1  0.567400  0.495300  0.806550  1.0  -0.4924
  O  O180  1  0.769600  0.554000  0.776760  1.0  -0.5674
  O  O181  1  0.615800  0.905370  0.356200  1.0  -0.5366
  O  O182  1  0.596600  0.993230  0.426330  1.0  -0.5536
  O  O183  1  0.778500  0.200450  0.378290  1.0  -0.559
  O  O184  1  0.902600  0.102200  0.417200  1.0  -0.5341
  O  O185  1  0.432600  0.504700  0.193450  1.0  -0.4912
  O  O186  1  0.230400  0.446000  0.223240  1.0  -0.5664
  O  O187  1  0.384200  0.094630  0.643800  1.0  -0.5359
  O  O188  1  0.403400  0.006770  0.573670  1.0  -0.5533
  O  O189  1  0.221500  0.799550  0.621710  1.0  -0.5616
  O  O190  1  0.097400  0.897800  0.582800  1.0  -0.5355
  O  O191  1  0.067400  0.004700  0.693450  1.0  -0.492
  O  O192  1  0.269600  0.946000  0.723240  1.0  -0.5667
  O  O193  1  0.115800  0.594630  0.143800  1.0  -0.5369
  O  O194  1  0.096600  0.506770  0.073670  1.0  -0.5532
  O  O195  1  0.278500  0.299550  0.121710  1.0  -0.5611
  O  O196  1  0.402600  0.397800  0.082800  1.0  -0.5338
