# generated using pymatgen
data_CdH15(C9O2)3
_symmetry_space_group_name_H-M   'P 1'
_cell_length_a   8.98600000
_cell_length_b   14.91500000
_cell_length_c   26.75900000
_cell_angle_alpha   96.27200000
_cell_angle_beta   90.00000000
_cell_angle_gamma   90.00000000
_symmetry_Int_Tables_number   1
_chemical_formula_structural   CdH15(C9O2)3
_chemical_formula_sum   'Cd4 H60 C108 O24'
_cell_volume   3564.94024774
_cell_formula_units_Z   4
loop_
 _symmetry_equiv_pos_site_id
 _symmetry_equiv_pos_as_xyz
  1  'x, y, z'
loop_
 _atom_site_type_symbol
 _atom_site_label
 _atom_site_symmetry_multiplicity
 _atom_site_fract_x
 _atom_site_fract_y
 _atom_site_fract_z
 _atom_site_occupancy
 _atom_site_charge
  Cd  Cd1  1  0.812240  0.558840  0.858520  1.0  1.0746
  Cd  Cd2  1  0.687760  0.058840  0.358520  1.0  1.0734
  Cd  Cd3  1  0.312240  0.941160  0.641480  1.0  1.0743
  Cd  Cd4  1  0.187760  0.441160  0.141490  1.0  1.0739
  H  H5  1  0.402100  0.682300  0.975000  1.0  0.1167
  H  H6  1  0.257500  0.798200  0.012500  1.0  0.108
  H  H7  1  0.465200  0.970900  0.930800  1.0  0.1186
  H  H8  1  0.608400  0.853800  0.893200  1.0  0.1066
  H  H9  1  0.231600  0.921600  0.068200  1.0  0.1107
  H  H10  1  0.031900  0.161600  0.065800  1.0  0.113
  H  H11  1  0.255600  0.051200  0.944700  1.0  0.1136
  H  H12  1  0.229700  0.971200  0.156400  1.0  0.1216
  H  H13  1  0.125200  0.964900  0.234500  1.0  0.1109
  H  H14  1  0.758700  0.086800  0.190700  1.0  0.1143
  H  H15  1  0.863200  0.095900  0.113300  1.0  0.1119
  H  H16  1  0.091500  0.291000  0.035500  1.0  0.1138
  H  H17  1  0.076800  0.131600  0.904900  1.0  0.1019
  H  H18  1  0.997000  0.408800  0.995900  1.0  0.1042
  H  H19  1  0.982200  0.249100  0.865500  1.0  0.1177
  H  H20  1  0.097900  0.182300  0.475000  1.0  0.1166
  H  H21  1  0.242500  0.298200  0.512500  1.0  0.1081
  H  H22  1  0.034800  0.470900  0.430800  1.0  0.1184
  H  H23  1  0.891600  0.353800  0.393200  1.0  0.1068
  H  H24  1  0.268400  0.421600  0.568200  1.0  0.1112
  H  H25  1  0.468100  0.661600  0.565800  1.0  0.1131
  H  H26  1  0.244400  0.551200  0.444700  1.0  0.1138
  H  H27  1  0.270300  0.471200  0.656400  1.0  0.122
  H  H28  1  0.374800  0.464900  0.734500  1.0  0.1112
  H  H29  1  0.741300  0.586800  0.690700  1.0  0.1144
  H  H30  1  0.636800  0.595900  0.613300  1.0  0.1118
  H  H31  1  0.408500  0.791000  0.535500  1.0  0.1139
  H  H32  1  0.423200  0.631600  0.404900  1.0  0.1015
  H  H33  1  0.503000  0.908800  0.495900  1.0  0.1042
  H  H34  1  0.517800  0.749100  0.365500  1.0  0.1176
  H  H35  1  0.902100  0.817700  0.525000  1.0  0.1175
  H  H36  1  0.757500  0.701800  0.487500  1.0  0.1085
  H  H37  1  0.965200  0.529100  0.569200  1.0  0.119
  H  H38  1  0.108400  0.646200  0.606800  1.0  0.1066
  H  H39  1  0.731600  0.578400  0.431800  1.0  0.1107
  H  H40  1  0.531900  0.338400  0.434200  1.0  0.1134
  H  H41  1  0.755600  0.448800  0.555300  1.0  0.1129
  H  H42  1  0.729700  0.528800  0.343600  1.0  0.1232
  H  H43  1  0.625200  0.535100  0.265500  1.0  0.1114
  H  H44  1  0.258700  0.413200  0.309300  1.0  0.1144
  H  H45  1  0.363200  0.404100  0.386700  1.0  0.1111
  H  H46  1  0.591500  0.209000  0.464500  1.0  0.1137
  H  H47  1  0.576800  0.368400  0.595100  1.0  0.1021
  H  H48  1  0.497000  0.091200  0.504100  1.0  0.1042
  H  H49  1  0.482200  0.250900  0.634500  1.0  0.1172
  H  H50  1  0.597900  0.317700  0.025000  1.0  0.1177
  H  H51  1  0.742500  0.201800  0.987500  1.0  0.1078
  H  H52  1  0.534800  0.029100  0.069200  1.0  0.1188
  H  H53  1  0.391600  0.146200  0.106800  1.0  0.1068
  H  H54  1  0.768400  0.078400  0.931800  1.0  0.1113
  H  H55  1  0.968100  0.838400  0.934200  1.0  0.1131
  H  H56  1  0.744400  0.948800  0.055300  1.0  0.1134
  H  H57  1  0.770300  0.028800  0.843600  1.0  0.1218
  H  H58  1  0.874800  0.035100  0.765500  1.0  0.1108
  H  H59  1  0.241300  0.913200  0.809300  1.0  0.1139
  H  H60  1  0.136800  0.904100  0.886700  1.0  0.1113
  H  H61  1  0.908500  0.709000  0.964500  1.0  0.1139
  H  H62  1  0.923200  0.868400  0.095100  1.0  0.1019
  H  H63  1  0.003000  0.591200  0.004100  1.0  0.1044
  H  H64  1  0.017800  0.750900  0.134500  1.0  0.1175
  C  C65  1  0.521700  0.756250  0.930960  1.0  -0.1367
  C  C66  1  0.415500  0.740500  0.966300  1.0  -0.0443
  C  C67  1  0.328800  0.810070  0.988910  1.0  -0.119
  C  C68  1  0.347500  0.897830  0.976590  1.0  0.0505
  C  C69  1  0.452700  0.913070  0.940080  1.0  -0.1053
  C  C70  1  0.538800  0.842810  0.917490  1.0  -0.0024
  C  C71  1  0.257800  0.973990  0.002410  1.0  -0.0214
  C  C72  1  0.207700  0.970960  0.051240  1.0  -0.1144
  C  C73  1  0.121500  0.041010  0.075480  1.0  0.0397
  C  C74  1  0.088500  0.114700  0.049920  1.0  -0.0991
  C  C75  1  0.138200  0.120040  0.001000  1.0  0.0342
  C  C76  1  0.222500  0.048810  0.977440  1.0  -0.1146
  C  C77  1  0.058600  0.035600  0.126140  1.0  0.0614
  C  C78  1  0.135500  0.995310  0.163200  1.0  -0.1221
  C  C79  1  0.072200  0.991060  0.210030  1.0  -0.0336
  C  C80  1  0.931100  0.025190  0.220950  1.0  -0.1238
  C  C81  1  0.853900  0.064050  0.184020  1.0  -0.0273
  C  C82  1  0.916600  0.069330  0.137600  1.0  -0.1264
  C  C83  1  0.091300  0.197590  0.974700  1.0  0.0439
  C  C84  1  0.068600  0.282040  0.001420  1.0  -0.126
  C  C85  1  0.059700  0.187020  0.923510  1.0  -0.1137
  C  C86  1  0.012000  0.352870  0.977570  1.0  -0.0192
  C  C87  1  0.977800  0.341160  0.926840  1.0  -0.121
  C  C88  1  0.003200  0.257570  0.899680  1.0  -0.0573
  C  C89  1  0.918200  0.417150  0.901300  1.0  0.6689
  C  C90  1  0.861000  0.023790  0.272090  1.0  0.6852
  C  C91  1  0.619900  0.682000  0.907040  1.0  0.681
  C  C92  1  0.978300  0.256250  0.430960  1.0  -0.1362
  C  C93  1  0.084500  0.240500  0.466300  1.0  -0.044
  C  C94  1  0.171200  0.310070  0.488910  1.0  -0.1204
  C  C95  1  0.152500  0.397830  0.476590  1.0  0.0501
  C  C96  1  0.047300  0.413070  0.440080  1.0  -0.1049
  C  C97  1  0.961200  0.342810  0.417490  1.0  -0.0008
  C  C98  1  0.242200  0.473990  0.502410  1.0  -0.0224
  C  C99  1  0.292300  0.470960  0.551240  1.0  -0.1153
  C  C100  1  0.378500  0.541010  0.575480  1.0  0.0384
  C  C101  1  0.411500  0.614700  0.549920  1.0  -0.0984
  C  C102  1  0.361800  0.620040  0.501000  1.0  0.0331
  C  C103  1  0.277500  0.548810  0.477440  1.0  -0.1145
  C  C104  1  0.441400  0.535600  0.626140  1.0  0.0606
  C  C105  1  0.364500  0.495310  0.663200  1.0  -0.1235
  C  C106  1  0.427800  0.491060  0.710030  1.0  -0.0334
  C  C107  1  0.568900  0.525190  0.720950  1.0  -0.1241
  C  C108  1  0.646100  0.564050  0.684020  1.0  -0.0268
  C  C109  1  0.583400  0.569330  0.637600  1.0  -0.1264
  C  C110  1  0.408700  0.697590  0.474700  1.0  0.0435
  C  C111  1  0.431400  0.782040  0.501420  1.0  -0.1271
  C  C112  1  0.440300  0.687020  0.423510  1.0  -0.1132
  C  C113  1  0.488000  0.852870  0.477570  1.0  -0.0191
  C  C114  1  0.522200  0.841160  0.426840  1.0  -0.121
  C  C115  1  0.496800  0.757570  0.399680  1.0  -0.0561
  C  C116  1  0.581800  0.917150  0.401300  1.0  0.6693
  C  C117  1  0.639000  0.523790  0.772090  1.0  0.6849
  C  C118  1  0.880100  0.182000  0.407040  1.0  0.6813
  C  C119  1  0.021700  0.743750  0.569040  1.0  -0.136
  C  C120  1  0.915500  0.759500  0.533700  1.0  -0.0421
  C  C121  1  0.828800  0.689930  0.511090  1.0  -0.118
  C  C122  1  0.847500  0.602170  0.523410  1.0  0.0511
  C  C123  1  0.952700  0.586930  0.559920  1.0  -0.1035
  C  C124  1  0.038800  0.657190  0.582510  1.0  -0.0028
  C  C125  1  0.757800  0.526010  0.497590  1.0  -0.0219
  C  C126  1  0.707700  0.529040  0.448760  1.0  -0.1153
  C  C127  1  0.621500  0.458990  0.424520  1.0  0.043
  C  C128  1  0.588500  0.385300  0.450080  1.0  -0.0991
  C  C129  1  0.638200  0.379960  0.499000  1.0  0.0347
  C  C130  1  0.722500  0.451190  0.522560  1.0  -0.1177
  C  C131  1  0.558600  0.464400  0.373860  1.0  0.0575
  C  C132  1  0.635500  0.504690  0.336800  1.0  -0.1217
  C  C133  1  0.572200  0.508940  0.289970  1.0  -0.0328
  C  C134  1  0.431100  0.474810  0.279050  1.0  -0.1224
  C  C135  1  0.353900  0.435950  0.315980  1.0  -0.0252
  C  C136  1  0.416600  0.430670  0.362400  1.0  -0.1246
  C  C137  1  0.591300  0.302410  0.525300  1.0  0.0441
  C  C138  1  0.568600  0.217960  0.498580  1.0  -0.1257
  C  C139  1  0.559700  0.312980  0.576490  1.0  -0.1119
  C  C140  1  0.512000  0.147130  0.522430  1.0  -0.0193
  C  C141  1  0.477800  0.158840  0.573160  1.0  -0.122
  C  C142  1  0.503200  0.242430  0.600320  1.0  -0.0597
  C  C143  1  0.418200  0.082850  0.598700  1.0  0.6685
  C  C144  1  0.361000  0.476210  0.227910  1.0  0.684
  C  C145  1  0.119900  0.818000  0.592960  1.0  0.681
  C  C146  1  0.478300  0.243750  0.069040  1.0  -0.135
  C  C147  1  0.584500  0.259500  0.033700  1.0  -0.0418
  C  C148  1  0.671200  0.189930  0.011090  1.0  -0.1187
  C  C149  1  0.652500  0.102170  0.023410  1.0  0.0508
  C  C150  1  0.547300  0.086930  0.059920  1.0  -0.1036
  C  C151  1  0.461200  0.157190  0.082510  1.0  -0.0016
  C  C152  1  0.742200  0.026010  0.997590  1.0  -0.0227
  C  C153  1  0.792300  0.029040  0.948760  1.0  -0.1162
  C  C154  1  0.878500  0.958990  0.924520  1.0  0.0415
  C  C155  1  0.911500  0.885300  0.950080  1.0  -0.0985
  C  C156  1  0.861800  0.879960  0.999000  1.0  0.0334
  C  C157  1  0.777500  0.951190  0.022560  1.0  -0.1185
  C  C158  1  0.941400  0.964400  0.873860  1.0  0.057
  C  C159  1  0.864500  0.004690  0.836800  1.0  -0.1214
  C  C160  1  0.927800  0.008940  0.789970  1.0  -0.0321
  C  C161  1  0.068900  0.974810  0.779050  1.0  -0.1222
  C  C162  1  0.146100  0.935950  0.815980  1.0  -0.026
  C  C163  1  0.083400  0.930670  0.862400  1.0  -0.1265
  C  C164  1  0.908700  0.802410  0.025300  1.0  0.0437
  C  C165  1  0.931400  0.717960  0.998580  1.0  -0.1258
  C  C166  1  0.940300  0.812980  0.076490  1.0  -0.1131
  C  C167  1  0.988000  0.647130  0.022430  1.0  -0.019
  C  C168  1  0.022200  0.658840  0.073160  1.0  -0.1224
  C  C169  1  0.996800  0.742430  0.100320  1.0  -0.0583
  C  C170  1  0.081800  0.582850  0.098700  1.0  0.6691
  C  C171  1  0.139000  0.976210  0.727910  1.0  0.6827
  C  C172  1  0.380100  0.318000  0.092960  1.0  0.6811
  O  O173  1  0.721400  0.700720  0.878320  1.0  -0.5581
  O  O174  1  0.597000  0.601820  0.917190  1.0  -0.5795
  O  O175  1  0.931900  0.995820  0.306370  1.0  -0.5631
  O  O176  1  0.730300  0.054060  0.276930  1.0  -0.5902
  O  O177  1  0.883600  0.404980  0.856150  1.0  -0.5561
  O  O178  1  0.903700  0.493420  0.926250  1.0  -0.5449
  O  O179  1  0.778600  0.200720  0.378320  1.0  -0.557
  O  O180  1  0.903000  0.101820  0.417190  1.0  -0.5817
  O  O181  1  0.568100  0.495820  0.806370  1.0  -0.5631
  O  O182  1  0.769700  0.554060  0.776930  1.0  -0.5898
  O  O183  1  0.616400  0.904980  0.356150  1.0  -0.5575
  O  O184  1  0.596300  0.993420  0.426250  1.0  -0.545
  O  O185  1  0.221400  0.799280  0.621680  1.0  -0.5587
  O  O186  1  0.097000  0.898180  0.582810  1.0  -0.5855
  O  O187  1  0.431900  0.504180  0.193630  1.0  -0.5637
  O  O188  1  0.230300  0.445940  0.223070  1.0  -0.5897
  O  O189  1  0.383600  0.095020  0.643850  1.0  -0.5558
  O  O190  1  0.403700  0.006580  0.573750  1.0  -0.5453
  O  O191  1  0.278600  0.299280  0.121680  1.0  -0.5583
  O  O192  1  0.403000  0.398180  0.082810  1.0  -0.5842
  O  O193  1  0.068100  0.004180  0.693630  1.0  -0.5651
  O  O194  1  0.269700  0.945940  0.723070  1.0  -0.5894
  O  O195  1  0.116400  0.595020  0.143850  1.0  -0.5566
  O  O196  1  0.096300  0.506580  0.073750  1.0  -0.5451
