# generated using pymatgen
data_ZnH18(C11O2)3
_symmetry_space_group_name_H-M   'P 1'
_cell_length_a   12.02390000
_cell_length_b   13.48200000
_cell_length_c   14.04140000
_cell_angle_alpha   70.49100000
_cell_angle_beta   77.14100000
_cell_angle_gamma   89.31200000
_symmetry_Int_Tables_number   1
_chemical_formula_structural   ZnH18(C11O2)3
_chemical_formula_sum   'Zn2 H36 C66 O12'
_cell_volume   2086.89668735
_cell_formula_units_Z   2
loop_
 _symmetry_equiv_pos_site_id
 _symmetry_equiv_pos_as_xyz
  1  'x, y, z'
loop_
 _atom_site_type_symbol
 _atom_site_label
 _atom_site_symmetry_multiplicity
 _atom_site_fract_x
 _atom_site_fract_y
 _atom_site_fract_z
 _atom_site_occupancy
 _atom_site_charge
  Zn  Zn1  1  0.072340  0.358110  0.983870  1.0  1.0289
  Zn  Zn2  1  0.927660  0.641890  0.016130  1.0  1.031
  H  H3  1  0.066700  0.308700  0.691100  1.0  0.1171
  H  H4  1  0.052900  0.238000  0.563600  1.0  0.1161
  H  H5  1  0.966600  0.951100  0.784900  1.0  0.1148
  H  H6  1  0.977400  0.023600  0.911200  1.0  0.1121
  H  H7  1  0.094600  0.918700  0.630800  1.0  0.1162
  H  H8  1  0.775100  0.103200  0.648100  1.0  0.1074
  H  H9  1  0.655800  0.235000  0.659000  1.0  0.1422
  H  H10  1  0.809700  0.412400  0.353800  1.0  0.1485
  H  H11  1  0.933700  0.269200  0.352300  1.0  0.1124
  H  H12  1  0.747800  0.076700  0.272300  1.0  0.1118
  H  H13  1  0.862000  0.213700  0.135700  1.0  0.1112
  H  H14  1  0.647800  0.422300  0.217200  1.0  0.1197
  H  H15  1  0.529400  0.284500  0.342300  1.0  0.1249
  H  H16  1  0.695100  0.032200  0.473200  1.0  0.1006
  H  H17  1  0.491000  0.100200  0.219700  1.0  0.1364
  H  H18  1  0.382200  0.179600  0.100900  1.0  0.1089
  H  H19  1  0.141600  0.227200  0.317900  1.0  0.097
  H  H20  1  0.243100  0.147800  0.444500  1.0  0.1259
  H  H21  1  0.933300  0.691300  0.308900  1.0  0.117
  H  H22  1  0.947100  0.762000  0.436400  1.0  0.1155
  H  H23  1  0.033400  0.048900  0.215100  1.0  0.1146
  H  H24  1  0.022600  0.976400  0.088800  1.0  0.1122
  H  H25  1  0.905400  0.081300  0.369200  1.0  0.1175
  H  H26  1  0.224900  0.896800  0.351900  1.0  0.1074
  H  H27  1  0.344200  0.765000  0.341000  1.0  0.1412
  H  H28  1  0.190300  0.587600  0.646200  1.0  0.1471
  H  H29  1  0.066300  0.730800  0.647700  1.0  0.1127
  H  H30  1  0.252200  0.923300  0.727700  1.0  0.1106
  H  H31  1  0.138000  0.786300  0.864300  1.0  0.1107
  H  H32  1  0.352200  0.577700  0.782800  1.0  0.119
  H  H33  1  0.470600  0.715500  0.657700  1.0  0.1259
  H  H34  1  0.304900  0.967800  0.526800  1.0  0.1015
  H  H35  1  0.509000  0.899800  0.780300  1.0  0.1374
  H  H36  1  0.617800  0.820400  0.899100  1.0  0.1088
  H  H37  1  0.858400  0.772800  0.682100  1.0  0.0968
  H  H38  1  0.756900  0.852200  0.555500  1.0  0.1265
  C  C39  1  0.023700  0.173500  0.812600  1.0  -0.1058
  C  C40  1  0.045500  0.235700  0.710400  1.0  -0.032
  C  C41  1  0.037000  0.193600  0.634400  1.0  -0.1387
  C  C42  1  0.006000  0.089200  0.659900  1.0  0.0441
  C  C43  1  0.985600  0.024500  0.765500  1.0  -0.1348
  C  C44  1  0.993200  0.067200  0.840200  1.0  -0.0158
  C  C45  1  0.029600  0.219600  0.895300  1.0  0.6915
  C  C46  1  0.998400  0.040600  0.579700  1.0  0.0334
  C  C47  1  0.056000  0.952500  0.577600  1.0  -0.1389
  C  C48  1  0.941800  0.087100  0.501300  1.0  0.0215
  C  C49  1  0.867300  0.179500  0.500700  1.0  0.054
  C  C50  1  0.782000  0.166500  0.590400  1.0  -0.0638
  C  C51  1  0.710100  0.241500  0.596300  1.0  -0.08
  C  C52  1  0.716800  0.322900  0.514200  1.0  -0.0174
  C  C53  1  0.804600  0.349000  0.411100  1.0  -0.1027
  C  C54  1  0.877300  0.265400  0.413000  1.0  -0.1055
  C  C55  1  0.629400  0.167400  0.321000  1.0  0.0775
  C  C56  1  0.727100  0.147300  0.259700  1.0  -0.137
  C  C57  1  0.796400  0.228800  0.179300  1.0  -0.0249
  C  C58  1  0.768000  0.332400  0.164100  1.0  -0.1469
  C  C59  1  0.667800  0.351800  0.227100  1.0  -0.0281
  C  C60  1  0.598700  0.270400  0.302500  1.0  -0.1205
  C  C61  1  0.843600  0.422100  0.084700  1.0  0.7308
  C  C62  1  0.560900  0.079900  0.409300  1.0  0.0232
  C  C63  1  0.614900  0.019600  0.484200  1.0  -0.1427
  C  C64  1  0.443000  0.059800  0.423900  1.0  0.0182
  C  C65  1  0.377500  0.114700  0.345200  1.0  0.0558
  C  C66  1  0.419100  0.125200  0.242000  1.0  -0.1855
  C  C67  1  0.352800  0.173300  0.171500  1.0  -0.0553
  C  C68  1  0.254900  0.209900  0.194700  1.0  -0.0899
  C  C69  1  0.213400  0.200500  0.298300  1.0  -0.0297
  C  C70  1  0.273200  0.153300  0.374300  1.0  -0.1805
  C  C71  1  0.196200  0.257200  0.093500  1.0  0.6076
  C  C72  1  0.976300  0.826500  0.187400  1.0  -0.1049
  C  C73  1  0.954500  0.764300  0.289600  1.0  -0.0334
  C  C74  1  0.963000  0.806400  0.365600  1.0  -0.1395
  C  C75  1  0.994000  0.910800  0.340100  1.0  0.0452
  C  C76  1  0.014400  0.975500  0.234500  1.0  -0.1344
  C  C77  1  0.006800  0.932800  0.159800  1.0  -0.0159
  C  C78  1  0.970400  0.780400  0.104700  1.0  0.6895
  C  C79  1  0.001600  0.959400  0.420300  1.0  0.0323
  C  C80  1  0.944000  0.047500  0.422400  1.0  -0.1407
  C  C81  1  0.058200  0.912900  0.498700  1.0  0.0215
  C  C82  1  0.132700  0.820500  0.499300  1.0  0.0429
  C  C83  1  0.218000  0.833500  0.409600  1.0  -0.0612
  C  C84  1  0.289900  0.758500  0.403700  1.0  -0.0802
  C  C85  1  0.283200  0.677100  0.485800  1.0  -0.0187
  C  C86  1  0.195400  0.651000  0.588900  1.0  -0.1024
  C  C87  1  0.122700  0.734600  0.587000  1.0  -0.104
  C  C88  1  0.370600  0.832600  0.679000  1.0  0.0782
  C  C89  1  0.272900  0.852700  0.740300  1.0  -0.1368
  C  C90  1  0.203600  0.771200  0.820700  1.0  -0.0256
  C  C91  1  0.232000  0.667600  0.835900  1.0  -0.1475
  C  C92  1  0.332200  0.648200  0.772900  1.0  -0.0276
  C  C93  1  0.401300  0.729600  0.697500  1.0  -0.1202
  C  C94  1  0.156400  0.577900  0.915300  1.0  0.7304
  C  C95  1  0.439100  0.920100  0.590700  1.0  0.0246
  C  C96  1  0.385100  0.980400  0.515800  1.0  -0.1393
  C  C97  1  0.557000  0.940200  0.576100  1.0  0.0181
  C  C98  1  0.622500  0.885300  0.654800  1.0  0.0545
  C  C99  1  0.580900  0.874800  0.758000  1.0  -0.201
  C  C100  1  0.647200  0.826700  0.828500  1.0  -0.0592
  C  C101  1  0.745100  0.790100  0.805300  1.0  -0.0909
  C  C102  1  0.786600  0.799500  0.701700  1.0  -0.0303
  C  C103  1  0.726800  0.846700  0.625700  1.0  -0.1825
  C  C104  1  0.803800  0.742800  0.906500  1.0  0.5713
  O  O105  1  0.991900  0.168700  0.987600  1.0  -0.5271
  O  O106  1  0.072100  0.313700  0.863800  1.0  -0.5731
  O  O107  1  0.917200  0.405260  0.013490  1.0  -0.6458
  O  O108  1  0.827400  0.512160  0.091300  1.0  -0.576
  O  O109  1  0.249700  0.257500  0.007900  1.0  -0.557
  O  O110  1  0.118600  0.288100  0.119700  1.0  -0.5195
  O  O111  1  0.008100  0.831300  0.012400  1.0  -0.53
  O  O112  1  0.927900  0.686300  0.136200  1.0  -0.5762
  O  O113  1  0.082800  0.594740  0.986510  1.0  -0.6432
  O  O114  1  0.172600  0.487840  0.908700  1.0  -0.5754
  O  O115  1  0.750300  0.742500  0.992100  1.0  -0.5564
  O  O116  1  0.881400  0.711900  0.880300  1.0  -0.5194
