# generated using pymatgen
data_MgH18(C17O4)2
_symmetry_space_group_name_H-M   'P 1'
_cell_length_a   10.75740000
_cell_length_b   15.81350000
_cell_length_c   17.49570000
_cell_angle_alpha   114.10700000
_cell_angle_beta   104.09300000
_cell_angle_gamma   98.13200000
_symmetry_Int_Tables_number   1
_chemical_formula_structural   MgH18(C17O4)2
_chemical_formula_sum   'Mg2 H36 C68 O16'
_cell_volume   2535.46047843
_cell_formula_units_Z   2
loop_
 _symmetry_equiv_pos_site_id
 _symmetry_equiv_pos_as_xyz
  1  'x, y, z'
loop_
 _atom_site_type_symbol
 _atom_site_label
 _atom_site_symmetry_multiplicity
 _atom_site_fract_x
 _atom_site_fract_y
 _atom_site_fract_z
 _atom_site_occupancy
 _atom_site_charge
  Mg  Mg1  1  0.500000  0.000000  0.500000  1.0  1.6376
  Mg  Mg2  1  0.500000  0.500000  0.500000  1.0  1.6376
  H  H3  1  0.491600  0.080100  0.961800  1.0  0.094
  H  H4  1  0.391200  0.088000  0.833000  1.0  0.1054
  H  H5  1  0.709700  0.042300  0.755000  1.0  0.0962
  H  H6  1  0.809900  0.030700  0.882200  1.0  0.107
  H  H7  1  0.677100  0.158900  0.099400  1.0  0.1145
  H  H8  1  0.598800  0.128600  0.240800  1.0  0.106
  H  H9  1  0.571900  0.247700  0.365000  1.0  0.0948
  H  H10  1  0.949900  0.403100  0.439400  1.0  0.104
  H  H11  1  0.977300  0.285200  0.314800  1.0  0.0958
  H  H12  1  0.970200  0.881700  0.961800  1.0  0.0942
  H  H13  1  0.941800  0.745000  0.833000  1.0  0.1033
  H  H14  1  0.545300  0.712700  0.755000  1.0  0.0961
  H  H15  1  0.572300  0.851500  0.882200  1.0  0.1067
  H  H16  1  0.922300  0.940500  0.099400  1.0  0.1137
  H  H17  1  0.142000  0.112200  0.240800  1.0  0.1051
  H  H18  1  0.293100  0.117300  0.365000  1.0  0.0952
  H  H19  1  0.989500  0.036300  0.439400  1.0  0.1059
  H  H20  1  0.837500  0.029600  0.314800  1.0  0.0961
  H  H21  1  0.508400  0.919900  0.038200  1.0  0.0942
  H  H22  1  0.608800  0.912000  0.167000  1.0  0.1033
  H  H23  1  0.290300  0.957700  0.245000  1.0  0.0961
  H  H24  1  0.190100  0.969300  0.117800  1.0  0.1072
  H  H25  1  0.322900  0.841100  0.900600  1.0  0.1146
  H  H26  1  0.401200  0.871400  0.759200  1.0  0.106
  H  H27  1  0.428100  0.752300  0.635000  1.0  0.0955
  H  H28  1  0.050100  0.596900  0.560600  1.0  0.1037
  H  H29  1  0.022700  0.714800  0.685200  1.0  0.0956
  H  H30  1  0.029800  0.118300  0.038200  1.0  0.0927
  H  H31  1  0.058200  0.255000  0.167000  1.0  0.1043
  H  H32  1  0.454700  0.287300  0.245000  1.0  0.0962
  H  H33  1  0.427700  0.148500  0.117800  1.0  0.1066
  H  H34  1  0.077700  0.059500  0.900600  1.0  0.1138
  H  H35  1  0.858000  0.887800  0.759200  1.0  0.1059
  H  H36  1  0.706900  0.882700  0.635000  1.0  0.0957
  H  H37  1  0.010500  0.963700  0.560600  1.0  0.1054
  H  H38  1  0.162500  0.970400  0.685200  1.0  0.0957
  C  C39  1  0.658520  0.050020  0.935040  1.0  0.08
  C  C40  1  0.535260  0.069760  0.918920  1.0  -0.1534
  C  C41  1  0.475540  0.074840  0.842280  1.0  -0.0336
  C  C42  1  0.537330  0.060930  0.778060  1.0  -0.1699
  C  C43  1  0.663560  0.047360  0.795920  1.0  -0.0228
  C  C44  1  0.723810  0.041110  0.872020  1.0  -0.1401
  C  C45  1  0.725440  0.044540  0.017480  1.0  0.0101
  C  C46  1  0.727830  0.114330  0.099260  1.0  -0.1068
  C  C47  1  0.801290  0.122090  0.181180  1.0  0.0044
  C  C48  1  0.790750  0.196950  0.264500  1.0  0.0439
  C  C49  1  0.669880  0.184780  0.280360  1.0  -0.1515
  C  C50  1  0.654450  0.255750  0.354700  1.0  -0.027
  C  C51  1  0.756870  0.337470  0.413540  1.0  -0.1393
  C  C52  1  0.877870  0.347870  0.398740  1.0  -0.0269
  C  C53  1  0.894140  0.277440  0.324280  1.0  -0.0822
  C  C54  1  0.469120  0.057920  0.690840  1.0  0.7333
  C  C55  1  0.734980  0.412680  0.490560  1.0  0.7196
  C  C56  1  0.776520  0.885020  0.935040  1.0  0.0802
  C  C57  1  0.883660  0.849160  0.918920  1.0  -0.1536
  C  C58  1  0.866740  0.767440  0.842280  1.0  -0.0358
  C  C59  1  0.740730  0.717130  0.778060  1.0  -0.1705
  C  C60  1  0.632360  0.748560  0.795920  1.0  -0.0222
  C  C61  1  0.648210  0.830910  0.872020  1.0  -0.1418
  C  C62  1  0.792040  0.972940  0.017480  1.0  0.0098
  C  C63  1  0.871430  0.984930  0.099260  1.0  -0.1042
  C  C64  1  0.879890  0.059090  0.181180  1.0  0.0055
  C  C65  1  0.973750  0.067550  0.264500  1.0  0.0435
  C  C66  1  0.110480  0.095580  0.280360  1.0  -0.151
  C  C67  1  0.200250  0.098950  0.354700  1.0  -0.027
  C  C68  1  0.156670  0.076070  0.413540  1.0  -0.1432
  C  C69  1  0.020870  0.050870  0.398740  1.0  -0.0325
  C  C70  1  0.930140  0.046840  0.324280  1.0  -0.0818
  C  C71  1  0.721720  0.632920  0.690840  1.0  0.7299
  C  C72  1  0.255580  0.077880  0.490560  1.0  0.7221
  C  C73  1  0.341480  0.949980  0.064960  1.0  0.0821
  C  C74  1  0.464740  0.930240  0.081080  1.0  -0.1539
  C  C75  1  0.524460  0.925160  0.157720  1.0  -0.035
  C  C76  1  0.462670  0.939070  0.221940  1.0  -0.1728
  C  C77  1  0.336440  0.952640  0.204080  1.0  -0.0232
  C  C78  1  0.276190  0.958890  0.127980  1.0  -0.1417
  C  C79  1  0.274560  0.955460  0.982520  1.0  0.01
  C  C80  1  0.272170  0.885670  0.900740  1.0  -0.1033
  C  C81  1  0.198710  0.877910  0.818820  1.0  0.0041
  C  C82  1  0.209250  0.803050  0.735500  1.0  0.0445
  C  C83  1  0.330120  0.815220  0.719640  1.0  -0.1517
  C  C84  1  0.345550  0.744250  0.645300  1.0  -0.0276
  C  C85  1  0.243130  0.662530  0.586460  1.0  -0.1417
  C  C86  1  0.122130  0.652130  0.601260  1.0  -0.0271
  C  C87  1  0.105860  0.722560  0.675720  1.0  -0.0827
  C  C88  1  0.530880  0.942080  0.309160  1.0  0.7314
  C  C89  1  0.265020  0.587320  0.509440  1.0  0.7198
  C  C90  1  0.223480  0.114980  0.064960  1.0  0.0797
  C  C91  1  0.116340  0.150840  0.081080  1.0  -0.1543
  C  C92  1  0.133260  0.232560  0.157720  1.0  -0.0333
  C  C93  1  0.259270  0.282870  0.221940  1.0  -0.1683
  C  C94  1  0.367640  0.251440  0.204080  1.0  -0.0188
  C  C95  1  0.351790  0.169090  0.127980  1.0  -0.1403
  C  C96  1  0.207960  0.027060  0.982520  1.0  0.0118
  C  C97  1  0.128570  0.015070  0.900740  1.0  -0.1069
  C  C98  1  0.120110  0.940910  0.818820  1.0  0.0045
  C  C99  1  0.026250  0.932450  0.735500  1.0  0.044
  C  C100  1  0.889520  0.904420  0.719640  1.0  -0.1504
  C  C101  1  0.799750  0.901050  0.645300  1.0  -0.0261
  C  C102  1  0.843330  0.923930  0.586460  1.0  -0.1435
  C  C103  1  0.979130  0.949130  0.601260  1.0  -0.032
  C  C104  1  0.069860  0.953160  0.675720  1.0  -0.0818
  C  C105  1  0.278280  0.367080  0.309160  1.0  0.7284
  C  C106  1  0.744420  0.922120  0.509440  1.0  0.7214
  O  O107  1  0.522560  0.035260  0.632720  1.0  -0.6827
  O  O108  1  0.358110  0.078710  0.683420  1.0  -0.5101
  O  O109  1  0.622530  0.408230  0.496460  1.0  -0.6019
  O  O110  1  0.839740  0.483040  0.547880  1.0  -0.4635
  O  O111  1  0.610160  0.597460  0.632720  1.0  -0.6912
  O  O112  1  0.825310  0.604710  0.683420  1.0  -0.5104
  O  O113  1  0.373930  0.088230  0.496460  1.0  -0.6043
  O  O114  1  0.208140  0.064840  0.547880  1.0  -0.468
  O  O115  1  0.477440  0.964740  0.367280  1.0  -0.6849
  O  O116  1  0.641890  0.921290  0.316580  1.0  -0.5097
  O  O117  1  0.377470  0.591770  0.503540  1.0  -0.6037
  O  O118  1  0.160260  0.516960  0.452120  1.0  -0.4665
  O  O119  1  0.389840  0.402540  0.367280  1.0  -0.6924
  O  O120  1  0.174690  0.395290  0.316580  1.0  -0.5095
  O  O121  1  0.626070  0.911770  0.503540  1.0  -0.6035
  O  O122  1  0.791860  0.935160  0.452120  1.0  -0.4701
