# generated using pymatgen
data_Ni2H39C63(N2O)6
_symmetry_space_group_name_H-M   'P 1'
_cell_length_a   13.84600000
_cell_length_b   16.95400000
_cell_length_c   16.95400000
_cell_angle_alpha   120.00000000
_cell_angle_beta   90.00000000
_cell_angle_gamma   90.00000000
_symmetry_Int_Tables_number   1
_chemical_formula_structural   Ni2H39C63(N2O)6
_chemical_formula_sum   'Ni4 H78 C126 N24 O12'
_cell_volume   3446.66692519
_cell_formula_units_Z   2
loop_
 _symmetry_equiv_pos_site_id
 _symmetry_equiv_pos_as_xyz
  1  'x, y, z'
loop_
 _atom_site_type_symbol
 _atom_site_label
 _atom_site_symmetry_multiplicity
 _atom_site_fract_x
 _atom_site_fract_y
 _atom_site_fract_z
 _atom_site_occupancy
 _atom_site_charge
  Ni  Ni1  1  0.398270  0.333333  0.666667  1.0  0.7802
  Ni  Ni2  1  0.101730  0.333333  0.666667  1.0  0.781
  Ni  Ni3  1  0.601730  0.666667  0.333333  1.0  0.781
  Ni  Ni4  1  0.898270  0.666667  0.333333  1.0  0.7802
  H  H5  1  0.112000  0.066800  0.494700  1.0  0.1041
  H  H6  1  0.087600  0.783300  0.418700  1.0  0.0807
  H  H7  1  0.847400  0.777200  0.214300  1.0  0.1116
  H  H8  1  0.836400  0.895800  0.183500  1.0  0.1021
  H  H9  1  0.944700  0.015500  0.245100  1.0  0.0994
  H  H10  1  0.063900  0.025100  0.346400  1.0  0.1222
  H  H11  1  0.112000  0.427900  0.933200  1.0  0.1044
  H  H12  1  0.087600  0.635400  0.216700  1.0  0.08
  H  H13  1  0.847400  0.437100  0.222800  1.0  0.1096
  H  H14  1  0.836400  0.287700  0.104200  1.0  0.1017
  H  H15  1  0.944700  0.229600  0.984500  1.0  0.1002
  H  H16  1  0.063900  0.321300  0.974900  1.0  0.1208
  H  H17  1  0.112000  0.505300  0.572100  1.0  0.1046
  H  H18  1  0.087600  0.581300  0.364600  1.0  0.0787
  H  H19  1  0.847400  0.785700  0.562900  1.0  0.1115
  H  H20  1  0.836400  0.816500  0.712300  1.0  0.1028
  H  H21  1  0.944700  0.754900  0.770400  1.0  0.0991
  H  H22  1  0.063900  0.653600  0.678700  1.0  0.1222
  H  H23  1  0.388000  0.427900  0.494700  1.0  0.1038
  H  H24  1  0.412400  0.635400  0.418700  1.0  0.0802
  H  H25  1  0.652600  0.437100  0.214300  1.0  0.1093
  H  H26  1  0.663600  0.287700  0.183500  1.0  0.1017
  H  H27  1  0.555300  0.229600  0.245100  1.0  0.0994
  H  H28  1  0.436100  0.321300  0.346400  1.0  0.1199
  H  H29  1  0.388000  0.505300  0.933200  1.0  0.1049
  H  H30  1  0.412400  0.581300  0.216700  1.0  0.0792
  H  H31  1  0.652600  0.785700  0.222800  1.0  0.112
  H  H32  1  0.663600  0.816500  0.104200  1.0  0.1021
  H  H33  1  0.555300  0.754900  0.984500  1.0  0.0986
  H  H34  1  0.436100  0.653600  0.974900  1.0  0.1205
  H  H35  1  0.388000  0.066800  0.572100  1.0  0.1037
  H  H36  1  0.412400  0.783300  0.364600  1.0  0.0806
  H  H37  1  0.652600  0.777200  0.562900  1.0  0.1126
  H  H38  1  0.663600  0.895800  0.712300  1.0  0.1021
  H  H39  1  0.555300  0.015500  0.770400  1.0  0.0994
  H  H40  1  0.436100  0.025100  0.678700  1.0  0.1221
  H  H41  1  0.888000  0.933200  0.505300  1.0  0.1044
  H  H42  1  0.912400  0.216700  0.581300  1.0  0.0807
  H  H43  1  0.152600  0.222800  0.785700  1.0  0.1122
  H  H44  1  0.163600  0.104200  0.816500  1.0  0.1024
  H  H45  1  0.055300  0.984500  0.754900  1.0  0.0998
  H  H46  1  0.936100  0.974900  0.653600  1.0  0.1218
  H  H47  1  0.888000  0.572100  0.066800  1.0  0.104
  H  H48  1  0.912400  0.364600  0.783300  1.0  0.0798
  H  H49  1  0.152600  0.562900  0.777200  1.0  0.1101
  H  H50  1  0.163600  0.712300  0.895800  1.0  0.1022
  H  H51  1  0.055300  0.770400  0.015500  1.0  0.0994
  H  H52  1  0.936100  0.678700  0.025100  1.0  0.1195
  H  H53  1  0.888000  0.494700  0.427900  1.0  0.1045
  H  H54  1  0.912400  0.418700  0.635400  1.0  0.0793
  H  H55  1  0.152600  0.214300  0.437100  1.0  0.1119
  H  H56  1  0.163600  0.183500  0.287700  1.0  0.1024
  H  H57  1  0.055300  0.245100  0.229600  1.0  0.0983
  H  H58  1  0.936100  0.346400  0.321300  1.0  0.1213
  H  H59  1  0.612000  0.572100  0.505300  1.0  0.1046
  H  H60  1  0.587600  0.364600  0.581300  1.0  0.08
  H  H61  1  0.347400  0.562900  0.785700  1.0  0.1111
  H  H62  1  0.336400  0.712300  0.816500  1.0  0.1035
  H  H63  1  0.444700  0.770400  0.754900  1.0  0.0999
  H  H64  1  0.563900  0.678700  0.653600  1.0  0.1208
  H  H65  1  0.612000  0.494700  0.066800  1.0  0.1047
  H  H66  1  0.587600  0.418700  0.783300  1.0  0.079
  H  H67  1  0.347400  0.214300  0.777200  1.0  0.1118
  H  H68  1  0.336400  0.183500  0.895800  1.0  0.1021
  H  H69  1  0.444700  0.245100  0.015500  1.0  0.099
  H  H70  1  0.563900  0.346400  0.025100  1.0  0.1223
  H  H71  1  0.612000  0.933200  0.427900  1.0  0.1042
  H  H72  1  0.587600  0.216700  0.635400  1.0  0.0806
  H  H73  1  0.347400  0.222800  0.437100  1.0  0.1121
  H  H74  1  0.336400  0.104200  0.287700  1.0  0.1018
  H  H75  1  0.444700  0.984500  0.229600  1.0  0.0995
  H  H76  1  0.563900  0.974900  0.321300  1.0  0.1216
  H  H77  1  0.250000  0.829900  0.414950  1.0  0.1125
  H  H78  1  0.250000  0.585050  0.170100  1.0  0.1143
  H  H79  1  0.250000  0.585050  0.414950  1.0  0.1145
  H  H80  1  0.750000  0.170100  0.585050  1.0  0.1129
  H  H81  1  0.750000  0.414950  0.829900  1.0  0.1144
  H  H82  1  0.750000  0.414950  0.585050  1.0  0.1147
  C  C83  1  0.167300  0.035340  0.493980  1.0  -0.1424
  C  C84  1  0.168850  0.941470  0.446270  1.0  0.156
  C  C85  1  0.057570  0.809400  0.388180  1.0  0.2168
  C  C86  1  0.961500  0.831600  0.301360  1.0  0.1284
  C  C87  1  0.889800  0.826200  0.240900  1.0  -0.1338
  C  C88  1  0.884500  0.896900  0.222300  1.0  -0.1176
  C  C89  1  0.949500  0.970100  0.260500  1.0  -0.0931
  C  C90  1  0.021000  0.976400  0.320700  1.0  -0.13
  C  C91  1  0.025400  0.906600  0.340800  1.0  0.0715
  C  C92  1  0.167300  0.458640  0.964660  1.0  -0.1412
  C  C93  1  0.168850  0.504800  0.058530  1.0  0.1557
  C  C94  1  0.057570  0.578780  0.190600  1.0  0.2151
  C  C95  1  0.961500  0.469760  0.168400  1.0  0.1271
  C  C96  1  0.889800  0.414700  0.173800  1.0  -0.1355
  C  C97  1  0.884500  0.325400  0.103100  1.0  -0.1202
  C  C98  1  0.949500  0.290400  0.029900  1.0  -0.0942
  C  C99  1  0.021000  0.344300  0.023600  1.0  -0.1323
  C  C100  1  0.025400  0.434200  0.093400  1.0  0.0731
  C  C101  1  0.167300  0.506020  0.541360  1.0  -0.1419
  C  C102  1  0.168850  0.553730  0.495200  1.0  0.1556
  C  C103  1  0.057570  0.611820  0.421220  1.0  0.2162
  C  C104  1  0.961500  0.698640  0.530240  1.0  0.1297
  C  C105  1  0.889800  0.759100  0.585300  1.0  -0.1348
  C  C106  1  0.884500  0.777700  0.674600  1.0  -0.1218
  C  C107  1  0.949500  0.739500  0.709600  1.0  -0.0939
  C  C108  1  0.021000  0.679300  0.655700  1.0  -0.1313
  C  C109  1  0.025400  0.659200  0.565800  1.0  0.0723
  C  C110  1  0.332700  0.458640  0.493980  1.0  -0.1409
  C  C111  1  0.331150  0.504800  0.446270  1.0  0.1558
  C  C112  1  0.442430  0.578780  0.388180  1.0  0.2165
  C  C113  1  0.538500  0.469760  0.301360  1.0  0.1282
  C  C114  1  0.610200  0.414700  0.240900  1.0  -0.1358
  C  C115  1  0.615500  0.325400  0.222300  1.0  -0.1205
  C  C116  1  0.550500  0.290400  0.260500  1.0  -0.0952
  C  C117  1  0.479000  0.344300  0.320700  1.0  -0.1342
  C  C118  1  0.474600  0.434200  0.340800  1.0  0.0726
  C  C119  1  0.332700  0.506020  0.964660  1.0  -0.1409
  C  C120  1  0.331150  0.553730  0.058530  1.0  0.1558
  C  C121  1  0.442430  0.611820  0.190600  1.0  0.2177
  C  C122  1  0.538500  0.698640  0.168400  1.0  0.129
  C  C123  1  0.610200  0.759100  0.173800  1.0  -0.1335
  C  C124  1  0.615500  0.777700  0.103100  1.0  -0.1208
  C  C125  1  0.550500  0.739500  0.029900  1.0  -0.0934
  C  C126  1  0.479000  0.679300  0.023600  1.0  -0.1342
  C  C127  1  0.474600  0.659200  0.093400  1.0  0.0723
  C  C128  1  0.332700  0.035340  0.541360  1.0  -0.1415
  C  C129  1  0.331150  0.941470  0.495200  1.0  0.156
  C  C130  1  0.442430  0.809400  0.421220  1.0  0.2172
  C  C131  1  0.538500  0.831600  0.530240  1.0  0.1275
  C  C132  1  0.610200  0.826200  0.585300  1.0  -0.1353
  C  C133  1  0.615500  0.896900  0.674600  1.0  -0.1182
  C  C134  1  0.550500  0.970100  0.709600  1.0  -0.0941
  C  C135  1  0.479000  0.976400  0.655700  1.0  -0.1299
  C  C136  1  0.474600  0.906600  0.565800  1.0  0.0715
  C  C137  1  0.832700  0.964660  0.506020  1.0  -0.1415
  C  C138  1  0.831150  0.058530  0.553730  1.0  0.1557
  C  C139  1  0.942430  0.190600  0.611820  1.0  0.2171
  C  C140  1  0.038500  0.168400  0.698640  1.0  0.1273
  C  C141  1  0.110200  0.173800  0.759100  1.0  -0.1363
  C  C142  1  0.115500  0.103100  0.777700  1.0  -0.1186
  C  C143  1  0.050500  0.029900  0.739500  1.0  -0.0946
  C  C144  1  0.979000  0.023600  0.679300  1.0  -0.1308
  C  C145  1  0.974600  0.093400  0.659200  1.0  0.0718
  C  C146  1  0.832700  0.541360  0.035340  1.0  -0.1417
  C  C147  1  0.831150  0.495200  0.941470  1.0  0.1559
  C  C148  1  0.942430  0.421220  0.809400  1.0  0.2165
  C  C149  1  0.038500  0.530240  0.831600  1.0  0.1283
  C  C150  1  0.110200  0.585300  0.826200  1.0  -0.1349
  C  C151  1  0.115500  0.674600  0.896900  1.0  -0.1189
  C  C152  1  0.050500  0.709600  0.970100  1.0  -0.0912
  C  C153  1  0.979000  0.655700  0.976400  1.0  -0.1346
  C  C154  1  0.974600  0.565800  0.906600  1.0  0.0726
  C  C155  1  0.832700  0.493980  0.458640  1.0  -0.141
  C  C156  1  0.831150  0.446270  0.504800  1.0  0.156
  C  C157  1  0.942430  0.388180  0.578780  1.0  0.2176
  C  C158  1  0.038500  0.301360  0.469760  1.0  0.1287
  C  C159  1  0.110200  0.240900  0.414700  1.0  -0.1343
  C  C160  1  0.115500  0.222300  0.325400  1.0  -0.122
  C  C161  1  0.050500  0.260500  0.290400  1.0  -0.093
  C  C162  1  0.979000  0.320700  0.344300  1.0  -0.134
  C  C163  1  0.974600  0.340800  0.434200  1.0  0.0718
  C  C164  1  0.667300  0.541360  0.506020  1.0  -0.1418
  C  C165  1  0.668850  0.495200  0.553730  1.0  0.1558
  C  C166  1  0.557570  0.421220  0.611820  1.0  0.2155
  C  C167  1  0.461500  0.530240  0.698640  1.0  0.1272
  C  C168  1  0.389800  0.585300  0.759100  1.0  -0.1357
  C  C169  1  0.384500  0.674600  0.777700  1.0  -0.1204
  C  C170  1  0.449500  0.709600  0.739500  1.0  -0.0906
  C  C171  1  0.521000  0.655700  0.679300  1.0  -0.1315
  C  C172  1  0.525400  0.565800  0.659200  1.0  0.0728
  C  C173  1  0.667300  0.493980  0.035340  1.0  -0.1419
  C  C174  1  0.668850  0.446270  0.941470  1.0  0.1561
  C  C175  1  0.557570  0.388180  0.809400  1.0  0.216
  C  C176  1  0.461500  0.301360  0.831600  1.0  0.129
  C  C177  1  0.389800  0.240900  0.826200  1.0  -0.1346
  C  C178  1  0.384500  0.222300  0.896900  1.0  -0.1236
  C  C179  1  0.449500  0.260500  0.970100  1.0  -0.095
  C  C180  1  0.521000  0.320700  0.976400  1.0  -0.1321
  C  C181  1  0.525400  0.340800  0.906600  1.0  0.0721
  C  C182  1  0.667300  0.964660  0.458640  1.0  -0.1424
  C  C183  1  0.668850  0.058530  0.504800  1.0  0.1556
  C  C184  1  0.557570  0.190600  0.578780  1.0  0.2163
  C  C185  1  0.461500  0.168400  0.469760  1.0  0.1281
  C  C186  1  0.389800  0.173800  0.414700  1.0  -0.1349
  C  C187  1  0.384500  0.103100  0.325400  1.0  -0.1177
  C  C188  1  0.449500  0.029900  0.290400  1.0  -0.0916
  C  C189  1  0.521000  0.023600  0.344300  1.0  -0.1304
  C  C190  1  0.525400  0.093400  0.434200  1.0  0.0713
  C  C191  1  0.250000  0.184800  0.592400  1.0  0.6651
  C  C192  1  0.250000  0.082400  0.541200  1.0  -0.1479
  C  C193  1  0.250000  0.893200  0.446600  1.0  -0.1928
  C  C194  1  0.250000  0.407600  0.815200  1.0  0.6647
  C  C195  1  0.250000  0.458800  0.917600  1.0  -0.1485
  C  C196  1  0.250000  0.553400  0.106800  1.0  -0.1918
  C  C197  1  0.250000  0.407600  0.592400  1.0  0.6647
  C  C198  1  0.250000  0.458800  0.541200  1.0  -0.1479
  C  C199  1  0.250000  0.553400  0.446600  1.0  -0.1911
  C  C200  1  0.750000  0.815200  0.407600  1.0  0.6647
  C  C201  1  0.750000  0.917600  0.458800  1.0  -0.1476
  C  C202  1  0.750000  0.106800  0.553400  1.0  -0.1925
  C  C203  1  0.750000  0.592400  0.184800  1.0  0.6651
  C  C204  1  0.750000  0.541200  0.082400  1.0  -0.1478
  C  C205  1  0.750000  0.446600  0.893200  1.0  -0.1905
  C  C206  1  0.750000  0.592400  0.407600  1.0  0.6652
  C  C207  1  0.750000  0.541200  0.458800  1.0  -0.1486
  C  C208  1  0.750000  0.446600  0.553400  1.0  -0.1913
  N  N209  1  0.085830  0.890550  0.396540  1.0  -0.0593
  N  N210  1  0.984060  0.771930  0.333100  1.0  -0.4011
  N  N211  1  0.085830  0.505990  0.109450  1.0  -0.0582
  N  N212  1  0.984060  0.561170  0.228070  1.0  -0.4002
  N  N213  1  0.085830  0.603460  0.494010  1.0  -0.0596
  N  N214  1  0.984060  0.666900  0.438830  1.0  -0.3988
  N  N215  1  0.414170  0.505990  0.396540  1.0  -0.0589
  N  N216  1  0.515940  0.561170  0.333100  1.0  -0.4002
  N  N217  1  0.414170  0.603460  0.109450  1.0  -0.0588
  N  N218  1  0.515940  0.666900  0.228070  1.0  -0.4006
  N  N219  1  0.414170  0.890550  0.494010  1.0  -0.0577
  N  N220  1  0.515940  0.771930  0.438830  1.0  -0.4013
  N  N221  1  0.914170  0.109450  0.603460  1.0  -0.0575
  N  N222  1  0.015940  0.228070  0.666900  1.0  -0.4021
  N  N223  1  0.914170  0.494010  0.890550  1.0  -0.0587
  N  N224  1  0.015940  0.438830  0.771930  1.0  -0.4006
  N  N225  1  0.914170  0.396540  0.505990  1.0  -0.0591
  N  N226  1  0.015940  0.333100  0.561170  1.0  -0.4004
  N  N227  1  0.585830  0.494010  0.603460  1.0  -0.0583
  N  N228  1  0.484060  0.438830  0.666900  1.0  -0.4004
  N  N229  1  0.585830  0.396540  0.890550  1.0  -0.0597
  N  N230  1  0.484060  0.333100  0.771930  1.0  -0.3991
  N  N231  1  0.585830  0.109450  0.505990  1.0  -0.059
  N  N232  1  0.484060  0.228070  0.561170  1.0  -0.4015
  O  O233  1  0.319360  0.223110  0.646690  1.0  -0.5892
  O  O234  1  0.319360  0.423580  0.776890  1.0  -0.5902
  O  O235  1  0.319360  0.353310  0.576420  1.0  -0.5894
  O  O236  1  0.180640  0.423580  0.646690  1.0  -0.5894
  O  O237  1  0.180640  0.353310  0.776890  1.0  -0.5893
  O  O238  1  0.180640  0.223110  0.576420  1.0  -0.5895
  O  O239  1  0.680640  0.776890  0.353310  1.0  -0.5893
  O  O240  1  0.680640  0.576420  0.223110  1.0  -0.5896
  O  O241  1  0.680640  0.646690  0.423580  1.0  -0.589
  O  O242  1  0.819360  0.576420  0.353310  1.0  -0.5908
  O  O243  1  0.819360  0.646690  0.223110  1.0  -0.5894
  O  O244  1  0.819360  0.776890  0.423580  1.0  -0.5893
