# generated using pymatgen
data_Mn2H39C63(N2O)6
_symmetry_space_group_name_H-M   'P 1'
_cell_length_a   14.10700000
_cell_length_b   17.27500000
_cell_length_c   17.27500000
_cell_angle_alpha   120.00000000
_cell_angle_beta   90.00000000
_cell_angle_gamma   90.00000000
_symmetry_Int_Tables_number   1
_chemical_formula_structural   Mn2H39C63(N2O)6
_chemical_formula_sum   'Mn4 H78 C126 N24 O12'
_cell_volume   3645.87193991
_cell_formula_units_Z   2
loop_
 _symmetry_equiv_pos_site_id
 _symmetry_equiv_pos_as_xyz
  1  'x, y, z'
loop_
 _atom_site_type_symbol
 _atom_site_label
 _atom_site_symmetry_multiplicity
 _atom_site_fract_x
 _atom_site_fract_y
 _atom_site_fract_z
 _atom_site_occupancy
 _atom_site_charge
  Mn  Mn1  1  0.896160  0.333333  0.666667  1.0  0.9767
  Mn  Mn2  1  0.603840  0.333333  0.666667  1.0  0.9768
  Mn  Mn3  1  0.103840  0.666667  0.333333  1.0  0.9768
  Mn  Mn4  1  0.396160  0.666667  0.333333  1.0  0.9767
  H  H5  1  0.615400  0.064700  0.570900  1.0  0.0985
  H  H6  1  0.591400  0.785400  0.368300  1.0  0.0912
  H  H7  1  0.352900  0.784900  0.561200  1.0  0.1065
  H  H8  1  0.337200  0.904000  0.705200  1.0  0.095
  H  H9  1  0.445200  0.020200  0.762500  1.0  0.0929
  H  H10  1  0.564200  0.027100  0.674500  1.0  0.122
  H  H11  1  0.615400  0.506200  0.935300  1.0  0.0983
  H  H12  1  0.591400  0.582900  0.214600  1.0  0.0907
  H  H13  1  0.352900  0.776300  0.215100  1.0  0.1061
  H  H14  1  0.337200  0.801200  0.096000  1.0  0.0953
  H  H15  1  0.445200  0.742300  0.979800  1.0  0.0909
  H  H16  1  0.564200  0.647400  0.972900  1.0  0.1211
  H  H17  1  0.615400  0.429100  0.493800  1.0  0.0989
  H  H18  1  0.591400  0.631700  0.417100  1.0  0.0912
  H  H19  1  0.352900  0.438800  0.223700  1.0  0.1049
  H  H20  1  0.337200  0.294800  0.198800  1.0  0.0947
  H  H21  1  0.445200  0.237500  0.257700  1.0  0.0924
  H  H22  1  0.564200  0.325500  0.352600  1.0  0.1194
  H  H23  1  0.884600  0.506200  0.570900  1.0  0.0979
  H  H24  1  0.908600  0.582900  0.368300  1.0  0.0903
  H  H25  1  0.147100  0.776300  0.561200  1.0  0.1063
  H  H26  1  0.162800  0.801200  0.705200  1.0  0.095
  H  H27  1  0.054800  0.742300  0.762500  1.0  0.0922
  H  H28  1  0.935800  0.647400  0.674500  1.0  0.121
  H  H29  1  0.884600  0.429100  0.935300  1.0  0.0982
  H  H30  1  0.908600  0.631700  0.214600  1.0  0.0915
  H  H31  1  0.147100  0.438800  0.215100  1.0  0.1049
  H  H32  1  0.162800  0.294800  0.096000  1.0  0.095
  H  H33  1  0.054800  0.237500  0.979800  1.0  0.0927
  H  H34  1  0.935800  0.325500  0.972900  1.0  0.1195
  H  H35  1  0.884600  0.064700  0.493800  1.0  0.0978
  H  H36  1  0.908600  0.785400  0.417100  1.0  0.0921
  H  H37  1  0.147100  0.784900  0.223700  1.0  0.1063
  H  H38  1  0.162800  0.904000  0.198800  1.0  0.0944
  H  H39  1  0.054800  0.020200  0.257700  1.0  0.0926
  H  H40  1  0.935800  0.027100  0.352600  1.0  0.1211
  H  H41  1  0.384600  0.935300  0.429100  1.0  0.0981
  H  H42  1  0.408600  0.214600  0.631700  1.0  0.0917
  H  H43  1  0.647100  0.215100  0.438800  1.0  0.1066
  H  H44  1  0.662800  0.096000  0.294800  1.0  0.0942
  H  H45  1  0.554800  0.979800  0.237500  1.0  0.0921
  H  H46  1  0.435800  0.972900  0.325500  1.0  0.1211
  H  H47  1  0.384600  0.493800  0.064700  1.0  0.0981
  H  H48  1  0.408600  0.417100  0.785400  1.0  0.0903
  H  H49  1  0.647100  0.223700  0.784900  1.0  0.1063
  H  H50  1  0.662800  0.198800  0.904000  1.0  0.0947
  H  H51  1  0.554800  0.257700  0.020200  1.0  0.0919
  H  H52  1  0.435800  0.352600  0.027100  1.0  0.1206
  H  H53  1  0.384600  0.570900  0.506200  1.0  0.0982
  H  H54  1  0.408600  0.368300  0.582900  1.0  0.0918
  H  H55  1  0.647100  0.561200  0.776300  1.0  0.1053
  H  H56  1  0.662800  0.705200  0.801200  1.0  0.0951
  H  H57  1  0.554800  0.762500  0.742300  1.0  0.0924
  H  H58  1  0.435800  0.674500  0.647400  1.0  0.1199
  H  H59  1  0.115400  0.493800  0.429100  1.0  0.0981
  H  H60  1  0.091400  0.417100  0.631700  1.0  0.0908
  H  H61  1  0.852900  0.223700  0.438800  1.0  0.1062
  H  H62  1  0.837200  0.198800  0.294800  1.0  0.0948
  H  H63  1  0.945200  0.257700  0.237500  1.0  0.0911
  H  H64  1  0.064200  0.352600  0.325500  1.0  0.121
  H  H65  1  0.115400  0.570900  0.064700  1.0  0.0989
  H  H66  1  0.091400  0.368300  0.785400  1.0  0.0912
  H  H67  1  0.852900  0.561200  0.784900  1.0  0.1054
  H  H68  1  0.837200  0.705200  0.904000  1.0  0.0967
  H  H69  1  0.945200  0.762500  0.020200  1.0  0.092
  H  H70  1  0.064200  0.674500  0.027100  1.0  0.1194
  H  H71  1  0.115400  0.935300  0.506200  1.0  0.0987
  H  H72  1  0.091400  0.214600  0.582900  1.0  0.091
  H  H73  1  0.852900  0.215100  0.776300  1.0  0.1072
  H  H74  1  0.837200  0.096000  0.801200  1.0  0.0948
  H  H75  1  0.945200  0.979800  0.742300  1.0  0.0935
  H  H76  1  0.064200  0.972900  0.647400  1.0  0.1219
  H  H77  1  0.750000  0.832400  0.416200  1.0  0.1111
  H  H78  1  0.750000  0.583800  0.167600  1.0  0.1125
  H  H79  1  0.750000  0.583800  0.416200  1.0  0.1127
  H  H80  1  0.250000  0.167600  0.583800  1.0  0.1109
  H  H81  1  0.250000  0.416200  0.832400  1.0  0.1125
  H  H82  1  0.250000  0.416200  0.583800  1.0  0.1128
  C  C83  1  0.669530  0.033780  0.540290  1.0  -0.1396
  C  C84  1  0.670820  0.941240  0.494480  1.0  0.1412
  C  C85  1  0.561600  0.811800  0.423720  1.0  0.2155
  C  C86  1  0.465430  0.836590  0.530180  1.0  0.1533
  C  C87  1  0.394300  0.833300  0.583100  1.0  -0.1035
  C  C88  1  0.386300  0.903600  0.669000  1.0  -0.1026
  C  C89  1  0.450900  0.974900  0.703300  1.0  -0.0944
  C  C90  1  0.522000  0.979400  0.651900  1.0  -0.1383
  C  C91  1  0.528200  0.909590  0.564520  1.0  0.0453
  C  C92  1  0.669530  0.506510  0.966220  1.0  -0.1397
  C  C93  1  0.670820  0.553240  0.058760  1.0  0.1408
  C  C94  1  0.561600  0.611920  0.188200  1.0  0.214
  C  C95  1  0.465430  0.693590  0.163410  1.0  0.1544
  C  C96  1  0.394300  0.749800  0.166700  1.0  -0.1035
  C  C97  1  0.386300  0.765400  0.096400  1.0  -0.1051
  C  C98  1  0.450900  0.728400  0.025100  1.0  -0.0977
  C  C99  1  0.522000  0.672500  0.020600  1.0  -0.1432
  C  C100  1  0.528200  0.654930  0.090410  1.0  0.0471
  C  C101  1  0.669530  0.459710  0.493490  1.0  -0.1402
  C  C102  1  0.670820  0.505520  0.446760  1.0  0.1415
  C  C103  1  0.561600  0.576280  0.388080  1.0  0.214
  C  C104  1  0.465430  0.469820  0.306410  1.0  0.1522
  C  C105  1  0.394300  0.416900  0.250200  1.0  -0.1045
  C  C106  1  0.386300  0.331000  0.234600  1.0  -0.1008
  C  C107  1  0.450900  0.296700  0.271600  1.0  -0.0997
  C  C108  1  0.522000  0.348100  0.327500  1.0  -0.143
  C  C109  1  0.528200  0.435480  0.345070  1.0  0.0463
  C  C110  1  0.830470  0.506510  0.540290  1.0  -0.1391
  C  C111  1  0.829180  0.553240  0.494480  1.0  0.1407
  C  C112  1  0.938400  0.611920  0.423720  1.0  0.2145
  C  C113  1  0.034570  0.693590  0.530180  1.0  0.1549
  C  C114  1  0.105700  0.749800  0.583100  1.0  -0.1031
  C  C115  1  0.113700  0.765400  0.669000  1.0  -0.1041
  C  C116  1  0.049100  0.728400  0.703300  1.0  -0.0961
  C  C117  1  0.978000  0.672500  0.651900  1.0  -0.1438
  C  C118  1  0.971800  0.654930  0.564520  1.0  0.0476
  C  C119  1  0.830470  0.459710  0.966220  1.0  -0.1397
  C  C120  1  0.829180  0.505520  0.058760  1.0  0.1412
  C  C121  1  0.938400  0.576280  0.188200  1.0  0.2152
  C  C122  1  0.034570  0.469820  0.163410  1.0  0.1523
  C  C123  1  0.105700  0.416900  0.166700  1.0  -0.1053
  C  C124  1  0.113700  0.331000  0.096400  1.0  -0.1017
  C  C125  1  0.049100  0.296700  0.025100  1.0  -0.0994
  C  C126  1  0.978000  0.348100  0.020600  1.0  -0.1426
  C  C127  1  0.971800  0.435480  0.090410  1.0  0.0467
  C  C128  1  0.830470  0.033780  0.493490  1.0  -0.1394
  C  C129  1  0.829180  0.941240  0.446760  1.0  0.1411
  C  C130  1  0.938400  0.811800  0.388080  1.0  0.2162
  C  C131  1  0.034570  0.836590  0.306410  1.0  0.153
  C  C132  1  0.105700  0.833300  0.250200  1.0  -0.1022
  C  C133  1  0.113700  0.903600  0.234600  1.0  -0.0995
  C  C134  1  0.049100  0.974900  0.271600  1.0  -0.096
  C  C135  1  0.978000  0.979400  0.327500  1.0  -0.1415
  C  C136  1  0.971800  0.909590  0.345070  1.0  0.0445
  C  C137  1  0.330470  0.966220  0.459710  1.0  -0.1398
  C  C138  1  0.329180  0.058760  0.505520  1.0  0.1408
  C  C139  1  0.438400  0.188200  0.576280  1.0  0.2157
  C  C140  1  0.534570  0.163410  0.469820  1.0  0.1539
  C  C141  1  0.605700  0.166700  0.416900  1.0  -0.1023
  C  C142  1  0.613700  0.096400  0.331000  1.0  -0.1001
  C  C143  1  0.549100  0.025100  0.296700  1.0  -0.0946
  C  C144  1  0.478000  0.020600  0.348100  1.0  -0.1413
  C  C145  1  0.471800  0.090410  0.435480  1.0  0.0445
  C  C146  1  0.330470  0.493490  0.033780  1.0  -0.1391
  C  C147  1  0.329180  0.446760  0.941240  1.0  0.141
  C  C148  1  0.438400  0.388080  0.811800  1.0  0.2145
  C  C149  1  0.534570  0.306410  0.836590  1.0  0.1541
  C  C150  1  0.605700  0.250200  0.833300  1.0  -0.1031
  C  C151  1  0.613700  0.234600  0.903600  1.0  -0.1042
  C  C152  1  0.549100  0.271600  0.974900  1.0  -0.097
  C  C153  1  0.478000  0.327500  0.979400  1.0  -0.1433
  C  C154  1  0.471800  0.345070  0.909590  1.0  0.0469
  C  C155  1  0.330470  0.540290  0.506510  1.0  -0.1394
  C  C156  1  0.329180  0.494480  0.553240  1.0  0.1413
  C  C157  1  0.438400  0.423720  0.611920  1.0  0.2155
  C  C158  1  0.534570  0.530180  0.693590  1.0  0.1519
  C  C159  1  0.605700  0.583100  0.749800  1.0  -0.1061
  C  C160  1  0.613700  0.669000  0.765400  1.0  -0.0988
  C  C161  1  0.549100  0.703300  0.728400  1.0  -0.0917
  C  C162  1  0.478000  0.651900  0.672500  1.0  -0.1434
  C  C163  1  0.471800  0.564520  0.654930  1.0  0.0469
  C  C164  1  0.169530  0.493490  0.459710  1.0  -0.1396
  C  C165  1  0.170820  0.446760  0.505520  1.0  0.1413
  C  C166  1  0.061600  0.388080  0.576280  1.0  0.2139
  C  C167  1  0.965430  0.306410  0.469820  1.0  0.1541
  C  C168  1  0.894300  0.250200  0.416900  1.0  -0.1024
  C  C169  1  0.886300  0.234600  0.331000  1.0  -0.1046
  C  C170  1  0.950900  0.271600  0.296700  1.0  -0.0978
  C  C171  1  0.022000  0.327500  0.348100  1.0  -0.1431
  C  C172  1  0.028200  0.345070  0.435480  1.0  0.0464
  C  C173  1  0.169530  0.540290  0.033780  1.0  -0.1403
  C  C174  1  0.170820  0.494480  0.941240  1.0  0.1416
  C  C175  1  0.061600  0.423720  0.811800  1.0  0.2148
  C  C176  1  0.965430  0.530180  0.836590  1.0  0.1519
  C  C177  1  0.894300  0.583100  0.833300  1.0  -0.105
  C  C178  1  0.886300  0.669000  0.903600  1.0  -0.1003
  C  C179  1  0.950900  0.703300  0.974900  1.0  -0.0923
  C  C180  1  0.022000  0.651900  0.979400  1.0  -0.1424
  C  C181  1  0.028200  0.564520  0.909590  1.0  0.0467
  C  C182  1  0.169530  0.966220  0.506510  1.0  -0.1402
  C  C183  1  0.170820  0.058760  0.553240  1.0  0.1409
  C  C184  1  0.061600  0.188200  0.611920  1.0  0.2151
  C  C185  1  0.965430  0.163410  0.693590  1.0  0.154
  C  C186  1  0.894300  0.166700  0.749800  1.0  -0.1031
  C  C187  1  0.886300  0.096400  0.765400  1.0  -0.1024
  C  C188  1  0.950900  0.025100  0.728400  1.0  -0.0937
  C  C189  1  0.022000  0.020600  0.672500  1.0  -0.138
  C  C190  1  0.028200  0.090410  0.654930  1.0  0.0456
  C  C191  1  0.750000  0.180000  0.590000  1.0  0.6571
  C  C192  1  0.750000  0.079900  0.539950  1.0  -0.1652
  C  C193  1  0.750000  0.894600  0.447300  1.0  -0.2009
  C  C194  1  0.750000  0.410000  0.820000  1.0  0.6569
  C  C195  1  0.750000  0.460050  0.920100  1.0  -0.1663
  C  C196  1  0.750000  0.552700  0.105400  1.0  -0.2006
  C  C197  1  0.750000  0.410000  0.590000  1.0  0.6575
  C  C198  1  0.750000  0.460050  0.539950  1.0  -0.1661
  C  C199  1  0.750000  0.552700  0.447300  1.0  -0.1993
  C  C200  1  0.250000  0.820000  0.410000  1.0  0.6558
  C  C201  1  0.250000  0.920100  0.460050  1.0  -0.1653
  C  C202  1  0.250000  0.105400  0.552700  1.0  -0.1996
  C  C203  1  0.250000  0.590000  0.180000  1.0  0.658
  C  C204  1  0.250000  0.539950  0.079900  1.0  -0.1662
  C  C205  1  0.250000  0.447300  0.894600  1.0  -0.1991
  C  C206  1  0.250000  0.590000  0.410000  1.0  0.6575
  C  C207  1  0.250000  0.539950  0.460050  1.0  -0.1666
  C  C208  1  0.250000  0.447300  0.552700  1.0  -0.2001
  N  N209  1  0.589620  0.891700  0.494250  1.0  -0.041
  N  N210  1  0.488720  0.775570  0.441280  1.0  -0.4437
  N  N211  1  0.589620  0.602550  0.108300  1.0  -0.042
  N  N212  1  0.488720  0.665710  0.224430  1.0  -0.4409
  N  N213  1  0.589620  0.505750  0.397450  1.0  -0.0409
  N  N214  1  0.488720  0.558720  0.334290  1.0  -0.4422
  N  N215  1  0.910380  0.602550  0.494250  1.0  -0.0417
  N  N216  1  0.011280  0.665710  0.441280  1.0  -0.442
  N  N217  1  0.910380  0.505750  0.108300  1.0  -0.0405
  N  N218  1  0.011280  0.558720  0.224430  1.0  -0.4422
  N  N219  1  0.910380  0.891700  0.397450  1.0  -0.0409
  N  N220  1  0.011280  0.775570  0.334290  1.0  -0.4437
  N  N221  1  0.410380  0.108300  0.505750  1.0  -0.0408
  N  N222  1  0.511280  0.224430  0.558720  1.0  -0.4445
  N  N223  1  0.410380  0.397450  0.891700  1.0  -0.0417
  N  N224  1  0.511280  0.334290  0.775570  1.0  -0.4417
  N  N225  1  0.410380  0.494250  0.602550  1.0  -0.0405
  N  N226  1  0.511280  0.441280  0.665710  1.0  -0.4419
  N  N227  1  0.089620  0.397450  0.505750  1.0  -0.0422
  N  N228  1  0.988720  0.334290  0.558720  1.0  -0.4407
  N  N229  1  0.089620  0.494250  0.891700  1.0  -0.0408
  N  N230  1  0.988720  0.441280  0.775570  1.0  -0.4425
  N  N231  1  0.089620  0.108300  0.602550  1.0  -0.0408
  N  N232  1  0.988720  0.224430  0.665710  1.0  -0.4442
  O  O233  1  0.817870  0.218000  0.574930  1.0  -0.6196
  O  O234  1  0.817870  0.356930  0.782000  1.0  -0.619
  O  O235  1  0.817870  0.425070  0.643070  1.0  -0.6195
  O  O236  1  0.682130  0.356930  0.574930  1.0  -0.6189
  O  O237  1  0.682130  0.425070  0.782000  1.0  -0.619
  O  O238  1  0.682130  0.218000  0.643070  1.0  -0.619
  O  O239  1  0.182130  0.782000  0.425070  1.0  -0.6189
  O  O240  1  0.182130  0.643070  0.218000  1.0  -0.619
  O  O241  1  0.182130  0.574930  0.356930  1.0  -0.6194
  O  O242  1  0.317870  0.643070  0.425070  1.0  -0.6193
  O  O243  1  0.317870  0.574930  0.218000  1.0  -0.6194
  O  O244  1  0.317870  0.782000  0.356930  1.0  -0.6197
