# generated using pymatgen
data_Ba2NaCo2C20N4ClO22
_symmetry_space_group_name_H-M   'P 1'
_cell_length_a   16.16300000
_cell_length_b   9.91200000
_cell_length_c   27.81600000
_cell_angle_alpha   90.00000000
_cell_angle_beta   98.80900000
_cell_angle_gamma   90.00000000
_symmetry_Int_Tables_number   1
_chemical_formula_structural   Ba2NaCo2C20N4ClO22
_chemical_formula_sum   'Ba8 Na4 Co8 C80 N16 Cl4 O88'
_cell_volume   4403.77072552
_cell_formula_units_Z   4
loop_
 _symmetry_equiv_pos_site_id
 _symmetry_equiv_pos_as_xyz
  1  'x, y, z'
loop_
 _atom_site_type_symbol
 _atom_site_label
 _atom_site_symmetry_multiplicity
 _atom_site_fract_x
 _atom_site_fract_y
 _atom_site_fract_z
 _atom_site_occupancy
 _atom_site_charge
  Ba  Ba1  1  0.206200  0.620600  0.770300  1.0  1.6302
  Ba  Ba2  1  0.961300  0.843900  0.820100  1.0  1.6421
  Ba  Ba3  1  0.706200  0.120600  0.770300  1.0  1.6302
  Ba  Ba4  1  0.461300  0.343900  0.820100  1.0  1.6421
  Ba  Ba5  1  0.206200  0.379400  0.270300  1.0  1.6301
  Ba  Ba6  1  0.961300  0.156100  0.320100  1.0  1.6419
  Ba  Ba7  1  0.706200  0.879400  0.270300  1.0  1.6301
  Ba  Ba8  1  0.461300  0.656100  0.320100  1.0  1.6419
  Na  Na9  1  0.814000  0.810400  0.558200  1.0  0.9818
  Na  Na10  1  0.314000  0.310400  0.558200  1.0  0.9818
  Na  Na11  1  0.814000  0.189600  0.058200  1.0  0.9786
  Na  Na12  1  0.314000  0.689600  0.058200  1.0  0.9789
  Co  Co13  1  0.065000  0.009300  0.691500  1.0  0.8355
  Co  Co14  1  0.098800  0.455200  0.896900  1.0  0.8362
  Co  Co15  1  0.565000  0.509300  0.691500  1.0  0.8355
  Co  Co16  1  0.598800  0.955200  0.896900  1.0  0.8362
  Co  Co17  1  0.065000  0.990700  0.191500  1.0  0.8349
  Co  Co18  1  0.098800  0.544800  0.396900  1.0  0.8365
  Co  Co19  1  0.565000  0.490700  0.191500  1.0  0.8349
  Co  Co20  1  0.598800  0.044800  0.396900  1.0  0.8365
  C  C21  1  0.103600  0.146500  0.612400  1.0  -0.0356
  C  C22  1  0.011200  0.176400  0.614800  1.0  -0.0425
  C  C23  1  0.212900  0.984100  0.656300  1.0  -0.0253
  C  C24  1  0.214100  0.889300  0.699600  1.0  0.621
  C  C25  1  0.088900  0.899000  0.602000  1.0  0.0554
  C  C26  1  0.005000  0.852200  0.613200  1.0  0.609
  C  C27  1  0.912400  0.135800  0.677500  1.0  -0.0439
  C  C28  1  0.921500  0.061500  0.726600  1.0  0.6622
  C  C29  1  0.034900  0.286500  0.696300  1.0  0.0321
  C  C30  1  0.122200  0.259800  0.722600  1.0  0.6163
  C  C31  1  0.060200  0.320800  0.976800  1.0  -0.0594
  C  C32  1  0.153800  0.295000  0.975400  1.0  -0.0184
  C  C33  1  0.950800  0.479200  0.931800  1.0  -0.065
  C  C34  1  0.949500  0.574700  0.888200  1.0  0.6167
  C  C35  1  0.073200  0.568900  0.985500  1.0  0.0029
  C  C36  1  0.154100  0.623100  0.972200  1.0  0.6453
  C  C37  1  0.252600  0.335100  0.913600  1.0  -0.116
  C  C38  1  0.243600  0.405000  0.863200  1.0  0.6673
  C  C39  1  0.134000  0.178400  0.895400  1.0  -0.0121
  C  C40  1  0.047000  0.201100  0.867000  1.0  0.6397
  C  C41  1  0.603600  0.646500  0.612400  1.0  -0.0356
  C  C42  1  0.511200  0.676400  0.614800  1.0  -0.0425
  C  C43  1  0.712900  0.484100  0.656300  1.0  -0.0253
  C  C44  1  0.714100  0.389300  0.699600  1.0  0.621
  C  C45  1  0.588900  0.399000  0.602000  1.0  0.0554
  C  C46  1  0.505000  0.352200  0.613200  1.0  0.609
  C  C47  1  0.412400  0.635800  0.677500  1.0  -0.0439
  C  C48  1  0.421500  0.561500  0.726600  1.0  0.6622
  C  C49  1  0.534900  0.786500  0.696300  1.0  0.0321
  C  C50  1  0.622200  0.759800  0.722600  1.0  0.6163
  C  C51  1  0.560200  0.820800  0.976800  1.0  -0.0594
  C  C52  1  0.653800  0.795000  0.975400  1.0  -0.0184
  C  C53  1  0.450800  0.979200  0.931800  1.0  -0.065
  C  C54  1  0.449500  0.074700  0.888200  1.0  0.6167
  C  C55  1  0.573200  0.068900  0.985500  1.0  0.0029
  C  C56  1  0.654100  0.123100  0.972200  1.0  0.6453
  C  C57  1  0.752600  0.835100  0.913600  1.0  -0.116
  C  C58  1  0.743600  0.905000  0.863200  1.0  0.6673
  C  C59  1  0.634000  0.678400  0.895400  1.0  -0.0121
  C  C60  1  0.547000  0.701100  0.867000  1.0  0.6397
  C  C61  1  0.103600  0.853500  0.112400  1.0  -0.0365
  C  C62  1  0.011200  0.823600  0.114800  1.0  -0.043
  C  C63  1  0.212900  0.015900  0.156300  1.0  -0.0252
  C  C64  1  0.214100  0.110700  0.199600  1.0  0.6209
  C  C65  1  0.088900  0.101000  0.102000  1.0  0.054
  C  C66  1  0.005000  0.147800  0.113200  1.0  0.6081
  C  C67  1  0.912400  0.864200  0.177500  1.0  -0.0431
  C  C68  1  0.921500  0.938500  0.226600  1.0  0.6621
  C  C69  1  0.034900  0.713500  0.196300  1.0  0.0292
  C  C70  1  0.122200  0.740200  0.222600  1.0  0.6166
  C  C71  1  0.060200  0.679200  0.476800  1.0  -0.0589
  C  C72  1  0.153800  0.705000  0.475400  1.0  -0.0179
  C  C73  1  0.950800  0.520800  0.431800  1.0  -0.0639
  C  C74  1  0.949500  0.425300  0.388200  1.0  0.6174
  C  C75  1  0.073200  0.431100  0.485500  1.0  0.0015
  C  C76  1  0.154100  0.376900  0.472200  1.0  0.6436
  C  C77  1  0.252600  0.664900  0.413600  1.0  -0.114
  C  C78  1  0.243600  0.595000  0.363200  1.0  0.6674
  C  C79  1  0.134000  0.821600  0.395400  1.0  -0.0136
  C  C80  1  0.047000  0.798900  0.367000  1.0  0.6387
  C  C81  1  0.603600  0.353500  0.112400  1.0  -0.0365
  C  C82  1  0.511200  0.323600  0.114800  1.0  -0.043
  C  C83  1  0.712900  0.515900  0.156300  1.0  -0.0252
  C  C84  1  0.714100  0.610700  0.199600  1.0  0.6209
  C  C85  1  0.588900  0.601000  0.102000  1.0  0.054
  C  C86  1  0.505000  0.647800  0.113200  1.0  0.6081
  C  C87  1  0.412400  0.364200  0.177500  1.0  -0.0431
  C  C88  1  0.421500  0.438500  0.226600  1.0  0.6621
  C  C89  1  0.534900  0.213500  0.196300  1.0  0.0292
  C  C90  1  0.622200  0.240200  0.222600  1.0  0.6166
  C  C91  1  0.560200  0.179200  0.476800  1.0  -0.0589
  C  C92  1  0.653800  0.205000  0.475400  1.0  -0.0179
  C  C93  1  0.450800  0.020800  0.431800  1.0  -0.0639
  C  C94  1  0.449500  0.925300  0.388200  1.0  0.6174
  C  C95  1  0.573200  0.931100  0.485500  1.0  0.0015
  C  C96  1  0.654100  0.876900  0.472200  1.0  0.6436
  C  C97  1  0.752600  0.164900  0.413600  1.0  -0.114
  C  C98  1  0.743600  0.095000  0.363200  1.0  0.6674
  C  C99  1  0.634000  0.321600  0.395400  1.0  -0.0136
  C  C100  1  0.547000  0.298900  0.367000  1.0  0.6387
  N  N101  1  0.123000  0.011200  0.635800  1.0  -0.0385
  N  N102  1  0.999900  0.165400  0.667800  1.0  -0.026
  N  N103  1  0.040300  0.455700  0.952600  1.0  -0.0106
  N  N104  1  0.166100  0.303100  0.922800  1.0  -0.0017
  N  N105  1  0.623000  0.511200  0.635800  1.0  -0.0385
  N  N106  1  0.499900  0.665400  0.667800  1.0  -0.026
  N  N107  1  0.540300  0.955700  0.952600  1.0  -0.0106
  N  N108  1  0.666100  0.803100  0.922800  1.0  -0.0017
  N  N109  1  0.123000  0.988800  0.135800  1.0  -0.0391
  N  N110  1  0.999900  0.834600  0.167800  1.0  -0.0261
  N  N111  1  0.040300  0.544300  0.452600  1.0  -0.0107
  N  N112  1  0.166100  0.696900  0.422800  1.0  -0.0021
  N  N113  1  0.623000  0.488800  0.135800  1.0  -0.0391
  N  N114  1  0.499900  0.334600  0.167800  1.0  -0.0261
  N  N115  1  0.540300  0.044300  0.452600  1.0  -0.0107
  N  N116  1  0.666100  0.196900  0.422800  1.0  -0.0021
  Cl  Cl117  1  0.182700  0.522900  0.623900  1.0  1.5535
  Cl  Cl118  1  0.682700  0.022900  0.623900  1.0  1.5532
  Cl  Cl119  1  0.182700  0.477100  0.123900  1.0  1.5535
  Cl  Cl120  1  0.682700  0.977100  0.123900  1.0  1.5531
  O  O121  1  0.279800  0.835200  0.718800  1.0  -0.5349
  O  O122  1  0.143000  0.868600  0.715100  1.0  -0.5473
  O  O123  1  0.958200  0.783200  0.584300  1.0  -0.5816
  O  O124  1  0.988400  0.887800  0.656200  1.0  -0.4666
  O  O125  1  0.864000  0.051900  0.750400  1.0  -0.6045
  O  O126  1  0.995300  0.006700  0.741300  1.0  -0.5737
  O  O127  1  0.168200  0.351700  0.740100  1.0  -0.5604
  O  O128  1  0.142700  0.133200  0.725600  1.0  -0.4806
  O  O129  1  0.884300  0.633500  0.870800  1.0  -0.5326
  O  O130  1  0.019300  0.591000  0.871500  1.0  -0.5733
  O  O131  1  0.198300  0.702500  0.999400  1.0  -0.6259
  O  O132  1  0.172900  0.582800  0.930900  1.0  -0.4819
  O  O133  1  0.302800  0.415100  0.840500  1.0  -0.6291
  O  O134  1  0.170000  0.455000  0.847300  1.0  -0.5772
  O  O135  1  0.003000  0.107800  0.848500  1.0  -0.5747
  O  O136  1  0.024100  0.327000  0.863400  1.0  -0.4393
  O  O137  1  0.189700  0.592500  0.668800  1.0  -0.6181
  O  O138  1  0.103700  0.461300  0.610900  1.0  -0.5398
  O  O139  1  0.196100  0.617800  0.586200  1.0  -0.596
  O  O140  1  0.246300  0.416900  0.627700  1.0  -0.6896
  O  O141  1  0.140300  0.819500  0.833600  1.0  -0.4633
  O  O142  1  0.026300  0.638700  0.756600  1.0  -0.4583
  O  O143  1  0.779800  0.335200  0.718800  1.0  -0.5349
  O  O144  1  0.643000  0.368600  0.715100  1.0  -0.5473
  O  O145  1  0.458200  0.283200  0.584300  1.0  -0.5816
  O  O146  1  0.488400  0.387800  0.656200  1.0  -0.4666
  O  O147  1  0.364000  0.551900  0.750400  1.0  -0.6045
  O  O148  1  0.495300  0.506700  0.741300  1.0  -0.5737
  O  O149  1  0.668200  0.851700  0.740100  1.0  -0.5604
  O  O150  1  0.642700  0.633200  0.725600  1.0  -0.4806
  O  O151  1  0.384300  0.133500  0.870800  1.0  -0.5326
  O  O152  1  0.519300  0.091000  0.871500  1.0  -0.5733
  O  O153  1  0.698300  0.202500  0.999400  1.0  -0.6259
  O  O154  1  0.672900  0.082800  0.930900  1.0  -0.4819
  O  O155  1  0.802800  0.915100  0.840500  1.0  -0.6304
  O  O156  1  0.670000  0.955000  0.847300  1.0  -0.5772
  O  O157  1  0.503000  0.607800  0.848500  1.0  -0.5747
  O  O158  1  0.524100  0.827000  0.863400  1.0  -0.4393
  O  O159  1  0.689700  0.092500  0.668800  1.0  -0.6181
  O  O160  1  0.603700  0.961300  0.610900  1.0  -0.5398
  O  O161  1  0.696100  0.117800  0.586200  1.0  -0.596
  O  O162  1  0.746300  0.916900  0.627700  1.0  -0.6896
  O  O163  1  0.640300  0.319500  0.833600  1.0  -0.4633
  O  O164  1  0.526300  0.138700  0.756600  1.0  -0.4583
  O  O165  1  0.279800  0.164800  0.218800  1.0  -0.5354
  O  O166  1  0.143000  0.131400  0.215100  1.0  -0.5482
  O  O167  1  0.958200  0.216800  0.084300  1.0  -0.5817
  O  O168  1  0.988400  0.112200  0.156200  1.0  -0.4664
  O  O169  1  0.864000  0.948100  0.250400  1.0  -0.6045
  O  O170  1  0.995300  0.993300  0.241300  1.0  -0.5743
  O  O171  1  0.168200  0.648300  0.240100  1.0  -0.5588
  O  O172  1  0.142700  0.866800  0.225600  1.0  -0.4812
  O  O173  1  0.884300  0.366500  0.370800  1.0  -0.533
  O  O174  1  0.019300  0.409000  0.371500  1.0  -0.5725
  O  O175  1  0.198300  0.297500  0.499400  1.0  -0.6242
  O  O176  1  0.172900  0.417200  0.430900  1.0  -0.4801
  O  O177  1  0.302800  0.584900  0.340500  1.0  -0.629
  O  O178  1  0.170000  0.545000  0.347300  1.0  -0.5777
  O  O179  1  0.003000  0.892200  0.348500  1.0  -0.5741
  O  O180  1  0.024100  0.673000  0.363400  1.0  -0.4393
  O  O181  1  0.189700  0.407500  0.168800  1.0  -0.6184
  O  O182  1  0.103700  0.538700  0.110900  1.0  -0.539
  O  O183  1  0.196100  0.382200  0.086200  1.0  -0.5957
  O  O184  1  0.246300  0.583100  0.127700  1.0  -0.6882
  O  O185  1  0.140300  0.180500  0.333600  1.0  -0.4631
  O  O186  1  0.026300  0.361300  0.256600  1.0  -0.4578
  O  O187  1  0.779800  0.664800  0.218800  1.0  -0.5354
  O  O188  1  0.643000  0.631400  0.215100  1.0  -0.5482
  O  O189  1  0.458200  0.716800  0.084300  1.0  -0.5817
  O  O190  1  0.488400  0.612200  0.156200  1.0  -0.4664
  O  O191  1  0.364000  0.448100  0.250400  1.0  -0.6045
  O  O192  1  0.495300  0.493300  0.241300  1.0  -0.5743
  O  O193  1  0.668200  0.148300  0.240100  1.0  -0.5588
  O  O194  1  0.642700  0.366800  0.225600  1.0  -0.4812
  O  O195  1  0.384300  0.866500  0.370800  1.0  -0.533
  O  O196  1  0.519300  0.909000  0.371500  1.0  -0.5725
  O  O197  1  0.698300  0.797500  0.499400  1.0  -0.6242
  O  O198  1  0.672900  0.917200  0.430900  1.0  -0.4801
  O  O199  1  0.802800  0.084900  0.340500  1.0  -0.6303
  O  O200  1  0.670000  0.045000  0.347300  1.0  -0.5777
  O  O201  1  0.503000  0.392200  0.348500  1.0  -0.5741
  O  O202  1  0.524100  0.173000  0.363400  1.0  -0.4393
  O  O203  1  0.689700  0.907500  0.168800  1.0  -0.6184
  O  O204  1  0.603700  0.038700  0.110900  1.0  -0.539
  O  O205  1  0.696100  0.882200  0.086200  1.0  -0.5957
  O  O206  1  0.746300  0.083100  0.127700  1.0  -0.6882
  O  O207  1  0.640300  0.680500  0.333600  1.0  -0.4631
  O  O208  1  0.526300  0.861300  0.256600  1.0  -0.4578
