# generated using pymatgen
data_Co2H56C42S3(N9O2)2
_symmetry_space_group_name_H-M   'P 1'
_cell_length_a   13.69900000
_cell_length_b   21.59400000
_cell_length_c   22.22000000
_cell_angle_alpha   90.00000000
_cell_angle_beta   90.00000000
_cell_angle_gamma   90.00000000
_symmetry_Int_Tables_number   1
_chemical_formula_structural   Co2H56C42S3(N9O2)2
_chemical_formula_sum   'Co8 H224 C168 S12 N72 O16'
_cell_volume   6573.03609732
_cell_formula_units_Z   4
loop_
 _symmetry_equiv_pos_site_id
 _symmetry_equiv_pos_as_xyz
  1  'x, y, z'
loop_
 _atom_site_type_symbol
 _atom_site_label
 _atom_site_symmetry_multiplicity
 _atom_site_fract_x
 _atom_site_fract_y
 _atom_site_fract_z
 _atom_site_occupancy
 _atom_site_charge
  Co  Co1  1  0.225670  0.152810  0.865020  1.0  0.6236
  Co  Co2  1  0.268150  0.345950  0.631880  1.0  0.6611
  Co  Co3  1  0.274330  0.847190  0.365020  1.0  0.6283
  Co  Co4  1  0.231850  0.654050  0.131880  1.0  0.6603
  Co  Co5  1  0.774330  0.652810  0.634980  1.0  0.6286
  Co  Co6  1  0.731850  0.845950  0.868120  1.0  0.6602
  Co  Co7  1  0.725670  0.347190  0.134980  1.0  0.6242
  Co  Co8  1  0.768150  0.154050  0.368120  1.0  0.661
  H  H9  1  0.425700  0.211000  0.835500  1.0  0.2574
  H  H10  1  0.711500  0.207600  0.104800  1.0  0.2633
  H  H11  1  0.035400  0.181800  0.790700  1.0  0.2931
  H  H12  1  0.777500  0.899000  0.742800  1.0  0.2706
  H  H13  1  0.070300  0.288200  0.669800  1.0  0.2735
  H  H14  1  0.801400  0.295400  0.393400  1.0  0.2763
  H  H15  1  0.546000  0.821100  0.792700  1.0  0.2586
  H  H16  1  0.294200  0.104900  0.738600  1.0  0.299
  H  H17  1  0.596300  0.240900  0.835200  1.0  0.1265
  H  H18  1  0.619500  0.284400  0.889800  1.0  0.1307
  H  H19  1  0.652300  0.214800  0.891300  1.0  0.1398
  H  H20  1  0.251200  0.185200  0.005600  1.0  0.1188
  H  H21  1  0.341100  0.163500  0.043900  1.0  0.1432
  H  H22  1  0.312400  0.233700  0.042200  1.0  0.1293
  H  H23  1  0.505700  0.368900  0.085800  1.0  0.1139
  H  H24  1  0.486800  0.359400  0.016900  1.0  0.139
  H  H25  1  0.418900  0.327200  0.064200  1.0  0.1378
  H  H26  1  0.703300  0.116100  0.041500  1.0  0.1324
  H  H27  1  0.596200  0.102000  0.020800  1.0  0.1388
  H  H28  1  0.669700  0.133400  0.976200  1.0  0.1373
  H  H29  1  0.210100  0.011600  0.837200  1.0  0.1193
  H  H30  1  0.120400  0.973500  0.860600  1.0  0.1365
  H  H31  1  0.150700  0.969700  0.792700  1.0  0.13
  H  H32  1  0.868100  0.179400  0.763100  1.0  0.133
  H  H33  1  0.839700  0.118300  0.729200  1.0  0.1237
  H  H34  1  0.811700  0.126800  0.797100  1.0  0.132
  H  H35  1  0.910500  0.917700  0.926600  1.0  0.1111
  H  H36  1  0.007400  0.947100  0.902300  1.0  0.1697
  H  H37  1  0.921100  0.989900  0.922800  1.0  0.1288
  H  H38  1  0.808000  0.967400  0.661600  1.0  0.1335
  H  H39  1  0.825800  0.035200  0.684200  1.0  0.1271
  H  H40  1  0.914200  0.994500  0.663200  1.0  0.1411
  H  H41  1  0.900700  0.266100  0.671900  1.0  0.1294
  H  H42  1  0.847800  0.294100  0.615500  1.0  0.135
  H  H43  1  0.867500  0.222600  0.619200  1.0  0.1334
  H  H44  1  0.246700  0.294700  0.500100  1.0  0.1165
  H  H45  1  0.180200  0.246200  0.467400  1.0  0.1342
  H  H46  1  0.159300  0.317200  0.460200  1.0  0.1354
  H  H47  1  0.975500  0.121100  0.427000  1.0  0.1193
  H  H48  1  0.065000  0.157900  0.452600  1.0  0.1262
  H  H49  1  0.984500  0.132700  0.496500  1.0  0.1389
  H  H50  1  0.820600  0.387900  0.453900  1.0  0.1296
  H  H51  1  0.845300  0.371800  0.520900  1.0  0.1371
  H  H52  1  0.928000  0.394400  0.477400  1.0  0.1223
  H  H53  1  0.706100  0.989200  0.860200  1.0  0.1183
  H  H54  1  0.652400  0.034600  0.816300  1.0  0.1297
  H  H55  1  0.611300  0.023600  0.881200  1.0  0.1145
  H  H56  1  0.381500  0.825200  0.752900  1.0  0.1289
  H  H57  1  0.319200  0.876800  0.784400  1.0  0.1377
  H  H58  1  0.362600  0.888300  0.720100  1.0  0.1339
  H  H59  1  0.379300  0.074700  0.931700  1.0  0.1201
  H  H60  1  0.390800  0.002900  0.924100  1.0  0.1326
  H  H61  1  0.481500  0.046400  0.915800  1.0  0.1094
  H  H62  1  0.354800  0.044300  0.656900  1.0  0.1359
  H  H63  1  0.461200  0.021200  0.669700  1.0  0.1444
  H  H64  1  0.373100  0.975300  0.675500  1.0  0.1179
  H  H65  1  0.074300  0.789000  0.335500  1.0  0.2573
  H  H66  1  0.788500  0.792400  0.604800  1.0  0.2631
  H  H67  1  0.464600  0.818200  0.290700  1.0  0.2904
  H  H68  1  0.722500  0.101000  0.242800  1.0  0.2697
  H  H69  1  0.429700  0.711800  0.169800  1.0  0.2736
  H  H70  1  0.698600  0.704600  0.893400  1.0  0.2763
  H  H71  1  0.954000  0.178900  0.292700  1.0  0.2594
  H  H72  1  0.205800  0.895100  0.238600  1.0  0.2985
  H  H73  1  0.903700  0.759100  0.335200  1.0  0.1266
  H  H74  1  0.880500  0.715600  0.389800  1.0  0.129
  H  H75  1  0.847700  0.785200  0.391300  1.0  0.139
  H  H76  1  0.248800  0.814800  0.505600  1.0  0.1203
  H  H77  1  0.158900  0.836500  0.543900  1.0  0.1427
  H  H78  1  0.187600  0.766300  0.542200  1.0  0.1301
  H  H79  1  0.994300  0.631100  0.585800  1.0  0.114
  H  H80  1  0.013200  0.640600  0.516900  1.0  0.1396
  H  H81  1  0.081100  0.672800  0.564200  1.0  0.1371
  H  H82  1  0.796700  0.883900  0.541500  1.0  0.131
  H  H83  1  0.903800  0.898000  0.520800  1.0  0.1388
  H  H84  1  0.830300  0.866600  0.476200  1.0  0.1378
  H  H85  1  0.289900  0.988400  0.337200  1.0  0.1178
  H  H86  1  0.379600  0.026500  0.360600  1.0  0.1379
  H  H87  1  0.349300  0.030300  0.292700  1.0  0.1302
  H  H88  1  0.631900  0.820600  0.263100  1.0  0.1316
  H  H89  1  0.660300  0.881700  0.229200  1.0  0.1236
  H  H90  1  0.688300  0.873200  0.297100  1.0  0.1313
  H  H91  1  0.589500  0.082300  0.426600  1.0  0.1112
  H  H92  1  0.492600  0.052900  0.402300  1.0  0.1693
  H  H93  1  0.578900  0.010100  0.422800  1.0  0.1299
  H  H94  1  0.692000  0.032600  0.161600  1.0  0.1343
  H  H95  1  0.674200  0.964800  0.184200  1.0  0.1262
  H  H96  1  0.585800  0.005500  0.163200  1.0  0.1413
  H  H97  1  0.599300  0.733900  0.171900  1.0  0.1292
  H  H98  1  0.652200  0.705900  0.115500  1.0  0.1349
  H  H99  1  0.632500  0.777400  0.119200  1.0  0.1338
  H  H100  1  0.253300  0.705300  0.000100  1.0  0.1162
  H  H101  1  0.319800  0.753800  0.967400  1.0  0.1347
  H  H102  1  0.340700  0.682800  0.960200  1.0  0.1351
  H  H103  1  0.524500  0.878900  0.927000  1.0  0.1193
  H  H104  1  0.435000  0.842100  0.952600  1.0  0.1257
  H  H105  1  0.515500  0.867300  0.996500  1.0  0.1391
  H  H106  1  0.679400  0.612100  0.953900  1.0  0.1293
  H  H107  1  0.654700  0.628200  0.020900  1.0  0.1369
  H  H108  1  0.572000  0.605600  0.977400  1.0  0.122
  H  H109  1  0.793900  0.010800  0.360200  1.0  0.1184
  H  H110  1  0.847600  0.965400  0.316300  1.0  0.1296
  H  H111  1  0.888700  0.976400  0.381200  1.0  0.1153
  H  H112  1  0.118500  0.174800  0.252900  1.0  0.1318
  H  H113  1  0.180800  0.123200  0.284400  1.0  0.1378
  H  H114  1  0.137400  0.111700  0.220100  1.0  0.1334
  H  H115  1  0.120700  0.925300  0.431700  1.0  0.1201
  H  H116  1  0.109200  0.997100  0.424100  1.0  0.1316
  H  H117  1  0.018500  0.953600  0.415800  1.0  0.1085
  H  H118  1  0.145200  0.955700  0.156900  1.0  0.1349
  H  H119  1  0.038800  0.978800  0.169700  1.0  0.1422
  H  H120  1  0.126900  0.024700  0.175500  1.0  0.1188
  H  H121  1  0.574300  0.711000  0.664500  1.0  0.2557
  H  H122  1  0.288500  0.707600  0.395200  1.0  0.2648
  H  H123  1  0.964600  0.681800  0.709300  1.0  0.2927
  H  H124  1  0.222500  0.399000  0.757200  1.0  0.2686
  H  H125  1  0.929700  0.788200  0.830200  1.0  0.2708
  H  H126  1  0.198600  0.795400  0.106600  1.0  0.2755
  H  H127  1  0.454000  0.321100  0.707300  1.0  0.2595
  H  H128  1  0.705800  0.604900  0.761400  1.0  0.2988
  H  H129  1  0.403700  0.740900  0.664800  1.0  0.1271
  H  H130  1  0.380500  0.784400  0.610200  1.0  0.1306
  H  H131  1  0.347700  0.714800  0.608700  1.0  0.1395
  H  H132  1  0.748800  0.685200  0.494400  1.0  0.1201
  H  H133  1  0.658900  0.663500  0.456100  1.0  0.1415
  H  H134  1  0.687600  0.733700  0.457800  1.0  0.1293
  H  H135  1  0.494300  0.868900  0.414200  1.0  0.1141
  H  H136  1  0.513200  0.859400  0.483100  1.0  0.1388
  H  H137  1  0.581100  0.827200  0.435800  1.0  0.1378
  H  H138  1  0.296700  0.616100  0.458500  1.0  0.1316
  H  H139  1  0.403800  0.602000  0.479200  1.0  0.1396
  H  H140  1  0.330300  0.633400  0.523800  1.0  0.137
  H  H141  1  0.789900  0.511600  0.662800  1.0  0.118
  H  H142  1  0.879600  0.473500  0.639400  1.0  0.1379
  H  H143  1  0.849300  0.469700  0.707300  1.0  0.1307
  H  H144  1  0.131900  0.679400  0.736900  1.0  0.133
  H  H145  1  0.160300  0.618300  0.770800  1.0  0.1236
  H  H146  1  0.188300  0.626800  0.702900  1.0  0.1301
  H  H147  1  0.089500  0.417700  0.573400  1.0  0.1107
  H  H148  1  0.992600  0.447100  0.597700  1.0  0.1694
  H  H149  1  0.078900  0.489900  0.577200  1.0  0.1302
  H  H150  1  0.192000  0.467400  0.838400  1.0  0.1349
  H  H151  1  0.174200  0.535200  0.815800  1.0  0.1259
  H  H152  1  0.085800  0.494500  0.836800  1.0  0.1428
  H  H153  1  0.099300  0.766100  0.828100  1.0  0.129
  H  H154  1  0.152200  0.794100  0.884500  1.0  0.1355
  H  H155  1  0.132500  0.722600  0.880800  1.0  0.135
  H  H156  1  0.753300  0.794700  0.999900  1.0  0.1156
  H  H157  1  0.819800  0.746200  0.032600  1.0  0.1346
  H  H158  1  0.840700  0.817200  0.039800  1.0  0.1356
  H  H159  1  0.024500  0.621100  0.073000  1.0  0.1185
  H  H160  1  0.935000  0.657900  0.047400  1.0  0.1253
  H  H161  1  0.015500  0.632700  0.003500  1.0  0.1385
  H  H162  1  0.179400  0.887900  0.046100  1.0  0.1289
  H  H163  1  0.154700  0.871800  0.979100  1.0  0.1369
  H  H164  1  0.072000  0.894400  0.022600  1.0  0.1206
  H  H165  1  0.293900  0.489200  0.639800  1.0  0.1185
  H  H166  1  0.347600  0.534600  0.683700  1.0  0.129
  H  H167  1  0.388700  0.523600  0.618800  1.0  0.1164
  H  H168  1  0.618500  0.325200  0.747100  1.0  0.1307
  H  H169  1  0.680800  0.376800  0.715600  1.0  0.1386
  H  H170  1  0.637400  0.388300  0.779900  1.0  0.1341
  H  H171  1  0.620700  0.574700  0.568300  1.0  0.1203
  H  H172  1  0.609200  0.502900  0.575900  1.0  0.1313
  H  H173  1  0.518500  0.546400  0.584200  1.0  0.1085
  H  H174  1  0.645200  0.544300  0.843100  1.0  0.1352
  H  H175  1  0.538800  0.521200  0.830300  1.0  0.1436
  H  H176  1  0.626900  0.475300  0.824500  1.0  0.1186
  H  H177  1  0.925700  0.289000  0.164500  1.0  0.2555
  H  H178  1  0.211500  0.292400  0.895200  1.0  0.2639
  H  H179  1  0.535400  0.318200  0.209300  1.0  0.2914
  H  H180  1  0.277500  0.601000  0.257200  1.0  0.2684
  H  H181  1  0.570300  0.211800  0.330200  1.0  0.2711
  H  H182  1  0.301400  0.204600  0.606600  1.0  0.2758
  H  H183  1  0.046000  0.678900  0.207300  1.0  0.2595
  H  H184  1  0.794200  0.395100  0.261400  1.0  0.299
  H  H185  1  0.096300  0.259100  0.164800  1.0  0.1267
  H  H186  1  0.119500  0.215600  0.110200  1.0  0.13
  H  H187  1  0.152300  0.285200  0.108700  1.0  0.1392
  H  H188  1  0.751200  0.314800  0.994400  1.0  0.1204
  H  H189  1  0.841100  0.336500  0.956100  1.0  0.142
  H  H190  1  0.812400  0.266300  0.957800  1.0  0.1292
  H  H191  1  0.005700  0.131100  0.914200  1.0  0.1137
  H  H192  1  0.986800  0.140600  0.983100  1.0  0.1397
  H  H193  1  0.918900  0.172800  0.935800  1.0  0.1379
  H  H194  1  0.203300  0.383900  0.958500  1.0  0.1325
  H  H195  1  0.096200  0.398000  0.979200  1.0  0.1381
  H  H196  1  0.169700  0.366600  0.023800  1.0  0.1376
  H  H197  1  0.710100  0.488400  0.162800  1.0  0.1182
  H  H198  1  0.620400  0.526500  0.139400  1.0  0.1377
  H  H199  1  0.650700  0.530300  0.207300  1.0  0.1301
  H  H200  1  0.368100  0.320600  0.236900  1.0  0.1311
  H  H201  1  0.339700  0.381700  0.270800  1.0  0.1246
  H  H202  1  0.311700  0.373200  0.202900  1.0  0.1302
  H  H203  1  0.410500  0.582300  0.073400  1.0  0.1108
  H  H204  1  0.507400  0.552900  0.097700  1.0  0.1694
  H  H205  1  0.421100  0.510100  0.077200  1.0  0.129
  H  H206  1  0.308000  0.532600  0.338400  1.0  0.1349
  H  H207  1  0.325800  0.464800  0.315800  1.0  0.1263
  H  H208  1  0.414200  0.505500  0.336800  1.0  0.1394
  H  H209  1  0.400700  0.233900  0.328100  1.0  0.1286
  H  H210  1  0.347800  0.205900  0.384500  1.0  0.1352
  H  H211  1  0.367500  0.277400  0.380800  1.0  0.135
  H  H212  1  0.746700  0.205300  0.499900  1.0  0.1149
  H  H213  1  0.680200  0.253800  0.532600  1.0  0.1332
  H  H214  1  0.659300  0.182800  0.539800  1.0  0.1367
  H  H215  1  0.475500  0.378900  0.573000  1.0  0.1189
  H  H216  1  0.565000  0.342100  0.547400  1.0  0.1261
  H  H217  1  0.484500  0.367300  0.503500  1.0  0.1392
  H  H218  1  0.320600  0.112100  0.546100  1.0  0.1301
  H  H219  1  0.345300  0.128200  0.479100  1.0  0.1372
  H  H220  1  0.428000  0.105600  0.522600  1.0  0.1219
  H  H221  1  0.206100  0.510800  0.139800  1.0  0.1178
  H  H222  1  0.152400  0.465400  0.183700  1.0  0.1294
  H  H223  1  0.111300  0.476400  0.118800  1.0  0.1155
  H  H224  1  0.881500  0.674800  0.247100  1.0  0.132
  H  H225  1  0.819200  0.623200  0.215600  1.0  0.1382
  H  H226  1  0.862600  0.611700  0.279900  1.0  0.1346
  H  H227  1  0.879300  0.425300  0.068300  1.0  0.1202
  H  H228  1  0.890800  0.497100  0.075900  1.0  0.131
  H  H229  1  0.981500  0.453600  0.084200  1.0  0.1094
  H  H230  1  0.854800  0.455700  0.343100  1.0  0.1361
  H  H231  1  0.961200  0.478800  0.330300  1.0  0.1444
  H  H232  1  0.873100  0.524700  0.324500  1.0  0.1196
  C  C233  1  0.380000  0.205400  0.966600  1.0  0.2565
  C  C234  1  0.480000  0.221800  0.966800  1.0  -0.1851
  C  C235  1  0.506800  0.225500  0.906800  1.0  0.1624
  C  C236  1  0.602400  0.243000  0.878200  1.0  -0.3857
  C  C237  1  0.315500  0.196100  0.019200  1.0  -0.4077
  C  C238  1  0.618100  0.193300  0.039400  1.0  0.1765
  C  C239  1  0.544600  0.232300  0.019200  1.0  -0.1826
  C  C240  1  0.550600  0.284500  0.056100  1.0  0.2476
  C  C241  1  0.484600  0.340000  0.055700  1.0  -0.4203
  C  C242  1  0.649700  0.130500  0.017500  1.0  -0.3974
  C  C243  1  0.954600  0.107100  0.785200  1.0  0.1654
  C  C244  1  0.981100  0.047300  0.796400  1.0  -0.1828
  C  C245  1  0.080300  0.049700  0.813100  1.0  0.2451
  C  C246  1  0.146300  0.996300  0.827200  1.0  -0.3833
  C  C247  1  0.860100  0.135400  0.767000  1.0  -0.3945
  C  C248  1  0.864400  0.970500  0.745700  1.0  0.1601
  C  C249  1  0.919200  0.991900  0.794400  1.0  -0.1685
  C  C250  1  0.897500  0.950300  0.841600  1.0  0.2459
  C  C251  1  0.937700  0.951400  0.903800  1.0  -0.402
  C  C252  1  0.852000  0.994000  0.683100  1.0  -0.3725
  C  C253  1  0.116400  0.283600  0.540200  1.0  0.2546
  C  C254  1  0.015400  0.271500  0.539700  1.0  -0.1882
  C  C255  1  0.988300  0.271800  0.599100  1.0  0.1447
  C  C256  1  0.892600  0.262900  0.629100  1.0  -0.3969
  C  C257  1  0.181300  0.285600  0.487400  1.0  -0.4101
  C  C258  1  0.888600  0.305800  0.462800  1.0  0.156
  C  C259  1  0.952100  0.261800  0.487000  1.0  -0.1685
  C  C260  1  0.941400  0.208800  0.450700  1.0  0.2453
  C  C261  1  0.996500  0.149900  0.457300  1.0  -0.4256
  C  C262  1  0.868900  0.370600  0.480300  1.0  -0.3848
  C  C263  1  0.463100  0.894900  0.785700  1.0  0.1566
  C  C264  1  0.487000  0.955600  0.802100  1.0  -0.1657
  C  C265  1  0.583100  0.952300  0.824700  1.0  0.2405
  C  C266  1  0.643600  0.004600  0.847600  1.0  -0.398
  C  C267  1  0.373800  0.869000  0.758400  1.0  -0.3996
  C  C268  1  0.382900  0.034600  0.745800  1.0  0.1602
  C  C269  1  0.423600  0.010200  0.797600  1.0  -0.1904
  C  C270  1  0.389600  0.048400  0.845000  1.0  0.23
  C  C271  1  0.412300  0.042600  0.909900  1.0  -0.3984
  C  C272  1  0.394000  0.017300  0.681200  1.0  -0.3968
  C  C273  1  0.271900  0.429400  0.515100  1.0  0.2508
  C  C274  1  0.170900  0.073900  0.981400  1.0  0.2944
  C  C275  1  0.120000  0.794600  0.466600  1.0  0.2562
  C  C276  1  0.020000  0.778200  0.466800  1.0  -0.1844
  C  C277  1  0.993200  0.774500  0.406800  1.0  0.16
  C  C278  1  0.897600  0.757000  0.378200  1.0  -0.3841
  C  C279  1  0.184500  0.803900  0.519200  1.0  -0.4074
  C  C280  1  0.881900  0.806700  0.539400  1.0  0.177
  C  C281  1  0.955400  0.767700  0.519200  1.0  -0.1818
  C  C282  1  0.949400  0.715500  0.556100  1.0  0.2479
  C  C283  1  0.015400  0.660000  0.555700  1.0  -0.4213
  C  C284  1  0.850300  0.869500  0.517500  1.0  -0.3956
  C  C285  1  0.545400  0.892900  0.285200  1.0  0.1656
  C  C286  1  0.518900  0.952700  0.296400  1.0  -0.1827
  C  C287  1  0.419700  0.950300  0.313100  1.0  0.2449
  C  C288  1  0.353700  0.003700  0.327200  1.0  -0.3829
  C  C289  1  0.639900  0.864600  0.267000  1.0  -0.3955
  C  C290  1  0.635600  0.029500  0.245700  1.0  0.1571
  C  C291  1  0.580800  0.008100  0.294400  1.0  -0.1689
  C  C292  1  0.602500  0.049700  0.341600  1.0  0.2465
  C  C293  1  0.562300  0.048600  0.403800  1.0  -0.4014
  C  C294  1  0.648000  0.006000  0.183100  1.0  -0.3721
  C  C295  1  0.383600  0.716400  0.040200  1.0  0.2541
  C  C296  1  0.484600  0.728500  0.039700  1.0  -0.1877
  C  C297  1  0.511700  0.728200  0.099100  1.0  0.1458
  C  C298  1  0.607400  0.737100  0.129100  1.0  -0.3971
  C  C299  1  0.318700  0.714400  0.987400  1.0  -0.4097
  C  C300  1  0.611400  0.694200  0.962800  1.0  0.1548
  C  C301  1  0.547900  0.738200  0.987000  1.0  -0.1682
  C  C302  1  0.558600  0.791200  0.950700  1.0  0.2459
  C  C303  1  0.503500  0.850100  0.957300  1.0  -0.4234
  C  C304  1  0.631100  0.629400  0.980300  1.0  -0.3852
  C  C305  1  0.036900  0.105100  0.285700  1.0  0.1577
  C  C306  1  0.013000  0.044400  0.302100  1.0  -0.1659
  C  C307  1  0.916900  0.047700  0.324700  1.0  0.2415
  C  C308  1  0.856400  0.995400  0.347600  1.0  -0.399
  C  C309  1  0.126200  0.131000  0.258400  1.0  -0.401
  C  C310  1  0.117100  0.965400  0.245800  1.0  0.1593
  C  C311  1  0.076400  0.989800  0.297600  1.0  -0.1901
  C  C312  1  0.110400  0.951600  0.345000  1.0  0.2296
  C  C313  1  0.087700  0.957400  0.409900  1.0  -0.3983
  C  C314  1  0.106000  0.982700  0.181200  1.0  -0.3968
  C  C315  1  0.228100  0.570600  0.015100  1.0  0.249
  C  C316  1  0.329100  0.926100  0.481400  1.0  0.2937
  C  C317  1  0.620000  0.705400  0.533400  1.0  0.2559
  C  C318  1  0.520000  0.721800  0.533200  1.0  -0.1841
  C  C319  1  0.493200  0.725500  0.593200  1.0  0.1606
  C  C320  1  0.397600  0.743000  0.621800  1.0  -0.3851
  C  C321  1  0.684500  0.696100  0.480800  1.0  -0.4087
  C  C322  1  0.381900  0.693300  0.460600  1.0  0.1765
  C  C323  1  0.455400  0.732300  0.480800  1.0  -0.182
  C  C324  1  0.449400  0.784500  0.443900  1.0  0.248
  C  C325  1  0.515400  0.840000  0.444300  1.0  -0.4205
  C  C326  1  0.350300  0.630500  0.482500  1.0  -0.3961
  C  C327  1  0.045400  0.607100  0.714800  1.0  0.1655
  C  C328  1  0.018900  0.547300  0.703600  1.0  -0.1818
  C  C329  1  0.919700  0.549700  0.686900  1.0  0.2451
  C  C330  1  0.853700  0.496300  0.672800  1.0  -0.383
  C  C331  1  0.139900  0.635400  0.733000  1.0  -0.396
  C  C332  1  0.135600  0.470500  0.754300  1.0  0.1597
  C  C333  1  0.080800  0.491900  0.705600  1.0  -0.1691
  C  C334  1  0.102500  0.450300  0.658400  1.0  0.2461
  C  C335  1  0.062300  0.451400  0.596200  1.0  -0.4004
  C  C336  1  0.148000  0.494000  0.816900  1.0  -0.3738
  C  C337  1  0.883600  0.783600  0.959800  1.0  0.2545
  C  C338  1  0.984600  0.771500  0.960300  1.0  -0.1892
  C  C339  1  0.011700  0.771800  0.900900  1.0  0.145
  C  C340  1  0.107400  0.762900  0.870900  1.0  -0.3963
  C  C341  1  0.818700  0.785600  0.012600  1.0  -0.4098
  C  C342  1  0.111400  0.805800  0.037200  1.0  0.1556
  C  C343  1  0.047900  0.761800  0.013000  1.0  -0.1674
  C  C344  1  0.058600  0.708800  0.049300  1.0  0.2458
  C  C345  1  0.003500  0.649900  0.042700  1.0  -0.4237
  C  C346  1  0.131100  0.870600  0.019700  1.0  -0.3855
  C  C347  1  0.536900  0.394900  0.714300  1.0  0.1563
  C  C348  1  0.513000  0.455600  0.697900  1.0  -0.1656
  C  C349  1  0.416900  0.452300  0.675300  1.0  0.2413
  C  C350  1  0.356400  0.504600  0.652400  1.0  -0.398
  C  C351  1  0.626200  0.369000  0.741600  1.0  -0.4013
  C  C352  1  0.617100  0.534600  0.754200  1.0  0.1604
  C  C353  1  0.576400  0.510200  0.702400  1.0  -0.1906
  C  C354  1  0.610400  0.548400  0.655000  1.0  0.2298
  C  C355  1  0.587700  0.542600  0.590100  1.0  -0.3974
  C  C356  1  0.606000  0.517300  0.818800  1.0  -0.3974
  C  C357  1  0.728100  0.929400  0.984900  1.0  0.2511
  C  C358  1  0.829100  0.573900  0.518600  1.0  0.2948
  C  C359  1  0.880000  0.294600  0.033400  1.0  0.2563
  C  C360  1  0.980000  0.278200  0.033200  1.0  -0.1842
  C  C361  1  0.006800  0.274500  0.093200  1.0  0.1625
  C  C362  1  0.102400  0.257000  0.121800  1.0  -0.3855
  C  C363  1  0.815500  0.303900  0.980800  1.0  -0.4082
  C  C364  1  0.118100  0.306700  0.960600  1.0  0.1774
  C  C365  1  0.044600  0.267700  0.980800  1.0  -0.1826
  C  C366  1  0.050600  0.215500  0.943900  1.0  0.2478
  C  C367  1  0.984600  0.160000  0.944300  1.0  -0.4205
  C  C368  1  0.149700  0.369500  0.982500  1.0  -0.3952
  C  C369  1  0.454600  0.392900  0.214800  1.0  0.1652
  C  C370  1  0.481100  0.452700  0.203600  1.0  -0.182
  C  C371  1  0.580300  0.450300  0.186900  1.0  0.2446
  C  C372  1  0.646300  0.503700  0.172800  1.0  -0.3827
  C  C373  1  0.360100  0.364600  0.233000  1.0  -0.3948
  C  C374  1  0.364400  0.529500  0.254300  1.0  0.1618
  C  C375  1  0.419200  0.508100  0.205600  1.0  -0.1678
  C  C376  1  0.397500  0.549700  0.158400  1.0  0.2458
  C  C377  1  0.437700  0.548600  0.096200  1.0  -0.4012
  C  C378  1  0.352000  0.506000  0.316900  1.0  -0.3738
  C  C379  1  0.616400  0.216400  0.459800  1.0  0.2541
  C  C380  1  0.515400  0.228500  0.460300  1.0  -0.1884
  C  C381  1  0.488300  0.228200  0.400900  1.0  0.1432
  C  C382  1  0.392600  0.237100  0.370900  1.0  -0.3953
  C  C383  1  0.681300  0.214400  0.512600  1.0  -0.4101
  C  C384  1  0.388600  0.194200  0.537200  1.0  0.1552
  C  C385  1  0.452100  0.238200  0.513000  1.0  -0.1675
  C  C386  1  0.441400  0.291200  0.549300  1.0  0.2458
  C  C387  1  0.496500  0.350100  0.542700  1.0  -0.4245
  C  C388  1  0.368900  0.129400  0.519700  1.0  -0.3852
  C  C389  1  0.963100  0.605100  0.214300  1.0  0.1561
  C  C390  1  0.987000  0.544400  0.197900  1.0  -0.166
  C  C391  1  0.083100  0.547700  0.175300  1.0  0.2418
  C  C392  1  0.143600  0.495400  0.152400  1.0  -0.3992
  C  C393  1  0.873800  0.631000  0.241600  1.0  -0.3995
  C  C394  1  0.882900  0.465400  0.254200  1.0  0.1606
  C  C395  1  0.923600  0.489800  0.202400  1.0  -0.1905
  C  C396  1  0.889600  0.451600  0.155000  1.0  0.23
  C  C397  1  0.912300  0.457400  0.090100  1.0  -0.3977
  C  C398  1  0.894000  0.482700  0.318800  1.0  -0.3964
  C  C399  1  0.771900  0.070600  0.484900  1.0  0.2508
  C  C400  1  0.670900  0.426100  0.018600  1.0  0.2961
  S  S401  1  0.287450  0.235390  0.738230  1.0  1.6405
  S  S402  1  0.133100  0.043860  0.044110  1.0  -0.3374
  S  S403  1  0.261600  0.470300  0.453310  1.0  -0.3578
  S  S404  1  0.212550  0.764610  0.238230  1.0  1.6402
  S  S405  1  0.366900  0.956140  0.544110  1.0  -0.3375
  S  S406  1  0.238400  0.529700  0.953310  1.0  -0.3578
  S  S407  1  0.712550  0.735390  0.761770  1.0  1.6405
  S  S408  1  0.866900  0.543860  0.455890  1.0  -0.336
  S  S409  1  0.738400  0.970300  0.046690  1.0  -0.3579
  S  S410  1  0.787450  0.264610  0.261770  1.0  1.6404
  S  S411  1  0.633100  0.456140  0.955890  1.0  -0.3361
  S  S412  1  0.761600  0.029700  0.546690  1.0  -0.3578
  N  N413  1  0.348200  0.198800  0.909700  1.0  -0.2628
  N  N414  1  0.427000  0.211700  0.874100  1.0  -0.1217
  N  N415  1  0.622400  0.279100  0.096000  1.0  -0.2831
  N  N416  1  0.663000  0.222600  0.085000  1.0  -0.0652
  N  N417  1  0.111900  0.108300  0.813000  1.0  -0.268
  N  N418  1  0.034200  0.142300  0.795200  1.0  -0.1143
  N  N419  1  0.836300  0.907100  0.823200  1.0  -0.2193
  N  N420  1  0.816400  0.920400  0.764900  1.0  -0.1341
  N  N421  1  0.148500  0.291900  0.595900  1.0  -0.2473
  N  N422  1  0.069300  0.284800  0.631300  1.0  -0.1195
  N  N423  1  0.844100  0.277600  0.415900  1.0  -0.104
  N  N424  1  0.874000  0.218200  0.408200  1.0  -0.2668
  N  N425  1  0.542300  0.860400  0.798900  1.0  -0.1352
  N  N426  1  0.614300  0.893900  0.822600  1.0  -0.1969
  N  N427  1  0.330600  0.092300  0.823500  1.0  -0.242
  N  N428  1  0.327800  0.082600  0.763100  1.0  -0.1262
  N  N429  1  0.198500  0.095100  0.936700  1.0  -0.4681
  N  N430  1  0.275700  0.401900  0.558200  1.0  -0.4298
  N  N431  1  0.151800  0.801200  0.409700  1.0  -0.2622
  N  N432  1  0.073000  0.788300  0.374100  1.0  -0.122
  N  N433  1  0.877600  0.720900  0.596000  1.0  -0.2829
  N  N434  1  0.837000  0.777400  0.585000  1.0  -0.064
  N  N435  1  0.388100  0.891700  0.313000  1.0  -0.2685
  N  N436  1  0.465800  0.857700  0.295200  1.0  -0.1136
  N  N437  1  0.663700  0.092900  0.323200  1.0  -0.2185
  N  N438  1  0.683600  0.079600  0.264900  1.0  -0.1335
  N  N439  1  0.351500  0.708100  0.095900  1.0  -0.2489
  N  N440  1  0.430700  0.715200  0.131300  1.0  -0.1187
  N  N441  1  0.655900  0.722400  0.915900  1.0  -0.1044
  N  N442  1  0.626000  0.781800  0.908200  1.0  -0.2664
  N  N443  1  0.957700  0.139600  0.298900  1.0  -0.1358
  N  N444  1  0.885700  0.106100  0.322600  1.0  -0.1987
  N  N445  1  0.169400  0.907700  0.323500  1.0  -0.2418
  N  N446  1  0.172200  0.917400  0.263100  1.0  -0.1271
  N  N447  1  0.301500  0.904900  0.436700  1.0  -0.4676
  N  N448  1  0.224300  0.598100  0.058200  1.0  -0.43
  N  N449  1  0.651800  0.698800  0.590300  1.0  -0.2626
  N  N450  1  0.573000  0.711700  0.625900  1.0  -0.1231
  N  N451  1  0.377600  0.779100  0.404000  1.0  -0.2823
  N  N452  1  0.337000  0.722600  0.415000  1.0  -0.0633
  N  N453  1  0.888100  0.608300  0.687000  1.0  -0.2685
  N  N454  1  0.965800  0.642300  0.704800  1.0  -0.1124
  N  N455  1  0.163700  0.407100  0.676800  1.0  -0.2187
  N  N456  1  0.183600  0.420400  0.735100  1.0  -0.1292
  N  N457  1  0.851500  0.791900  0.904100  1.0  -0.2488
  N  N458  1  0.930700  0.784800  0.868700  1.0  -0.1181
  N  N459  1  0.155900  0.777600  0.084100  1.0  -0.1041
  N  N460  1  0.126000  0.718200  0.091800  1.0  -0.2673
  N  N461  1  0.457700  0.360400  0.701100  1.0  -0.1344
  N  N462  1  0.385700  0.393900  0.677400  1.0  -0.1988
  N  N463  1  0.669400  0.592300  0.676500  1.0  -0.241
  N  N464  1  0.672200  0.582600  0.736900  1.0  -0.1271
  N  N465  1  0.801500  0.595100  0.563300  1.0  -0.4661
  N  N466  1  0.724300  0.901900  0.941800  1.0  -0.4314
  N  N467  1  0.848200  0.301200  0.090300  1.0  -0.263
  N  N468  1  0.927000  0.288300  0.125900  1.0  -0.1224
  N  N469  1  0.122400  0.220900  0.904000  1.0  -0.2827
  N  N470  1  0.163000  0.277400  0.915000  1.0  -0.0634
  N  N471  1  0.611900  0.391700  0.187000  1.0  -0.2682
  N  N472  1  0.534200  0.357700  0.204800  1.0  -0.1131
  N  N473  1  0.336300  0.592900  0.176800  1.0  -0.2176
  N  N474  1  0.316400  0.579600  0.235100  1.0  -0.1297
  N  N475  1  0.648500  0.208100  0.404100  1.0  -0.2484
  N  N476  1  0.569300  0.215200  0.368700  1.0  -0.1182
  N  N477  1  0.344100  0.222400  0.584100  1.0  -0.1036
  N  N478  1  0.374000  0.281800  0.591800  1.0  -0.2665
  N  N479  1  0.042300  0.639600  0.201100  1.0  -0.136
  N  N480  1  0.114300  0.606100  0.177400  1.0  -0.1972
  N  N481  1  0.830600  0.407700  0.176500  1.0  -0.2413
  N  N482  1  0.827800  0.417400  0.236900  1.0  -0.1261
  N  N483  1  0.698500  0.404900  0.063300  1.0  -0.4665
  N  N484  1  0.775700  0.098100  0.441800  1.0  -0.4294
  O  O485  1  0.250100  0.294280  0.714050  1.0  -0.7586
  O  O486  1  0.235600  0.223620  0.795920  1.0  -0.8354
  O  O487  1  0.267800  0.184810  0.696120  1.0  -0.6035
  O  O488  1  0.392500  0.241900  0.750070  1.0  -0.6633
  O  O489  1  0.249900  0.705720  0.214050  1.0  -0.7589
  O  O490  1  0.264400  0.776380  0.295920  1.0  -0.8369
  O  O491  1  0.232200  0.815190  0.196120  1.0  -0.604
  O  O492  1  0.107500  0.758100  0.250070  1.0  -0.6637
  O  O493  1  0.749900  0.794280  0.785950  1.0  -0.7592
  O  O494  1  0.764400  0.723620  0.704080  1.0  -0.8366
  O  O495  1  0.732200  0.684810  0.803880  1.0  -0.605
  O  O496  1  0.607500  0.741900  0.749930  1.0  -0.6637
  O  O497  1  0.750100  0.205720  0.285950  1.0  -0.7579
  O  O498  1  0.735600  0.276380  0.204080  1.0  -0.8354
  O  O499  1  0.767800  0.315190  0.303880  1.0  -0.606
  O  O500  1  0.892500  0.258100  0.249930  1.0  -0.6635
