# generated using pymatgen
data_Mn3H16C28(NO5)2
_symmetry_space_group_name_H-M   'P 1'
_cell_length_a   11.70560000
_cell_length_b   12.32160000
_cell_length_c   12.78120000
_cell_angle_alpha   90.00000000
_cell_angle_beta   98.15400000
_cell_angle_gamma   90.00000000
_symmetry_Int_Tables_number   1
_chemical_formula_structural   Mn3H16C28(NO5)2
_chemical_formula_sum   'Mn6 H32 C56 N4 O20'
_cell_volume   1824.81792470
_cell_formula_units_Z   2
loop_
 _symmetry_equiv_pos_site_id
 _symmetry_equiv_pos_as_xyz
  1  'x, y, z'
loop_
 _atom_site_type_symbol
 _atom_site_label
 _atom_site_symmetry_multiplicity
 _atom_site_fract_x
 _atom_site_fract_y
 _atom_site_fract_z
 _atom_site_occupancy
 _atom_site_charge
  Mn  Mn1  1  0.359600  0.876200  0.335100  1.0  -0.4633
  Mn  Mn2  1  0.640400  0.376200  0.164900  1.0  -0.4794
  Mn  Mn3  1  0.640400  0.123800  0.664900  1.0  -0.4766
  Mn  Mn4  1  0.359600  0.623800  0.835100  1.0  -0.46
  Mn  Mn5  1  0.500000  0.500000  0.500000  1.0  0.9919
  Mn  Mn6  1  0.500000  0.000000  0.000000  1.0  0.9919
  H  H7  1  0.407500  0.663600  0.276500  1.0  0.1212
  H  H8  1  0.420400  0.792200  0.147200  1.0  0.1124
  H  H9  1  0.560900  0.001500  0.368900  1.0  0.118
  H  H10  1  0.547300  0.874200  0.497700  1.0  0.1184
  H  H11  1  0.278000  0.647800  0.459700  1.0  0.0671
  H  H12  1  0.082900  0.654800  0.456300  1.0  0.1316
  H  H13  1  0.093200  0.344300  0.543500  1.0  0.1362
  H  H14  1  0.287700  0.348200  0.544100  1.0  0.0731
  H  H15  1  0.592500  0.163600  0.223500  1.0  0.1211
  H  H16  1  0.579600  0.292200  0.352800  1.0  0.1122
  H  H17  1  0.439100  0.501500  0.131100  1.0  0.1187
  H  H18  1  0.452700  0.374200  0.002300  1.0  0.1197
  H  H19  1  0.722000  0.147800  0.040300  1.0  0.0672
  H  H20  1  0.917100  0.154800  0.043700  1.0  0.1318
  H  H21  1  0.906800  0.844300  0.956500  1.0  0.1364
  H  H22  1  0.712300  0.848200  0.955900  1.0  0.0738
  H  H23  1  0.592500  0.336400  0.723500  1.0  0.1213
  H  H24  1  0.579600  0.207800  0.852800  1.0  0.112
  H  H25  1  0.439100  0.998500  0.631100  1.0  0.1188
  H  H26  1  0.452700  0.125800  0.502300  1.0  0.1199
  H  H27  1  0.722000  0.352200  0.540300  1.0  0.0667
  H  H28  1  0.917100  0.345200  0.543700  1.0  0.1316
  H  H29  1  0.906800  0.655700  0.456500  1.0  0.1365
  H  H30  1  0.712300  0.651800  0.455900  1.0  0.0743
  H  H31  1  0.407500  0.836400  0.776500  1.0  0.1222
  H  H32  1  0.420400  0.707800  0.647200  1.0  0.1127
  H  H33  1  0.560900  0.498500  0.868900  1.0  0.1184
  H  H34  1  0.547300  0.625800  0.997700  1.0  0.1186
  H  H35  1  0.278000  0.852200  0.959700  1.0  0.0663
  H  H36  1  0.082900  0.845200  0.956300  1.0  0.1311
  H  H37  1  0.093200  0.155700  0.043500  1.0  0.1365
  H  H38  1  0.287700  0.151800  0.044100  1.0  0.0736
  C  C39  1  0.493300  0.743900  0.402400  1.0  0.382
  C  C40  1  0.446000  0.728200  0.295500  1.0  -0.1214
  C  C41  1  0.454600  0.806800  0.216000  1.0  -0.1238
  C  C42  1  0.513500  0.907100  0.237400  1.0  0.3957
  C  C43  1  0.538200  0.931400  0.348500  1.0  -0.1026
  C  C44  1  0.529300  0.854000  0.427100  1.0  -0.1128
  C  C45  1  0.300500  0.871100  0.456800  1.0  0.2547
  C  C46  1  0.228000  0.824800  0.262500  1.0  0.2904
  C  C47  1  0.315900  0.014700  0.309100  1.0  0.2723
  C  C48  1  0.240200  0.585300  0.477100  1.0  0.1924
  C  C49  1  0.122400  0.590700  0.474900  1.0  -0.1946
  C  C50  1  0.063900  0.499700  0.500600  1.0  0.0998
  C  C51  1  0.128500  0.408100  0.526200  1.0  -0.1999
  C  C52  1  0.245900  0.411300  0.526100  1.0  0.1945
  C  C53  1  0.506700  0.243900  0.097600  1.0  0.383
  C  C54  1  0.554000  0.228200  0.204500  1.0  -0.1211
  C  C55  1  0.545400  0.306800  0.284000  1.0  -0.1245
  C  C56  1  0.486500  0.407100  0.262600  1.0  0.3979
  C  C57  1  0.461800  0.431400  0.151500  1.0  -0.1025
  C  C58  1  0.470700  0.354000  0.072900  1.0  -0.1118
  C  C59  1  0.699500  0.371100  0.043200  1.0  0.254
  C  C60  1  0.772000  0.324800  0.237500  1.0  0.2886
  C  C61  1  0.684100  0.514700  0.190900  1.0  0.2731
  C  C62  1  0.759800  0.085300  0.022900  1.0  0.1932
  C  C63  1  0.877600  0.090700  0.025100  1.0  -0.1959
  C  C64  1  0.936100  0.999700  0.999400  1.0  0.0995
  C  C65  1  0.871500  0.908100  0.973800  1.0  -0.1997
  C  C66  1  0.754100  0.911300  0.973900  1.0  0.1945
  C  C67  1  0.506700  0.256100  0.597600  1.0  0.3853
  C  C68  1  0.554000  0.271800  0.704500  1.0  -0.1207
  C  C69  1  0.545400  0.193200  0.784000  1.0  -0.1251
  C  C70  1  0.486500  0.092900  0.762600  1.0  0.3978
  C  C71  1  0.461800  0.068600  0.651500  1.0  -0.1032
  C  C72  1  0.470700  0.146000  0.572900  1.0  -0.1113
  C  C73  1  0.699500  0.128900  0.543200  1.0  0.2544
  C  C74  1  0.772000  0.175200  0.737500  1.0  0.2884
  C  C75  1  0.684100  0.985300  0.690900  1.0  0.2704
  C  C76  1  0.759800  0.414700  0.522900  1.0  0.1926
  C  C77  1  0.877600  0.409300  0.525100  1.0  -0.1945
  C  C78  1  0.936100  0.500300  0.499400  1.0  0.0993
  C  C79  1  0.871500  0.591900  0.473800  1.0  -0.1933
  C  C80  1  0.754100  0.588700  0.473900  1.0  0.1946
  C  C81  1  0.493300  0.756100  0.902400  1.0  0.3833
  C  C82  1  0.446000  0.771800  0.795500  1.0  -0.1212
  C  C83  1  0.454600  0.693200  0.716000  1.0  -0.124
  C  C84  1  0.513500  0.592900  0.737400  1.0  0.3937
  C  C85  1  0.538200  0.568600  0.848500  1.0  -0.1026
  C  C86  1  0.529300  0.646000  0.927100  1.0  -0.113
  C  C87  1  0.300500  0.628900  0.956800  1.0  0.2546
  C  C88  1  0.228000  0.675200  0.762500  1.0  0.2907
  C  C89  1  0.315900  0.485300  0.809100  1.0  0.2691
  C  C90  1  0.240200  0.914700  0.977100  1.0  0.1925
  C  C91  1  0.122400  0.909300  0.974900  1.0  -0.1951
  C  C92  1  0.063900  0.000300  0.000600  1.0  0.0997
  C  C93  1  0.128500  0.091900  0.026200  1.0  -0.1939
  C  C94  1  0.245900  0.088700  0.026100  1.0  0.1943
  N  N95  1  0.303500  0.498100  0.502100  1.0  -0.3335
  N  N96  1  0.696500  0.998100  0.997900  1.0  -0.3318
  N  N97  1  0.696500  0.501900  0.497900  1.0  -0.3316
  N  N98  1  0.303500  0.001900  0.002100  1.0  -0.3335
  O  O99  1  0.495500  0.673100  0.475500  1.0  -0.5704
  O  O100  1  0.535600  0.975600  0.168400  1.0  -0.5632
  O  O101  1  0.267100  0.865800  0.536600  1.0  -0.217
  O  O102  1  0.146900  0.789200  0.215600  1.0  -0.2393
  O  O103  1  0.289900  0.103000  0.293300  1.0  -0.2148
  O  O104  1  0.504500  0.173100  0.024500  1.0  -0.5701
  O  O105  1  0.464400  0.475600  0.331600  1.0  -0.5659
  O  O106  1  0.732900  0.365800  0.963400  1.0  -0.2087
  O  O107  1  0.853100  0.289200  0.284400  1.0  -0.2427
  O  O108  1  0.710100  0.603000  0.206700  1.0  -0.2151
  O  O109  1  0.504500  0.326900  0.524500  1.0  -0.5696
  O  O110  1  0.464400  0.024400  0.831600  1.0  -0.5656
  O  O111  1  0.732900  0.134200  0.463400  1.0  -0.2075
  O  O112  1  0.853100  0.210800  0.784400  1.0  -0.2429
  O  O113  1  0.710100  0.897000  0.706700  1.0  -0.2152
  O  O114  1  0.495500  0.826900  0.975500  1.0  -0.5702
  O  O115  1  0.535600  0.524400  0.668400  1.0  -0.5634
  O  O116  1  0.267100  0.634200  0.036600  1.0  -0.2147
  O  O117  1  0.146900  0.710800  0.715600  1.0  -0.2394
  O  O118  1  0.289900  0.397000  0.793300  1.0  -0.2154
