# generated using pymatgen
data_CdH42C38(NO2)4
_symmetry_space_group_name_H-M   'P 1'
_cell_length_a   13.78180000
_cell_length_b   15.06170000
_cell_length_c   19.35550000
_cell_angle_alpha   90.00000000
_cell_angle_beta   90.00000000
_cell_angle_gamma   90.00000000
_symmetry_Int_Tables_number   1
_chemical_formula_structural   CdH42C38(NO2)4
_chemical_formula_sum   'Cd4 H168 C152 N16 O32'
_cell_volume   4017.76314746
_cell_formula_units_Z   4
loop_
 _symmetry_equiv_pos_site_id
 _symmetry_equiv_pos_as_xyz
  1  'x, y, z'
loop_
 _atom_site_type_symbol
 _atom_site_label
 _atom_site_symmetry_multiplicity
 _atom_site_fract_x
 _atom_site_fract_y
 _atom_site_fract_z
 _atom_site_occupancy
 _atom_site_charge
  Cd  Cd1  1  0.697680  0.860970  0.033700  1.0  0.8978
  Cd  Cd2  1  0.802320  0.139030  0.533700  1.0  0.8971
  Cd  Cd3  1  0.302320  0.360970  0.466300  1.0  0.8972
  Cd  Cd4  1  0.197680  0.639030  0.966300  1.0  0.8981
  H  H5  1  0.756000  0.965100  0.891800  1.0  0.3729
  H  H6  1  0.666100  0.908400  0.294500  1.0  0.1203
  H  H7  1  0.599600  0.793300  0.433300  1.0  0.3666
  H  H8  1  0.768200  0.827000  0.891200  1.0  0.0602
  H  H9  1  0.915400  0.788400  0.942400  1.0  0.0748
  H  H10  1  0.063900  0.871700  0.088500  1.0  0.0929
  H  H11  1  0.888900  0.939700  0.766000  1.0  0.1183
  H  H12  1  0.959400  0.885100  0.667900  1.0  0.0675
  H  H13  1  0.111700  0.942400  0.985800  1.0  0.055
  H  H14  1  0.831300  0.681500  0.895600  1.0  0.1221
  H  H15  1  0.963800  0.591300  0.686300  1.0  0.1209
  H  H16  1  0.004400  0.017500  0.065200  1.0  0.0723
  H  H17  1  0.998200  0.055400  0.989600  1.0  0.0881
  H  H18  1  0.848100  0.009100  0.976300  1.0  0.0706
  H  H19  1  0.846500  0.998900  0.057000  1.0  0.0664
  H  H20  1  0.695800  0.702300  0.380100  1.0  0.054
  H  H21  1  0.989100  0.949200  0.893800  1.0  0.0995
  H  H22  1  0.042200  0.856900  0.899200  1.0  0.0922
  H  H23  1  0.670900  0.935300  0.178600  1.0  0.076
  H  H24  1  0.800800  0.544900  0.111800  1.0  0.1131
  H  H25  1  0.766300  0.613000  0.309500  1.0  0.1075
  H  H26  1  0.926700  0.489800  0.769400  1.0  0.1059
  H  H27  1  0.755000  0.681300  0.077100  1.0  0.1041
  H  H28  1  0.910400  0.857400  0.104800  1.0  0.076
  H  H29  1  0.913000  0.772500  0.057900  1.0  0.0781
  H  H30  1  0.826100  0.481000  0.981200  1.0  0.0746
  H  H31  1  0.888500  0.567500  0.973700  1.0  0.0801
  H  H32  1  0.778200  0.568700  0.954000  1.0  0.064
  H  H33  1  0.879600  0.401100  0.288400  1.0  0.0861
  H  H34  1  0.917600  0.498100  0.300100  1.0  0.0557
  H  H35  1  0.814000  0.471000  0.326200  1.0  0.055
  H  H36  1  0.765700  0.877500  0.398100  1.0  0.0784
  H  H37  1  0.718000  0.753300  0.498400  1.0  0.0775
  H  H38  1  0.714100  0.857600  0.503500  1.0  0.0832
  H  H39  1  0.002600  0.838900  0.414800  1.0  0.0617
  H  H40  1  0.927600  0.910900  0.391200  1.0  0.074
  H  H41  1  0.844900  0.660900  0.421200  1.0  0.0554
  H  H42  1  0.956100  0.681700  0.414400  1.0  0.0546
  H  H43  1  0.968000  0.721300  0.523400  1.0  0.0762
  H  H44  1  0.868100  0.672100  0.533100  1.0  0.0835
  H  H45  1  0.843700  0.815400  0.574400  1.0  0.0598
  H  H46  1  0.977800  0.879600  0.519300  1.0  0.1004
  H  H47  1  0.744000  0.034900  0.391800  1.0  0.372
  H  H48  1  0.833900  0.091600  0.794500  1.0  0.1201
  H  H49  1  0.900400  0.206700  0.933300  1.0  0.3661
  H  H50  1  0.731800  0.173000  0.391200  1.0  0.0627
  H  H51  1  0.584600  0.211600  0.442400  1.0  0.0756
  H  H52  1  0.436100  0.128300  0.588500  1.0  0.0921
  H  H53  1  0.611100  0.060300  0.266000  1.0  0.1186
  H  H54  1  0.540600  0.114900  0.167900  1.0  0.0671
  H  H55  1  0.388300  0.057600  0.485800  1.0  0.0553
  H  H56  1  0.668700  0.318500  0.395600  1.0  0.1226
  H  H57  1  0.536200  0.408700  0.186300  1.0  0.1205
  H  H58  1  0.495600  0.982500  0.565200  1.0  0.0727
  H  H59  1  0.501800  0.944600  0.489600  1.0  0.0892
  H  H60  1  0.651900  0.990900  0.476300  1.0  0.0696
  H  H61  1  0.653500  0.001100  0.557000  1.0  0.0662
  H  H62  1  0.804200  0.297700  0.880100  1.0  0.0536
  H  H63  1  0.510900  0.050800  0.393800  1.0  0.0995
  H  H64  1  0.457800  0.143100  0.399200  1.0  0.0936
  H  H65  1  0.829100  0.064700  0.678600  1.0  0.0759
  H  H66  1  0.699200  0.455100  0.611800  1.0  0.1142
  H  H67  1  0.733700  0.387000  0.809500  1.0  0.1067
  H  H68  1  0.573300  0.510200  0.269400  1.0  0.1059
  H  H69  1  0.745000  0.318700  0.577100  1.0  0.1045
  H  H70  1  0.589600  0.142600  0.604800  1.0  0.0769
  H  H71  1  0.587000  0.227500  0.557900  1.0  0.0755
  H  H72  1  0.673900  0.519000  0.481200  1.0  0.0802
  H  H73  1  0.611500  0.432500  0.473700  1.0  0.0808
  H  H74  1  0.721800  0.431300  0.454000  1.0  0.0655
  H  H75  1  0.620400  0.598900  0.788400  1.0  0.0887
  H  H76  1  0.582400  0.501900  0.800100  1.0  0.0573
  H  H77  1  0.686000  0.529000  0.826200  1.0  0.0575
  H  H78  1  0.734300  0.122500  0.898100  1.0  0.0795
  H  H79  1  0.782000  0.246700  0.998400  1.0  0.0759
  H  H80  1  0.785900  0.142400  0.003500  1.0  0.0833
  H  H81  1  0.497400  0.161100  0.914800  1.0  0.0618
  H  H82  1  0.572400  0.089100  0.891200  1.0  0.0746
  H  H83  1  0.655100  0.339100  0.921200  1.0  0.0545
  H  H84  1  0.543900  0.318300  0.914400  1.0  0.0525
  H  H85  1  0.532000  0.278700  0.023400  1.0  0.0753
  H  H86  1  0.631900  0.327900  0.033100  1.0  0.0817
  H  H87  1  0.656300  0.184600  0.074400  1.0  0.0599
  H  H88  1  0.522200  0.120400  0.019300  1.0  0.1016
  H  H89  1  0.244000  0.465100  0.608200  1.0  0.3726
  H  H90  1  0.333900  0.408400  0.205500  1.0  0.1196
  H  H91  1  0.400400  0.293300  0.066700  1.0  0.3662
  H  H92  1  0.231800  0.327000  0.608800  1.0  0.0626
  H  H93  1  0.084600  0.288400  0.557600  1.0  0.0756
  H  H94  1  0.936100  0.371700  0.411500  1.0  0.0926
  H  H95  1  0.111100  0.439700  0.734000  1.0  0.1185
  H  H96  1  0.040600  0.385100  0.832100  1.0  0.0672
  H  H97  1  0.888300  0.442400  0.514200  1.0  0.0563
  H  H98  1  0.168700  0.181500  0.604400  1.0  0.1222
  H  H99  1  0.036200  0.091300  0.813700  1.0  0.1207
  H  H100  1  0.995600  0.517500  0.434800  1.0  0.072
  H  H101  1  0.001800  0.555400  0.510400  1.0  0.0894
  H  H102  1  0.151900  0.509100  0.523700  1.0  0.0692
  H  H103  1  0.153500  0.498900  0.443000  1.0  0.0665
  H  H104  1  0.304200  0.202300  0.119900  1.0  0.0532
  H  H105  1  0.010900  0.449200  0.606200  1.0  0.099
  H  H106  1  0.957800  0.356900  0.600800  1.0  0.0931
  H  H107  1  0.329100  0.435300  0.321400  1.0  0.0762
  H  H108  1  0.199200  0.044900  0.388200  1.0  0.1137
  H  H109  1  0.233700  0.113000  0.190500  1.0  0.1073
  H  H110  1  0.073300  0.989800  0.730600  1.0  0.1064
  H  H111  1  0.245000  0.181300  0.422900  1.0  0.1044
  H  H112  1  0.089600  0.357400  0.395200  1.0  0.0745
  H  H113  1  0.087000  0.272500  0.442100  1.0  0.0762
  H  H114  1  0.173900  0.981000  0.518800  1.0  0.0731
  H  H115  1  0.111500  0.067500  0.526300  1.0  0.0805
  H  H116  1  0.221800  0.068700  0.546000  1.0  0.066
  H  H117  1  0.120400  0.901100  0.211600  1.0  0.0858
  H  H118  1  0.082400  0.998100  0.199900  1.0  0.0636
  H  H119  1  0.186000  0.971000  0.173800  1.0  0.053
  H  H120  1  0.234300  0.377500  0.101900  1.0  0.0791
  H  H121  1  0.282000  0.253300  0.001600  1.0  0.0759
  H  H122  1  0.285900  0.357600  0.996500  1.0  0.0833
  H  H123  1  0.997400  0.338900  0.085200  1.0  0.0658
  H  H124  1  0.072400  0.410900  0.108800  1.0  0.0739
  H  H125  1  0.155100  0.160900  0.078800  1.0  0.0557
  H  H126  1  0.043900  0.181700  0.085600  1.0  0.055
  H  H127  1  0.032000  0.221300  0.976600  1.0  0.0749
  H  H128  1  0.131900  0.172100  0.966900  1.0  0.0824
  H  H129  1  0.156300  0.315400  0.925600  1.0  0.0605
  H  H130  1  0.022200  0.379600  0.980700  1.0  0.1025
  H  H131  1  0.256000  0.534900  0.108200  1.0  0.3718
  H  H132  1  0.166100  0.591600  0.705500  1.0  0.12
  H  H133  1  0.099600  0.706700  0.566700  1.0  0.3675
  H  H134  1  0.268200  0.673000  0.108800  1.0  0.0621
  H  H135  1  0.415400  0.711600  0.057600  1.0  0.0749
  H  H136  1  0.563900  0.628300  0.911500  1.0  0.0932
  H  H137  1  0.388900  0.560300  0.234000  1.0  0.1191
  H  H138  1  0.459400  0.614900  0.332100  1.0  0.0676
  H  H139  1  0.611700  0.557600  0.014200  1.0  0.0551
  H  H140  1  0.331300  0.818500  0.104400  1.0  0.1226
  H  H141  1  0.463800  0.908700  0.313700  1.0  0.1209
  H  H142  1  0.504400  0.482500  0.934800  1.0  0.0718
  H  H143  1  0.498200  0.444600  0.010400  1.0  0.0895
  H  H144  1  0.348100  0.490900  0.023700  1.0  0.0695
  H  H145  1  0.346500  0.501100  0.943000  1.0  0.0652
  H  H146  1  0.195800  0.797700  0.619900  1.0  0.0554
  H  H147  1  0.489100  0.550800  0.106200  1.0  0.1006
  H  H148  1  0.542200  0.643100  0.100800  1.0  0.0915
  H  H149  1  0.170900  0.564700  0.821400  1.0  0.0751
  H  H150  1  0.300800  0.955100  0.888200  1.0  0.1138
  H  H151  1  0.266300  0.887000  0.690500  1.0  0.1075
  H  H152  1  0.426700  0.010200  0.230600  1.0  0.1055
  H  H153  1  0.255000  0.818700  0.922900  1.0  0.1037
  H  H154  1  0.410400  0.642600  0.895200  1.0  0.0751
  H  H155  1  0.413000  0.727500  0.942100  1.0  0.0766
  H  H156  1  0.326100  0.019000  0.018800  1.0  0.0786
  H  H157  1  0.388500  0.932500  0.026300  1.0  0.0807
  H  H158  1  0.278200  0.931300  0.046000  1.0  0.0637
  H  H159  1  0.379600  0.098900  0.711600  1.0  0.0882
  H  H160  1  0.417600  0.001900  0.699900  1.0  0.0544
  H  H161  1  0.314000  0.029000  0.673800  1.0  0.0523
  H  H162  1  0.265700  0.622500  0.601900  1.0  0.0787
  H  H163  1  0.218000  0.746700  0.501600  1.0  0.0774
  H  H164  1  0.214100  0.642400  0.496500  1.0  0.0824
  H  H165  1  0.502600  0.661100  0.585200  1.0  0.0608
  H  H166  1  0.427600  0.589100  0.608800  1.0  0.0762
  H  H167  1  0.344900  0.839100  0.578800  1.0  0.0546
  H  H168  1  0.456100  0.818300  0.585600  1.0  0.0542
  H  H169  1  0.468000  0.778700  0.476600  1.0  0.0757
  H  H170  1  0.368100  0.827900  0.466900  1.0  0.0835
  H  H171  1  0.343700  0.684600  0.425600  1.0  0.0606
  H  H172  1  0.477800  0.620400  0.480700  1.0  0.101
  C  C173  1  0.682900  0.862600  0.264550  1.0  -0.1933
  C  C174  1  0.826800  0.860500  0.879190  1.0  0.1711
  C  C175  1  0.901200  0.852000  0.938110  1.0  0.07
  C  C176  1  0.704500  0.780200  0.290860  1.0  0.0705
  C  C177  1  0.927100  0.701400  0.741400  1.0  0.1924
  C  C178  1  0.034400  0.850900  0.045350  1.0  -0.2254
  C  C179  1  0.732500  0.734500  0.171830  1.0  0.2037
  C  C180  1  0.870000  0.822600  0.813950  1.0  0.0285
  C  C181  1  0.884600  0.729500  0.805070  1.0  0.0031
  C  C182  1  0.898300  0.878800  0.761510  1.0  -0.2134
  C  C183  1  0.940700  0.845000  0.701900  1.0  0.1672
  C  C184  1  0.043500  0.925800  0.992000  1.0  0.0652
  C  C185  1  0.859800  0.664500  0.854100  1.0  -0.2856
  C  C186  1  0.939600  0.610200  0.728700  1.0  -0.1264
  C  C187  1  0.985900  0.003700  0.018100  1.0  -0.199
  C  C188  1  0.878200  0.978910  0.015040  1.0  0.0103
  C  C189  1  0.693300  0.765870  0.369510  1.0  0.1782
  C  C190  1  0.876800  0.577500  0.841800  1.0  0.2791
  C  C191  1  0.733800  0.713500  0.243420  1.0  0.0013
  C  C192  1  0.999000  0.897700  0.923000  1.0  -0.2442
  C  C193  1  0.685700  0.878600  0.194160  1.0  0.1838
  C  C194  1  0.785300  0.587600  0.144700  1.0  -0.1655
  C  C195  1  0.764400  0.627900  0.262800  1.0  -0.26
  C  C196  1  0.916500  0.549800  0.777800  1.0  -0.1798
  C  C197  1  0.757600  0.668600  0.124100  1.0  -0.1409
  C  C198  1  0.791300  0.566300  0.214700  1.0  0.2788
  C  C199  1  0.926400  0.835700  0.059000  1.0  0.0351
  C  C200  1  0.091200  0.770000  0.021020  1.0  0.6658
  C  C201  1  0.836300  0.533600  0.954100  1.0  -0.0039
  C  C202  1  0.861400  0.462600  0.290400  1.0  0.0166
  C  C203  1  0.771500  0.814500  0.410130  1.0  0.0758
  C  C204  1  0.752800  0.807700  0.487980  1.0  -0.2516
  C  C205  1  0.935800  0.858200  0.419300  1.0  0.0689
  C  C206  1  0.894600  0.704800  0.430900  1.0  0.0456
  C  C207  1  0.900700  0.719800  0.508700  1.0  -0.2104
  C  C208  1  0.851900  0.807800  0.524400  1.0  0.0811
  C  C209  1  0.915600  0.881500  0.494700  1.0  -0.2386
  C  C210  1  0.871600  0.974000  0.506800  1.0  0.673
  C  C211  1  0.817100  0.137400  0.764550  1.0  -0.1926
  C  C212  1  0.673200  0.139500  0.379190  1.0  0.1713
  C  C213  1  0.598800  0.148000  0.438110  1.0  0.0715
  C  C214  1  0.795500  0.219800  0.790860  1.0  0.0708
  C  C215  1  0.572900  0.298600  0.241400  1.0  0.1925
  C  C216  1  0.465600  0.149100  0.545350  1.0  -0.2292
  C  C217  1  0.767500  0.265500  0.671830  1.0  0.2044
  C  C218  1  0.630000  0.177400  0.313950  1.0  0.029
  C  C219  1  0.615400  0.270500  0.305070  1.0  0.0033
  C  C220  1  0.601700  0.121200  0.261510  1.0  -0.2133
  C  C221  1  0.559300  0.155000  0.201900  1.0  0.1673
  C  C222  1  0.456500  0.074200  0.492000  1.0  0.066
  C  C223  1  0.640200  0.335500  0.354100  1.0  -0.2821
  C  C224  1  0.560400  0.389800  0.228700  1.0  -0.1269
  C  C225  1  0.514100  0.996300  0.518100  1.0  -0.1997
  C  C226  1  0.621800  0.021090  0.515040  1.0  0.0124
  C  C227  1  0.806700  0.234130  0.869510  1.0  0.1791
  C  C228  1  0.623200  0.422500  0.341800  1.0  0.2791
  C  C229  1  0.766200  0.286500  0.743420  1.0  0.0016
  C  C230  1  0.501000  0.102300  0.423000  1.0  -0.2436
  C  C231  1  0.814300  0.121400  0.694160  1.0  0.1845
  C  C232  1  0.714700  0.412400  0.644700  1.0  -0.1663
  C  C233  1  0.735600  0.372100  0.762800  1.0  -0.2598
  C  C234  1  0.583500  0.450200  0.277800  1.0  -0.1785
  C  C235  1  0.742400  0.331400  0.624100  1.0  -0.1412
  C  C236  1  0.708700  0.433700  0.714700  1.0  0.2799
  C  C237  1  0.573600  0.164300  0.559000  1.0  0.0344
  C  C238  1  0.408800  0.230000  0.521020  1.0  0.6651
  C  C239  1  0.663700  0.466400  0.454100  1.0  -0.0041
  C  C240  1  0.638600  0.537400  0.790400  1.0  0.0167
  C  C241  1  0.728500  0.185500  0.910130  1.0  0.0761
  C  C242  1  0.747200  0.192300  0.987980  1.0  -0.2508
  C  C243  1  0.564200  0.141800  0.919300  1.0  0.0667
  C  C244  1  0.605400  0.295200  0.930900  1.0  0.0466
  C  C245  1  0.599300  0.280200  0.008700  1.0  -0.2123
  C  C246  1  0.648100  0.192200  0.024400  1.0  0.0808
  C  C247  1  0.584400  0.118500  0.994700  1.0  -0.2443
  C  C248  1  0.628400  0.026000  0.006800  1.0  0.673
  C  C249  1  0.317100  0.362600  0.235450  1.0  -0.1923
  C  C250  1  0.173200  0.360500  0.620810  1.0  0.1705
  C  C251  1  0.098800  0.352000  0.561890  1.0  0.0708
  C  C252  1  0.295500  0.280200  0.209140  1.0  0.0706
  C  C253  1  0.072900  0.201400  0.758600  1.0  0.1917
  C  C254  1  0.965600  0.350900  0.454650  1.0  -0.2283
  C  C255  1  0.267500  0.234500  0.328170  1.0  0.204
  C  C256  1  0.130000  0.322600  0.686050  1.0  0.0323
  C  C257  1  0.115400  0.229500  0.694930  1.0  0.0037
  C  C258  1  0.101700  0.378800  0.738490  1.0  -0.2118
  C  C259  1  0.059300  0.345000  0.798100  1.0  0.167
  C  C260  1  0.956500  0.425800  0.508000  1.0  0.0656
  C  C261  1  0.140200  0.164500  0.645900  1.0  -0.2801
  C  C262  1  0.060400  0.110200  0.771300  1.0  -0.1251
  C  C263  1  0.014100  0.503700  0.481900  1.0  -0.1984
  C  C264  1  0.121800  0.478910  0.484960  1.0  0.0131
  C  C265  1  0.306700  0.265870  0.130490  1.0  0.1769
  C  C266  1  0.123200  0.077500  0.658200  1.0  0.2789
  C  C267  1  0.266200  0.213500  0.256580  1.0  0.0019
  C  C268  1  0.001000  0.397700  0.577000  1.0  -0.2441
  C  C269  1  0.314300  0.378600  0.305840  1.0  0.1848
  C  C270  1  0.214700  0.087600  0.355300  1.0  -0.1654
  C  C271  1  0.235600  0.127900  0.237200  1.0  -0.2574
  C  C272  1  0.083500  0.049800  0.722200  1.0  -0.18
  C  C273  1  0.242400  0.168600  0.375900  1.0  -0.1401
  C  C274  1  0.208700  0.066300  0.285300  1.0  0.2796
  C  C275  1  0.073600  0.335700  0.441000  1.0  0.034
  C  C276  1  0.908800  0.270000  0.478980  1.0  0.6661
  C  C277  1  0.163700  0.033600  0.545900  1.0  -0.0038
  C  C278  1  0.138600  0.962600  0.209600  1.0  0.0164
  C  C279  1  0.228500  0.314500  0.089870  1.0  0.0764
  C  C280  1  0.247200  0.307700  0.012020  1.0  -0.2496
  C  C281  1  0.064200  0.358200  0.080700  1.0  0.0678
  C  C282  1  0.105400  0.204800  0.069100  1.0  0.0467
  C  C283  1  0.099300  0.219800  0.991300  1.0  -0.2094
  C  C284  1  0.148100  0.307800  0.975600  1.0  0.0815
  C  C285  1  0.084400  0.381500  0.005300  1.0  -0.2452
  C  C286  1  0.128400  0.474000  0.993200  1.0  0.6743
  C  C287  1  0.182900  0.637400  0.735450  1.0  -0.1929
  C  C288  1  0.326800  0.639500  0.120810  1.0  0.1711
  C  C289  1  0.401200  0.648000  0.061890  1.0  0.0712
  C  C290  1  0.204500  0.719800  0.709140  1.0  0.0697
  C  C291  1  0.427100  0.798600  0.258600  1.0  0.1916
  C  C292  1  0.534400  0.649100  0.954650  1.0  -0.2241
  C  C293  1  0.232500  0.765500  0.828170  1.0  0.2039
  C  C294  1  0.370000  0.677400  0.186050  1.0  0.0308
  C  C295  1  0.384600  0.770500  0.194930  1.0  0.0039
  C  C296  1  0.398300  0.621200  0.238490  1.0  -0.2131
  C  C297  1  0.440700  0.655000  0.298100  1.0  0.1674
  C  C298  1  0.543500  0.574200  0.008000  1.0  0.0654
  C  C299  1  0.359800  0.835500  0.145900  1.0  -0.283
  C  C300  1  0.439600  0.889800  0.271300  1.0  -0.125
  C  C301  1  0.485900  0.496300  0.981900  1.0  -0.1995
  C  C302  1  0.378200  0.521090  0.984960  1.0  0.0116
  C  C303  1  0.193300  0.734130  0.630490  1.0  0.1775
  C  C304  1  0.376800  0.922500  0.158200  1.0  0.2786
  C  C305  1  0.233800  0.786500  0.756580  1.0  0.0015
  C  C306  1  0.499000  0.602300  0.077000  1.0  -0.2449
  C  C307  1  0.185700  0.621400  0.805840  1.0  0.1839
  C  C308  1  0.285300  0.912400  0.855300  1.0  -0.1648
  C  C309  1  0.264400  0.872100  0.737200  1.0  -0.2563
  C  C310  1  0.416500  0.950200  0.222200  1.0  -0.1786
  C  C311  1  0.257600  0.831400  0.875900  1.0  -0.1403
  C  C312  1  0.291300  0.933700  0.785300  1.0  0.2781
  C  C313  1  0.426400  0.664300  0.941000  1.0  0.037
  C  C314  1  0.591200  0.730000  0.978980  1.0  0.6658
  C  C315  1  0.336300  0.966400  0.045900  1.0  -0.0043
  C  C316  1  0.361400  0.037400  0.709600  1.0  0.0168
  C  C317  1  0.271500  0.685500  0.589870  1.0  0.0759
  C  C318  1  0.252800  0.692300  0.512020  1.0  -0.2491
  C  C319  1  0.435800  0.641800  0.580700  1.0  0.0672
  C  C320  1  0.394600  0.795200  0.569100  1.0  0.0454
  C  C321  1  0.400700  0.780200  0.491300  1.0  -0.2097
  C  C322  1  0.351900  0.692200  0.475600  1.0  0.0809
  C  C323  1  0.415600  0.618500  0.505300  1.0  -0.239
  C  C324  1  0.371600  0.526000  0.493200  1.0  0.6731
  N  N325  1  0.708200  0.817700  0.148230  1.0  -0.4124
  N  N326  1  0.956300  0.759100  0.690230  1.0  -0.3777
  N  N327  1  0.864000  0.881190  0.007370  1.0  -0.2872
  N  N328  1  0.871400  0.788100  0.393490  1.0  -0.3851
  N  N329  1  0.791800  0.182300  0.648230  1.0  -0.4127
  N  N330  1  0.543700  0.240900  0.190230  1.0  -0.3773
  N  N331  1  0.636000  0.118810  0.507370  1.0  -0.2872
  N  N332  1  0.628600  0.211900  0.893490  1.0  -0.3861
  N  N333  1  0.291800  0.317700  0.351770  1.0  -0.408
  N  N334  1  0.043700  0.259100  0.809770  1.0  -0.3785
  N  N335  1  0.136000  0.381190  0.492630  1.0  -0.2881
  N  N336  1  0.128600  0.288100  0.106510  1.0  -0.3858
  N  N337  1  0.208200  0.682300  0.851770  1.0  -0.4067
  N  N338  1  0.456300  0.740900  0.309770  1.0  -0.3792
  N  N339  1  0.364000  0.618810  0.992630  1.0  -0.287
  N  N340  1  0.371400  0.711900  0.606510  1.0  -0.3865
  O  O341  1  0.801200  0.950940  0.866550  1.0  -0.57
  O  O342  1  0.605400  0.801100  0.391600  1.0  -0.5441
  O  O343  1  0.859600  0.509800  0.886880  1.0  -0.2689
  O  O344  1  0.825000  0.486200  0.232000  1.0  -0.2481
  O  O345  1  0.181620  0.771410  0.027080  1.0  -0.6158
  O  O346  1  0.048300  0.707570  0.992140  1.0  -0.5998
  O  O347  1  0.848200  0.021620  0.456480  1.0  -0.6168
  O  O348  1  0.860700  0.999630  0.567650  1.0  -0.6096
  O  O349  1  0.698800  0.049060  0.366550  1.0  -0.5706
  O  O350  1  0.894600  0.198900  0.891600  1.0  -0.5452
  O  O351  1  0.640400  0.490200  0.386880  1.0  -0.2692
  O  O352  1  0.675000  0.513800  0.732000  1.0  -0.2481
  O  O353  1  0.318380  0.228590  0.527080  1.0  -0.6142
  O  O354  1  0.451700  0.292430  0.492140  1.0  -0.598
  O  O355  1  0.651800  0.978380  0.956480  1.0  -0.6177
  O  O356  1  0.639300  0.000370  0.067650  1.0  -0.6099
  O  O357  1  0.198800  0.450940  0.633450  1.0  -0.5715
  O  O358  1  0.394600  0.301100  0.108400  1.0  -0.5433
  O  O359  1  0.140400  0.009800  0.613120  1.0  -0.2701
  O  O360  1  0.175000  0.986200  0.268000  1.0  -0.25
  O  O361  1  0.818380  0.271410  0.472920  1.0  -0.6148
  O  O362  1  0.951700  0.207570  0.507860  1.0  -0.6023
  O  O363  1  0.151800  0.521620  0.043520  1.0  -0.6168
  O  O364  1  0.139300  0.499630  0.932350  1.0  -0.608
  O  O365  1  0.301200  0.549060  0.133450  1.0  -0.5696
  O  O366  1  0.105400  0.698900  0.608400  1.0  -0.5437
  O  O367  1  0.359600  0.990200  0.113120  1.0  -0.2689
  O  O368  1  0.325000  0.013800  0.768000  1.0  -0.251
  O  O369  1  0.681620  0.728590  0.972920  1.0  -0.6152
  O  O370  1  0.548300  0.792430  0.007860  1.0  -0.5982
  O  O371  1  0.348200  0.478380  0.543520  1.0  -0.6162
  O  O372  1  0.360700  0.500370  0.432350  1.0  -0.6086
