# generated using pymatgen
data_CdH42C38(NO2)4
_symmetry_space_group_name_H-M   'P 1'
_cell_length_a   13.87560000
_cell_length_b   15.11620000
_cell_length_c   19.29990000
_cell_angle_alpha   90.00000000
_cell_angle_beta   90.00000000
_cell_angle_gamma   90.00000000
_symmetry_Int_Tables_number   1
_chemical_formula_structural   CdH42C38(NO2)4
_chemical_formula_sum   'Cd4 H168 C152 N16 O32'
_cell_volume   4048.08347846
_cell_formula_units_Z   4
loop_
 _symmetry_equiv_pos_site_id
 _symmetry_equiv_pos_as_xyz
  1  'x, y, z'
loop_
 _atom_site_type_symbol
 _atom_site_label
 _atom_site_symmetry_multiplicity
 _atom_site_fract_x
 _atom_site_fract_y
 _atom_site_fract_z
 _atom_site_occupancy
 _atom_site_charge
  Cd  Cd1  1  0.197360  0.860480  0.032810  1.0  0.9037
  Cd  Cd2  1  0.302640  0.139520  0.532810  1.0  0.9022
  Cd  Cd3  1  0.802640  0.360480  0.467190  1.0  0.902
  Cd  Cd4  1  0.697360  0.639520  0.967190  1.0  0.904
  H  H5  1  0.259600  0.967800  0.892600  1.0  0.3756
  H  H6  1  0.270300  0.830200  0.891600  1.0  0.0609
  H  H7  1  0.415600  0.789100  0.942700  1.0  0.0716
  H  H8  1  0.408600  0.854800  0.106700  1.0  0.0792
  H  H9  1  0.411300  0.771200  0.058800  1.0  0.0814
  H  H10  1  0.158200  0.904800  0.295800  1.0  0.1177
  H  H11  1  0.389700  0.942400  0.767400  1.0  0.1235
  H  H12  1  0.197500  0.700400  0.380000  1.0  0.0547
  H  H13  1  0.541500  0.854600  0.902900  1.0  0.0904
  H  H14  1  0.490500  0.947000  0.896300  1.0  0.0966
  H  H15  1  0.164100  0.932000  0.177400  1.0  0.0809
  H  H16  1  0.346600  0.009300  0.982300  1.0  0.0673
  H  H17  1  0.346900  0.995400  0.062900  1.0  0.0666
  H  H18  1  0.332500  0.683800  0.894600  1.0  0.1213
  H  H19  1  0.263000  0.877800  0.396600  1.0  0.0795
  H  H20  1  0.300400  0.545000  0.111400  1.0  0.1148
  H  H21  1  0.262500  0.612500  0.310100  1.0  0.1125
  H  H22  1  0.460500  0.887100  0.667300  1.0  0.0643
  H  H23  1  0.462000  0.595500  0.684500  1.0  0.115
  H  H24  1  0.253500  0.680400  0.076300  1.0  0.101
  H  H25  1  0.499200  0.837400  0.414700  1.0  0.0615
  H  H26  1  0.425800  0.910000  0.390200  1.0  0.0748
  H  H27  1  0.424900  0.493400  0.767300  1.0  0.1225
  H  H28  1  0.329400  0.482800  0.981000  1.0  0.0707
  H  H29  1  0.391600  0.568800  0.973300  1.0  0.0815
  H  H30  1  0.281400  0.570700  0.955200  1.0  0.0634
  H  H31  1  0.097900  0.789200  0.434800  1.0  0.3694
  H  H32  1  0.215000  0.754100  0.499400  1.0  0.0823
  H  H33  1  0.211700  0.857900  0.504900  1.0  0.0846
  H  H34  1  0.341200  0.815800  0.575800  1.0  0.067
  H  H35  1  0.461400  0.719900  0.525700  1.0  0.0791
  H  H36  1  0.360800  0.672800  0.533400  1.0  0.0832
  H  H37  1  0.474200  0.879900  0.518500  1.0  0.1039
  H  H38  1  0.343700  0.660400  0.419900  1.0  0.0596
  H  H39  1  0.453500  0.684300  0.414500  1.0  0.0551
  H  H40  1  0.610400  0.940700  0.988500  1.0  0.0556
  H  H41  1  0.563200  0.868000  0.092300  1.0  0.0983
  H  H42  1  0.505400  0.015500  0.069500  1.0  0.077
  H  H43  1  0.498100  0.054300  0.994000  1.0  0.0846
  H  H44  1  0.368100  0.403600  0.284200  1.0  0.0801
  H  H45  1  0.401500  0.500700  0.299300  1.0  0.0397
  H  H46  1  0.296700  0.470900  0.318600  1.0  0.0329
  H  H47  1  0.240400  0.032200  0.392600  1.0  0.3761
  H  H48  1  0.229700  0.169800  0.391600  1.0  0.064
  H  H49  1  0.084400  0.210900  0.442700  1.0  0.0718
  H  H50  1  0.091400  0.145200  0.606700  1.0  0.0801
  H  H51  1  0.088700  0.228800  0.558800  1.0  0.0778
  H  H52  1  0.341800  0.095200  0.795800  1.0  0.118
  H  H53  1  0.110300  0.057600  0.267400  1.0  0.1236
  H  H54  1  0.302500  0.299600  0.880000  1.0  0.0544
  H  H55  1  0.958500  0.145400  0.402900  1.0  0.0914
  H  H56  1  0.009500  0.053000  0.396300  1.0  0.0962
  H  H57  1  0.335900  0.068000  0.677400  1.0  0.0807
  H  H58  1  0.153400  0.990700  0.482300  1.0  0.0669
  H  H59  1  0.153100  0.004600  0.562900  1.0  0.067
  H  H60  1  0.167500  0.316200  0.394600  1.0  0.1213
  H  H61  1  0.237000  0.122200  0.896600  1.0  0.0796
  H  H62  1  0.199600  0.455000  0.611400  1.0  0.1157
  H  H63  1  0.237500  0.387500  0.810100  1.0  0.1121
  H  H64  1  0.039500  0.112900  0.167300  1.0  0.0643
  H  H65  1  0.038000  0.404500  0.184500  1.0  0.1148
  H  H66  1  0.246500  0.319600  0.576300  1.0  0.1015
  H  H67  1  0.000800  0.162600  0.914700  1.0  0.0648
  H  H68  1  0.074200  0.090000  0.890200  1.0  0.0743
  H  H69  1  0.075100  0.506600  0.267300  1.0  0.1234
  H  H70  1  0.170600  0.517200  0.481000  1.0  0.0736
  H  H71  1  0.108400  0.431200  0.473300  1.0  0.0823
  H  H72  1  0.218600  0.429300  0.455200  1.0  0.0641
  H  H73  1  0.402100  0.210800  0.934800  1.0  0.3699
  H  H74  1  0.285000  0.245900  0.999400  1.0  0.0815
  H  H75  1  0.288300  0.142100  0.004900  1.0  0.0849
  H  H76  1  0.158800  0.184200  0.075800  1.0  0.0669
  H  H77  1  0.038600  0.280100  0.025700  1.0  0.0779
  H  H78  1  0.139200  0.327200  0.033400  1.0  0.0816
  H  H79  1  0.025800  0.120100  0.018500  1.0  0.1049
  H  H80  1  0.156300  0.339600  0.919900  1.0  0.0565
  H  H81  1  0.046500  0.315700  0.914500  1.0  0.0518
  H  H82  1  0.889600  0.059300  0.488500  1.0  0.0557
  H  H83  1  0.936800  0.132000  0.592300  1.0  0.0969
  H  H84  1  0.994600  0.984500  0.569500  1.0  0.0772
  H  H85  1  0.001900  0.945700  0.494000  1.0  0.0865
  H  H86  1  0.131900  0.596400  0.784200  1.0  0.0763
  H  H87  1  0.098500  0.499300  0.799300  1.0  0.0454
  H  H88  1  0.203300  0.529100  0.818600  1.0  0.0302
  H  H89  1  0.740400  0.467800  0.607400  1.0  0.3773
  H  H90  1  0.729700  0.330200  0.608400  1.0  0.0635
  H  H91  1  0.584400  0.289100  0.557300  1.0  0.0725
  H  H92  1  0.591400  0.354800  0.393300  1.0  0.0771
  H  H93  1  0.588700  0.271200  0.441200  1.0  0.0787
  H  H94  1  0.841800  0.404800  0.204200  1.0  0.1173
  H  H95  1  0.610300  0.442400  0.732600  1.0  0.124
  H  H96  1  0.802500  0.200400  0.120000  1.0  0.0544
  H  H97  1  0.458500  0.354600  0.597100  1.0  0.0917
  H  H98  1  0.509500  0.447000  0.603700  1.0  0.0957
  H  H99  1  0.835900  0.432000  0.322600  1.0  0.0805
  H  H100  1  0.653400  0.509300  0.517700  1.0  0.0676
  H  H101  1  0.653100  0.495400  0.437100  1.0  0.0669
  H  H102  1  0.667500  0.183800  0.605400  1.0  0.1216
  H  H103  1  0.737000  0.377800  0.103400  1.0  0.0795
  H  H104  1  0.699600  0.045000  0.388600  1.0  0.1152
  H  H105  1  0.737500  0.112500  0.189900  1.0  0.1127
  H  H106  1  0.539500  0.387100  0.832700  1.0  0.0643
  H  H107  1  0.538000  0.095500  0.815500  1.0  0.1146
  H  H108  1  0.746500  0.180400  0.423700  1.0  0.1018
  H  H109  1  0.500800  0.337400  0.085300  1.0  0.069
  H  H110  1  0.574200  0.410000  0.109800  1.0  0.0745
  H  H111  1  0.575100  0.993400  0.732700  1.0  0.1228
  H  H112  1  0.670600  0.982800  0.519000  1.0  0.0713
  H  H113  1  0.608400  0.068800  0.526700  1.0  0.0818
  H  H114  1  0.718600  0.070700  0.544800  1.0  0.0645
  H  H115  1  0.902100  0.289200  0.065200  1.0  0.3699
  H  H116  1  0.785000  0.254100  0.000600  1.0  0.0815
  H  H117  1  0.788300  0.357900  0.995100  1.0  0.0846
  H  H118  1  0.658800  0.315800  0.924200  1.0  0.0675
  H  H119  1  0.538600  0.219900  0.974300  1.0  0.0772
  H  H120  1  0.639200  0.172800  0.966600  1.0  0.0822
  H  H121  1  0.525800  0.379900  0.981500  1.0  0.1056
  H  H122  1  0.656300  0.160400  0.080100  1.0  0.0588
  H  H123  1  0.546500  0.184300  0.085500  1.0  0.054
  H  H124  1  0.389600  0.440700  0.511500  1.0  0.0565
  H  H125  1  0.436800  0.368000  0.407700  1.0  0.0988
  H  H126  1  0.494600  0.515500  0.430500  1.0  0.0765
  H  H127  1  0.501900  0.554300  0.506000  1.0  0.0863
  H  H128  1  0.631900  0.903600  0.215800  1.0  0.0756
  H  H129  1  0.598500  0.000700  0.200700  1.0  0.0535
  H  H130  1  0.703300  0.970900  0.181400  1.0  0.0292
  H  H131  1  0.759600  0.532200  0.107400  1.0  0.3755
  H  H132  1  0.770300  0.669800  0.108400  1.0  0.0628
  H  H133  1  0.915600  0.710900  0.057300  1.0  0.0713
  H  H134  1  0.908600  0.645200  0.893300  1.0  0.0771
  H  H135  1  0.911300  0.728800  0.941200  1.0  0.0788
  H  H136  1  0.658200  0.595200  0.704200  1.0  0.1174
  H  H137  1  0.889700  0.557600  0.232600  1.0  0.1237
  H  H138  1  0.697500  0.799600  0.620000  1.0  0.0555
  H  H139  1  0.041500  0.645400  0.097100  1.0  0.0903
  H  H140  1  0.990500  0.553000  0.103700  1.0  0.0966
  H  H141  1  0.664100  0.568000  0.822600  1.0  0.0801
  H  H142  1  0.846600  0.490700  0.017700  1.0  0.0675
  H  H143  1  0.846900  0.504600  0.937100  1.0  0.0656
  H  H144  1  0.832500  0.816200  0.105400  1.0  0.1218
  H  H145  1  0.763000  0.622200  0.603400  1.0  0.08
  H  H146  1  0.800400  0.955000  0.888600  1.0  0.1154
  H  H147  1  0.762500  0.887500  0.689900  1.0  0.1127
  H  H148  1  0.960500  0.612900  0.332700  1.0  0.0647
  H  H149  1  0.962000  0.904500  0.315500  1.0  0.1149
  H  H150  1  0.753500  0.819600  0.923700  1.0  0.1013
  H  H151  1  0.999200  0.662600  0.585300  1.0  0.0615
  H  H152  1  0.925800  0.590000  0.609800  1.0  0.0761
  H  H153  1  0.924900  0.006600  0.232700  1.0  0.1229
  H  H154  1  0.829400  0.017200  0.019000  1.0  0.0746
  H  H155  1  0.891600  0.931200  0.026700  1.0  0.0825
  H  H156  1  0.781400  0.929300  0.044800  1.0  0.0637
  H  H157  1  0.597900  0.710800  0.565200  1.0  0.37
  H  H158  1  0.715000  0.745900  0.500600  1.0  0.0822
  H  H159  1  0.711700  0.642100  0.495100  1.0  0.0844
  H  H160  1  0.841200  0.684200  0.424200  1.0  0.0678
  H  H161  1  0.961400  0.780100  0.474300  1.0  0.0783
  H  H162  1  0.860800  0.827200  0.466600  1.0  0.0825
  H  H163  1  0.974200  0.620100  0.481500  1.0  0.1048
  H  H164  1  0.843700  0.839600  0.580100  1.0  0.0575
  H  H165  1  0.953500  0.815700  0.585500  1.0  0.0556
  H  H166  1  0.110400  0.559300  0.011500  1.0  0.0554
  H  H167  1  0.063200  0.632000  0.907700  1.0  0.0991
  H  H168  1  0.005400  0.484500  0.930500  1.0  0.0759
  H  H169  1  0.998100  0.445700  0.006000  1.0  0.0875
  H  H170  1  0.868100  0.096400  0.715800  1.0  0.0758
  H  H171  1  0.901500  0.999300  0.700700  1.0  0.0397
  H  H172  1  0.796700  0.029100  0.681400  1.0  0.0326
  C  C173  1  0.329000  0.863200  0.880100  1.0  0.163
  C  C174  1  0.200600  0.778200  0.290800  1.0  0.0609
  C  C175  1  0.402600  0.852700  0.939300  1.0  0.0638
  C  C176  1  0.425100  0.834100  0.060700  1.0  0.0253
  C  C177  1  0.427800  0.704400  0.740300  1.0  0.1883
  C  C178  1  0.176700  0.859900  0.265600  1.0  -0.1898
  C  C179  1  0.384700  0.732800  0.804600  1.0  0.0034
  C  C180  1  0.371900  0.826300  0.813500  1.0  0.0351
  C  C181  1  0.398900  0.881800  0.762600  1.0  -0.2086
  C  C182  1  0.192500  0.763600  0.369300  1.0  0.1749
  C  C183  1  0.498800  0.895900  0.926100  1.0  -0.239
  C  C184  1  0.180300  0.875900  0.193300  1.0  0.1861
  C  C185  1  0.228500  0.732300  0.170700  1.0  0.1994
  C  C186  1  0.377500  0.977600  0.019900  1.0  0.0065
  C  C187  1  0.360900  0.667400  0.852800  1.0  -0.2727
  C  C188  1  0.230000  0.710800  0.242800  1.0  0.0084
  C  C189  1  0.268900  0.815300  0.409600  1.0  0.07
  C  C190  1  0.283300  0.587200  0.144300  1.0  -0.1615
  C  C191  1  0.260400  0.627000  0.263300  1.0  -0.2576
  C  C192  1  0.287400  0.565800  0.214400  1.0  0.2705
  C  C193  1  0.441600  0.847300  0.701400  1.0  0.1763
  C  C194  1  0.438700  0.614100  0.727300  1.0  -0.1241
  C  C195  1  0.255200  0.667600  0.123500  1.0  -0.1319
  C  C196  1  0.433100  0.857700  0.418800  1.0  0.0542
  C  C197  1  0.377900  0.582100  0.840300  1.0  0.2812
  C  C198  1  0.415900  0.553400  0.775900  1.0  -0.1841
  C  C199  1  0.339000  0.535500  0.954100  1.0  -0.0004
  C  C200  1  0.249900  0.808100  0.489100  1.0  -0.2498
  C  C201  1  0.348700  0.807500  0.525700  1.0  0.068
  C  C202  1  0.395000  0.720000  0.509800  1.0  -0.2186
  C  C203  1  0.412400  0.881500  0.494000  1.0  -0.2528
  C  C204  1  0.368800  0.973100  0.506600  1.0  0.666
  C  C205  1  0.391300  0.705500  0.430400  1.0  0.0477
  C  C206  1  0.542600  0.924300  0.994900  1.0  0.0552
  C  C207  1  0.534100  0.848200  0.048700  1.0  -0.2381
  C  C208  1  0.486100  0.002400  0.022300  1.0  -0.1993
  C  C209  1  0.588800  0.766700  0.023300  1.0  0.6621
  C  C210  1  0.348100  0.464300  0.285700  1.0  0.0309
  C  C211  1  0.171000  0.136800  0.380100  1.0  0.1639
  C  C212  1  0.299400  0.221800  0.790800  1.0  0.059
  C  C213  1  0.097400  0.147300  0.439300  1.0  0.0646
  C  C214  1  0.074900  0.165900  0.560700  1.0  0.0241
  C  C215  1  0.072200  0.295600  0.240300  1.0  0.1883
  C  C216  1  0.323300  0.140100  0.765600  1.0  -0.1899
  C  C217  1  0.115300  0.267200  0.304600  1.0  0.0035
  C  C218  1  0.128100  0.173700  0.313500  1.0  0.0364
  C  C219  1  0.101100  0.118200  0.262600  1.0  -0.2086
  C  C220  1  0.307500  0.236400  0.869300  1.0  0.176
  C  C221  1  0.001200  0.104100  0.426100  1.0  -0.2393
  C  C222  1  0.319700  0.124100  0.693300  1.0  0.1877
  C  C223  1  0.271500  0.267700  0.670700  1.0  0.1998
  C  C224  1  0.122500  0.022400  0.519900  1.0  0.0073
  C  C225  1  0.139100  0.332600  0.352800  1.0  -0.2704
  C  C226  1  0.270000  0.289200  0.742800  1.0  0.0087
  C  C227  1  0.231100  0.184700  0.909600  1.0  0.0695
  C  C228  1  0.216700  0.412800  0.644300  1.0  -0.1617
  C  C229  1  0.239600  0.373000  0.763300  1.0  -0.2578
  C  C230  1  0.212600  0.434200  0.714400  1.0  0.2697
  C  C231  1  0.058400  0.152700  0.201400  1.0  0.1763
  C  C232  1  0.061300  0.385900  0.227300  1.0  -0.1252
  C  C233  1  0.244800  0.332400  0.623500  1.0  -0.1322
  C  C234  1  0.066900  0.142300  0.918800  1.0  0.0506
  C  C235  1  0.122100  0.417900  0.340300  1.0  0.2816
  C  C236  1  0.084100  0.446600  0.275900  1.0  -0.1835
  C  C237  1  0.161000  0.464500  0.454100  1.0  -0.0016
  C  C238  1  0.250100  0.191900  0.989100  1.0  -0.2495
  C  C239  1  0.151300  0.192500  0.025700  1.0  0.0679
  C  C240  1  0.105000  0.280000  0.009800  1.0  -0.2197
  C  C241  1  0.087600  0.118500  0.994000  1.0  -0.2555
  C  C242  1  0.131200  0.026900  0.006600  1.0  0.6662
  C  C243  1  0.108700  0.294500  0.930400  1.0  0.0488
  C  C244  1  0.957400  0.075700  0.494900  1.0  0.056
  C  C245  1  0.965900  0.151800  0.548700  1.0  -0.2396
  C  C246  1  0.013900  0.997600  0.522300  1.0  -0.1994
  C  C247  1  0.911200  0.233300  0.523300  1.0  0.6615
  C  C248  1  0.151900  0.535700  0.785700  1.0  0.0316
  C  C249  1  0.671000  0.363200  0.619900  1.0  0.1623
  C  C250  1  0.799400  0.278200  0.209200  1.0  0.0577
  C  C251  1  0.597400  0.352700  0.560700  1.0  0.064
  C  C252  1  0.574900  0.334100  0.439300  1.0  0.0227
  C  C253  1  0.572200  0.204400  0.759700  1.0  0.1881
  C  C254  1  0.823300  0.359900  0.234400  1.0  -0.1897
  C  C255  1  0.615300  0.232800  0.695400  1.0  0.0034
  C  C256  1  0.628100  0.326300  0.686500  1.0  0.037
  C  C257  1  0.601100  0.381800  0.737400  1.0  -0.2082
  C  C258  1  0.807500  0.263600  0.130700  1.0  0.1743
  C  C259  1  0.501200  0.395900  0.573900  1.0  -0.2408
  C  C260  1  0.819700  0.375900  0.306700  1.0  0.1874
  C  C261  1  0.771500  0.232300  0.329300  1.0  0.1994
  C  C262  1  0.622500  0.477600  0.480100  1.0  0.0068
  C  C263  1  0.639100  0.167400  0.647200  1.0  -0.2705
  C  C264  1  0.770000  0.210800  0.257200  1.0  0.0092
  C  C265  1  0.731100  0.315300  0.090400  1.0  0.0703
  C  C266  1  0.716700  0.087200  0.355700  1.0  -0.1611
  C  C267  1  0.739600  0.127000  0.236700  1.0  -0.2534
  C  C268  1  0.712600  0.065800  0.285600  1.0  0.2702
  C  C269  1  0.558400  0.347300  0.798600  1.0  0.1765
  C  C270  1  0.561300  0.114100  0.772700  1.0  -0.1244
  C  C271  1  0.744800  0.167600  0.376500  1.0  -0.1319
  C  C272  1  0.566900  0.357700  0.081200  1.0  0.0516
  C  C273  1  0.622100  0.082100  0.659700  1.0  0.2818
  C  C274  1  0.584100  0.053400  0.724100  1.0  -0.1838
  C  C275  1  0.661000  0.035500  0.545900  1.0  -0.0012
  C  C276  1  0.750100  0.308100  0.010900  1.0  -0.2483
  C  C277  1  0.651300  0.307500  0.974300  1.0  0.0682
  C  C278  1  0.605000  0.220000  0.990200  1.0  -0.2178
  C  C279  1  0.587600  0.381500  0.006000  1.0  -0.2562
  C  C280  1  0.631200  0.473100  0.993400  1.0  0.6676
  C  C281  1  0.608700  0.205500  0.069600  1.0  0.0489
  C  C282  1  0.457400  0.424300  0.505100  1.0  0.0558
  C  C283  1  0.465900  0.348200  0.451300  1.0  -0.2387
  C  C284  1  0.513900  0.502400  0.477700  1.0  -0.1991
  C  C285  1  0.411200  0.266700  0.476700  1.0  0.6631
  C  C286  1  0.651900  0.964300  0.214300  1.0  0.0304
  C  C287  1  0.829000  0.636800  0.119900  1.0  0.1631
  C  C288  1  0.700600  0.721800  0.709200  1.0  0.0588
  C  C289  1  0.902600  0.647300  0.060700  1.0  0.0647
  C  C290  1  0.925100  0.665900  0.939300  1.0  0.0246
  C  C291  1  0.927800  0.795600  0.259700  1.0  0.189
  C  C292  1  0.676700  0.640100  0.734400  1.0  -0.1907
  C  C293  1  0.884700  0.767200  0.195400  1.0  0.0033
  C  C294  1  0.871900  0.673700  0.186500  1.0  0.0364
  C  C295  1  0.898900  0.618200  0.237400  1.0  -0.2069
  C  C296  1  0.692500  0.736400  0.630700  1.0  0.1738
  C  C297  1  0.998800  0.604100  0.073900  1.0  -0.2398
  C  C298  1  0.680300  0.624100  0.806700  1.0  0.1872
  C  C299  1  0.728500  0.767700  0.829300  1.0  0.1992
  C  C300  1  0.877500  0.522400  0.980100  1.0  0.0045
  C  C301  1  0.860900  0.832600  0.147200  1.0  -0.273
  C  C302  1  0.730000  0.789200  0.757200  1.0  0.0086
  C  C303  1  0.768900  0.684700  0.590400  1.0  0.0707
  C  C304  1  0.783300  0.912800  0.855700  1.0  -0.1612
  C  C305  1  0.760400  0.873000  0.736700  1.0  -0.252
  C  C306  1  0.787400  0.934200  0.785600  1.0  0.269
  C  C307  1  0.941600  0.652700  0.298600  1.0  0.1764
  C  C308  1  0.938700  0.885900  0.272700  1.0  -0.1234
  C  C309  1  0.755200  0.832400  0.876500  1.0  -0.1322
  C  C310  1  0.933100  0.642300  0.581200  1.0  0.0524
  C  C311  1  0.877900  0.917900  0.159700  1.0  0.281
  C  C312  1  0.915900  0.946600  0.224100  1.0  -0.1849
  C  C313  1  0.839000  0.964500  0.045900  1.0  -0.0004
  C  C314  1  0.749900  0.691900  0.510900  1.0  -0.2488
  C  C315  1  0.848700  0.692500  0.474300  1.0  0.0677
  C  C316  1  0.895000  0.780000  0.490200  1.0  -0.2186
  C  C317  1  0.912400  0.618500  0.506000  1.0  -0.2527
  C  C318  1  0.868800  0.526900  0.493400  1.0  0.6664
  C  C319  1  0.891300  0.794500  0.569600  1.0  0.0482
  C  C320  1  0.042600  0.575700  0.005100  1.0  0.0555
  C  C321  1  0.034100  0.651800  0.951300  1.0  -0.2361
  C  C322  1  0.986100  0.497600  0.977700  1.0  -0.2
  C  C323  1  0.088800  0.733300  0.976700  1.0  0.6618
  C  C324  1  0.848100  0.035700  0.714300  1.0  0.0312
  N  N325  1  0.205200  0.816500  0.148100  1.0  -0.3826
  N  N326  1  0.455800  0.764200  0.690100  1.0  -0.3763
  N  N327  1  0.366700  0.787200  0.393500  1.0  -0.3871
  N  N328  1  0.363700  0.880100  0.009600  1.0  -0.2874
  N  N329  1  0.294800  0.183500  0.648100  1.0  -0.3831
  N  N330  1  0.044200  0.235800  0.190100  1.0  -0.3756
  N  N331  1  0.133300  0.212800  0.893500  1.0  -0.3883
  N  N332  1  0.136300  0.119900  0.509600  1.0  -0.2874
  N  N333  1  0.794800  0.316500  0.351900  1.0  -0.3816
  N  N334  1  0.544200  0.264200  0.809900  1.0  -0.3769
  N  N335  1  0.633300  0.287200  0.106500  1.0  -0.3865
  N  N336  1  0.636300  0.380100  0.490400  1.0  -0.2879
  N  N337  1  0.705200  0.683500  0.851900  1.0  -0.381
  N  N338  1  0.955800  0.735800  0.309900  1.0  -0.3774
  N  N339  1  0.866700  0.712800  0.606500  1.0  -0.3867
  N  N340  1  0.863700  0.619900  0.990400  1.0  -0.2873
  O  O341  1  0.304900  0.953500  0.867700  1.0  -0.5705
  O  O342  1  0.360400  0.512500  0.885300  1.0  -0.282
  O  O343  1  0.321200  0.486000  0.230900  1.0  -0.208
  O  O344  1  0.102600  0.797300  0.393000  1.0  -0.5508
  O  O345  1  0.344900  0.021400  0.456600  1.0  -0.6195
  O  O346  1  0.360000  0.000900  0.567500  1.0  -0.627
  O  O347  1  0.679700  0.770400  0.029300  1.0  -0.6158
  O  O348  1  0.547400  0.705400  0.994000  1.0  -0.5783
  O  O349  1  0.195100  0.046500  0.367700  1.0  -0.5707
  O  O350  1  0.139600  0.487500  0.385300  1.0  -0.2822
  O  O351  1  0.178800  0.514000  0.730900  1.0  -0.214
  O  O352  1  0.397400  0.202700  0.893000  1.0  -0.5518
  O  O353  1  0.155100  0.978600  0.956600  1.0  -0.6201
  O  O354  1  0.140000  0.999100  0.067500  1.0  -0.627
  O  O355  1  0.820300  0.229600  0.529300  1.0  -0.6151
  O  O356  1  0.952600  0.294600  0.494000  1.0  -0.5774
  O  O357  1  0.695100  0.453500  0.632300  1.0  -0.5712
  O  O358  1  0.639600  0.012500  0.614700  1.0  -0.2836
  O  O359  1  0.678800  0.986000  0.269100  1.0  -0.2026
  O  O360  1  0.897400  0.297300  0.107000  1.0  -0.5493
  O  O361  1  0.655100  0.521400  0.043400  1.0  -0.6187
  O  O362  1  0.640000  0.500900  0.932500  1.0  -0.622
  O  O363  1  0.320300  0.270400  0.470700  1.0  -0.6139
  O  O364  1  0.452600  0.205400  0.506000  1.0  -0.5791
  O  O365  1  0.804900  0.546500  0.132300  1.0  -0.5688
  O  O366  1  0.860400  0.987500  0.114700  1.0  -0.282
  O  O367  1  0.821200  0.014000  0.769100  1.0  -0.2016
  O  O368  1  0.602600  0.702700  0.607000  1.0  -0.5496
  O  O369  1  0.844900  0.478600  0.543400  1.0  -0.6186
  O  O370  1  0.860000  0.499100  0.432500  1.0  -0.6231
  O  O371  1  0.179700  0.729600  0.970700  1.0  -0.6138
  O  O372  1  0.047400  0.794600  0.006000  1.0  -0.5769
