# generated using pymatgen
data_LaH24C48(NO2)4
_symmetry_space_group_name_H-M   'P 1'
_cell_length_a   9.85480000
_cell_length_b   13.81380000
_cell_length_c   33.79250000
_cell_angle_alpha   90.00000000
_cell_angle_beta   90.00000000
_cell_angle_gamma   92.86270000
_symmetry_Int_Tables_number   1
_chemical_formula_structural   LaH24C48(NO2)4
_chemical_formula_sum   'La4 H96 C192 N16 O32'
_cell_volume   4594.50785987
_cell_formula_units_Z   4
loop_
 _symmetry_equiv_pos_site_id
 _symmetry_equiv_pos_as_xyz
  1  'x, y, z'
loop_
 _atom_site_type_symbol
 _atom_site_label
 _atom_site_symmetry_multiplicity
 _atom_site_fract_x
 _atom_site_fract_y
 _atom_site_fract_z
 _atom_site_occupancy
 _atom_site_charge
  La  La1  1  0.264080  0.020190  0.751050  1.0  2.2328
  La  La2  1  0.235920  0.979810  0.251050  1.0  2.233
  La  La3  1  0.735920  0.979810  0.248950  1.0  2.233
  La  La4  1  0.764080  0.020190  0.748950  1.0  2.2327
  H  H5  1  0.282400  0.228000  0.458500  1.0  0.1153
  H  H6  1  0.392400  0.238300  0.524500  1.0  0.1173
  H  H7  1  0.512400  0.523400  0.626200  1.0  0.1262
  H  H8  1  0.515900  0.701300  0.620900  1.0  0.1165
  H  H9  1  0.259300  0.947500  0.528700  1.0  0.1136
  H  H10  1  0.093700  0.929800  0.474100  1.0  0.1236
  H  H11  1  0.929900  0.636600  0.379500  1.0  0.1169
  H  H12  1  0.981800  0.464500  0.374400  1.0  0.1301
  H  H13  1  0.607400  0.314500  0.558000  1.0  0.1072
  H  H14  1  0.681600  0.195500  0.601200  1.0  0.0969
  H  H15  1  0.563100  0.159400  0.659300  1.0  0.1066
  H  H16  1  0.295400  0.361500  0.632700  1.0  0.1056
  H  H17  1  0.545600  0.901900  0.528700  1.0  0.1064
  H  H18  1  0.698900  0.006000  0.562300  1.0  0.0929
  H  H19  1  0.685100  0.022600  0.630800  1.0  0.1061
  H  H20  1  0.346800  0.844300  0.631500  1.0  0.114
  H  H21  1  0.833300  0.834900  0.459600  1.0  0.0998
  H  H22  1  0.706500  0.932300  0.418800  1.0  0.0926
  H  H23  1  0.777800  0.969200  0.354400  1.0  0.1018
  H  H24  1  0.101700  0.803900  0.370300  1.0  0.1137
  H  H25  1  0.974800  0.257500  0.446200  1.0  0.0954
  H  H26  1  0.904200  0.123200  0.407900  1.0  0.0945
  H  H27  1  0.009900  0.096500  0.347300  1.0  0.0896
  H  H28  1  0.246600  0.341600  0.362200  1.0  0.1102
  H  H29  1  0.217600  0.772000  0.958500  1.0  0.1152
  H  H30  1  0.107600  0.761700  0.024500  1.0  0.1172
  H  H31  1  0.987600  0.476600  0.126200  1.0  0.1257
  H  H32  1  0.984100  0.298700  0.120900  1.0  0.1166
  H  H33  1  0.240700  0.052500  0.028700  1.0  0.1132
  H  H34  1  0.406300  0.070200  0.974100  1.0  0.1237
  H  H35  1  0.570100  0.363400  0.879500  1.0  0.1163
  H  H36  1  0.518200  0.535500  0.874400  1.0  0.1301
  H  H37  1  0.892600  0.685500  0.058000  1.0  0.107
  H  H38  1  0.818400  0.804500  0.101200  1.0  0.0972
  H  H39  1  0.936900  0.840600  0.159300  1.0  0.1066
  H  H40  1  0.204600  0.638500  0.132700  1.0  0.1062
  H  H41  1  0.954400  0.098100  0.028700  1.0  0.1069
  H  H42  1  0.801100  0.994000  0.062300  1.0  0.0934
  H  H43  1  0.814900  0.977400  0.130800  1.0  0.1065
  H  H44  1  0.153200  0.155700  0.131500  1.0  0.1141
  H  H45  1  0.666667  0.165100  0.959600  1.0  0.0999
  H  H46  1  0.793500  0.067700  0.918800  1.0  0.093
  H  H47  1  0.722200  0.030800  0.854400  1.0  0.1013
  H  H48  1  0.398300  0.196100  0.870300  1.0  0.1141
  H  H49  1  0.525200  0.742500  0.946200  1.0  0.096
  H  H50  1  0.595800  0.876800  0.907900  1.0  0.0947
  H  H51  1  0.490100  0.903500  0.847300  1.0  0.0888
  H  H52  1  0.253400  0.658400  0.862200  1.0  0.1095
  H  H53  1  0.717600  0.772000  0.541500  1.0  0.1155
  H  H54  1  0.607600  0.761700  0.475500  1.0  0.1171
  H  H55  1  0.487600  0.476600  0.373800  1.0  0.1251
  H  H56  1  0.484100  0.298700  0.379100  1.0  0.1162
  H  H57  1  0.740700  0.052500  0.471300  1.0  0.1134
  H  H58  1  0.906300  0.070200  0.525900  1.0  0.1239
  H  H59  1  0.070100  0.363400  0.620500  1.0  0.1173
  H  H60  1  0.018200  0.535500  0.625600  1.0  0.1304
  H  H61  1  0.392600  0.685500  0.442000  1.0  0.1068
  H  H62  1  0.318400  0.804500  0.398800  1.0  0.0968
  H  H63  1  0.436900  0.840600  0.340700  1.0  0.106
  H  H64  1  0.704600  0.638500  0.367300  1.0  0.1057
  H  H65  1  0.454400  0.098100  0.471300  1.0  0.106
  H  H66  1  0.301100  0.994000  0.437700  1.0  0.0943
  H  H67  1  0.314900  0.977400  0.369200  1.0  0.1062
  H  H68  1  0.653200  0.155700  0.368500  1.0  0.1153
  H  H69  1  0.166700  0.165100  0.540400  1.0  0.1002
  H  H70  1  0.293500  0.067700  0.581200  1.0  0.0925
  H  H71  1  0.222200  0.030800  0.645600  1.0  0.1025
  H  H72  1  0.898300  0.196100  0.629700  1.0  0.1135
  H  H73  1  0.025200  0.742500  0.553800  1.0  0.0953
  H  H74  1  0.095800  0.876800  0.592100  1.0  0.0986
  H  H75  1  0.990100  0.903500  0.652700  1.0  0.0894
  H  H76  1  0.753400  0.658400  0.637800  1.0  0.1104
  H  H77  1  0.782400  0.228000  0.041500  1.0  0.1159
  H  H78  1  0.892400  0.238300  0.975500  1.0  0.1168
  H  H79  1  0.012400  0.523400  0.873800  1.0  0.1255
  H  H80  1  0.015900  0.701300  0.879100  1.0  0.116
  H  H81  1  0.759300  0.947500  0.971300  1.0  0.1138
  H  H82  1  0.593700  0.929800  0.025900  1.0  0.1237
  H  H83  1  0.429900  0.636600  0.120500  1.0  0.1179
  H  H84  1  0.481800  0.464500  0.125600  1.0  0.1311
  H  H85  1  0.107400  0.314500  0.942000  1.0  0.1066
  H  H86  1  0.181600  0.195500  0.898800  1.0  0.0964
  H  H87  1  0.063100  0.159400  0.840700  1.0  0.1064
  H  H88  1  0.795400  0.361500  0.867300  1.0  0.1055
  H  H89  1  0.045600  0.901900  0.971300  1.0  0.1055
  H  H90  1  0.198900  0.006000  0.937700  1.0  0.0936
  H  H91  1  0.185100  0.022600  0.869200  1.0  0.1065
  H  H92  1  0.846800  0.844300  0.868500  1.0  0.1148
  H  H93  1  0.333333  0.834900  0.040400  1.0  0.1007
  H  H94  1  0.206500  0.932300  0.081200  1.0  0.0927
  H  H95  1  0.277800  0.969200  0.145600  1.0  0.1026
  H  H96  1  0.601700  0.803900  0.129700  1.0  0.114
  H  H97  1  0.474800  0.257500  0.053800  1.0  0.0953
  H  H98  1  0.404200  0.123200  0.092100  1.0  0.098
  H  H99  1  0.509900  0.096500  0.152700  1.0  0.0897
  H  H100  1  0.746600  0.341600  0.137800  1.0  0.1103
  C  C101  1  0.237400  0.377500  0.467700  1.0  0.1907
  C  C102  1  0.289500  0.283100  0.475320  1.0  -0.1745
  C  C103  1  0.349900  0.289100  0.511010  1.0  -0.1702
  C  C104  1  0.337800  0.387200  0.525050  1.0  0.2007
  C  C105  1  0.387500  0.421100  0.561570  1.0  0.0519
  C  C106  1  0.395900  0.518800  0.573420  1.0  0.1777
  C  C107  1  0.470000  0.559100  0.606030  1.0  -0.1619
  C  C108  1  0.470300  0.656500  0.603490  1.0  -0.158
  C  C109  1  0.388800  0.680900  0.569690  1.0  0.1815
  C  C110  1  0.362200  0.774100  0.556570  1.0  0.0083
  C  C111  1  0.275500  0.794300  0.525080  1.0  0.1829
  C  C112  1  0.230800  0.888700  0.515860  1.0  -0.1631
  C  C113  1  0.141700  0.879400  0.486010  1.0  -0.1823
  C  C114  1  0.132700  0.778500  0.475500  1.0  0.1708
  C  C115  1  0.058100  0.739900  0.443550  1.0  0.0273
  C  C116  1  0.058300  0.643400  0.430590  1.0  0.1824
  C  C117  1  0.987000  0.602800  0.396800  1.0  -0.1661
  C  C118  1  0.015400  0.508800  0.394050  1.0  -0.1537
  C  C119  1  0.106000  0.486900  0.426150  1.0  0.1937
  C  C120  1  0.157500  0.397400  0.434580  1.0  0.038
  C  C121  1  0.440700  0.349800  0.590380  1.0  0.0325
  C  C122  1  0.558100  0.300000  0.581620  1.0  -0.0912
  C  C123  1  0.602700  0.229200  0.607430  1.0  -0.1056
  C  C124  1  0.532300  0.208000  0.642000  1.0  -0.0226
  C  C125  1  0.418100  0.256400  0.651630  1.0  -0.1079
  C  C126  1  0.373500  0.327500  0.625900  1.0  -0.0803
  C  C127  1  0.334900  0.229200  0.688590  1.0  0.6824
  C  C128  1  0.438200  0.855300  0.577460  1.0  0.0349
  C  C129  1  0.539000  0.908700  0.556610  1.0  -0.1096
  C  C130  1  0.629100  0.971200  0.576500  1.0  -0.0912
  C  C131  1  0.618500  0.983500  0.617070  1.0  -0.0328
  C  C132  1  0.511400  0.939100  0.637470  1.0  -0.1215
  C  C133  1  0.420900  0.874900  0.617540  1.0  -0.076
  C  C134  1  0.493700  0.959200  0.680860  1.0  0.7646
  C  C135  1  0.979700  0.807800  0.419030  1.0  0.0376
  C  C136  1  0.862500  0.847800  0.433240  1.0  -0.1122
  C  C137  1  0.787600  0.906700  0.408980  1.0  -0.0894
  C  C138  1  0.829200  0.928700  0.370760  1.0  -0.019
  C  C139  1  0.947000  0.890500  0.356790  1.0  -0.1294
  C  C140  1  0.021500  0.830200  0.380490  1.0  -0.0687
  C  C141  1  0.000400  0.914900  0.316090  1.0  0.7587
  C  C142  1  0.116100  0.313300  0.408020  1.0  0.0232
  C  C143  1  0.016100  0.247600  0.421210  1.0  -0.0885
  C  C144  1  0.974500  0.167100  0.398700  1.0  -0.1035
  C  C145  1  0.037100  0.151800  0.362540  1.0  -0.0188
  C  C146  1  0.138000  0.215300  0.348410  1.0  -0.1124
  C  C147  1  0.177400  0.297100  0.371550  1.0  -0.0835
  C  C148  1  0.205500  0.196300  0.309820  1.0  0.6788
  C  C149  1  0.262600  0.622500  0.967700  1.0  0.19
  C  C150  1  0.210500  0.716900  0.975320  1.0  -0.1742
  C  C151  1  0.150100  0.710900  0.011010  1.0  -0.1705
  C  C152  1  0.162200  0.612800  0.025050  1.0  0.1995
  C  C153  1  0.112500  0.578900  0.061570  1.0  0.0511
  C  C154  1  0.104100  0.481200  0.073420  1.0  0.1786
  C  C155  1  0.030000  0.440900  0.106030  1.0  -0.1635
  C  C156  1  0.029700  0.343500  0.103490  1.0  -0.1588
  C  C157  1  0.111200  0.319100  0.069690  1.0  0.181
  C  C158  1  0.137800  0.225900  0.056570  1.0  0.0137
  C  C159  1  0.224500  0.205700  0.025080  1.0  0.1836
  C  C160  1  0.269200  0.111300  0.015860  1.0  -0.1629
  C  C161  1  0.358300  0.120600  0.986010  1.0  -0.1819
  C  C162  1  0.367300  0.221500  0.975500  1.0  0.1715
  C  C163  1  0.441900  0.260100  0.943550  1.0  0.0288
  C  C164  1  0.441700  0.356600  0.930590  1.0  0.1823
  C  C165  1  0.513000  0.397200  0.896800  1.0  -0.1663
  C  C166  1  0.484600  0.491200  0.894050  1.0  -0.1544
  C  C167  1  0.394000  0.513100  0.926150  1.0  0.1935
  C  C168  1  0.342500  0.602600  0.934580  1.0  0.0391
  C  C169  1  0.059300  0.650200  0.090380  1.0  0.0324
  C  C170  1  0.941900  0.700000  0.081620  1.0  -0.0905
  C  C171  1  0.897300  0.770800  0.107430  1.0  -0.1047
  C  C172  1  0.967700  0.792000  0.142000  1.0  -0.0232
  C  C173  1  0.081900  0.743600  0.151630  1.0  -0.1084
  C  C174  1  0.126500  0.672500  0.125900  1.0  -0.0806
  C  C175  1  0.165100  0.770800  0.188590  1.0  0.6844
  C  C176  1  0.061800  0.144700  0.077460  1.0  0.0341
  C  C177  1  0.961000  0.091300  0.056610  1.0  -0.1092
  C  C178  1  0.870900  0.028800  0.076500  1.0  -0.0911
  C  C179  1  0.881500  0.016500  0.117070  1.0  -0.0321
  C  C180  1  0.988600  0.060900  0.137470  1.0  -0.1216
  C  C181  1  0.079100  0.125100  0.117540  1.0  -0.0751
  C  C182  1  0.006300  0.040800  0.180860  1.0  0.7651
  C  C183  1  0.520300  0.192200  0.919030  1.0  0.0374
  C  C184  1  0.637500  0.152200  0.933240  1.0  -0.1119
  C  C185  1  0.712400  0.093300  0.908980  1.0  -0.0891
  C  C186  1  0.670800  0.071300  0.870760  1.0  -0.0182
  C  C187  1  0.553000  0.109500  0.856790  1.0  -0.1295
  C  C188  1  0.478500  0.169800  0.880490  1.0  -0.0686
  C  C189  1  0.499600  0.085100  0.816090  1.0  0.7604
  C  C190  1  0.383900  0.686700  0.908020  1.0  0.0231
  C  C191  1  0.483900  0.752400  0.921210  1.0  -0.0889
  C  C192  1  0.525500  0.832900  0.898700  1.0  -0.1033
  C  C193  1  0.462900  0.848200  0.862540  1.0  -0.0177
  C  C194  1  0.362000  0.784700  0.848410  1.0  -0.1133
  C  C195  1  0.322600  0.702900  0.871550  1.0  -0.0841
  C  C196  1  0.294500  0.803700  0.809820  1.0  0.6793
  C  C197  1  0.762600  0.622500  0.532300  1.0  0.1901
  C  C198  1  0.710500  0.716900  0.524680  1.0  -0.1738
  C  C199  1  0.650100  0.710900  0.488990  1.0  -0.1704
  C  C200  1  0.662200  0.612800  0.474950  1.0  0.1995
  C  C201  1  0.612500  0.578900  0.438430  1.0  0.0516
  C  C202  1  0.604100  0.481200  0.426580  1.0  0.1794
  C  C203  1  0.530000  0.440900  0.393970  1.0  -0.1618
  C  C204  1  0.529700  0.343500  0.396510  1.0  -0.1589
  C  C205  1  0.611200  0.319100  0.430310  1.0  0.1811
  C  C206  1  0.637800  0.225900  0.443430  1.0  0.0137
  C  C207  1  0.724500  0.205700  0.474920  1.0  0.1839
  C  C208  1  0.769200  0.111300  0.484140  1.0  -0.1628
  C  C209  1  0.858300  0.120600  0.513990  1.0  -0.182
  C  C210  1  0.867300  0.221500  0.524500  1.0  0.1715
  C  C211  1  0.941900  0.260100  0.556450  1.0  0.0303
  C  C212  1  0.941700  0.356600  0.569410  1.0  0.1831
  C  C213  1  0.013000  0.397200  0.603200  1.0  -0.1659
  C  C214  1  0.984600  0.491200  0.605950  1.0  -0.1536
  C  C215  1  0.894000  0.513100  0.573850  1.0  0.193
  C  C216  1  0.842500  0.602600  0.565420  1.0  0.0386
  C  C217  1  0.559300  0.650200  0.409620  1.0  0.0303
  C  C218  1  0.441900  0.700000  0.418380  1.0  -0.0898
  C  C219  1  0.397300  0.770800  0.392570  1.0  -0.1047
  C  C220  1  0.467700  0.792000  0.358000  1.0  -0.0227
  C  C221  1  0.581900  0.743600  0.348370  1.0  -0.1084
  C  C222  1  0.626500  0.672500  0.374100  1.0  -0.0812
  C  C223  1  0.665100  0.770800  0.311410  1.0  0.6813
  C  C224  1  0.561800  0.144700  0.422540  1.0  0.0341
  C  C225  1  0.461000  0.091300  0.443390  1.0  -0.1095
  C  C226  1  0.370900  0.028800  0.423500  1.0  -0.0911
  C  C227  1  0.381500  0.016500  0.382930  1.0  -0.0326
  C  C228  1  0.488600  0.060900  0.362530  1.0  -0.1213
  C  C229  1  0.579100  0.125100  0.382460  1.0  -0.0768
  C  C230  1  0.506300  0.040800  0.319140  1.0  0.7651
  C  C231  1  0.020300  0.192200  0.580970  1.0  0.0374
  C  C232  1  0.137500  0.152200  0.566760  1.0  -0.1106
  C  C233  1  0.212400  0.093300  0.591020  1.0  -0.0887
  C  C234  1  0.170800  0.071300  0.629240  1.0  -0.018
  C  C235  1  0.053000  0.109500  0.643210  1.0  -0.1288
  C  C236  1  0.978500  0.169800  0.619510  1.0  -0.069
  C  C237  1  0.999600  0.085100  0.683910  1.0  0.7573
  C  C238  1  0.883900  0.686700  0.591980  1.0  0.0233
  C  C239  1  0.983900  0.752400  0.578790  1.0  -0.0891
  C  C240  1  0.025500  0.832900  0.601300  1.0  -0.1032
  C  C241  1  0.962900  0.848200  0.637460  1.0  -0.0174
  C  C242  1  0.862000  0.784700  0.651590  1.0  -0.1109
  C  C243  1  0.822600  0.702900  0.628450  1.0  -0.0832
  C  C244  1  0.794500  0.803700  0.690180  1.0  0.6782
  C  C245  1  0.737400  0.377500  0.032300  1.0  0.191
  C  C246  1  0.789500  0.283100  0.024680  1.0  -0.1746
  C  C247  1  0.849900  0.289100  0.988990  1.0  -0.1698
  C  C248  1  0.837800  0.387200  0.974950  1.0  0.2007
  C  C249  1  0.887500  0.421100  0.938430  1.0  0.0523
  C  C250  1  0.895900  0.518800  0.926580  1.0  0.1786
  C  C251  1  0.970000  0.559100  0.893970  1.0  -0.1618
  C  C252  1  0.970300  0.656500  0.896510  1.0  -0.1578
  C  C253  1  0.888800  0.680900  0.930310  1.0  0.1814
  C  C254  1  0.862200  0.774100  0.943430  1.0  0.0085
  C  C255  1  0.775500  0.794300  0.974920  1.0  0.183
  C  C256  1  0.730800  0.888700  0.984140  1.0  -0.1627
  C  C257  1  0.641700  0.879400  0.013990  1.0  -0.1824
  C  C258  1  0.632700  0.778500  0.024500  1.0  0.1707
  C  C259  1  0.558100  0.739900  0.056450  1.0  0.0285
  C  C260  1  0.558300  0.643400  0.069410  1.0  0.1836
  C  C261  1  0.487000  0.602800  0.103200  1.0  -0.1662
  C  C262  1  0.515400  0.508800  0.105950  1.0  -0.1544
  C  C263  1  0.606000  0.486900  0.073850  1.0  0.1935
  C  C264  1  0.657500  0.397400  0.065420  1.0  0.0378
  C  C265  1  0.940700  0.349800  0.909620  1.0  0.0305
  C  C266  1  0.058100  0.300000  0.918380  1.0  -0.0915
  C  C267  1  0.102700  0.229200  0.892570  1.0  -0.1058
  C  C268  1  0.032300  0.208000  0.858000  1.0  -0.023
  C  C269  1  0.918100  0.256400  0.848370  1.0  -0.1106
  C  C270  1  0.873500  0.327500  0.874100  1.0  -0.0794
  C  C271  1  0.834900  0.229200  0.811410  1.0  0.6857
  C  C272  1  0.938200  0.855300  0.922540  1.0  0.0347
  C  C273  1  0.039000  0.908700  0.943390  1.0  -0.1092
  C  C274  1  0.129100  0.971200  0.923500  1.0  -0.0911
  C  C275  1  0.118500  0.983500  0.882930  1.0  -0.0333
  C  C276  1  0.011400  0.939100  0.862530  1.0  -0.1211
  C  C277  1  0.920900  0.874900  0.882460  1.0  -0.0764
  C  C278  1  0.993700  0.959200  0.819140  1.0  0.7632
  C  C279  1  0.479700  0.807800  0.080970  1.0  0.0375
  C  C280  1  0.362500  0.847800  0.066760  1.0  -0.1111
  C  C281  1  0.287600  0.906700  0.091020  1.0  -0.0903
  C  C282  1  0.329200  0.928700  0.129240  1.0  -0.0181
  C  C283  1  0.447000  0.890500  0.143210  1.0  -0.1292
  C  C284  1  0.521500  0.830200  0.119510  1.0  -0.0689
  C  C285  1  0.500400  0.914900  0.183910  1.0  0.7601
  C  C286  1  0.616100  0.313300  0.091980  1.0  0.023
  C  C287  1  0.516100  0.247600  0.078790  1.0  -0.0883
  C  C288  1  0.474500  0.167100  0.101300  1.0  -0.1036
  C  C289  1  0.537100  0.151800  0.137460  1.0  -0.019
  C  C290  1  0.638000  0.215300  0.151590  1.0  -0.1116
  C  C291  1  0.677400  0.297100  0.128450  1.0  -0.0838
  C  C292  1  0.705500  0.196300  0.190180  1.0  0.6792
  N  N293  1  0.271500  0.440400  0.497790  1.0  -0.2847
  N  N294  1  0.343600  0.594900  0.552300  1.0  -0.2758
  N  N295  1  0.214500  0.727100  0.500330  1.0  -0.3047
  N  N296  1  0.128800  0.570000  0.447750  1.0  -0.269
  N  N297  1  0.228500  0.559600  0.997790  1.0  -0.2843
  N  N298  1  0.156400  0.405100  0.052300  1.0  -0.2758
  N  N299  1  0.285500  0.272900  0.000330  1.0  -0.305
  N  N300  1  0.371200  0.430000  0.947750  1.0  -0.2685
  N  N301  1  0.728500  0.559600  0.502210  1.0  -0.2844
  N  N302  1  0.656400  0.405100  0.447700  1.0  -0.2764
  N  N303  1  0.785500  0.272900  0.499670  1.0  -0.305
  N  N304  1  0.871200  0.430000  0.552250  1.0  -0.2653
  N  N305  1  0.771500  0.440400  0.002210  1.0  -0.2846
  N  N306  1  0.843600  0.594900  0.947700  1.0  -0.2772
  N  N307  1  0.714500  0.727100  0.999670  1.0  -0.3047
  N  N308  1  0.628800  0.570000  0.052250  1.0  -0.2672
  O  O309  1  0.235000  0.277400  0.696800  1.0  -0.4871
  O  O310  1  0.374400  0.157900  0.708880  1.0  -0.7095
  O  O311  1  0.380200  0.934600  0.696570  1.0  -0.7023
  O  O312  1  0.592000  0.001500  0.698640  1.0  -0.7613
  O  O313  1  0.925200  0.961300  0.293080  1.0  -0.7936
  O  O314  1  0.116600  0.890300  0.306620  1.0  -0.6857
  O  O315  1  0.153800  0.123500  0.289370  1.0  -0.7046
  O  O316  1  0.307200  0.246400  0.299280  1.0  -0.4846
  O  O317  1  0.265000  0.722600  0.196800  1.0  -0.4865
  O  O318  1  0.125600  0.842100  0.208880  1.0  -0.7081
  O  O319  1  0.119800  0.065400  0.196570  1.0  -0.7022
  O  O320  1  0.908000  0.998500  0.198640  1.0  -0.7628
  O  O321  1  0.574800  0.038700  0.793080  1.0  -0.7943
  O  O322  1  0.383400  0.109700  0.806620  1.0  -0.6827
  O  O323  1  0.346200  0.876500  0.789370  1.0  -0.704
  O  O324  1  0.192800  0.753600  0.799280  1.0  -0.4848
  O  O325  1  0.765000  0.722600  0.303200  1.0  -0.4871
  O  O326  1  0.625600  0.842100  0.291120  1.0  -0.7089
  O  O327  1  0.619800  0.065400  0.303430  1.0  -0.7038
  O  O328  1  0.408000  0.998500  0.301360  1.0  -0.7637
  O  O329  1  0.074800  0.038700  0.706920  1.0  -0.7939
  O  O330  1  0.883400  0.109700  0.693380  1.0  -0.6823
  O  O331  1  0.846200  0.876500  0.710630  1.0  -0.7038
  O  O332  1  0.692800  0.753600  0.700720  1.0  -0.4815
  O  O333  1  0.735000  0.277400  0.803200  1.0  -0.4883
  O  O334  1  0.874400  0.157900  0.791120  1.0  -0.7107
  O  O335  1  0.880200  0.934600  0.803430  1.0  -0.7031
  O  O336  1  0.092000  0.001500  0.801360  1.0  -0.7629
  O  O337  1  0.425200  0.961300  0.206920  1.0  -0.7941
  O  O338  1  0.616600  0.890300  0.193380  1.0  -0.6833
  O  O339  1  0.653800  0.123500  0.210630  1.0  -0.7047
  O  O340  1  0.807200  0.246400  0.200720  1.0  -0.4816
