# generated using pymatgen
data_SmH24C48(NO2)4
_symmetry_space_group_name_H-M   'P 1'
_cell_length_a   9.61870000
_cell_length_b   13.89340000
_cell_length_c   17.23450000
_cell_angle_alpha   98.05800000
_cell_angle_beta   90.45700000
_cell_angle_gamma   90.59900000
_symmetry_Int_Tables_number   1
_chemical_formula_structural   SmH24C48(NO2)4
_chemical_formula_sum   'Sm2 H48 C96 N8 O16'
_cell_volume   2280.18921776
_cell_formula_units_Z   2
loop_
 _symmetry_equiv_pos_site_id
 _symmetry_equiv_pos_as_xyz
  1  'x, y, z'
loop_
 _atom_site_type_symbol
 _atom_site_label
 _atom_site_symmetry_multiplicity
 _atom_site_fract_x
 _atom_site_fract_y
 _atom_site_fract_z
 _atom_site_occupancy
 _atom_site_charge
  Sm  Sm1  1  0.770340  0.900450  0.014280  1.0  2.3314
  Sm  Sm2  1  0.229660  0.099550  0.985720  1.0  2.3305
  H  H3  1  0.729000  0.751300  0.416600  1.0  0.115
  H  H4  1  0.608600  0.764100  0.544900  1.0  0.1137
  H  H5  1  0.470800  0.517700  0.738200  1.0  0.134
  H  H6  1  0.473700  0.336600  0.729100  1.0  0.1159
  H  H7  1  0.757200  0.056200  0.557800  1.0  0.121
  H  H8  1  0.925600  0.051500  0.447500  1.0  0.1272
  H  H9  1  0.085700  0.306900  0.260600  1.0  0.1105
  H  H10  1  0.037100  0.478400  0.251600  1.0  0.1256
  H  H11  1  0.389900  0.706900  0.601600  1.0  0.1026
  H  H12  1  0.304700  0.837800  0.686300  1.0  0.1002
  H  H13  1  0.414800  0.887100  0.807800  1.0  0.1144
  H  H14  1  0.685800  0.665700  0.762000  1.0  0.1132
  H  H15  1  0.460700  0.107200  0.554800  1.0  0.1153
  H  H16  1  0.305700  0.017500  0.621200  1.0  0.0951
  H  H17  1  0.323900  0.024000  0.757300  1.0  0.1056
  H  H18  1  0.652100  0.209900  0.760600  1.0  0.1168
  H  H19  1  0.189600  0.138900  0.416400  1.0  0.1003
  H  H20  1  0.330700  0.035500  0.332000  1.0  0.0915
  H  H21  1  0.262000  0.987300  0.201500  1.0  0.1077
  H  H22  1  0.903300  0.134700  0.241800  1.0  0.1092
  H  H23  1  0.014500  0.733300  0.387600  1.0  0.0981
  H  H24  1  0.041600  0.851700  0.304900  1.0  0.0978
  H  H25  1  0.937000  0.831800  0.181800  1.0  0.0973
  H  H26  1  0.778800  0.572200  0.221600  1.0  0.1073
  H  H27  1  0.271000  0.248700  0.583400  1.0  0.1155
  H  H28  1  0.391400  0.235900  0.455100  1.0  0.1135
  H  H29  1  0.529200  0.482300  0.261800  1.0  0.1341
  H  H30  1  0.526300  0.663400  0.270900  1.0  0.1153
  H  H31  1  0.242800  0.943800  0.442200  1.0  0.1204
  H  H32  1  0.074400  0.948500  0.552500  1.0  0.1271
  H  H33  1  0.914300  0.693100  0.739400  1.0  0.112
  H  H34  1  0.962900  0.521600  0.748400  1.0  0.1277
  H  H35  1  0.610100  0.293100  0.398400  1.0  0.103
  H  H36  1  0.695300  0.162200  0.313700  1.0  0.1005
  H  H37  1  0.585200  0.112900  0.192200  1.0  0.1148
  H  H38  1  0.314200  0.334300  0.238000  1.0  0.1127
  H  H39  1  0.539300  0.892800  0.445200  1.0  0.1145
  H  H40  1  0.694300  0.982500  0.378800  1.0  0.0963
  H  H41  1  0.676100  0.976000  0.242700  1.0  0.1049
  H  H42  1  0.347900  0.790100  0.239400  1.0  0.1161
  H  H43  1  0.810400  0.861100  0.583600  1.0  0.1003
  H  H44  1  0.669300  0.964500  0.668000  1.0  0.0916
  H  H45  1  0.738000  0.012700  0.798500  1.0  0.1077
  H  H46  1  0.096700  0.865300  0.758200  1.0  0.109
  H  H47  1  0.985500  0.266700  0.612400  1.0  0.0979
  H  H48  1  0.958400  0.148300  0.695100  1.0  0.098
  H  H49  1  0.063000  0.168200  0.818200  1.0  0.0992
  H  H50  1  0.221200  0.427800  0.778400  1.0  0.1077
  C  C51  1  0.777800  0.604900  0.435300  1.0  0.1925
  C  C52  1  0.721200  0.702200  0.449500  1.0  -0.166
  C  C53  1  0.654900  0.708700  0.519000  1.0  -0.1813
  C  C54  1  0.667700  0.615200  0.546700  1.0  0.1916
  C  C55  1  0.610200  0.593600  0.616700  1.0  0.0379
  C  C56  1  0.603000  0.500000  0.638800  1.0  0.1942
  C  C57  1  0.519700  0.474200  0.700800  1.0  -0.1628
  C  C58  1  0.523000  0.374600  0.696500  1.0  -0.1617
  C  C59  1  0.614200  0.338300  0.634000  1.0  0.1753
  C  C60  1  0.647000  0.240600  0.609800  1.0  0.0251
  C  C61  1  0.738600  0.208600  0.549000  1.0  0.1823
  C  C62  1  0.784800  0.109200  0.531900  1.0  -0.1767
  C  C63  1  0.876000  0.106500  0.471400  1.0  -0.1863
  C  C64  1  0.881900  0.203600  0.450900  1.0  0.1876
  C  C65  1  0.954800  0.228800  0.386100  1.0  0.0095
  C  C66  1  0.955900  0.321000  0.361600  1.0  0.1649
  C  C67  1  0.028700  0.348300  0.295200  1.0  -0.1644
  C  C68  1  0.002500  0.442200  0.290300  1.0  -0.157
  C  C69  1  0.912800  0.478000  0.353900  1.0  0.186
  C  C70  1  0.858400  0.571900  0.370200  1.0  0.0439
  C  C71  1  0.549200  0.674700  0.672000  1.0  0.0381
  C  C72  1  0.434100  0.725800  0.651000  1.0  -0.0995
  C  C73  1  0.383400  0.803700  0.701300  1.0  -0.1138
  C  C74  1  0.447800  0.832400  0.774000  1.0  -0.0321
  C  C75  1  0.559900  0.780600  0.796600  1.0  -0.1097
  C  C76  1  0.609800  0.701600  0.746000  1.0  -0.0735
  C  C77  1  0.631500  0.814400  0.872700  1.0  0.6768
  C  C78  1  0.570900  0.166980  0.651430  1.0  0.0328
  C  C79  1  0.468100  0.109800  0.610040  1.0  -0.0955
  C  C80  1  0.376000  0.056500  0.649500  1.0  -0.0917
  C  C81  1  0.386800  0.060400  0.730350  1.0  -0.0374
  C  C82  1  0.489700  0.117500  0.771740  1.0  -0.1112
  C  C83  1  0.581800  0.170820  0.732280  1.0  -0.0837
  C  C84  1  0.503800  0.119100  0.858800  1.0  0.7166
  C  C85  1  0.034400  0.152500  0.336100  1.0  0.041
  C  C86  1  0.161000  0.119200  0.363600  1.0  -0.1088
  C  C87  1  0.244900  0.057100  0.313300  1.0  -0.0915
  C  C88  1  0.203200  0.026900  0.236300  1.0  -0.0464
  C  C89  1  0.074200  0.055400  0.210800  1.0  -0.1068
  C  C90  1  0.991300  0.116600  0.260000  1.0  -0.0791
  C  C91  1  0.027000  0.018800  0.128700  1.0  0.7893
  C  C92  1  0.888000  0.641900  0.314300  1.0  0.0296
  C  C93  1  0.970100  0.724900  0.337600  1.0  -0.1077
  C  C94  1  0.987200  0.795100  0.288000  1.0  -0.0892
  C  C95  1  0.925800  0.783100  0.214900  1.0  -0.0194
  C  C96  1  0.847200  0.699700  0.189300  1.0  -0.1373
  C  C97  1  0.830700  0.629800  0.239400  1.0  -0.0713
  C  C98  1  0.781600  0.686100  0.108800  1.0  0.7275
  C  C99  1  0.222200  0.395100  0.564700  1.0  0.1929
  C  C100  1  0.278800  0.297800  0.550500  1.0  -0.1666
  C  C101  1  0.345100  0.291300  0.481000  1.0  -0.1804
  C  C102  1  0.332300  0.384800  0.453300  1.0  0.1923
  C  C103  1  0.389800  0.406400  0.383300  1.0  0.041
  C  C104  1  0.397000  0.500000  0.361200  1.0  0.194
  C  C105  1  0.480300  0.525800  0.299200  1.0  -0.1653
  C  C106  1  0.477000  0.625400  0.303500  1.0  -0.1612
  C  C107  1  0.385800  0.661700  0.366000  1.0  0.1741
  C  C108  1  0.353000  0.759400  0.390200  1.0  0.0238
  C  C109  1  0.261400  0.791400  0.451000  1.0  0.1825
  C  C110  1  0.215200  0.890800  0.468100  1.0  -0.1752
  C  C111  1  0.124000  0.893500  0.528600  1.0  -0.1863
  C  C112  1  0.118100  0.796400  0.549100  1.0  0.1878
  C  C113  1  0.045200  0.771200  0.613900  1.0  0.0083
  C  C114  1  0.044100  0.679000  0.638400  1.0  0.1663
  C  C115  1  0.971300  0.651700  0.704800  1.0  -0.1628
  C  C116  1  0.997500  0.557800  0.709700  1.0  -0.1554
  C  C117  1  0.087200  0.522000  0.646100  1.0  0.1856
  C  C118  1  0.141600  0.428100  0.629800  1.0  0.0454
  C  C119  1  0.450800  0.325300  0.328000  1.0  0.0365
  C  C120  1  0.565900  0.274200  0.349000  1.0  -0.1025
  C  C121  1  0.616600  0.196300  0.298700  1.0  -0.1132
  C  C122  1  0.552200  0.167600  0.226000  1.0  -0.033
  C  C123  1  0.440100  0.219400  0.203400  1.0  -0.1096
  C  C124  1  0.390200  0.298400  0.254000  1.0  -0.0728
  C  C125  1  0.368500  0.185600  0.127300  1.0  0.6808
  C  C126  1  0.429100  0.833020  0.348570  1.0  0.0322
  C  C127  1  0.531900  0.890200  0.389960  1.0  -0.0979
  C  C128  1  0.624000  0.943500  0.350500  1.0  -0.0928
  C  C129  1  0.613200  0.939600  0.269650  1.0  -0.0398
  C  C130  1  0.510300  0.882500  0.228260  1.0  -0.1127
  C  C131  1  0.418200  0.829180  0.267720  1.0  -0.0848
  C  C132  1  0.496200  0.880900  0.141200  1.0  0.7178
  C  C133  1  0.965600  0.847500  0.663900  1.0  0.0422
  C  C134  1  0.839000  0.880800  0.636400  1.0  -0.1095
  C  C135  1  0.755100  0.942900  0.686700  1.0  -0.0918
  C  C136  1  0.796800  0.973100  0.763700  1.0  -0.0483
  C  C137  1  0.925800  0.944600  0.789200  1.0  -0.107
  C  C138  1  0.008700  0.883400  0.740000  1.0  -0.0767
  C  C139  1  0.973000  0.981200  0.871300  1.0  0.7884
  C  C140  1  0.112000  0.358100  0.685700  1.0  0.03
  C  C141  1  0.029900  0.275100  0.662400  1.0  -0.1072
  C  C142  1  0.012800  0.204900  0.712000  1.0  -0.0893
  C  C143  1  0.074200  0.216900  0.785100  1.0  -0.0201
  C  C144  1  0.152800  0.300300  0.810700  1.0  -0.1366
  C  C145  1  0.169300  0.370200  0.760600  1.0  -0.0717
  C  C146  1  0.218400  0.313900  0.891200  1.0  0.7264
  N  N147  1  0.742400  0.552000  0.494100  1.0  -0.2873
  N  N148  1  0.660700  0.417200  0.600300  1.0  -0.2877
  N  N149  1  0.799400  0.265200  0.499300  1.0  -0.3112
  N  N150  1  0.887700  0.402900  0.396600  1.0  -0.2719
  N  N151  1  0.257600  0.448000  0.505900  1.0  -0.2861
  N  N152  1  0.339300  0.582800  0.399700  1.0  -0.2889
  N  N153  1  0.200600  0.734800  0.500700  1.0  -0.3114
  N  N154  1  0.112300  0.597100  0.603400  1.0  -0.2695
  O  O155  1  0.579300  0.883300  0.918790  1.0  -0.6699
  O  O156  1  0.743600  0.775600  0.890820  1.0  -0.684
  O  O157  1  0.405800  0.083300  0.893840  1.0  -0.7637
  O  O158  1  0.612500  0.155400  0.892700  1.0  -0.5263
  O  O159  1  0.902000  0.996000  0.117160  1.0  -0.7386
  O  O160  1  0.118200  0.011000  0.075080  1.0  -0.7888
  O  O161  1  0.733900  0.604100  0.081000  1.0  -0.4467
  O  O162  1  0.781500  0.756800  0.070700  1.0  -0.7745
  O  O163  1  0.420700  0.116700  0.081210  1.0  -0.6745
  O  O164  1  0.256400  0.224400  0.109180  1.0  -0.6856
  O  O165  1  0.594200  0.916700  0.106160  1.0  -0.7654
  O  O166  1  0.387500  0.844600  0.107300  1.0  -0.5217
  O  O167  1  0.098000  0.004000  0.882840  1.0  -0.7404
  O  O168  1  0.881800  0.989000  0.924920  1.0  -0.787
  O  O169  1  0.266100  0.395900  0.919000  1.0  -0.4431
  O  O170  1  0.218500  0.243200  0.929300  1.0  -0.771
