# generated using pymatgen
data_PrH14C25(NO3)2
_symmetry_space_group_name_H-M   'P 1'
_cell_length_a   7.45950000
_cell_length_b   11.47400000
_cell_length_c   16.47670000
_cell_angle_alpha   98.95110000
_cell_angle_beta   90.98630000
_cell_angle_gamma   91.31090000
_symmetry_Int_Tables_number   1
_chemical_formula_structural   PrH14C25(NO3)2
_chemical_formula_sum   'Pr2 H28 C50 N4 O12'
_cell_volume   1392.39832026
_cell_formula_units_Z   2
loop_
 _symmetry_equiv_pos_site_id
 _symmetry_equiv_pos_as_xyz
  1  'x, y, z'
loop_
 _atom_site_type_symbol
 _atom_site_label
 _atom_site_symmetry_multiplicity
 _atom_site_fract_x
 _atom_site_fract_y
 _atom_site_fract_z
 _atom_site_occupancy
 _atom_site_charge
  Pr  Pr1  1  0.759150  0.576440  0.004950  1.0  2.1917
  Pr  Pr2  1  0.240850  0.423560  0.995050  1.0  2.2004
  H  H3  1  0.312800  0.391300  0.410700  1.0  0.1212
  H  H4  1  0.086900  0.358800  0.513800  1.0  0.1181
  H  H5  1  0.946900  0.006000  0.684500  1.0  0.129
  H  H6  1  0.100100  0.823100  0.703300  1.0  0.1276
  H  H7  1  0.409300  0.082400  0.485100  1.0  0.26
  H  H8  1  0.799800  0.215800  0.530200  1.0  0.0986
  H  H9  1  0.585400  0.331400  0.604900  1.0  0.0988
  H  H10  1  0.632100  0.397800  0.744400  1.0  0.0927
  H  H11  1  0.107200  0.232900  0.737400  1.0  0.1145
  H  H12  1  0.808400  0.398400  0.415000  1.0  0.1076
  H  H13  1  0.890400  0.541800  0.335900  1.0  0.087
  H  H14  1  0.754300  0.543100  0.207200  1.0  0.106
  H  H15  1  0.445700  0.259200  0.238900  1.0  0.115
  H  H16  1  0.191200  0.737000  0.942400  1.0  0.0366
  H  H17  1  0.687200  0.608700  0.589300  1.0  0.1214
  H  H18  1  0.913100  0.641200  0.486200  1.0  0.1182
  H  H19  1  0.053100  0.994000  0.315500  1.0  0.1291
  H  H20  1  0.899900  0.176900  0.296700  1.0  0.1265
  H  H21  1  0.590700  0.917600  0.514900  1.0  0.2607
  H  H22  1  0.200200  0.784200  0.469800  1.0  0.0988
  H  H23  1  0.414600  0.668600  0.395100  1.0  0.0988
  H  H24  1  0.367900  0.602200  0.255600  1.0  0.0933
  H  H25  1  0.892800  0.767100  0.262600  1.0  0.1149
  H  H26  1  0.191600  0.601600  0.585000  1.0  0.1073
  H  H27  1  0.109600  0.458200  0.664100  1.0  0.0873
  H  H28  1  0.245700  0.456900  0.792800  1.0  0.1077
  H  H29  1  0.554300  0.740800  0.761100  1.0  0.1149
  H  H30  1  0.808800  0.263000  0.057600  1.0  0.0402
  C  C31  1  0.423200  0.228000  0.430600  1.0  0.1524
  C  C32  1  0.305300  0.325600  0.439200  1.0  -0.1636
  C  C33  1  0.180900  0.307300  0.495400  1.0  -0.1716
  C  C34  1  0.216000  0.196700  0.522100  1.0  0.1697
  C  C35  1  0.123000  0.145900  0.581000  1.0  -0.0971
  C  C36  1  0.164200  0.037100  0.605400  1.0  0.2297
  C  C37  1  0.056000  0.978900  0.660300  1.0  -0.1768
  C  C38  1  0.138900  0.879500  0.670400  1.0  -0.1767
  C  C39  1  0.298600  0.874700  0.621700  1.0  0.2297
  C  C40  1  0.577500  0.216600  0.383100  1.0  -0.0997
  C  C41  1  0.977500  0.214900  0.626200  1.0  0.0575
  C  C42  1  0.819700  0.243300  0.587100  1.0  -0.1222
  C  C43  1  0.691800  0.311800  0.631700  1.0  -0.1034
  C  C44  1  0.719600  0.351100  0.714500  1.0  -0.021
  C  C45  1  0.874800  0.322900  0.754400  1.0  -0.1516
  C  C46  1  0.002300  0.253700  0.710000  1.0  -0.0893
  C  C47  1  0.910900  0.370300  0.844000  1.0  0.7436
  C  C48  1  0.620200  0.312800  0.334200  1.0  0.0634
  C  C49  1  0.751900  0.398600  0.362900  1.0  -0.106
  C  C50  1  0.800700  0.483800  0.315800  1.0  -0.0913
  C  C51  1  0.719700  0.485100  0.239700  1.0  -0.0257
  C  C52  1  0.587500  0.400900  0.211200  1.0  -0.1388
  C  C53  1  0.537500  0.315900  0.258500  1.0  -0.0706
  C  C54  1  0.495200  0.400300  0.129900  1.0  0.7027
  C  C55  1  0.082500  0.701300  0.956800  1.0  0.6892
  C  C56  1  0.576800  0.772000  0.569400  1.0  0.1513
  C  C57  1  0.694700  0.674400  0.560800  1.0  -0.1642
  C  C58  1  0.819100  0.692700  0.504600  1.0  -0.172
  C  C59  1  0.784000  0.803300  0.477900  1.0  0.1701
  C  C60  1  0.877000  0.854100  0.419000  1.0  -0.0973
  C  C61  1  0.835800  0.962900  0.394600  1.0  0.2307
  C  C62  1  0.944000  0.021100  0.339700  1.0  -0.175
  C  C63  1  0.861100  0.120500  0.329600  1.0  -0.1772
  C  C64  1  0.701400  0.125300  0.378300  1.0  0.2295
  C  C65  1  0.422500  0.783400  0.616900  1.0  -0.0982
  C  C66  1  0.022500  0.785100  0.373800  1.0  0.0578
  C  C67  1  0.180300  0.756700  0.412900  1.0  -0.1243
  C  C68  1  0.308200  0.688200  0.368300  1.0  -0.103
  C  C69  1  0.280400  0.648900  0.285500  1.0  -0.0204
  C  C70  1  0.125200  0.677100  0.245600  1.0  -0.1513
  C  C71  1  0.997700  0.746300  0.290000  1.0  -0.0912
  C  C72  1  0.089100  0.629700  0.156000  1.0  0.7415
  C  C73  1  0.379800  0.687200  0.665800  1.0  0.0655
  C  C74  1  0.248100  0.601400  0.637100  1.0  -0.1055
  C  C75  1  0.199300  0.516200  0.684200  1.0  -0.092
  C  C76  1  0.280300  0.514900  0.760300  1.0  -0.0262
  C  C77  1  0.412500  0.599100  0.788800  1.0  -0.1368
  C  C78  1  0.462500  0.684100  0.741500  1.0  -0.0685
  C  C79  1  0.504800  0.599700  0.870100  1.0  0.7109
  C  C80  1  0.917500  0.298700  0.043200  1.0  0.69
  N  N81  1  0.361900  0.150700  0.480570  1.0  -0.2466
  N  N82  1  0.310200  0.971000  0.582180  1.0  -0.4888
  N  N83  1  0.638100  0.849300  0.519430  1.0  -0.2456
  N  N84  1  0.689800  0.029000  0.417820  1.0  -0.4879
  O  O85  1  0.788700  0.426000  0.883020  1.0  -0.6985
  O  O86  1  0.063100  0.348900  0.873580  1.0  -0.7198
  O  O87  1  0.549600  0.469000  0.080660  1.0  -0.868
  O  O88  1  0.361800  0.332900  0.111800  1.0  -0.6522
  O  O89  1  0.956600  0.765700  0.978400  1.0  -0.5917
  O  O90  1  0.075100  0.589800  0.952570  1.0  -0.7853
  O  O91  1  0.211300  0.574000  0.116980  1.0  -0.6982
  O  O92  1  0.936900  0.651100  0.126420  1.0  -0.7198
  O  O93  1  0.450400  0.531000  0.919340  1.0  -0.8689
  O  O94  1  0.638200  0.667100  0.888200  1.0  -0.6527
  O  O95  1  0.043400  0.234300  0.021600  1.0  -0.5921
  O  O96  1  0.924900  0.410200  0.047430  1.0  -0.784
