# generated using pymatgen
data_PrH27C48(NO2)4
_symmetry_space_group_name_H-M   'P 1'
_cell_length_a   9.63570000
_cell_length_b   13.92030000
_cell_length_c   17.28750000
_cell_angle_alpha   98.15740000
_cell_angle_beta   90.24890000
_cell_angle_gamma   90.89380000
_symmetry_Int_Tables_number   1
_chemical_formula_structural   PrH27C48(NO2)4
_chemical_formula_sum   'Pr2 H54 C96 N8 O16'
_cell_volume   2295.01278611
_cell_formula_units_Z   2
loop_
 _symmetry_equiv_pos_site_id
 _symmetry_equiv_pos_as_xyz
  1  'x, y, z'
loop_
 _atom_site_type_symbol
 _atom_site_label
 _atom_site_symmetry_multiplicity
 _atom_site_fract_x
 _atom_site_fract_y
 _atom_site_fract_z
 _atom_site_occupancy
 _atom_site_charge
  Pr  Pr1  1  0.270000  0.398400  0.513080  1.0  2.2116
  Pr  Pr2  1  0.730000  0.601600  0.486920  1.0  2.2112
  H  H3  1  0.108900  0.262100  0.042400  1.0  0.1214
  H  H4  1  0.233500  0.250100  0.915700  1.0  0.1152
  H  H5  1  0.536700  0.975000  0.750100  1.0  0.1283
  H  H6  1  0.581500  0.803000  0.758400  1.0  0.112
  H  H7  1  0.427000  0.552000  0.948200  1.0  0.1226
  H  H8  1  0.258800  0.556300  0.058400  1.0  0.1228
  H  H9  1  0.972000  0.837700  0.227800  1.0  0.1123
  H  H10  1  0.965600  0.016600  0.234000  1.0  0.1237
  H  H11  1  0.340000  0.904500  0.937000  1.0  0.2616
  H  H12  1  0.218400  0.914600  0.060900  1.0  0.26
  H  H13  1  0.516500  0.231700  0.884600  1.0  0.0989
  H  H14  1  0.544100  0.349100  0.801200  1.0  0.099
  H  H15  1  0.436700  0.328100  0.678900  1.0  0.0966
  H  H16  1  0.278200  0.069100  0.721300  1.0  0.1098
  H  H17  1  0.212100  0.096800  0.533800  1.0  0.4555
  H  H18  1  0.690500  0.640300  0.915400  1.0  0.0958
  H  H19  1  0.830400  0.536400  0.832400  1.0  0.0959
  H  H20  1  0.761400  0.486800  0.702900  1.0  0.1058
  H  H21  1  0.402600  0.633500  0.743300  1.0  0.1113
  H  H22  1  0.960600  0.604000  0.055800  1.0  0.1122
  H  H23  1  0.809700  0.514700  0.123900  1.0  0.0882
  H  H24  1  0.819400  0.530300  0.260200  1.0  0.1121
  H  H25  1  0.158500  0.706800  0.258900  1.0  0.1099
  H  H26  1  0.891000  0.207300  0.098000  1.0  0.0966
  H  H27  1  0.805300  0.336800  0.183300  1.0  0.0988
  H  H28  1  0.910500  0.383900  0.305100  1.0  0.109
  H  H29  1  0.184200  0.165500  0.258400  1.0  0.1097
  H  H30  1  0.891100  0.737900  0.957600  1.0  0.1205
  H  H31  1  0.766500  0.749900  0.084300  1.0  0.1157
  H  H32  1  0.463300  0.025000  0.249900  1.0  0.1292
  H  H33  1  0.418500  0.197000  0.241600  1.0  0.1094
  H  H34  1  0.573000  0.448000  0.051800  1.0  0.1224
  H  H35  1  0.741200  0.443700  0.941600  1.0  0.122
  H  H36  1  0.028000  0.162300  0.772200  1.0  0.1126
  H  H37  1  0.034400  0.983400  0.766000  1.0  0.1239
  H  H38  1  0.660000  0.095500  0.063000  1.0  0.2621
  H  H39  1  0.781600  0.085400  0.939100  1.0  0.2591
  H  H40  1  0.483500  0.768300  0.115400  1.0  0.099
  H  H41  1  0.455900  0.650900  0.198800  1.0  0.0989
  H  H42  1  0.563300  0.671900  0.321100  1.0  0.0977
  H  H43  1  0.721800  0.930900  0.278700  1.0  0.1102
  H  H44  1  0.787900  0.903200  0.466200  1.0  0.4555
  H  H45  1  0.309500  0.359700  0.084600  1.0  0.0961
  H  H46  1  0.169600  0.463600  0.167600  1.0  0.0955
  H  H47  1  0.238600  0.513200  0.297100  1.0  0.1062
  H  H48  1  0.597400  0.366500  0.256700  1.0  0.1115
  H  H49  1  0.039400  0.396000  0.944200  1.0  0.1115
  H  H50  1  0.190300  0.485300  0.876100  1.0  0.0889
  H  H51  1  0.180600  0.469700  0.739800  1.0  0.1117
  H  H52  1  0.841500  0.293200  0.741100  1.0  0.1097
  H  H53  1  0.109000  0.792700  0.902000  1.0  0.097
  H  H54  1  0.194700  0.663200  0.816700  1.0  0.099
  H  H55  1  0.089500  0.616100  0.694900  1.0  0.1093
  H  H56  1  0.815800  0.834500  0.741600  1.0  0.1086
  C  C57  1  0.170100  0.113900  0.044300  1.0  0.2375
  C  C58  1  0.156400  0.207200  0.016900  1.0  -0.1849
  C  C59  1  0.224300  0.200900  0.948300  1.0  -0.178
  C  C60  1  0.281200  0.102600  0.934000  1.0  0.236
  C  C61  1  0.360600  0.069900  0.868900  1.0  -0.1058
  C  C62  1  0.413900  0.975700  0.852300  1.0  0.1621
  C  C63  1  0.501900  0.939200  0.788900  1.0  -0.1732
  C  C64  1  0.527000  0.845100  0.793700  1.0  -0.163
  C  C65  1  0.457800  0.819400  0.861000  1.0  0.1615
  C  C66  1  0.455400  0.728200  0.886000  1.0  -0.0987
  C  C67  1  0.383000  0.703500  0.951100  1.0  0.209
  C  C68  1  0.377100  0.606700  0.971900  1.0  -0.1867
  C  C69  1  0.286000  0.609100  0.032300  1.0  -0.1798
  C  C70  1  0.239400  0.707700  0.048500  1.0  0.2132
  C  C71  1  0.146600  0.740400  0.108900  1.0  -0.1001
  C  C72  1  0.113000  0.838200  0.132500  1.0  0.164
  C  C73  1  0.020900  0.875200  0.194700  1.0  -0.1671
  C  C74  1  0.016300  0.973300  0.197600  1.0  -0.1694
  C  C75  1  0.101000  0.999800  0.136200  1.0  0.1757
  C  C76  1  0.109900  0.092600  0.114200  1.0  -0.096
  C  C77  1  0.390900  0.139800  0.812000  1.0  0.0657
  C  C78  1  0.472200  0.222700  0.834800  1.0  -0.099
  C  C79  1  0.489000  0.292600  0.785000  1.0  -0.0944
  C  C80  1  0.425900  0.280000  0.712300  1.0  0.0046
  C  C81  1  0.346300  0.196500  0.688100  1.0  -0.1555
  C  C82  1  0.330800  0.126600  0.738200  1.0  -0.0715
  C  C83  1  0.279700  0.183000  0.608400  1.0  0.7372
  C  C84  1  0.535600  0.651600  0.836800  1.0  0.0526
  C  C85  1  0.661300  0.619500  0.863100  1.0  -0.1134
  C  C86  1  0.744700  0.557400  0.813700  1.0  -0.0866
  C  C87  1  0.702700  0.526400  0.737600  1.0  -0.0541
  C  C88  1  0.573600  0.553500  0.711900  1.0  -0.1178
  C  C89  1  0.490600  0.615500  0.761100  1.0  -0.0921
  C  C90  1  0.526600  0.517100  0.630000  1.0  0.7869
  C  C91  1  0.069700  0.669700  0.150900  1.0  0.0407
  C  C92  1  0.968100  0.609000  0.111100  1.0  -0.1176
  C  C93  1  0.878000  0.556100  0.151700  1.0  -0.0917
  C  C94  1  0.886200  0.562700  0.232400  1.0  -0.0587
  C  C95  1  0.993200  0.617200  0.272200  1.0  -0.1226
  C  C96  1  0.085000  0.670100  0.231500  1.0  -0.0933
  C  C97  1  0.008600  0.620900  0.359500  1.0  0.7329
  C  C98  1  0.047900  0.173500  0.168200  1.0  0.027
  C  C99  1  0.934200  0.225300  0.147600  1.0  -0.0977
  C  C100  1  0.883200  0.302600  0.198300  1.0  -0.0913
  C  C101  1  0.945100  0.330300  0.270900  1.0  -0.0438
  C  C102  1  0.057600  0.279700  0.293400  1.0  -0.1155
  C  C103  1  0.108200  0.200900  0.242500  1.0  -0.0813
  C  C104  1  0.128600  0.312100  0.369700  1.0  0.6843
  C  C105  1  0.829900  0.886100  0.955700  1.0  0.2377
  C  C106  1  0.843600  0.792800  0.983100  1.0  -0.1843
  C  C107  1  0.775700  0.799100  0.051700  1.0  -0.1775
  C  C108  1  0.718800  0.897400  0.066000  1.0  0.236
  C  C109  1  0.639400  0.930100  0.131100  1.0  -0.1048
  C  C110  1  0.586100  0.024300  0.147700  1.0  0.1615
  C  C111  1  0.498100  0.060800  0.211100  1.0  -0.1729
  C  C112  1  0.473000  0.154900  0.206300  1.0  -0.161
  C  C113  1  0.542200  0.180600  0.139000  1.0  0.1617
  C  C114  1  0.544600  0.271800  0.114000  1.0  -0.0989
  C  C115  1  0.617000  0.296500  0.048900  1.0  0.2077
  C  C116  1  0.622900  0.393300  0.028100  1.0  -0.1863
  C  C117  1  0.714000  0.390900  0.967700  1.0  -0.1783
  C  C118  1  0.760600  0.292300  0.951500  1.0  0.2139
  C  C119  1  0.853400  0.259600  0.891100  1.0  -0.1007
  C  C120  1  0.887000  0.161800  0.867500  1.0  0.1635
  C  C121  1  0.979100  0.124800  0.805300  1.0  -0.1655
  C  C122  1  0.983700  0.026700  0.802400  1.0  -0.1701
  C  C123  1  0.899000  0.000200  0.863800  1.0  0.1758
  C  C124  1  0.890100  0.907400  0.885800  1.0  -0.0946
  C  C125  1  0.609100  0.860200  0.188000  1.0  0.0646
  C  C126  1  0.527800  0.777300  0.165200  1.0  -0.0977
  C  C127  1  0.511000  0.707400  0.215000  1.0  -0.0954
  C  C128  1  0.574100  0.720000  0.287700  1.0  0.0038
  C  C129  1  0.653700  0.803500  0.311900  1.0  -0.1718
  C  C130  1  0.669200  0.873400  0.261800  1.0  -0.0715
  C  C131  1  0.720300  0.817000  0.391600  1.0  0.7367
  C  C132  1  0.464400  0.348400  0.163200  1.0  0.0521
  C  C133  1  0.338700  0.380500  0.136900  1.0  -0.1127
  C  C134  1  0.255300  0.442600  0.186300  1.0  -0.0882
  C  C135  1  0.297300  0.473600  0.262400  1.0  -0.0557
  C  C136  1  0.426400  0.446500  0.288100  1.0  -0.1206
  C  C137  1  0.509400  0.384500  0.238900  1.0  -0.091
  C  C138  1  0.473400  0.482900  0.370000  1.0  0.7876
  C  C139  1  0.930300  0.330300  0.849100  1.0  0.0405
  C  C140  1  0.031900  0.391000  0.888900  1.0  -0.1183
  C  C141  1  0.122000  0.443900  0.848300  1.0  -0.0913
  C  C142  1  0.113800  0.437300  0.767600  1.0  -0.0593
  C  C143  1  0.006800  0.382800  0.727800  1.0  -0.1238
  C  C144  1  0.915000  0.329900  0.768500  1.0  -0.0947
  C  C145  1  0.991400  0.379100  0.640500  1.0  0.7311
  C  C146  1  0.952100  0.826500  0.831800  1.0  0.0273
  C  C147  1  0.065800  0.774700  0.852400  1.0  -0.0984
  C  C148  1  0.116800  0.697400  0.801700  1.0  -0.0914
  C  C149  1  0.054900  0.669700  0.729100  1.0  -0.0446
  C  C150  1  0.942400  0.720300  0.706600  1.0  -0.1131
  C  C151  1  0.891800  0.799100  0.757500  1.0  -0.0819
  C  C152  1  0.871400  0.687900  0.630300  1.0  0.6849
  N  N153  1  0.243200  0.051200  0.992940  1.0  -0.4706
  N  N154  1  0.390600  0.900900  0.894530  1.0  -0.241
  N  N155  1  0.300400  0.765100  0.999320  1.0  -0.474
  N  N156  1  0.159400  0.917100  0.099800  1.0  -0.2387
  N  N157  1  0.756800  0.948800  0.007060  1.0  -0.4723
  N  N158  1  0.609400  0.099100  0.105470  1.0  -0.2425
  N  N159  1  0.699600  0.234900  0.000680  1.0  -0.4738
  N  N160  1  0.840600  0.082900  0.900200  1.0  -0.2378
  O  O161  1  0.233400  0.098300  0.581100  1.0  -0.5068
  O  O162  1  0.279500  0.252600  0.570530  1.0  -0.699
  O  O163  1  0.400400  0.494300  0.619090  1.0  -0.7346
  O  O164  1  0.616500  0.510100  0.576680  1.0  -0.7731
  O  O165  1  0.911900  0.584600  0.395090  1.0  -0.7732
  O  O166  1  0.117800  0.657600  0.391520  1.0  -0.5915
  O  O167  1  0.075700  0.380600  0.415930  1.0  -0.6872
  O  O168  1  0.239600  0.272700  0.387730  1.0  -0.6886
  O  O169  1  0.766600  0.901700  0.418900  1.0  -0.5035
  O  O170  1  0.720500  0.747400  0.429470  1.0  -0.6997
  O  O171  1  0.599600  0.505700  0.380910  1.0  -0.7367
  O  O172  1  0.383500  0.489900  0.423320  1.0  -0.7717
  O  O173  1  0.088100  0.415400  0.604910  1.0  -0.7748
  O  O174  1  0.882200  0.342400  0.608480  1.0  -0.5827
  O  O175  1  0.924300  0.619400  0.584070  1.0  -0.6882
  O  O176  1  0.760400  0.727300  0.612270  1.0  -0.6899
