# generated using pymatgen
data_DyH13C26(NO4)2
_symmetry_space_group_name_H-M   'P 1'
_cell_length_a   11.77350000
_cell_length_b   18.61440000
_cell_length_c   27.90220000
_cell_angle_alpha   90.00000000
_cell_angle_beta   90.00000000
_cell_angle_gamma   100.08500000
_symmetry_Int_Tables_number   1
_chemical_formula_structural   DyH13C26(NO4)2
_chemical_formula_sum   'Dy8 H104 C208 N16 O64'
_cell_volume   6020.47057650
_cell_formula_units_Z   8
loop_
 _symmetry_equiv_pos_site_id
 _symmetry_equiv_pos_as_xyz
  1  'x, y, z'
loop_
 _atom_site_type_symbol
 _atom_site_label
 _atom_site_symmetry_multiplicity
 _atom_site_fract_x
 _atom_site_fract_y
 _atom_site_fract_z
 _atom_site_occupancy
 _atom_site_charge
  Dy  Dy1  1  0.455070  0.955370  0.717010  1.0  2.1929
  Dy  Dy2  1  0.751110  0.000990  0.032440  1.0  2.1837
  Dy  Dy3  1  0.044930  0.044630  0.217010  1.0  2.1929
  Dy  Dy4  1  0.748890  0.999010  0.532440  1.0  2.1828
  Dy  Dy5  1  0.544930  0.044630  0.282990  1.0  2.1931
  Dy  Dy6  1  0.248890  0.999010  0.967560  1.0  2.1819
  Dy  Dy7  1  0.955070  0.955370  0.782990  1.0  2.1931
  Dy  Dy8  1  0.251110  0.000990  0.467560  1.0  2.1827
  H  H9  1  0.445000  0.404100  0.708000  1.0  0.1178
  H  H10  1  0.353800  0.509900  0.728900  1.0  0.1384
  H  H11  1  0.337600  0.671000  0.884500  1.0  0.125
  H  H12  1  0.440300  0.689100  0.961400  1.0  0.1326
  H  H13  1  0.745300  0.548100  0.048700  1.0  0.1213
  H  H14  1  0.837300  0.443300  0.029800  1.0  0.1285
  H  H15  1  0.858400  0.281700  0.872700  1.0  0.1321
  H  H16  1  0.754800  0.267600  0.795800  1.0  0.1281
  H  H17  1  0.552200  0.471100  0.840200  1.0  0.2706
  H  H18  1  0.655100  0.486000  0.915200  1.0  0.2667
  H  H19  1  0.465300  0.707100  0.791200  1.0  0.103
  H  H20  1  0.178300  0.730600  0.716600  1.0  0.1193
  H  H21  1  0.091800  0.615200  0.741400  1.0  0.074
  H  H22  1  0.190400  0.543200  0.787100  1.0  0.0957
  H  H23  1  0.672200  0.736400  0.977400  1.0  0.1318
  H  H24  1  0.603000  0.777300  0.116600  1.0  0.1041
  H  H25  1  0.557300  0.654800  0.133200  1.0  0.1003
  H  H26  1  0.546100  0.570400  0.068900  1.0  0.0985
  H  H27  1  0.734500  0.250200  0.968600  1.0  0.1158
  H  H28  1  0.040000  0.221200  0.024400  1.0  0.1164
  H  H29  1  0.122500  0.338400  0.002000  1.0  0.0939
  H  H30  1  0.012400  0.413100  0.960800  1.0  0.1017
  H  H31  1  0.518600  0.220600  0.770800  1.0  0.1184
  H  H32  1  0.611200  0.181700  0.636800  1.0  0.1151
  H  H33  1  0.675200  0.307800  0.626300  1.0  0.0885
  H  H34  1  0.668000  0.389900  0.686700  1.0  0.1153
  H  H35  1  0.055000  0.595900  0.208000  1.0  0.1175
  H  H36  1  0.146200  0.490100  0.228900  1.0  0.1383
  H  H37  1  0.162400  0.329000  0.384500  1.0  0.1263
  H  H38  1  0.059700  0.310900  0.461400  1.0  0.1328
  H  H39  1  0.754700  0.451900  0.548700  1.0  0.1225
  H  H40  1  0.662700  0.556700  0.529800  1.0  0.1284
  H  H41  1  0.641600  0.718300  0.372700  1.0  0.1321
  H  H42  1  0.745200  0.732400  0.295800  1.0  0.1272
  H  H43  1  0.947800  0.528900  0.340200  1.0  0.271
  H  H44  1  0.844900  0.514000  0.415200  1.0  0.2667
  H  H45  1  0.034700  0.292900  0.291200  1.0  0.1035
  H  H46  1  0.321700  0.269400  0.216600  1.0  0.1194
  H  H47  1  0.408200  0.384800  0.241400  1.0  0.0738
  H  H48  1  0.309600  0.456800  0.287100  1.0  0.0952
  H  H49  1  0.827800  0.263600  0.477400  1.0  0.1315
  H  H50  1  0.897000  0.222700  0.616600  1.0  0.1039
  H  H51  1  0.942700  0.345200  0.633200  1.0  0.0994
  H  H52  1  0.953900  0.429600  0.568900  1.0  0.0994
  H  H53  1  0.765500  0.749800  0.468600  1.0  0.1159
  H  H54  1  0.460000  0.778800  0.524400  1.0  0.1164
  H  H55  1  0.377500  0.661600  0.502000  1.0  0.0941
  H  H56  1  0.487600  0.586900  0.460800  1.0  0.1013
  H  H57  1  0.981400  0.779400  0.270800  1.0  0.119
  H  H58  1  0.888800  0.818300  0.136800  1.0  0.1146
  H  H59  1  0.824800  0.692200  0.126300  1.0  0.089
  H  H60  1  0.832000  0.610100  0.186700  1.0  0.1159
  H  H61  1  0.555000  0.595900  0.292000  1.0  0.1167
  H  H62  1  0.646200  0.490100  0.271100  1.0  0.1382
  H  H63  1  0.662400  0.329000  0.115500  1.0  0.1258
  H  H64  1  0.559700  0.310900  0.038600  1.0  0.1332
  H  H65  1  0.254700  0.451900  0.951300  1.0  0.1223
  H  H66  1  0.162700  0.556700  0.970200  1.0  0.1285
  H  H67  1  0.141600  0.718300  0.127300  1.0  0.1325
  H  H68  1  0.245200  0.732400  0.204200  1.0  0.1276
  H  H69  1  0.447800  0.528900  0.159800  1.0  0.271
  H  H70  1  0.344900  0.514000  0.084800  1.0  0.2668
  H  H71  1  0.534700  0.292900  0.208800  1.0  0.1034
  H  H72  1  0.821700  0.269400  0.283400  1.0  0.1193
  H  H73  1  0.908200  0.384800  0.258600  1.0  0.0732
  H  H74  1  0.809600  0.456800  0.212900  1.0  0.0971
  H  H75  1  0.327800  0.263600  0.022600  1.0  0.132
  H  H76  1  0.397000  0.222700  0.883400  1.0  0.103
  H  H77  1  0.442700  0.345200  0.866800  1.0  0.0986
  H  H78  1  0.453900  0.429600  0.931100  1.0  0.0992
  H  H79  1  0.265500  0.749800  0.031400  1.0  0.1158
  H  H80  1  0.960000  0.778800  0.975600  1.0  0.1165
  H  H81  1  0.877500  0.661600  0.998000  1.0  0.0938
  H  H82  1  0.987600  0.586900  0.039200  1.0  0.1012
  H  H83  1  0.481400  0.779400  0.229200  1.0  0.1188
  H  H84  1  0.388800  0.818300  0.363200  1.0  0.115
  H  H85  1  0.324800  0.692200  0.373700  1.0  0.0891
  H  H86  1  0.332000  0.610100  0.313300  1.0  0.1163
  H  H87  1  0.945000  0.404100  0.792000  1.0  0.1172
  H  H88  1  0.853800  0.509900  0.771100  1.0  0.1377
  H  H89  1  0.837600  0.671000  0.615500  1.0  0.1246
  H  H90  1  0.940300  0.689100  0.538600  1.0  0.1332
  H  H91  1  0.245300  0.548100  0.451300  1.0  0.1214
  H  H92  1  0.337300  0.443300  0.470200  1.0  0.1285
  H  H93  1  0.358400  0.281700  0.627300  1.0  0.1325
  H  H94  1  0.254800  0.267600  0.704200  1.0  0.1282
  H  H95  1  0.052200  0.471100  0.659800  1.0  0.2703
  H  H96  1  0.155100  0.486000  0.584800  1.0  0.2667
  H  H97  1  0.965300  0.707100  0.708800  1.0  0.1032
  H  H98  1  0.678300  0.730600  0.783400  1.0  0.1191
  H  H99  1  0.591800  0.615200  0.758600  1.0  0.0734
  H  H100  1  0.690400  0.543200  0.712900  1.0  0.0973
  H  H101  1  0.172200  0.736400  0.522600  1.0  0.1316
  H  H102  1  0.103000  0.777300  0.383400  1.0  0.1036
  H  H103  1  0.057300  0.654800  0.366800  1.0  0.0997
  H  H104  1  0.046100  0.570400  0.431100  1.0  0.0984
  H  H105  1  0.234500  0.250200  0.531400  1.0  0.1157
  H  H106  1  0.540000  0.221200  0.475600  1.0  0.1161
  H  H107  1  0.622500  0.338400  0.498000  1.0  0.0935
  H  H108  1  0.512400  0.413100  0.539200  1.0  0.1012
  H  H109  1  0.018600  0.220600  0.729200  1.0  0.1184
  H  H110  1  0.111200  0.181700  0.863200  1.0  0.1155
  H  H111  1  0.175200  0.307800  0.873700  1.0  0.0886
  H  H112  1  0.168000  0.389900  0.813300  1.0  0.1154
  C  C113  1  0.529600  0.417000  0.776000  1.0  0.1305
  C  C114  1  0.456200  0.431100  0.737000  1.0  -0.1366
  C  C115  1  0.405600  0.488900  0.748400  1.0  -0.1358
  C  C116  1  0.444400  0.511900  0.794600  1.0  0.1729
  C  C117  1  0.412200  0.571100  0.819300  1.0  -0.0596
  C  C118  1  0.445800  0.592600  0.867000  1.0  0.2021
  C  C119  1  0.397700  0.646600  0.894800  1.0  -0.157
  C  C120  1  0.451500  0.655900  0.936700  1.0  -0.1658
  C  C121  1  0.533400  0.603300  0.936700  1.0  0.2067
  C  C122  1  0.607400  0.594600  0.976200  1.0  -0.0514
  C  C123  1  0.671500  0.538000  0.979200  1.0  0.1503
  C  C124  1  0.738100  0.522100  0.019300  1.0  -0.1352
  C  C125  1  0.789100  0.464800  0.008900  1.0  -0.1575
  C  C126  1  0.758700  0.442000  0.961700  1.0  0.1463
  C  C127  1  0.788600  0.385500  0.934400  1.0  -0.0332
  C  C128  1  0.758500  0.366300  0.887300  1.0  0.2145
  C  C129  1  0.802200  0.308800  0.861800  1.0  -0.1609
  C  C130  1  0.747300  0.302100  0.820200  1.0  -0.1596
  C  C131  1  0.674500  0.356400  0.818400  1.0  0.208
  C  C132  1  0.601300  0.365300  0.779100  1.0  -0.0473
  C  C133  1  0.339900  0.616100  0.793500  1.0  0.045
  C  C134  1  0.389600  0.687600  0.780400  1.0  -0.0873
  C  C135  1  0.329600  0.731500  0.751500  1.0  -0.0689
  C  C136  1  0.219400  0.702800  0.736600  1.0  -0.0493
  C  C137  1  0.168900  0.633700  0.750900  1.0  -0.0763
  C  C138  1  0.227500  0.590900  0.778300  1.0  -0.1243
  C  C139  1  0.383900  0.806300  0.737900  1.0  0.6735
  C  C140  1  0.608500  0.645600  0.017800  1.0  0.0341
  C  C141  1  0.646100  0.719900  0.008300  1.0  -0.1218
  C  C142  1  0.643600  0.769300  0.046800  1.0  -0.0659
  C  C143  1  0.606800  0.743200  0.091600  1.0  -0.0444
  C  C144  1  0.576100  0.671100  0.101400  1.0  -0.0893
  C  C145  1  0.572700  0.620900  0.063500  1.0  -0.1256
  C  C146  1  0.681000  0.850400  0.037500  1.0  0.6592
  C  C147  1  0.861200  0.340400  0.960400  1.0  0.0382
  C  C148  1  0.813200  0.269100  0.975300  1.0  -0.0818
  C  C149  1  0.880200  0.225700  0.000000  1.0  -0.0635
  C  C150  1  0.994500  0.251500  0.008700  1.0  -0.0348
  C  C151  1  0.043700  0.320500  0.995000  1.0  -0.0905
  C  C152  1  0.977400  0.365400  0.970500  1.0  -0.1329
  C  C153  1  0.822000  0.149400  0.014100  1.0  0.6648
  C  C154  1  0.597800  0.313400  0.738200  1.0  0.0561
  C  C155  1  0.554700  0.239300  0.741900  1.0  -0.0945
  C  C156  1  0.563300  0.192500  0.704400  1.0  -0.0478
  C  C157  1  0.606500  0.215000  0.662200  1.0  -0.0616
  C  C158  1  0.645200  0.290400  0.656500  1.0  -0.0791
  C  C159  1  0.641800  0.339300  0.692100  1.0  -0.1597
  C  C160  1  0.522700  0.110700  0.713200  1.0  0.6533
  C  C161  1  0.982000  0.010000  0.974700  1.0  0.552
  C  C162  1  0.516700  0.984800  0.974700  1.0  0.5607
  C  C163  1  0.222600  0.943500  0.774000  1.0  0.5639
  C  C164  1  0.188900  0.973800  0.723800  1.0  0.5907
  C  C165  1  0.970400  0.583000  0.276000  1.0  0.1305
  C  C166  1  0.043800  0.568900  0.237000  1.0  -0.1362
  C  C167  1  0.094400  0.511100  0.248400  1.0  -0.1354
  C  C168  1  0.055600  0.488100  0.294600  1.0  0.1727
  C  C169  1  0.087800  0.428900  0.319300  1.0  -0.0578
  C  C170  1  0.054200  0.407400  0.367000  1.0  0.2046
  C  C171  1  0.102300  0.353400  0.394800  1.0  -0.1569
  C  C172  1  0.048500  0.344100  0.436700  1.0  -0.1658
  C  C173  1  0.966600  0.396700  0.436700  1.0  0.205
  C  C174  1  0.892600  0.405400  0.476200  1.0  -0.0527
  C  C175  1  0.828500  0.462000  0.479200  1.0  0.1507
  C  C176  1  0.761900  0.477900  0.519300  1.0  -0.1348
  C  C177  1  0.710900  0.535200  0.508900  1.0  -0.1594
  C  C178  1  0.741300  0.558000  0.461700  1.0  0.1472
  C  C179  1  0.711400  0.614500  0.434400  1.0  -0.0344
  C  C180  1  0.741500  0.633700  0.387300  1.0  0.2141
  C  C181  1  0.697800  0.691200  0.361800  1.0  -0.1606
  C  C182  1  0.752700  0.697900  0.320200  1.0  -0.1595
  C  C183  1  0.825500  0.643600  0.318400  1.0  0.2077
  C  C184  1  0.898700  0.634700  0.279100  1.0  -0.0473
  C  C185  1  0.160100  0.383900  0.293500  1.0  0.0463
  C  C186  1  0.110400  0.312400  0.280400  1.0  -0.087
  C  C187  1  0.170400  0.268500  0.251500  1.0  -0.0695
  C  C188  1  0.280600  0.297200  0.236600  1.0  -0.0482
  C  C189  1  0.331100  0.366300  0.250900  1.0  -0.0765
  C  C190  1  0.272500  0.409100  0.278300  1.0  -0.1232
  C  C191  1  0.116100  0.193700  0.237900  1.0  0.6749
  C  C192  1  0.891500  0.354400  0.517800  1.0  0.0337
  C  C193  1  0.853900  0.280100  0.508300  1.0  -0.1195
  C  C194  1  0.856400  0.230700  0.546800  1.0  -0.0665
  C  C195  1  0.893200  0.256800  0.591600  1.0  -0.045
  C  C196  1  0.923900  0.328900  0.601400  1.0  -0.0893
  C  C197  1  0.927300  0.379100  0.563500  1.0  -0.1263
  C  C198  1  0.819000  0.149600  0.537500  1.0  0.6614
  C  C199  1  0.638800  0.659600  0.460400  1.0  0.0371
  C  C200  1  0.686800  0.730900  0.475300  1.0  -0.0801
  C  C201  1  0.619800  0.774300  0.500000  1.0  -0.0637
  C  C202  1  0.505500  0.748500  0.508700  1.0  -0.0351
  C  C203  1  0.456300  0.679500  0.495000  1.0  -0.09
  C  C204  1  0.522600  0.634600  0.470500  1.0  -0.1335
  C  C205  1  0.678000  0.850600  0.514100  1.0  0.6635
  C  C206  1  0.902200  0.686600  0.238200  1.0  0.0559
  C  C207  1  0.945300  0.760700  0.241900  1.0  -0.0969
  C  C208  1  0.936700  0.807500  0.204400  1.0  -0.0466
  C  C209  1  0.893500  0.785000  0.162200  1.0  -0.0643
  C  C210  1  0.854800  0.709600  0.156500  1.0  -0.0798
  C  C211  1  0.858200  0.660700  0.192100  1.0  -0.1588
  C  C212  1  0.977300  0.889300  0.213200  1.0  0.6511
  C  C213  1  0.518000  0.990000  0.474700  1.0  0.5518
  C  C214  1  0.983300  0.015200  0.474700  1.0  0.5619
  C  C215  1  0.277400  0.056500  0.274000  1.0  0.5634
  C  C216  1  0.311100  0.026200  0.223800  1.0  0.5901
  C  C217  1  0.470400  0.583000  0.224000  1.0  0.1308
  C  C218  1  0.543800  0.568900  0.263000  1.0  -0.1352
  C  C219  1  0.594400  0.511100  0.251600  1.0  -0.1345
  C  C220  1  0.555600  0.488100  0.205400  1.0  0.1721
  C  C221  1  0.587800  0.428900  0.180700  1.0  -0.0579
  C  C222  1  0.554200  0.407400  0.133000  1.0  0.2043
  C  C223  1  0.602300  0.353400  0.105200  1.0  -0.1568
  C  C224  1  0.548500  0.344100  0.063300  1.0  -0.1649
  C  C225  1  0.466600  0.396700  0.063300  1.0  0.2048
  C  C226  1  0.392600  0.405400  0.023800  1.0  -0.0531
  C  C227  1  0.328500  0.462000  0.020800  1.0  0.1509
  C  C228  1  0.261900  0.477900  0.980700  1.0  -0.1354
  C  C229  1  0.210900  0.535200  0.991100  1.0  -0.159
  C  C230  1  0.241300  0.558000  0.038300  1.0  0.1468
  C  C231  1  0.211400  0.614500  0.065600  1.0  -0.0347
  C  C232  1  0.241500  0.633700  0.112700  1.0  0.214
  C  C233  1  0.197800  0.691200  0.138200  1.0  -0.1604
  C  C234  1  0.252700  0.697900  0.179800  1.0  -0.1599
  C  C235  1  0.325500  0.643600  0.181600  1.0  0.2076
  C  C236  1  0.398700  0.634700  0.220900  1.0  -0.0473
  C  C237  1  0.660100  0.383900  0.206500  1.0  0.0462
  C  C238  1  0.610400  0.312400  0.219600  1.0  -0.0873
  C  C239  1  0.670400  0.268500  0.248500  1.0  -0.0699
  C  C240  1  0.780600  0.297200  0.263400  1.0  -0.0479
  C  C241  1  0.831100  0.366300  0.249100  1.0  -0.0772
  C  C242  1  0.772500  0.409100  0.221700  1.0  -0.1244
  C  C243  1  0.616100  0.193700  0.262100  1.0  0.6737
  C  C244  1  0.391500  0.354400  0.982200  1.0  0.0338
  C  C245  1  0.353900  0.280100  0.991700  1.0  -0.1206
  C  C246  1  0.356400  0.230700  0.953200  1.0  -0.0669
  C  C247  1  0.393200  0.256800  0.908400  1.0  -0.0464
  C  C248  1  0.423900  0.328900  0.898600  1.0  -0.0927
  C  C249  1  0.427300  0.379100  0.936500  1.0  -0.1265
  C  C250  1  0.319000  0.149600  0.962500  1.0  0.6617
  C  C251  1  0.138800  0.659600  0.039600  1.0  0.037
  C  C252  1  0.186800  0.730900  0.024700  1.0  -0.0797
  C  C253  1  0.119800  0.774300  0.000000  1.0  -0.0632
  C  C254  1  0.005500  0.748500  0.991300  1.0  -0.0355
  C  C255  1  0.956300  0.679500  0.005000  1.0  -0.09
  C  C256  1  0.022600  0.634600  0.029500  1.0  -0.1335
  C  C257  1  0.178000  0.850600  0.985900  1.0  0.6638
  C  C258  1  0.402200  0.686600  0.261800  1.0  0.0567
  C  C259  1  0.445300  0.760700  0.258100  1.0  -0.0972
  C  C260  1  0.436700  0.807500  0.295600  1.0  -0.0465
  C  C261  1  0.393500  0.785000  0.337800  1.0  -0.0623
  C  C262  1  0.354800  0.709600  0.343500  1.0  -0.0789
  C  C263  1  0.358200  0.660700  0.307900  1.0  -0.1586
  C  C264  1  0.477300  0.889300  0.286800  1.0  0.651
  C  C265  1  0.018000  0.990000  0.025300  1.0  0.552
  C  C266  1  0.483300  0.015200  0.025300  1.0  0.5616
  C  C267  1  0.777400  0.056500  0.226000  1.0  0.5643
  C  C268  1  0.811100  0.026200  0.276200  1.0  0.5916
  C  C269  1  0.029600  0.417000  0.724000  1.0  0.1309
  C  C270  1  0.956200  0.431100  0.763000  1.0  -0.1355
  C  C271  1  0.905600  0.488900  0.751600  1.0  -0.1364
  C  C272  1  0.944400  0.511900  0.705400  1.0  0.1726
  C  C273  1  0.912200  0.571100  0.680700  1.0  -0.0592
  C  C274  1  0.945800  0.592600  0.633000  1.0  0.2027
  C  C275  1  0.897700  0.646600  0.605200  1.0  -0.1569
  C  C276  1  0.951500  0.655900  0.563300  1.0  -0.1644
  C  C277  1  0.033400  0.603300  0.563300  1.0  0.2062
  C  C278  1  0.107400  0.594600  0.523800  1.0  -0.0521
  C  C279  1  0.171500  0.538000  0.520800  1.0  0.1506
  C  C280  1  0.238100  0.522100  0.480700  1.0  -0.1362
  C  C281  1  0.289100  0.464800  0.491100  1.0  -0.1579
  C  C282  1  0.258700  0.442000  0.538300  1.0  0.1456
  C  C283  1  0.288600  0.385500  0.565600  1.0  -0.0335
  C  C284  1  0.258500  0.366300  0.612700  1.0  0.2145
  C  C285  1  0.302200  0.308800  0.638200  1.0  -0.161
  C  C286  1  0.247300  0.302100  0.679800  1.0  -0.1588
  C  C287  1  0.174500  0.356400  0.681600  1.0  0.2078
  C  C288  1  0.101300  0.365300  0.720900  1.0  -0.0473
  C  C289  1  0.839900  0.616100  0.706500  1.0  0.0451
  C  C290  1  0.889600  0.687600  0.719600  1.0  -0.0869
  C  C291  1  0.829600  0.731500  0.748500  1.0  -0.0692
  C  C292  1  0.719400  0.702800  0.763400  1.0  -0.0496
  C  C293  1  0.668900  0.633700  0.749100  1.0  -0.0769
  C  C294  1  0.727500  0.590900  0.721700  1.0  -0.1251
  C  C295  1  0.883900  0.806300  0.762100  1.0  0.6724
  C  C296  1  0.108500  0.645600  0.482200  1.0  0.0345
  C  C297  1  0.146100  0.719900  0.491700  1.0  -0.1218
  C  C298  1  0.143600  0.769300  0.453200  1.0  -0.0661
  C  C299  1  0.106800  0.743200  0.408400  1.0  -0.0441
  C  C300  1  0.076100  0.671100  0.398600  1.0  -0.0925
  C  C301  1  0.072700  0.620900  0.436500  1.0  -0.1256
  C  C302  1  0.181000  0.850400  0.462500  1.0  0.6596
  C  C303  1  0.361200  0.340400  0.539600  1.0  0.038
  C  C304  1  0.313200  0.269100  0.524700  1.0  -0.0822
  C  C305  1  0.380200  0.225700  0.500000  1.0  -0.0638
  C  C306  1  0.494500  0.251500  0.491300  1.0  -0.0363
  C  C307  1  0.543700  0.320500  0.505000  1.0  -0.0905
  C  C308  1  0.477400  0.365400  0.529500  1.0  -0.1332
  C  C309  1  0.322000  0.149400  0.485900  1.0  0.6653
  C  C310  1  0.097800  0.313400  0.761800  1.0  0.0567
  C  C311  1  0.054700  0.239300  0.758100  1.0  -0.0954
  C  C312  1  0.063300  0.192500  0.795600  1.0  -0.0477
  C  C313  1  0.106500  0.215000  0.837800  1.0  -0.0592
  C  C314  1  0.145200  0.290400  0.843500  1.0  -0.0779
  C  C315  1  0.141800  0.339300  0.807900  1.0  -0.1598
  C  C316  1  0.022700  0.110700  0.786800  1.0  0.6531
  C  C317  1  0.482000  0.010000  0.525300  1.0  0.5518
  C  C318  1  0.016700  0.984800  0.525300  1.0  0.5613
  C  C319  1  0.722600  0.943500  0.726000  1.0  0.5645
  C  C320  1  0.688900  0.973800  0.776200  1.0  0.5904
  N  N321  1  0.518500  0.467800  0.811900  1.0  -0.2624
  N  N322  1  0.524800  0.566600  0.894000  1.0  -0.4489
  N  N323  1  0.686100  0.488300  0.944000  1.0  -0.247
  N  N324  1  0.683900  0.396000  0.859400  1.0  -0.4516
  N  N325  1  0.981500  0.532200  0.311900  1.0  -0.2625
  N  N326  1  0.975200  0.433400  0.394000  1.0  -0.449
  N  N327  1  0.813900  0.511700  0.444000  1.0  -0.2462
  N  N328  1  0.816100  0.604000  0.359400  1.0  -0.4505
  N  N329  1  0.481500  0.532200  0.188100  1.0  -0.2595
  N  N330  1  0.475200  0.433400  0.106000  1.0  -0.4479
  N  N331  1  0.313900  0.511700  0.056000  1.0  -0.2458
  N  N332  1  0.316100  0.604000  0.140600  1.0  -0.4506
  N  N333  1  0.018500  0.467800  0.688100  1.0  -0.2594
  N  N334  1  0.024800  0.566600  0.606000  1.0  -0.4484
  N  N335  1  0.186100  0.488300  0.556000  1.0  -0.2469
  N  N336  1  0.183900  0.396000  0.640600  1.0  -0.4517
  O  O337  1  0.339000  0.837000  0.703100  1.0  -0.6666
  O  O338  1  0.470900  0.838200  0.759600  1.0  -0.6015
  O  O339  1  0.755700  0.872600  0.005200  1.0  -0.6265
  O  O340  1  0.637700  0.892900  0.063600  1.0  -0.6556
  O  O341  1  0.866600  0.118600  0.049200  1.0  -0.689
  O  O342  1  0.738700  0.117200  0.992000  1.0  -0.5926
  O  O343  1  0.569900  0.068800  0.686400  1.0  -0.6722
  O  O344  1  0.445800  0.086600  0.742800  1.0  -0.621
  O  O345  1  0.878700  0.013300  0.966700  1.0  -0.5635
  O  O346  1  0.063300  0.021100  0.943700  1.0  -0.6075
  O  O347  1  0.617700  0.975700  0.967700  1.0  -0.5244
  O  O348  1  0.433100  0.968200  0.945400  1.0  -0.569
  O  O349  1  0.324400  0.939600  0.781300  1.0  -0.5335
  O  O350  1  0.137700  0.927100  0.804100  1.0  -0.597
  O  O351  1  0.089800  0.982800  0.718100  1.0  -0.5407
  O  O352  1  0.267700  0.981900  0.693800  1.0  -0.5733
  O  O353  1  0.161000  0.163000  0.203100  1.0  -0.668
  O  O354  1  0.029100  0.161800  0.259600  1.0  -0.5997
  O  O355  1  0.744300  0.127400  0.505200  1.0  -0.6255
  O  O356  1  0.862300  0.107100  0.563600  1.0  -0.6536
  O  O357  1  0.633400  0.881400  0.549200  1.0  -0.6894
  O  O358  1  0.761300  0.882800  0.492000  1.0  -0.5922
  O  O359  1  0.930100  0.931200  0.186400  1.0  -0.6719
  O  O360  1  0.054200  0.913400  0.242800  1.0  -0.6222
  O  O361  1  0.621300  0.986700  0.466700  1.0  -0.5637
  O  O362  1  0.436700  0.978900  0.443700  1.0  -0.6076
  O  O363  1  0.882300  0.024300  0.467700  1.0  -0.5241
  O  O364  1  0.066900  0.031800  0.445400  1.0  -0.5688
  O  O365  1  0.175600  0.060400  0.281300  1.0  -0.5329
  O  O366  1  0.362300  0.072900  0.304100  1.0  -0.5985
  O  O367  1  0.410200  0.017200  0.218100  1.0  -0.5405
  O  O368  1  0.232300  0.018100  0.193800  1.0  -0.5742
  O  O369  1  0.661000  0.163000  0.296900  1.0  -0.6814
  O  O370  1  0.529100  0.161800  0.240400  1.0  -0.6005
  O  O371  1  0.244300  0.127400  0.994800  1.0  -0.6268
  O  O372  1  0.362300  0.107100  0.936400  1.0  -0.6565
  O  O373  1  0.133400  0.881400  0.950800  1.0  -0.6861
  O  O374  1  0.261300  0.882800  0.008000  1.0  -0.5924
  O  O375  1  0.430100  0.931200  0.313600  1.0  -0.6741
  O  O376  1  0.554200  0.913400  0.257200  1.0  -0.6234
  O  O377  1  0.121300  0.986700  0.033300  1.0  -0.5637
  O  O378  1  0.936700  0.978900  0.056300  1.0  -0.6075
  O  O379  1  0.382300  0.024300  0.032300  1.0  -0.5235
  O  O380  1  0.566900  0.031800  0.054600  1.0  -0.5706
  O  O381  1  0.675600  0.060400  0.218700  1.0  -0.5312
  O  O382  1  0.862300  0.072900  0.195900  1.0  -0.6003
  O  O383  1  0.910200  0.017200  0.281900  1.0  -0.5409
  O  O384  1  0.732300  0.018100  0.306200  1.0  -0.5746
  O  O385  1  0.839000  0.837000  0.796900  1.0  -0.6799
  O  O386  1  0.970900  0.838200  0.740400  1.0  -0.601
  O  O387  1  0.255700  0.872600  0.494800  1.0  -0.628
  O  O388  1  0.137700  0.892900  0.436400  1.0  -0.6563
  O  O389  1  0.366600  0.118600  0.450800  1.0  -0.6864
  O  O390  1  0.238700  0.117200  0.508000  1.0  -0.5922
  O  O391  1  0.069900  0.068800  0.813600  1.0  -0.6745
  O  O392  1  0.945800  0.086600  0.757200  1.0  -0.6227
  O  O393  1  0.378700  0.013300  0.533300  1.0  -0.5648
  O  O394  1  0.563300  0.021100  0.556300  1.0  -0.6087
  O  O395  1  0.117700  0.975700  0.532300  1.0  -0.5235
  O  O396  1  0.933100  0.968200  0.554600  1.0  -0.5694
  O  O397  1  0.824400  0.939600  0.718700  1.0  -0.5321
  O  O398  1  0.637700  0.927100  0.695900  1.0  -0.6005
  O  O399  1  0.589800  0.982800  0.781900  1.0  -0.5421
  O  O400  1  0.767700  0.981900  0.806200  1.0  -0.5739
