# generated using pymatgen
data_Nd4H74Pt3C144(NO2)12
_symmetry_space_group_name_H-M   'P 1'
_cell_length_a   16.20680000
_cell_length_b   16.20680000
_cell_length_c   31.37730000
_cell_angle_alpha   99.48390000
_cell_angle_beta   99.48390000
_cell_angle_gamma   96.25720000
_symmetry_Int_Tables_number   1
_chemical_formula_structural   Nd4H74Pt3C144(NO2)12
_chemical_formula_sum   'Nd8 H148 Pt6 C288 N24 O48'
_cell_volume   7938.92424918
_cell_formula_units_Z   2
loop_
 _symmetry_equiv_pos_site_id
 _symmetry_equiv_pos_as_xyz
  1  'x, y, z'
loop_
 _atom_site_type_symbol
 _atom_site_label
 _atom_site_symmetry_multiplicity
 _atom_site_fract_x
 _atom_site_fract_y
 _atom_site_fract_z
 _atom_site_occupancy
 _atom_site_charge
  Nd  Nd1  1  0.812930  0.356590  0.799120  1.0  2.334
  Nd  Nd2  1  0.978300  0.359360  0.913000  1.0  2.2556
  Nd  Nd3  1  0.643410  0.187070  0.700880  1.0  2.3354
  Nd  Nd4  1  0.640640  0.021700  0.587000  1.0  2.2567
  Nd  Nd5  1  0.187070  0.643410  0.200880  1.0  2.3362
  Nd  Nd6  1  0.021700  0.640640  0.087000  1.0  2.256
  Nd  Nd7  1  0.356590  0.812930  0.299120  1.0  2.335
  Nd  Nd8  1  0.359360  0.978300  0.413000  1.0  2.2561
  H  H9  1  0.981600  0.715400  0.664000  1.0  0.1107
  H  H10  1  0.036300  0.624300  0.713400  1.0  0.1306
  H  H11  1  0.201500  0.356700  0.693000  1.0  0.1138
  H  H12  1  0.294000  0.309200  0.642800  1.0  0.1281
  H  H13  1  0.367400  0.397400  0.495700  1.0  0.1303
  H  H14  1  0.298300  0.477900  0.442600  1.0  0.1164
  H  H15  1  0.035900  0.653900  0.437000  1.0  0.1264
  H  H16  1  0.947100  0.697100  0.488800  1.0  0.1166
  H  H17  1  0.174200  0.580200  0.759200  1.0  0.1044
  H  H18  1  0.139300  0.543900  0.824000  1.0  0.091
  H  H19  1  0.994000  0.331400  0.756200  1.0  0.1151
  H  H20  1  0.031300  0.364100  0.690800  1.0  0.1218
  H  H21  1  0.449300  0.417700  0.608600  1.0  0.1116
  H  H22  1  0.544100  0.321100  0.624100  1.0  0.1091
  H  H23  1  0.380400  0.136600  0.541400  1.0  0.1073
  H  H24  1  0.287500  0.235500  0.528200  1.0  0.1072
  H  H25  1  0.275700  0.673700  0.446500  1.0  0.1246
  H  H26  1  0.289000  0.700800  0.377900  1.0  0.0913
  H  H27  1  0.095600  0.523200  0.320900  1.0  0.0908
  H  H28  1  0.080900  0.490100  0.388000  1.0  0.1088
  H  H29  1  0.009900  0.825700  0.557900  1.0  0.1224
  H  H30  1  0.915200  0.924200  0.563900  1.0  0.1315
  H  H31  1  0.752000  0.753200  0.600300  1.0  0.1264
  H  H32  1  0.846800  0.654600  0.594400  1.0  0.1156
  H  H33  1  0.809000  0.005000  0.564500  1.0  0.2954
  H  H34  1  0.026300  0.937700  0.831200  1.0  0.1322
  H  H35  1  0.089900  0.852100  0.882800  1.0  0.111
  H  H36  1  0.315200  0.641200  0.885800  1.0  0.1238
  H  H37  1  0.400100  0.584700  0.835300  1.0  0.1124
  H  H38  1  0.103300  0.078900  0.789000  1.0  0.113
  H  H39  1  0.006100  0.177500  0.789500  1.0  0.1183
  H  H40  1  0.280700  0.807300  0.938900  1.0  0.1038
  H  H41  1  0.230300  0.784700  0.003200  1.0  0.0988
  H  H42  1  0.035300  0.619100  0.930700  1.0  0.1206
  H  H43  1  0.077500  0.648500  0.867700  1.0  0.0971
  H  H44  1  0.521200  0.638000  0.796300  1.0  0.0944
  H  H45  1  0.619900  0.542700  0.797600  1.0  0.111
  H  H46  1  0.284600  0.018400  0.836000  1.0  0.1113
  H  H47  1  0.375700  0.963700  0.786600  1.0  0.1318
  H  H48  1  0.643300  0.798500  0.807000  1.0  0.1124
  H  H49  1  0.690800  0.706000  0.857200  1.0  0.1272
  H  H50  1  0.602600  0.632600  0.004300  1.0  0.1311
  H  H51  1  0.522100  0.701700  0.057400  1.0  0.1161
  H  H52  1  0.346100  0.964100  0.063000  1.0  0.1238
  H  H53  1  0.302900  0.052900  0.011200  1.0  0.1148
  H  H54  1  0.419800  0.825800  0.740800  1.0  0.1037
  H  H55  1  0.456100  0.860700  0.676000  1.0  0.0912
  H  H56  1  0.668600  0.006000  0.743800  1.0  0.1149
  H  H57  1  0.635900  0.968700  0.809200  1.0  0.1223
  H  H58  1  0.582300  0.550700  0.891400  1.0  0.11
  H  H59  1  0.678900  0.455900  0.875900  1.0  0.1105
  H  H60  1  0.863400  0.619600  0.958600  1.0  0.106
  H  H61  1  0.764500  0.712500  0.971800  1.0  0.1069
  H  H62  1  0.326300  0.724300  0.053500  1.0  0.1234
  H  H63  1  0.299200  0.711000  0.122100  1.0  0.0925
  H  H64  1  0.476800  0.904400  0.179100  1.0  0.0914
  H  H65  1  0.509900  0.919100  0.112000  1.0  0.1087
  H  H66  1  0.174300  0.990100  0.942100  1.0  0.123
  H  H67  1  0.075800  0.084800  0.936100  1.0  0.1302
  H  H68  1  0.246800  0.248000  0.899700  1.0  0.1269
  H  H69  1  0.345400  0.153200  0.905600  1.0  0.1148
  H  H70  1  0.995000  0.191000  0.935500  1.0  0.2938
  H  H71  1  0.062300  0.973700  0.668800  1.0  0.1332
  H  H72  1  0.147900  0.910100  0.617200  1.0  0.1122
  H  H73  1  0.358800  0.684800  0.614200  1.0  0.1252
  H  H74  1  0.415300  0.599900  0.664700  1.0  0.112
  H  H75  1  0.921100  0.896700  0.711000  1.0  0.1114
  H  H76  1  0.822500  0.993900  0.710500  1.0  0.1176
  H  H77  1  0.192700  0.719300  0.561100  1.0  0.1038
  H  H78  1  0.215300  0.769700  0.496800  1.0  0.0998
  H  H79  1  0.380900  0.964700  0.569300  1.0  0.1205
  H  H80  1  0.351500  0.922500  0.632300  1.0  0.0969
  H  H81  1  0.362000  0.478800  0.703700  1.0  0.0949
  H  H82  1  0.457300  0.380100  0.702400  1.0  0.1112
  H  H83  1  0.018400  0.284600  0.336000  1.0  0.1108
  H  H84  1  0.963700  0.375700  0.286600  1.0  0.131
  H  H85  1  0.798500  0.643300  0.307000  1.0  0.1138
  H  H86  1  0.706000  0.690800  0.357200  1.0  0.1285
  H  H87  1  0.632600  0.602600  0.504300  1.0  0.1297
  H  H88  1  0.701700  0.522100  0.557400  1.0  0.116
  H  H89  1  0.964100  0.346100  0.563000  1.0  0.1231
  H  H90  1  0.052900  0.302900  0.511200  1.0  0.1155
  H  H91  1  0.825800  0.419800  0.240800  1.0  0.1041
  H  H92  1  0.860700  0.456100  0.176000  1.0  0.0909
  H  H93  1  0.006000  0.668600  0.243800  1.0  0.1158
  H  H94  1  0.968700  0.635900  0.309200  1.0  0.1211
  H  H95  1  0.550700  0.582300  0.391400  1.0  0.1117
  H  H96  1  0.455900  0.678900  0.375900  1.0  0.1093
  H  H97  1  0.619600  0.863400  0.458600  1.0  0.107
  H  H98  1  0.712500  0.764500  0.471800  1.0  0.1069
  H  H99  1  0.724300  0.326300  0.553500  1.0  0.1242
  H  H100  1  0.711000  0.299200  0.622100  1.0  0.0924
  H  H101  1  0.904400  0.476800  0.679100  1.0  0.0912
  H  H102  1  0.919100  0.509900  0.612000  1.0  0.1086
  H  H103  1  0.990100  0.174300  0.442100  1.0  0.1219
  H  H104  1  0.084800  0.075800  0.436100  1.0  0.132
  H  H105  1  0.248000  0.246800  0.399700  1.0  0.1267
  H  H106  1  0.153200  0.345400  0.405600  1.0  0.1165
  H  H107  1  0.191000  0.995000  0.435500  1.0  0.2944
  H  H108  1  0.973700  0.062300  0.168800  1.0  0.1314
  H  H109  1  0.910100  0.147900  0.117200  1.0  0.1113
  H  H110  1  0.684800  0.358800  0.114200  1.0  0.1247
  H  H111  1  0.599900  0.415300  0.164700  1.0  0.1122
  H  H112  1  0.896700  0.921100  0.211000  1.0  0.1125
  H  H113  1  0.993900  0.822500  0.210500  1.0  0.1181
  H  H114  1  0.719300  0.192700  0.061100  1.0  0.1044
  H  H115  1  0.769700  0.215300  0.996800  1.0  0.099
  H  H116  1  0.964700  0.380900  0.069300  1.0  0.1207
  H  H117  1  0.922500  0.351500  0.132300  1.0  0.0964
  H  H118  1  0.478800  0.362000  0.203700  1.0  0.0951
  H  H119  1  0.380100  0.457300  0.202400  1.0  0.1117
  H  H120  1  0.715400  0.981600  0.164000  1.0  0.1107
  H  H121  1  0.624300  0.036300  0.213400  1.0  0.1316
  H  H122  1  0.356700  0.201500  0.193000  1.0  0.1161
  H  H123  1  0.309200  0.294000  0.142800  1.0  0.1267
  H  H124  1  0.397400  0.367400  0.995700  1.0  0.1315
  H  H125  1  0.477900  0.298300  0.942600  1.0  0.1175
  H  H126  1  0.653900  0.035900  0.937000  1.0  0.1261
  H  H127  1  0.697100  0.947100  0.988800  1.0  0.115
  H  H128  1  0.580200  0.174200  0.259200  1.0  0.104
  H  H129  1  0.543900  0.139300  0.324000  1.0  0.0909
  H  H130  1  0.331400  0.994000  0.256200  1.0  0.1148
  H  H131  1  0.364100  0.031300  0.190800  1.0  0.1233
  H  H132  1  0.417700  0.449300  0.108600  1.0  0.1105
  H  H133  1  0.321100  0.544100  0.124100  1.0  0.1106
  H  H134  1  0.136600  0.380400  0.041400  1.0  0.1069
  H  H135  1  0.235500  0.287500  0.028200  1.0  0.1076
  H  H136  1  0.673700  0.275700  0.946500  1.0  0.1238
  H  H137  1  0.700800  0.289000  0.877900  1.0  0.0913
  H  H138  1  0.523200  0.095600  0.820900  1.0  0.091
  H  H139  1  0.490100  0.080900  0.888000  1.0  0.1088
  H  H140  1  0.825700  0.009900  0.057900  1.0  0.1228
  H  H141  1  0.924200  0.915200  0.063900  1.0  0.1307
  H  H142  1  0.753200  0.752000  0.100300  1.0  0.1268
  H  H143  1  0.654600  0.846800  0.094400  1.0  0.1153
  H  H144  1  0.005000  0.809000  0.064500  1.0  0.2942
  H  H145  1  0.937700  0.026300  0.331200  1.0  0.133
  H  H146  1  0.852100  0.089900  0.382800  1.0  0.1109
  H  H147  1  0.641200  0.315200  0.385800  1.0  0.1238
  H  H148  1  0.584700  0.400100  0.335300  1.0  0.1122
  H  H149  1  0.078900  0.103300  0.289000  1.0  0.1125
  H  H150  1  0.177500  0.006100  0.289500  1.0  0.1178
  H  H151  1  0.807300  0.280700  0.438900  1.0  0.1037
  H  H152  1  0.784700  0.230300  0.503200  1.0  0.1001
  H  H153  1  0.619100  0.035300  0.430700  1.0  0.1204
  H  H154  1  0.648500  0.077500  0.367700  1.0  0.0969
  H  H155  1  0.638000  0.521200  0.296300  1.0  0.0939
  H  H156  1  0.542700  0.619900  0.297600  1.0  0.1109
  Pt  Pt157  1  0.143960  0.528320  0.572050  1.0  0.0514
  Pt  Pt158  1  0.471680  0.856040  0.927950  1.0  0.0508
  Pt  Pt159  1  0.856040  0.471680  0.427950  1.0  0.0522
  Pt  Pt160  1  0.528320  0.143960  0.072050  1.0  0.0525
  Pt  Pt161  1  0.227250  0.772750  0.750000  1.0  0.0886
  Pt  Pt162  1  0.772750  0.227250  0.250000  1.0  0.0887
  C  C163  1  0.030800  0.642200  0.614300  1.0  0.1811
  C  C164  1  0.011600  0.669600  0.656400  1.0  -0.1369
  C  C165  1  0.042400  0.621000  0.683600  1.0  -0.1578
  C  C166  1  0.086300  0.562700  0.659700  1.0  0.1854
  C  C167  1  0.120300  0.497100  0.675400  1.0  -0.0675
  C  C168  1  0.168800  0.444200  0.653200  1.0  0.1817
  C  C169  1  0.208600  0.378600  0.667300  1.0  -0.0803
  C  C170  1  0.258200  0.351200  0.639700  1.0  -0.1653
  C  C171  1  0.247300  0.397100  0.604700  1.0  0.1756
  C  C172  1  0.290600  0.390200  0.570000  1.0  -0.0845
  C  C173  1  0.276200  0.434000  0.534400  1.0  0.1707
  C  C174  1  0.320900  0.427500  0.498800  1.0  -0.172
  C  C175  1  0.284000  0.472400  0.470200  1.0  -0.1582
  C  C176  1  0.219700  0.509900  0.489000  1.0  0.1971
  C  C177  1  0.164900  0.559300  0.468200  1.0  -0.0953
  C  C178  1  0.101500  0.593500  0.486500  1.0  0.1958
  C  C179  1  0.040500  0.642300  0.466000  1.0  -0.1551
  C  C180  1  0.993900  0.667300  0.494300  1.0  -0.119
  C  C181  1  0.024300  0.642700  0.535000  1.0  0.1464
  C  C182  1  0.000500  0.670700  0.575400  1.0  -0.0612
  C  C183  1  0.103500  0.476500  0.718900  1.0  0.0546
  C  C184  1  0.137200  0.530000  0.758200  1.0  -0.1821
  C  C185  1  0.115200  0.508400  0.796500  1.0  -0.0125
  C  C186  1  0.060400  0.438200  0.795700  1.0  -0.1332
  C  C187  1  0.029600  0.382400  0.756800  1.0  -0.036
  C  C188  1  0.051800  0.402000  0.717900  1.0  -0.1133
  C  C189  1  0.031300  0.422900  0.837300  1.0  0.7115
  C  C190  1  0.355400  0.331800  0.572000  1.0  0.0802
  C  C191  1  0.433300  0.359300  0.596700  1.0  -0.1209
  C  C192  1  0.491200  0.302000  0.604900  1.0  -0.0633
  C  C193  1  0.470600  0.219400  0.585300  1.0  -0.0844
  C  C194  1  0.394600  0.193600  0.556400  1.0  -0.0658
  C  C195  1  0.338200  0.252400  0.549300  1.0  -0.1141
  C  C196  1  0.527700  0.157300  0.595100  1.0  0.6734
  C  C197  1  0.176300  0.576300  0.424200  1.0  0.0554
  C  C198  1  0.239000  0.641800  0.420900  1.0  -0.2055
  C  C199  1  0.245800  0.658200  0.380200  1.0  -0.0314
  C  C200  1  0.193200  0.616200  0.342800  1.0  -0.1385
  C  C201  1  0.132700  0.553700  0.346700  1.0  -0.0621
  C  C202  1  0.123800  0.533800  0.386500  1.0  -0.1567
  C  C203  1  0.198200  0.638200  0.299100  1.0  0.6616
  C  C204  1  0.937300  0.730900  0.575600  1.0  0.0699
  C  C205  1  0.957600  0.811000  0.566530  1.0  -0.1131
  C  C206  1  0.901300  0.869500  0.570050  1.0  -0.1114
  C  C207  1  0.824700  0.847900  0.582650  1.0  -0.0338
  C  C208  1  0.804340  0.767940  0.591730  1.0  -0.0551
  C  C209  1  0.860700  0.709300  0.588200  1.0  -0.0754
  C  C210  1  0.761900  0.909300  0.589290  1.0  0.4537
  C  C211  1  0.102160  0.880840  0.786820  1.0  0.2076
  C  C212  1  0.066060  0.899940  0.826180  1.0  -0.1557
  C  C213  1  0.101000  0.852800  0.854100  1.0  -0.0704
  C  C214  1  0.156300  0.805300  0.834200  1.0  0.236
  C  C215  1  0.203600  0.749000  0.853500  1.0  -0.0704
  C  C216  1  0.264000  0.707000  0.836400  1.0  0.1506
  C  C217  1  0.314900  0.652700  0.857100  1.0  -0.1508
  C  C218  1  0.360100  0.622100  0.829700  1.0  -0.1361
  C  C219  1  0.340000  0.654600  0.787700  1.0  0.1817
  C  C220  1  0.047100  0.061700  0.773300  1.0  -0.0951
  C  C221  1  0.989300  0.121100  0.773700  1.0  -0.0659
  C  C222  1  0.182000  0.732200  0.896500  1.0  -0.0037
  C  C223  1  0.229600  0.771000  0.936900  1.0  -0.1526
  C  C224  1  0.200200  0.755400  0.975300  1.0  -0.0289
  C  C225  1  0.129400  0.699000  0.973300  1.0  -0.1272
  C  C226  1  0.084200  0.658600  0.932700  1.0  -0.1449
  C  C227  1  0.110000  0.676000  0.895500  1.0  -0.1109
  C  C228  1  0.101300  0.677900  0.015900  1.0  0.6539
  C  C229  1  0.508100  0.584700  0.777000  1.0  -0.1086
  C  C230  1  0.567200  0.528000  0.777800  1.0  -0.0931
  C  C231  1  0.357800  0.969200  0.885700  1.0  0.1804
  C  C232  1  0.330400  0.988400  0.843600  1.0  -0.1371
  C  C233  1  0.379000  0.957600  0.816400  1.0  -0.1575
  C  C234  1  0.437300  0.913700  0.840300  1.0  0.1846
  C  C235  1  0.502900  0.879700  0.824600  1.0  -0.0658
  C  C236  1  0.555800  0.831200  0.846800  1.0  0.1824
  C  C237  1  0.621400  0.791400  0.832700  1.0  -0.0818
  C  C238  1  0.648800  0.741800  0.860300  1.0  -0.1643
  C  C239  1  0.602900  0.752700  0.895300  1.0  0.1765
  C  C240  1  0.609800  0.709400  0.930000  1.0  -0.0845
  C  C241  1  0.566000  0.723800  0.965600  1.0  0.1719
  C  C242  1  0.572500  0.679100  0.001200  1.0  -0.1718
  C  C243  1  0.527600  0.716000  0.029800  1.0  -0.1557
  C  C244  1  0.490100  0.780300  0.011000  1.0  0.1961
  C  C245  1  0.440700  0.835100  0.031800  1.0  -0.096
  C  C246  1  0.406500  0.898500  0.013500  1.0  0.1953
  C  C247  1  0.357700  0.959500  0.034000  1.0  -0.1514
  C  C248  1  0.332700  0.006100  0.005700  1.0  -0.1202
  C  C249  1  0.357300  0.975700  0.965000  1.0  0.1455
  C  C250  1  0.329300  0.999500  0.924600  1.0  -0.0614
  C  C251  1  0.523500  0.896500  0.781100  1.0  0.0527
  C  C252  1  0.470000  0.862800  0.741800  1.0  -0.1818
  C  C253  1  0.491600  0.884800  0.703500  1.0  -0.0121
  C  C254  1  0.561800  0.939600  0.704300  1.0  -0.134
  C  C255  1  0.617600  0.970400  0.743200  1.0  -0.0334
  C  C256  1  0.598000  0.948200  0.782100  1.0  -0.113
  C  C257  1  0.577100  0.968700  0.662700  1.0  0.7128
  C  C258  1  0.668200  0.644600  0.928000  1.0  0.0795
  C  C259  1  0.640700  0.566700  0.903300  1.0  -0.1222
  C  C260  1  0.698000  0.508800  0.895100  1.0  -0.0663
  C  C261  1  0.780600  0.529400  0.914700  1.0  -0.0854
  C  C262  1  0.806400  0.605400  0.943600  1.0  -0.0618
  C  C263  1  0.747600  0.661800  0.950700  1.0  -0.1109
  C  C264  1  0.842700  0.472300  0.904900  1.0  0.6715
  C  C265  1  0.423700  0.823700  0.075800  1.0  0.0557
  C  C266  1  0.358200  0.761000  0.079100  1.0  -0.2062
  C  C267  1  0.341800  0.754200  0.119800  1.0  -0.0306
  C  C268  1  0.383800  0.806800  0.157200  1.0  -0.132
  C  C269  1  0.446300  0.867300  0.153300  1.0  -0.0651
  C  C270  1  0.466200  0.876200  0.113500  1.0  -0.1593
  C  C271  1  0.361800  0.801800  0.200900  1.0  0.6613
  C  C272  1  0.269100  0.062700  0.924400  1.0  0.0706
  C  C273  1  0.189000  0.042400  0.933470  1.0  -0.1075
  C  C274  1  0.130500  0.098700  0.929950  1.0  -0.1091
  C  C275  1  0.152100  0.175300  0.917350  1.0  -0.0326
  C  C276  1  0.232060  0.195660  0.908270  1.0  -0.0576
  C  C277  1  0.290700  0.139300  0.911800  1.0  -0.0788
  C  C278  1  0.090700  0.238100  0.910710  1.0  0.4525
  C  C279  1  0.119160  0.897840  0.713180  1.0  0.2057
  C  C280  1  0.100060  0.933940  0.673820  1.0  -0.1592
  C  C281  1  0.147200  0.899000  0.645900  1.0  -0.0694
  C  C282  1  0.194700  0.843700  0.665800  1.0  0.2387
  C  C283  1  0.251000  0.796400  0.646500  1.0  -0.0709
  C  C284  1  0.293000  0.736000  0.663600  1.0  0.1489
  C  C285  1  0.347300  0.685100  0.642900  1.0  -0.1488
  C  C286  1  0.377900  0.639900  0.670300  1.0  -0.1357
  C  C287  1  0.345400  0.660000  0.712300  1.0  0.1798
  C  C288  1  0.938300  0.952900  0.726700  1.0  -0.0943
  C  C289  1  0.878900  0.010700  0.726300  1.0  -0.0648
  C  C290  1  0.267800  0.818000  0.603500  1.0  -0.0026
  C  C291  1  0.229000  0.770400  0.563100  1.0  -0.1521
  C  C292  1  0.244600  0.799800  0.524700  1.0  -0.0284
  C  C293  1  0.301000  0.870600  0.526700  1.0  -0.125
  C  C294  1  0.341400  0.915800  0.567300  1.0  -0.1472
  C  C295  1  0.324000  0.890000  0.604500  1.0  -0.1147
  C  C296  1  0.322100  0.898700  0.484100  1.0  0.6516
  C  C297  1  0.415300  0.491900  0.723000  1.0  -0.1096
  C  C298  1  0.472000  0.432800  0.722200  1.0  -0.0964
  C  C299  1  0.969200  0.357800  0.385700  1.0  0.18
  C  C300  1  0.988400  0.330400  0.343600  1.0  -0.1375
  C  C301  1  0.957600  0.379000  0.316400  1.0  -0.1585
  C  C302  1  0.913700  0.437300  0.340300  1.0  0.1843
  C  C303  1  0.879700  0.502900  0.324600  1.0  -0.0668
  C  C304  1  0.831200  0.555800  0.346800  1.0  0.1831
  C  C305  1  0.791400  0.621400  0.332700  1.0  -0.0798
  C  C306  1  0.741800  0.648800  0.360300  1.0  -0.1648
  C  C307  1  0.752700  0.602900  0.395300  1.0  0.175
  C  C308  1  0.709400  0.609800  0.430000  1.0  -0.0846
  C  C309  1  0.723800  0.566000  0.465600  1.0  0.1716
  C  C310  1  0.679100  0.572500  0.501200  1.0  -0.174
  C  C311  1  0.716000  0.527600  0.529800  1.0  -0.1581
  C  C312  1  0.780300  0.490100  0.511000  1.0  0.197
  C  C313  1  0.835100  0.440700  0.531800  1.0  -0.0956
  C  C314  1  0.898500  0.406500  0.513500  1.0  0.1956
  C  C315  1  0.959500  0.357700  0.534000  1.0  -0.1537
  C  C316  1  0.006100  0.332700  0.505700  1.0  -0.1172
  C  C317  1  0.975700  0.357300  0.465000  1.0  0.1456
  C  C318  1  0.999500  0.329300  0.424600  1.0  -0.0612
  C  C319  1  0.896500  0.523500  0.281100  1.0  0.0541
  C  C320  1  0.862800  0.470000  0.241800  1.0  -0.1836
  C  C321  1  0.884800  0.491600  0.203500  1.0  -0.0124
  C  C322  1  0.939600  0.561800  0.204300  1.0  -0.133
  C  C323  1  0.970400  0.617600  0.243200  1.0  -0.037
  C  C324  1  0.948200  0.598000  0.282100  1.0  -0.1126
  C  C325  1  0.968700  0.577100  0.162700  1.0  0.7119
  C  C326  1  0.644600  0.668200  0.428000  1.0  0.0789
  C  C327  1  0.566700  0.640700  0.403300  1.0  -0.1223
  C  C328  1  0.508800  0.698000  0.395100  1.0  -0.0637
  C  C329  1  0.529400  0.780600  0.414700  1.0  -0.0844
  C  C330  1  0.605400  0.806400  0.443600  1.0  -0.0656
  C  C331  1  0.661800  0.747600  0.450700  1.0  -0.113
  C  C332  1  0.472300  0.842700  0.404900  1.0  0.674
  C  C333  1  0.823700  0.423700  0.575800  1.0  0.0543
  C  C334  1  0.761000  0.358200  0.579100  1.0  -0.2043
  C  C335  1  0.754200  0.341800  0.619800  1.0  -0.0315
  C  C336  1  0.806800  0.383800  0.657200  1.0  -0.1375
  C  C337  1  0.867300  0.446300  0.653300  1.0  -0.0636
  C  C338  1  0.876200  0.466200  0.613500  1.0  -0.1579
  C  C339  1  0.801800  0.361800  0.700900  1.0  0.6613
  C  C340  1  0.062700  0.269100  0.424400  1.0  0.0714
  C  C341  1  0.042400  0.189000  0.433470  1.0  -0.1094
  C  C342  1  0.098700  0.130500  0.429950  1.0  -0.1103
  C  C343  1  0.175300  0.152100  0.417350  1.0  -0.0338
  C  C344  1  0.195660  0.232060  0.408270  1.0  -0.0543
  C  C345  1  0.139300  0.290700  0.411800  1.0  -0.0743
  C  C346  1  0.238100  0.090700  0.410710  1.0  0.4532
  C  C347  1  0.897840  0.119160  0.213180  1.0  0.2084
  C  C348  1  0.933940  0.100060  0.173820  1.0  -0.1564
  C  C349  1  0.899000  0.147200  0.145900  1.0  -0.0687
  C  C350  1  0.843700  0.194700  0.165800  1.0  0.2358
  C  C351  1  0.796400  0.251000  0.146500  1.0  -0.0709
  C  C352  1  0.736000  0.293000  0.163600  1.0  0.1504
  C  C353  1  0.685100  0.347300  0.142900  1.0  -0.1501
  C  C354  1  0.639900  0.377900  0.170300  1.0  -0.1354
  C  C355  1  0.660000  0.345400  0.212300  1.0  0.1812
  C  C356  1  0.952900  0.938300  0.226700  1.0  -0.0945
  C  C357  1  0.010700  0.878900  0.226300  1.0  -0.0645
  C  C358  1  0.818000  0.267800  0.103500  1.0  -0.0024
  C  C359  1  0.770400  0.229000  0.063100  1.0  -0.1516
  C  C360  1  0.799800  0.244600  0.024700  1.0  -0.0287
  C  C361  1  0.870600  0.301000  0.026700  1.0  -0.1271
  C  C362  1  0.915800  0.341400  0.067300  1.0  -0.1465
  C  C363  1  0.890000  0.324000  0.104500  1.0  -0.1106
  C  C364  1  0.898700  0.322100  0.984100  1.0  0.6508
  C  C365  1  0.491900  0.415300  0.223000  1.0  -0.1106
  C  C366  1  0.432800  0.472000  0.222200  1.0  -0.093
  C  C367  1  0.642200  0.030800  0.114300  1.0  0.1807
  C  C368  1  0.669600  0.011600  0.156400  1.0  -0.1353
  C  C369  1  0.621000  0.042400  0.183600  1.0  -0.1583
  C  C370  1  0.562700  0.086300  0.159700  1.0  0.1848
  C  C371  1  0.497100  0.120300  0.175400  1.0  -0.0663
  C  C372  1  0.444200  0.168800  0.153200  1.0  0.1809
  C  C373  1  0.378600  0.208600  0.167300  1.0  -0.0822
  C  C374  1  0.351200  0.258200  0.139700  1.0  -0.1651
  C  C375  1  0.397100  0.247300  0.104700  1.0  0.1751
  C  C376  1  0.390200  0.290600  0.070000  1.0  -0.0844
  C  C377  1  0.434000  0.276200  0.034400  1.0  0.1718
  C  C378  1  0.427500  0.320900  0.998800  1.0  -0.1721
  C  C379  1  0.472400  0.284000  0.970200  1.0  -0.1553
  C  C380  1  0.509900  0.219700  0.989000  1.0  0.1967
  C  C381  1  0.559300  0.164900  0.968200  1.0  -0.0953
  C  C382  1  0.593500  0.101500  0.986500  1.0  0.1955
  C  C383  1  0.642300  0.040500  0.966000  1.0  -0.1534
  C  C384  1  0.667300  0.993900  0.994300  1.0  -0.119
  C  C385  1  0.642700  0.024300  0.035000  1.0  0.1449
  C  C386  1  0.670700  0.000500  0.075400  1.0  -0.0614
  C  C387  1  0.476500  0.103500  0.218900  1.0  0.0512
  C  C388  1  0.530000  0.137200  0.258200  1.0  -0.181
  C  C389  1  0.508400  0.115200  0.296500  1.0  -0.0131
  C  C390  1  0.438200  0.060400  0.295700  1.0  -0.134
  C  C391  1  0.382400  0.029600  0.256800  1.0  -0.0331
  C  C392  1  0.402000  0.051800  0.217900  1.0  -0.1114
  C  C393  1  0.422900  0.031300  0.337300  1.0  0.7129
  C  C394  1  0.331800  0.355400  0.072000  1.0  0.0792
  C  C395  1  0.359300  0.433300  0.096700  1.0  -0.1224
  C  C396  1  0.302000  0.491200  0.104900  1.0  -0.066
  C  C397  1  0.219400  0.470600  0.085300  1.0  -0.0864
  C  C398  1  0.193600  0.394600  0.056400  1.0  -0.0634
  C  C399  1  0.252400  0.338200  0.049300  1.0  -0.1108
  C  C400  1  0.157300  0.527700  0.095100  1.0  0.6723
  C  C401  1  0.576300  0.176300  0.924200  1.0  0.056
  C  C402  1  0.641800  0.239000  0.920900  1.0  -0.2084
  C  C403  1  0.658200  0.245800  0.880200  1.0  -0.0312
  C  C404  1  0.616200  0.193200  0.842800  1.0  -0.1354
  C  C405  1  0.553700  0.132700  0.846700  1.0  -0.0635
  C  C406  1  0.533800  0.123800  0.886500  1.0  -0.1581
  C  C407  1  0.638200  0.198200  0.799100  1.0  0.6614
  C  C408  1  0.730900  0.937300  0.075600  1.0  0.0715
  C  C409  1  0.811000  0.957600  0.066530  1.0  -0.1086
  C  C410  1  0.869500  0.901300  0.070050  1.0  -0.1073
  C  C411  1  0.847900  0.824700  0.082650  1.0  -0.0333
  C  C412  1  0.767940  0.804340  0.091730  1.0  -0.0582
  C  C413  1  0.709300  0.860700  0.088200  1.0  -0.0775
  C  C414  1  0.909300  0.761900  0.089290  1.0  0.4535
  C  C415  1  0.880840  0.102160  0.286820  1.0  0.2066
  C  C416  1  0.899940  0.066060  0.326180  1.0  -0.1586
  C  C417  1  0.852800  0.101000  0.354100  1.0  -0.0718
  C  C418  1  0.805300  0.156300  0.334200  1.0  0.2374
  C  C419  1  0.749000  0.203600  0.353500  1.0  -0.0709
  C  C420  1  0.707000  0.264000  0.336400  1.0  0.1495
  C  C421  1  0.652700  0.314900  0.357100  1.0  -0.1479
  C  C422  1  0.622100  0.360100  0.329700  1.0  -0.1349
  C  C423  1  0.654600  0.340000  0.287700  1.0  0.1797
  C  C424  1  0.061700  0.047100  0.273300  1.0  -0.0962
  C  C425  1  0.121100  0.989300  0.273700  1.0  -0.0653
  C  C426  1  0.732200  0.182000  0.396500  1.0  -0.0033
  C  C427  1  0.771000  0.229600  0.436900  1.0  -0.1509
  C  C428  1  0.755400  0.200200  0.475300  1.0  -0.029
  C  C429  1  0.699000  0.129400  0.473300  1.0  -0.1256
  C  C430  1  0.658600  0.084200  0.432700  1.0  -0.1462
  C  C431  1  0.676000  0.110000  0.395500  1.0  -0.116
  C  C432  1  0.677900  0.101300  0.515900  1.0  0.6553
  C  C433  1  0.584700  0.508100  0.277000  1.0  -0.1107
  C  C434  1  0.528000  0.567200  0.277800  1.0  -0.0954
  C  C435  1  0.084710  0.915290  0.750000  1.0  0.0117
  C  C436  1  0.369800  0.630200  0.750000  1.0  -0.1487
  C  C437  1  0.023200  0.976800  0.750000  1.0  0.0222
  C  C438  1  0.905300  0.094700  0.750000  1.0  -0.1106
  C  C439  1  0.842100  0.157900  0.750000  1.0  0.7473
  C  C440  1  0.434500  0.565500  0.750000  1.0  0.1113
  C  C441  1  0.549000  0.451000  0.750000  1.0  -0.0956
  C  C442  1  0.611500  0.388500  0.750000  1.0  0.7534
  C  C443  1  0.915290  0.084710  0.250000  1.0  0.0125
  C  C444  1  0.630200  0.369800  0.250000  1.0  -0.1483
  C  C445  1  0.976800  0.023200  0.250000  1.0  0.0235
  C  C446  1  0.094700  0.905300  0.250000  1.0  -0.1106
  C  C447  1  0.157900  0.842100  0.250000  1.0  0.746
  C  C448  1  0.565500  0.434500  0.250000  1.0  0.1113
  C  C449  1  0.451000  0.549000  0.250000  1.0  -0.0938
  C  C450  1  0.388500  0.611500  0.250000  1.0  0.7546
  N  N451  1  0.081700  0.579700  0.617900  1.0  -0.3971
  N  N452  1  0.191300  0.453300  0.613000  1.0  -0.3876
  N  N453  1  0.216100  0.485900  0.528200  1.0  -0.3985
  N  N454  1  0.088300  0.593300  0.528800  1.0  -0.3876
  N  N455  1  0.159700  0.823900  0.794100  1.0  -0.4157
  N  N456  1  0.281000  0.707600  0.793600  1.0  -0.3961
  N  N457  1  0.420300  0.918300  0.882100  1.0  -0.3961
  N  N458  1  0.546700  0.808700  0.887000  1.0  -0.3908
  N  N459  1  0.514100  0.783900  0.971800  1.0  -0.3971
  N  N460  1  0.406700  0.911700  0.971200  1.0  -0.3869
  N  N461  1  0.176100  0.840300  0.705900  1.0  -0.4137
  N  N462  1  0.292400  0.719000  0.706400  1.0  -0.3963
  N  N463  1  0.918300  0.420300  0.382100  1.0  -0.398
  N  N464  1  0.808700  0.546700  0.387000  1.0  -0.3869
  N  N465  1  0.783900  0.514100  0.471800  1.0  -0.3995
  N  N466  1  0.911700  0.406700  0.471200  1.0  -0.3881
  N  N467  1  0.840300  0.176100  0.205900  1.0  -0.4158
  N  N468  1  0.719000  0.292400  0.206400  1.0  -0.3936
  N  N469  1  0.579700  0.081700  0.117900  1.0  -0.3983
  N  N470  1  0.453300  0.191300  0.113000  1.0  -0.3915
  N  N471  1  0.485900  0.216100  0.028200  1.0  -0.3962
  N  N472  1  0.593300  0.088300  0.028800  1.0  -0.3895
  N  N473  1  0.823900  0.159700  0.294100  1.0  -0.4135
  N  N474  1  0.707600  0.281000  0.293600  1.0  -0.3953
  O  O475  1  0.961100  0.371500  0.832380  1.0  -0.7526
  O  O476  1  0.071200  0.457400  0.874300  1.0  -0.6351
  O  O477  1  0.509400  0.082000  0.575400  1.0  -0.693
  O  O478  1  0.595700  0.180500  0.622990  1.0  -0.7651
  O  O479  1  0.151900  0.596100  0.265900  1.0  -0.6437
  O  O480  1  0.249900  0.700700  0.296130  1.0  -0.8185
  O  O481  1  0.726400  0.916000  0.617680  1.0  -0.5596
  O  O482  1  0.757800  0.962800  0.559820  1.0  -0.6003
  O  O483  1  0.869500  0.231300  0.770250  1.0  -0.7004
  O  O484  1  0.141200  0.706400  0.048400  1.0  -0.5678
  O  O485  1  0.033600  0.633800  0.010000  1.0  -0.5916
  O  O486  1  0.683700  0.410900  0.773900  1.0  -0.7518
  O  O487  1  0.628500  0.038900  0.667620  1.0  -0.7519
  O  O488  1  0.542600  0.928800  0.625700  1.0  -0.634
  O  O489  1  0.918000  0.490600  0.924600  1.0  -0.6922
  O  O490  1  0.819500  0.404300  0.877010  1.0  -0.767
  O  O491  1  0.403900  0.848100  0.234100  1.0  -0.6416
  O  O492  1  0.299300  0.750100  0.203870  1.0  -0.8196
  O  O493  1  0.084000  0.273600  0.882320  1.0  -0.5589
  O  O494  1  0.037200  0.242200  0.940180  1.0  -0.6037
  O  O495  1  0.768700  0.130500  0.729750  1.0  -0.699
  O  O496  1  0.293600  0.858800  0.451600  1.0  -0.5682
  O  O497  1  0.366200  0.966400  0.490000  1.0  -0.5928
  O  O498  1  0.589100  0.316300  0.726100  1.0  -0.752
  O  O499  1  0.038900  0.628500  0.167620  1.0  -0.7518
  O  O500  1  0.928800  0.542600  0.125700  1.0  -0.634
  O  O501  1  0.490600  0.918000  0.424600  1.0  -0.6923
  O  O502  1  0.404300  0.819500  0.377010  1.0  -0.7642
  O  O503  1  0.848100  0.403900  0.734100  1.0  -0.6436
  O  O504  1  0.750100  0.299300  0.703870  1.0  -0.8191
  O  O505  1  0.273600  0.084000  0.382320  1.0  -0.5592
  O  O506  1  0.242200  0.037200  0.440180  1.0  -0.6009
  O  O507  1  0.130500  0.768700  0.229750  1.0  -0.7013
  O  O508  1  0.858800  0.293600  0.951600  1.0  -0.5665
  O  O509  1  0.966400  0.366200  0.990000  1.0  -0.593
  O  O510  1  0.316300  0.589100  0.226100  1.0  -0.7516
  O  O511  1  0.371500  0.961100  0.332380  1.0  -0.7536
  O  O512  1  0.457400  0.071200  0.374300  1.0  -0.6316
  O  O513  1  0.082000  0.509400  0.075400  1.0  -0.6923
  O  O514  1  0.180500  0.595700  0.122990  1.0  -0.767
  O  O515  1  0.596100  0.151900  0.765900  1.0  -0.6433
  O  O516  1  0.700700  0.249900  0.796130  1.0  -0.8183
  O  O517  1  0.916000  0.726400  0.117680  1.0  -0.5609
  O  O518  1  0.962800  0.757800  0.059820  1.0  -0.6016
  O  O519  1  0.231300  0.869500  0.270250  1.0  -0.6995
  O  O520  1  0.706400  0.141200  0.548400  1.0  -0.5692
  O  O521  1  0.633800  0.033600  0.510000  1.0  -0.5936
  O  O522  1  0.410900  0.683700  0.273900  1.0  -0.7522
