# generated using pymatgen
data_Mg3H4(C5O4)4
_symmetry_space_group_name_H-M   'P 1'
_cell_length_a   18.81840000
_cell_length_b   9.48430000
_cell_length_c   17.34900000
_cell_angle_alpha   90.00000000
_cell_angle_beta   90.00000000
_cell_angle_gamma   90.00000000
_symmetry_Int_Tables_number   1
_chemical_formula_structural   Mg3H4(C5O4)4
_chemical_formula_sum   'Mg12 H16 C80 O64'
_cell_volume   3096.43826258
_cell_formula_units_Z   4
loop_
 _symmetry_equiv_pos_site_id
 _symmetry_equiv_pos_as_xyz
  1  'x, y, z'
loop_
 _atom_site_type_symbol
 _atom_site_label
 _atom_site_symmetry_multiplicity
 _atom_site_fract_x
 _atom_site_fract_y
 _atom_site_fract_z
 _atom_site_occupancy
 _atom_site_charge
  Mg  Mg1  1  0.255190  0.262140  0.304100  1.0  1.4787
  Mg  Mg2  1  0.244810  0.237860  0.804100  1.0  1.4849
  Mg  Mg3  1  0.744810  0.262140  0.195900  1.0  1.4809
  Mg  Mg4  1  0.755190  0.237860  0.695900  1.0  1.482
  Mg  Mg5  1  0.744810  0.737860  0.695900  1.0  1.4812
  Mg  Mg6  1  0.755190  0.762140  0.195900  1.0  1.4825
  Mg  Mg7  1  0.255190  0.737860  0.804100  1.0  1.4787
  Mg  Mg8  1  0.244810  0.762140  0.304100  1.0  1.4852
  Mg  Mg9  1  0.000000  0.070760  0.250000  1.0  1.4142
  Mg  Mg10  1  0.500000  0.429240  0.750000  1.0  1.4165
  Mg  Mg11  1  0.000000  0.929240  0.750000  1.0  1.4165
  Mg  Mg12  1  0.500000  0.570760  0.250000  1.0  1.4142
  H  H13  1  0.092400  0.201000  0.062200  1.0  0.1107
  H  H14  1  0.270900  0.544000  0.054200  1.0  0.0972
  H  H15  1  0.407600  0.299000  0.562200  1.0  0.1113
  H  H16  1  0.229100  0.956000  0.554200  1.0  0.0974
  H  H17  1  0.907600  0.201000  0.437800  1.0  0.1112
  H  H18  1  0.729100  0.544000  0.445800  1.0  0.0974
  H  H19  1  0.592400  0.299000  0.937800  1.0  0.111
  H  H20  1  0.770900  0.956000  0.945800  1.0  0.0972
  H  H21  1  0.907600  0.799000  0.937800  1.0  0.1113
  H  H22  1  0.729100  0.456000  0.945800  1.0  0.0969
  H  H23  1  0.592400  0.701000  0.437800  1.0  0.1108
  H  H24  1  0.770900  0.044000  0.445800  1.0  0.0967
  H  H25  1  0.092400  0.799000  0.562200  1.0  0.1109
  H  H26  1  0.270900  0.456000  0.554200  1.0  0.0971
  H  H27  1  0.407600  0.701000  0.062200  1.0  0.111
  H  H28  1  0.229100  0.044000  0.054200  1.0  0.0971
  C  C29  1  0.155300  0.327000  0.129390  1.0  -0.1348
  C  C30  1  0.130210  0.271900  0.060190  1.0  -0.0557
  C  C31  1  0.156870  0.313700  0.989060  1.0  -0.153
  C  C32  1  0.209730  0.417400  0.986930  1.0  -0.0544
  C  C33  1  0.234420  0.475000  0.056210  1.0  -0.0593
  C  C34  1  0.209010  0.429000  0.127280  1.0  -0.069
  C  C35  1  0.241890  0.494800  0.198840  1.0  0.7232
  C  C36  1  0.121740  0.274400  0.203130  1.0  0.7178
  C  C37  1  0.123790  0.248400  0.917840  1.0  0.7157
  C  C38  1  0.243600  0.471400  0.913270  1.0  0.7535
  C  C39  1  0.344700  0.173000  0.629390  1.0  -0.1351
  C  C40  1  0.369790  0.228100  0.560190  1.0  -0.0554
  C  C41  1  0.343130  0.186300  0.489060  1.0  -0.1523
  C  C42  1  0.290270  0.082600  0.486930  1.0  -0.0538
  C  C43  1  0.265580  0.025000  0.556210  1.0  -0.0606
  C  C44  1  0.290990  0.071000  0.627280  1.0  -0.0687
  C  C45  1  0.258110  0.005200  0.698840  1.0  0.7229
  C  C46  1  0.378260  0.225600  0.703130  1.0  0.7193
  C  C47  1  0.376210  0.251600  0.417840  1.0  0.7189
  C  C48  1  0.256400  0.028600  0.413270  1.0  0.7528
  C  C49  1  0.844700  0.327000  0.370610  1.0  -0.1337
  C  C50  1  0.869790  0.271900  0.439810  1.0  -0.0559
  C  C51  1  0.843130  0.313700  0.510940  1.0  -0.1527
  C  C52  1  0.790270  0.417400  0.513070  1.0  -0.0535
  C  C53  1  0.765580  0.475000  0.443790  1.0  -0.0605
  C  C54  1  0.790990  0.429000  0.372720  1.0  -0.0695
  C  C55  1  0.758110  0.494800  0.301160  1.0  0.7233
  C  C56  1  0.878260  0.274400  0.296870  1.0  0.7177
  C  C57  1  0.876210  0.248400  0.582160  1.0  0.72
  C  C58  1  0.756400  0.471400  0.586730  1.0  0.7533
  C  C59  1  0.655300  0.173000  0.870610  1.0  -0.1342
  C  C60  1  0.630210  0.228100  0.939810  1.0  -0.0569
  C  C61  1  0.656870  0.186300  0.010940  1.0  -0.1531
  C  C62  1  0.709730  0.082600  0.013070  1.0  -0.0527
  C  C63  1  0.734420  0.025000  0.943790  1.0  -0.0602
  C  C64  1  0.709010  0.071000  0.872720  1.0  -0.0697
  C  C65  1  0.741890  0.005200  0.801160  1.0  0.7222
  C  C66  1  0.621740  0.225600  0.796870  1.0  0.7184
  C  C67  1  0.623790  0.251600  0.082160  1.0  0.7159
  C  C68  1  0.743600  0.028600  0.086730  1.0  0.7534
  C  C69  1  0.844700  0.673000  0.870610  1.0  -0.1342
  C  C70  1  0.869790  0.728100  0.939810  1.0  -0.056
  C  C71  1  0.843130  0.686300  0.010940  1.0  -0.1528
  C  C72  1  0.790270  0.582600  0.013070  1.0  -0.0529
  C  C73  1  0.765580  0.525000  0.943790  1.0  -0.0608
  C  C74  1  0.790990  0.571000  0.872720  1.0  -0.0693
  C  C75  1  0.758110  0.505200  0.801160  1.0  0.7226
  C  C76  1  0.878260  0.725600  0.796870  1.0  0.7179
  C  C77  1  0.876210  0.751600  0.082160  1.0  0.7204
  C  C78  1  0.756400  0.528600  0.086730  1.0  0.7531
  C  C79  1  0.655300  0.827000  0.370610  1.0  -0.1341
  C  C80  1  0.630210  0.771900  0.439810  1.0  -0.0564
  C  C81  1  0.656870  0.813700  0.510940  1.0  -0.1527
  C  C82  1  0.709730  0.917400  0.513070  1.0  -0.0531
  C  C83  1  0.734420  0.975000  0.443790  1.0  -0.0596
  C  C84  1  0.709010  0.929000  0.372720  1.0  -0.0698
  C  C85  1  0.741890  0.994800  0.301160  1.0  0.7229
  C  C86  1  0.621740  0.774400  0.296870  1.0  0.7181
  C  C87  1  0.623790  0.748400  0.582160  1.0  0.7154
  C  C88  1  0.743600  0.971400  0.586730  1.0  0.7536
  C  C89  1  0.155300  0.673000  0.629390  1.0  -0.1346
  C  C90  1  0.130210  0.728100  0.560190  1.0  -0.0564
  C  C91  1  0.156870  0.686300  0.489060  1.0  -0.1533
  C  C92  1  0.209730  0.582600  0.486930  1.0  -0.0539
  C  C93  1  0.234420  0.525000  0.556210  1.0  -0.0599
  C  C94  1  0.209010  0.571000  0.627280  1.0  -0.0688
  C  C95  1  0.241890  0.505200  0.698840  1.0  0.7226
  C  C96  1  0.121740  0.725600  0.703130  1.0  0.7184
  C  C97  1  0.123790  0.751600  0.417840  1.0  0.7164
  C  C98  1  0.243600  0.528600  0.413270  1.0  0.7533
  C  C99  1  0.344700  0.827000  0.129390  1.0  -0.1351
  C  C100  1  0.369790  0.771900  0.060190  1.0  -0.0552
  C  C101  1  0.343130  0.813700  0.989060  1.0  -0.1521
  C  C102  1  0.290270  0.917400  0.986930  1.0  -0.0544
  C  C103  1  0.265580  0.975000  0.056210  1.0  -0.0602
  C  C104  1  0.290990  0.929000  0.127280  1.0  -0.069
  C  C105  1  0.258110  0.994800  0.198840  1.0  0.7235
  C  C106  1  0.378260  0.774400  0.203130  1.0  0.7188
  C  C107  1  0.376210  0.748400  0.917840  1.0  0.7185
  C  C108  1  0.256400  0.971400  0.913270  1.0  0.753
  O  O109  1  0.154210  0.291300  0.265540  1.0  -0.6193
  O  O110  1  0.062110  0.216600  0.196800  1.0  -0.6405
  O  O111  1  0.071300  0.171100  0.928330  1.0  -0.4927
  O  O112  1  0.149090  0.276450  0.852790  1.0  -0.621
  O  O113  1  0.286090  0.391570  0.878880  1.0  -0.5962
  O  O114  1  0.229160  0.595910  0.894630  1.0  -0.6137
  O  O115  1  0.220800  0.615010  0.216970  1.0  -0.6011
  O  O116  1  0.289920  0.425180  0.232410  1.0  -0.6037
  O  O117  1  0.345790  0.208700  0.765540  1.0  -0.6192
  O  O118  1  0.437890  0.283400  0.696800  1.0  -0.6358
  O  O119  1  0.428700  0.328900  0.428330  1.0  -0.4918
  O  O120  1  0.350910  0.223550  0.352790  1.0  -0.619
  O  O121  1  0.213910  0.108430  0.378880  1.0  -0.5953
  O  O122  1  0.270840  0.904090  0.394630  1.0  -0.6125
  O  O123  1  0.279200  0.884990  0.716970  1.0  -0.5996
  O  O124  1  0.210080  0.074820  0.732410  1.0  -0.6028
  O  O125  1  0.845790  0.291300  0.234460  1.0  -0.6168
  O  O126  1  0.937890  0.216600  0.303200  1.0  -0.6367
  O  O127  1  0.928700  0.171100  0.571670  1.0  -0.4942
  O  O128  1  0.850910  0.276450  0.647210  1.0  -0.6195
  O  O129  1  0.713910  0.391570  0.621120  1.0  -0.5964
  O  O130  1  0.770840  0.595910  0.605370  1.0  -0.6129
  O  O131  1  0.779200  0.615010  0.283030  1.0  -0.6009
  O  O132  1  0.710080  0.425180  0.267590  1.0  -0.6031
  O  O133  1  0.654210  0.208700  0.734460  1.0  -0.6182
  O  O134  1  0.562110  0.283400  0.803200  1.0  -0.6403
  O  O135  1  0.571300  0.328900  0.071670  1.0  -0.4947
  O  O136  1  0.649090  0.223550  0.147210  1.0  -0.6224
  O  O137  1  0.786090  0.108430  0.121120  1.0  -0.596
  O  O138  1  0.729160  0.904090  0.105370  1.0  -0.613
  O  O139  1  0.720800  0.884990  0.783030  1.0  -0.6011
  O  O140  1  0.789920  0.074820  0.767590  1.0  -0.6035
  O  O141  1  0.845790  0.708700  0.734460  1.0  -0.6173
  O  O142  1  0.937890  0.783400  0.803200  1.0  -0.6361
  O  O143  1  0.928700  0.828900  0.071670  1.0  -0.4934
  O  O144  1  0.850910  0.723550  0.147210  1.0  -0.62
  O  O145  1  0.713910  0.608430  0.121120  1.0  -0.5956
  O  O146  1  0.770840  0.404090  0.105370  1.0  -0.6123
  O  O147  1  0.779200  0.384990  0.783030  1.0  -0.5994
  O  O148  1  0.710080  0.574820  0.767590  1.0  -0.6025
  O  O149  1  0.654210  0.791300  0.234460  1.0  -0.6177
  O  O150  1  0.562110  0.716600  0.303200  1.0  -0.6406
  O  O151  1  0.571300  0.671100  0.571670  1.0  -0.4944
  O  O152  1  0.649090  0.776450  0.647210  1.0  -0.6227
  O  O153  1  0.786090  0.891570  0.621120  1.0  -0.5964
  O  O154  1  0.729160  0.095910  0.605370  1.0  -0.6131
  O  O155  1  0.720800  0.115010  0.283030  1.0  -0.6014
  O  O156  1  0.789920  0.925180  0.267590  1.0  -0.6037
  O  O157  1  0.154210  0.708700  0.765540  1.0  -0.6191
  O  O158  1  0.062110  0.783400  0.696800  1.0  -0.6404
  O  O159  1  0.071300  0.828900  0.428330  1.0  -0.4925
  O  O160  1  0.149090  0.723550  0.352790  1.0  -0.6213
  O  O161  1  0.286090  0.608430  0.378880  1.0  -0.5957
  O  O162  1  0.229160  0.404090  0.394630  1.0  -0.6132
  O  O163  1  0.220800  0.384990  0.716970  1.0  -0.6009
  O  O164  1  0.289920  0.574820  0.732410  1.0  -0.6036
  O  O165  1  0.345790  0.791300  0.265540  1.0  -0.6191
  O  O166  1  0.437890  0.716600  0.196800  1.0  -0.6363
  O  O167  1  0.428700  0.671100  0.928330  1.0  -0.4934
  O  O168  1  0.350910  0.776450  0.852790  1.0  -0.6187
  O  O169  1  0.213910  0.891570  0.878880  1.0  -0.5962
  O  O170  1  0.270840  0.095910  0.894630  1.0  -0.6128
  O  O171  1  0.279200  0.115010  0.216970  1.0  -0.601
  O  O172  1  0.210080  0.925180  0.232410  1.0  -0.6032
