# generated using pymatgen
data_Ni2H72W(C5N2)8
_symmetry_space_group_name_H-M   'P 1'
_cell_length_a   16.13120000
_cell_length_b   16.13120000
_cell_length_c   16.26740000
_cell_angle_alpha   73.65820000
_cell_angle_beta   68.19880000
_cell_angle_gamma   109.98300000
_symmetry_Int_Tables_number   1
_chemical_formula_structural   Ni2H72W(C5N2)8
_chemical_formula_sum   'Ni4 H144 W2 C80 N32'
_cell_volume   3264.36665649
_cell_formula_units_Z   2
loop_
 _symmetry_equiv_pos_site_id
 _symmetry_equiv_pos_as_xyz
  1  'x, y, z'
loop_
 _atom_site_type_symbol
 _atom_site_label
 _atom_site_symmetry_multiplicity
 _atom_site_fract_x
 _atom_site_fract_y
 _atom_site_fract_z
 _atom_site_occupancy
 _atom_site_charge
  Ni  Ni1  1  0.500000  0.000000  0.000000  1.0  0.5018
  Ni  Ni2  1  0.500000  0.500000  0.500000  1.0  0.5018
  Ni  Ni3  1  0.500000  0.000000  0.500000  1.0  0.5103
  Ni  Ni4  1  0.000000  0.000000  0.000000  1.0  0.5102
  H  H5  1  0.441600  0.015400  0.216600  1.0  0.0931
  H  H6  1  0.371700  0.062300  0.241400  1.0  0.0956
  H  H7  1  0.307800  0.000900  0.144300  1.0  0.0839
  H  H8  1  0.729600  0.141700  0.900900  1.0  0.0876
  H  H9  1  0.755800  0.222600  0.800000  1.0  0.0803
  H  H10  1  0.605900  0.231400  0.891700  1.0  0.0906
  H  H11  1  0.682700  0.260800  0.930100  1.0  0.0766
  H  H12  1  0.412700  0.220000  0.090700  1.0  0.1092
  H  H13  1  0.392600  0.145000  0.047200  1.0  0.1159
  H  H14  1  0.496500  0.247000  0.984100  1.0  0.1119
  H  H15  1  0.580100  0.176200  0.161300  1.0  0.1161
  H  H16  1  0.513400  0.228400  0.170000  1.0  0.111
  H  H17  1  0.613700  0.271000  0.067700  1.0  0.1065
  H  H18  1  0.185200  0.837800  0.288600  1.0  0.1141
  H  H19  1  0.191300  0.927100  0.311600  1.0  0.1114
  H  H20  1  0.246400  0.870600  0.340000  1.0  0.114
  H  H21  1  0.253100  0.872400  0.690300  1.0  0.1034
  H  H22  1  0.180800  0.784600  0.683600  1.0  0.0991
  H  H23  1  0.303700  0.885400  0.499700  1.0  0.091
  H  H24  1  0.586400  0.938400  0.630200  1.0  0.0872
  H  H25  1  0.646300  0.893900  0.574200  1.0  0.0843
  H  H26  1  0.504000  0.802100  0.567900  1.0  0.0953
  H  H27  1  0.472800  0.775200  0.679800  1.0  0.0764
  H  H28  1  0.190000  0.663500  0.791700  1.0  0.1095
  H  H29  1  0.252800  0.747900  0.809500  1.0  0.1173
  H  H30  1  0.295400  0.679500  0.781900  1.0  0.1104
  H  H31  1  0.331600  0.769400  0.536400  1.0  0.1158
  H  H32  1  0.244600  0.671100  0.636100  1.0  0.1114
  H  H33  1  0.360800  0.704000  0.598800  1.0  0.113
  H  H34  1  0.153300  0.925800  0.610100  1.0  0.1187
  H  H35  1  0.143800  0.867000  0.549000  1.0  0.1104
  H  H36  1  0.215000  0.983300  0.492700  1.0  0.121
  H  H37  1  0.597500  0.106600  0.050300  1.0  0.2592
  H  H38  1  0.387800  0.878600  0.183400  1.0  0.2859
  H  H39  1  0.412500  0.878300  0.677000  1.0  0.286
  H  H40  1  0.345600  0.021700  0.565700  1.0  0.26
  H  H41  1  0.732000  0.658200  0.283400  1.0  0.0908
  H  H42  1  0.803700  0.613100  0.258600  1.0  0.1011
  H  H43  1  0.645200  0.452100  0.355700  1.0  0.0833
  H  H44  1  0.542600  0.630500  0.599100  1.0  0.0871
  H  H45  1  0.522600  0.555800  0.700000  1.0  0.0789
  H  H46  1  0.623100  0.497600  0.608300  1.0  0.0945
  H  H47  1  0.690900  0.612800  0.569900  1.0  0.0796
  H  H48  1  0.810700  0.503400  0.409300  1.0  0.1077
  H  H49  1  0.692200  0.439800  0.452800  1.0  0.1162
  H  H50  1  0.731100  0.480600  0.515900  1.0  0.1148
  H  H51  1  0.837500  0.741400  0.338700  1.0  0.1181
  H  H52  1  0.898400  0.683400  0.330000  1.0  0.1155
  H  H53  1  0.838700  0.681400  0.432300  1.0  0.109
  H  H54  1  0.626400  0.473800  0.211400  1.0  0.1125
  H  H55  1  0.738700  0.502900  0.188400  1.0  0.1127
  H  H56  1  0.710600  0.586400  0.160000  1.0  0.1147
  H  H57  1  0.062700  0.943400  0.809700  1.0  0.1027
  H  H58  1  0.968200  0.864400  0.816400  1.0  0.0969
  H  H59  1  0.885100  0.803400  0.000300  1.0  0.0896
  H  H60  1  0.068600  0.216600  0.869800  1.0  0.0852
  H  H61  1  0.968100  0.220500  0.925800  1.0  0.0791
  H  H62  1  0.870000  0.071900  0.932100  1.0  0.0973
  H  H63  1  0.955000  0.152600  0.820200  1.0  0.077
  H  H64  1  0.955200  0.981700  0.708300  1.0  0.1051
  H  H65  1  0.057400  0.062300  0.690500  1.0  0.1179
  H  H66  1  0.961400  0.077300  0.718100  1.0  0.1104
  H  H67  1  0.805800  0.868000  0.963600  1.0  0.1121
  H  H68  1  0.807200  0.880700  0.863900  1.0  0.1091
  H  H69  1  0.802800  0.959600  0.901200  1.0  0.1094
  H  H70  1  0.035900  0.763400  0.889900  1.0  0.1084
  H  H71  1  0.916000  0.692800  0.951000  1.0  0.1104
  H  H72  1  0.976000  0.707700  0.007300  1.0  0.1184
  H  H73  1  0.656900  0.647800  0.449700  1.0  0.2593
  H  H74  1  0.562000  0.571200  0.316600  1.0  0.2842
  H  H75  1  0.055300  0.089500  0.823000  1.0  0.2834
  H  H76  1  0.087400  0.911300  0.934300  1.0  0.2575
  H  H77  1  0.558400  0.984600  0.783400  1.0  0.0933
  H  H78  1  0.628300  0.937700  0.758600  1.0  0.0971
  H  H79  1  0.692200  0.999100  0.855700  1.0  0.084
  H  H80  1  0.270400  0.858300  0.099100  1.0  0.0896
  H  H81  1  0.244200  0.777400  0.200000  1.0  0.0806
  H  H82  1  0.394100  0.768600  0.108300  1.0  0.0919
  H  H83  1  0.317300  0.739200  0.069900  1.0  0.0754
  H  H84  1  0.587300  0.780000  0.909300  1.0  0.1088
  H  H85  1  0.607400  0.855000  0.952800  1.0  0.1163
  H  H86  1  0.503500  0.753000  0.015900  1.0  0.113
  H  H87  1  0.419900  0.823800  0.838700  1.0  0.1163
  H  H88  1  0.486600  0.771600  0.830000  1.0  0.11
  H  H89  1  0.386300  0.729000  0.932300  1.0  0.1057
  H  H90  1  0.814800  0.162200  0.711400  1.0  0.1142
  H  H91  1  0.808700  0.072900  0.688400  1.0  0.1088
  H  H92  1  0.753600  0.129400  0.660000  1.0  0.1157
  H  H93  1  0.746900  0.127600  0.309700  1.0  0.1061
  H  H94  1  0.819200  0.215400  0.316400  1.0  0.0999
  H  H95  1  0.696300  0.114600  0.500300  1.0  0.0911
  H  H96  1  0.413600  0.061600  0.369800  1.0  0.0883
  H  H97  1  0.353700  0.106100  0.425800  1.0  0.0805
  H  H98  1  0.496000  0.197900  0.432100  1.0  0.0945
  H  H99  1  0.527200  0.224800  0.320200  1.0  0.0764
  H  H100  1  0.810000  0.336500  0.208300  1.0  0.108
  H  H101  1  0.747200  0.252100  0.190500  1.0  0.1167
  H  H102  1  0.704600  0.320500  0.218100  1.0  0.11
  H  H103  1  0.668400  0.230600  0.463600  1.0  0.1158
  H  H104  1  0.755400  0.328900  0.363900  1.0  0.1108
  H  H105  1  0.639200  0.296000  0.401200  1.0  0.1121
  H  H106  1  0.846700  0.074200  0.389900  1.0  0.1177
  H  H107  1  0.856200  0.133000  0.451000  1.0  0.1105
  H  H108  1  0.785000  0.016700  0.507300  1.0  0.1213
  H  H109  1  0.402500  0.893400  0.949700  1.0  0.2583
  H  H110  1  0.612200  0.121400  0.816600  1.0  0.2834
  H  H111  1  0.587500  0.121700  0.323000  1.0  0.2876
  H  H112  1  0.654400  0.978300  0.434300  1.0  0.2602
  H  H113  1  0.268000  0.341800  0.716600  1.0  0.0926
  H  H114  1  0.196300  0.386900  0.741400  1.0  0.0976
  H  H115  1  0.354800  0.547900  0.644300  1.0  0.0842
  H  H116  1  0.457400  0.369500  0.400900  1.0  0.0882
  H  H117  1  0.477400  0.444200  0.300000  1.0  0.0807
  H  H118  1  0.376900  0.502400  0.391700  1.0  0.0926
  H  H119  1  0.309100  0.387200  0.430100  1.0  0.0792
  H  H120  1  0.189300  0.496600  0.590700  1.0  0.1078
  H  H121  1  0.307800  0.560200  0.547200  1.0  0.1152
  H  H122  1  0.268900  0.519400  0.484100  1.0  0.1125
  H  H123  1  0.162500  0.258600  0.661300  1.0  0.119
  H  H124  1  0.101600  0.316600  0.670000  1.0  0.1174
  H  H125  1  0.161300  0.318600  0.567700  1.0  0.1091
  H  H126  1  0.373600  0.526200  0.788600  1.0  0.1144
  H  H127  1  0.261300  0.497100  0.811600  1.0  0.114
  H  H128  1  0.289400  0.413600  0.840000  1.0  0.1149
  H  H129  1  0.937300  0.056600  0.190300  1.0  0.1
  H  H130  1  0.031800  0.135600  0.183600  1.0  0.0965
  H  H131  1  0.114900  0.196600  0.999700  1.0  0.0914
  H  H132  1  0.931400  0.783400  0.130200  1.0  0.0857
  H  H133  1  0.031900  0.779500  0.074200  1.0  0.0786
  H  H134  1  0.130000  0.928100  0.067900  1.0  0.0989
  H  H135  1  0.045000  0.847400  0.179800  1.0  0.076
  H  H136  1  0.044800  0.018300  0.291700  1.0  0.1052
  H  H137  1  0.942600  0.937700  0.309500  1.0  0.12
  H  H138  1  0.038600  0.922700  0.281900  1.0  0.1112
  H  H139  1  0.194200  0.132000  0.036400  1.0  0.1127
  H  H140  1  0.192800  0.119300  0.136100  1.0  0.1097
  H  H141  1  0.197200  0.040400  0.098800  1.0  0.1105
  H  H142  1  0.964100  0.236600  0.110100  1.0  0.1123
  H  H143  1  0.084000  0.307200  0.049000  1.0  0.1102
  H  H144  1  0.024000  0.292300  0.992700  1.0  0.1188
  H  H145  1  0.343100  0.352200  0.550300  1.0  0.2588
  H  H146  1  0.438000  0.428800  0.683400  1.0  0.2846
  H  H147  1  0.944700  0.910500  0.177000  1.0  0.2835
  H  H148  1  0.912600  0.088700  0.065700  1.0  0.2588
  W  W149  1  0.395430  0.145430  0.750000  1.0  0.0501
  W  W150  1  0.604570  0.854570  0.250000  1.0  0.0487
  C  C151  1  0.407200  0.081300  0.877100  1.0  0.146
  C  C152  1  0.468100  0.095800  0.649900  1.0  0.1134
  C  C153  1  0.300100  0.985400  0.823100  1.0  0.1657
  C  C154  1  0.559300  0.219400  0.698100  1.0  0.13
  C  C155  1  0.493100  0.144600  0.097300  1.0  0.2819
  C  C156  1  0.407900  0.046000  0.191500  1.0  -0.1971
  C  C157  1  0.327000  0.966900  0.187900  1.0  0.0945
  C  C158  1  0.700000  0.168500  0.865900  1.0  -0.0145
  C  C159  1  0.638400  0.207100  0.924500  1.0  0.0114
  C  C160  1  0.444100  0.193700  0.050400  1.0  -0.3638
  C  C161  1  0.555800  0.211200  0.126800  1.0  -0.3765
  C  C162  1  0.228200  0.893800  0.291800  1.0  -0.3413
  C  C163  1  0.314300  0.785300  0.660600  1.0  0.2836
  C  C164  1  0.251900  0.836600  0.651300  1.0  -0.1945
  C  C165  1  0.281500  0.910400  0.547300  1.0  0.1403
  C  C166  1  0.595200  0.914600  0.580800  1.0  -0.0248
  C  C167  1  0.496200  0.827800  0.615800  1.0  -0.0143
  C  C168  1  0.257900  0.712400  0.771100  1.0  -0.3812
  C  C169  1  0.312700  0.727200  0.602700  1.0  -0.3775
  C  C170  1  0.189700  0.922800  0.550100  1.0  -0.3487
  C  C171  1  0.458400  0.284300  0.622900  1.0  0.1476
  C  C172  1  0.245700  0.118000  0.850100  1.0  0.1145
  C  C173  1  0.308500  0.123200  0.676900  1.0  0.1633
  C  C174  1  0.417500  0.257400  0.801900  1.0  0.1319
  C  C175  1  0.741900  0.590400  0.402700  1.0  0.2829
  C  C176  1  0.737500  0.599400  0.308500  1.0  -0.1945
  C  C177  1  0.654800  0.514900  0.312100  1.0  0.0926
  C  C178  1  0.534400  0.565900  0.634100  1.0  -0.0083
  C  C179  1  0.631600  0.562900  0.575500  1.0  0.0108
  C  C180  1  0.744100  0.494500  0.449600  1.0  -0.3641
  C  C181  1  0.838000  0.682600  0.373200  1.0  -0.3784
  C  C182  1  0.685600  0.520000  0.208200  1.0  -0.3366
  C  C183  1  0.945900  0.974900  0.839400  1.0  0.2845
  C  C184  1  0.987900  0.903200  0.848700  1.0  -0.1997
  C  C185  1  0.957700  0.828800  0.952700  1.0  0.1414
  C  C186  1  0.995400  0.176000  0.919200  1.0  -0.0221
  C  C187  1  0.943600  0.112000  0.884200  1.0  -0.0142
  C  C188  1  0.983500  0.029000  0.728900  1.0  -0.3758
  C  C189  1  0.829900  0.915400  0.897300  1.0  -0.3755
  C  C190  1  0.972900  0.739800  0.949900  1.0  -0.3459
  C  C191  1  0.592800  0.918700  0.122900  1.0  0.1421
  C  C192  1  0.531900  0.904200  0.350100  1.0  0.1129
  C  C193  1  0.699900  0.014600  0.176900  1.0  0.166
  C  C194  1  0.440700  0.780600  0.301900  1.0  0.1294
  C  C195  1  0.506900  0.855400  0.902700  1.0  0.2803
  C  C196  1  0.592100  0.954000  0.808500  1.0  -0.1947
  C  C197  1  0.673000  0.033100  0.812100  1.0  0.0954
  C  C198  1  0.300000  0.831500  0.134100  1.0  -0.0147
  C  C199  1  0.361600  0.792900  0.075500  1.0  0.0112
  C  C200  1  0.555900  0.806300  0.949600  1.0  -0.3652
  C  C201  1  0.444200  0.788800  0.873200  1.0  -0.3757
  C  C202  1  0.771800  0.106200  0.708200  1.0  -0.3403
  C  C203  1  0.685700  0.214700  0.339400  1.0  0.2834
  C  C204  1  0.748100  0.163400  0.348700  1.0  -0.1945
  C  C205  1  0.718500  0.089600  0.452700  1.0  0.1413
  C  C206  1  0.404800  0.085400  0.419200  1.0  -0.0264
  C  C207  1  0.503800  0.172200  0.384200  1.0  -0.0145
  C  C208  1  0.742100  0.287600  0.228900  1.0  -0.3821
  C  C209  1  0.687300  0.272800  0.397300  1.0  -0.3758
  C  C210  1  0.810300  0.077200  0.449900  1.0  -0.3482
  C  C211  1  0.541600  0.715700  0.377100  1.0  0.145
  C  C212  1  0.754300  0.882000  0.149900  1.0  0.1167
  C  C213  1  0.691500  0.876800  0.323100  1.0  0.1667
  C  C214  1  0.582500  0.742600  0.198100  1.0  0.1302
  C  C215  1  0.258100  0.409600  0.597300  1.0  0.2832
  C  C216  1  0.262500  0.400600  0.691500  1.0  -0.195
  C  C217  1  0.345200  0.485100  0.687900  1.0  0.0925
  C  C218  1  0.465600  0.434100  0.365900  1.0  -0.0119
  C  C219  1  0.368400  0.437100  0.424500  1.0  0.009
  C  C220  1  0.255900  0.505500  0.550400  1.0  -0.3648
  C  C221  1  0.162000  0.317400  0.626800  1.0  -0.3789
  C  C222  1  0.314400  0.480000  0.791800  1.0  -0.3337
  C  C223  1  0.054100  0.025100  0.160600  1.0  0.2824
  C  C224  1  0.012100  0.096800  0.151300  1.0  -0.1982
  C  C225  1  0.042300  0.171200  0.047300  1.0  0.1415
  C  C226  1  0.004600  0.824000  0.080800  1.0  -0.0236
  C  C227  1  0.056400  0.888000  0.115800  1.0  -0.0138
  C  C228  1  0.016500  0.971000  0.271100  1.0  -0.3778
  C  C229  1  0.170100  0.084600  0.102700  1.0  -0.3772
  C  C230  1  0.027100  0.260200  0.050100  1.0  -0.3449
  N  N231  1  0.417300  0.048500  0.942000  1.0  -0.4429
  N  N232  1  0.496900  0.064300  0.598000  1.0  -0.4299
  N  N233  1  0.250900  0.900000  0.865300  1.0  -0.4835
  N  N234  1  0.644100  0.258300  0.672200  1.0  -0.4936
  N  N235  1  0.559700  0.120200  0.024300  1.0  -0.3977
  N  N236  1  0.368800  0.908600  0.143200  1.0  -0.507
  N  N237  1  0.420900  0.862900  0.625800  1.0  -0.3968
  N  N238  1  0.366500  0.002100  0.518000  1.0  -0.4898
  N  N239  1  0.490500  0.359300  0.558000  1.0  -0.4467
  N  N240  1  0.162300  0.094900  0.902000  1.0  -0.4281
  N  N241  1  0.265300  0.116200  0.634700  1.0  -0.4813
  N  N242  1  0.430500  0.316300  0.827800  1.0  -0.4957
  N  N243  1  0.644500  0.584000  0.475700  1.0  -0.3946
  N  N244  1  0.551800  0.512000  0.356800  1.0  -0.5061
  N  N245  1  0.988700  0.046700  0.874200  1.0  -0.3942
  N  N246  1  0.020100  0.884500  0.982000  1.0  -0.4861
  N  N247  1  0.582700  0.951500  0.058000  1.0  -0.4408
  N  N248  1  0.503100  0.935700  0.402000  1.0  -0.4271
  N  N249  1  0.749100  0.100000  0.134700  1.0  -0.4857
  N  N250  1  0.355900  0.741700  0.327800  1.0  -0.494
  N  N251  1  0.440300  0.879800  0.975700  1.0  -0.3985
  N  N252  1  0.631200  0.091400  0.856800  1.0  -0.5061
  N  N253  1  0.579100  0.137100  0.374200  1.0  -0.3955
  N  N254  1  0.633500  0.997900  0.482000  1.0  -0.4863
  N  N255  1  0.509500  0.640700  0.442000  1.0  -0.4476
  N  N256  1  0.837700  0.905100  0.098000  1.0  -0.4297
  N  N257  1  0.734700  0.883800  0.365300  1.0  -0.4812
  N  N258  1  0.569500  0.683700  0.172200  1.0  -0.4952
  N  N259  1  0.355500  0.416000  0.524300  1.0  -0.3957
  N  N260  1  0.448200  0.488000  0.643200  1.0  -0.5058
  N  N261  1  0.011300  0.953300  0.125800  1.0  -0.3929
  N  N262  1  0.979900  0.115500  0.018000  1.0  -0.4866
