# generated using pymatgen
data_La2C4NO12
_symmetry_space_group_name_H-M   'P 1'
_cell_length_a   6.56000000
_cell_length_b   18.92900000
_cell_length_c   11.41100000
_cell_angle_alpha   90.00000000
_cell_angle_beta   90.00000000
_cell_angle_gamma   90.00000000
_symmetry_Int_Tables_number   1
_chemical_formula_structural   La2C4NO12
_chemical_formula_sum   'La8 C16 N4 O48'
_cell_volume   1416.95225264
_cell_formula_units_Z   4
loop_
 _symmetry_equiv_pos_site_id
 _symmetry_equiv_pos_as_xyz
  1  'x, y, z'
loop_
 _atom_site_type_symbol
 _atom_site_label
 _atom_site_symmetry_multiplicity
 _atom_site_fract_x
 _atom_site_fract_y
 _atom_site_fract_z
 _atom_site_occupancy
 _atom_site_charge
  La  La1  1  0.137520  0.752860  0.000000  1.0  2.1028
  La  La2  1  0.862480  0.247140  0.000000  1.0  2.103
  La  La3  1  0.637520  0.747140  0.500000  1.0  2.103
  La  La4  1  0.362480  0.252860  0.500000  1.0  2.1029
  La  La5  1  0.247530  0.919350  0.500000  1.0  2.015
  La  La6  1  0.752470  0.080650  0.500000  1.0  2.018
  La  La7  1  0.747530  0.580650  0.000000  1.0  2.0161
  La  La8  1  0.252470  0.419350  0.000000  1.0  2.017
  C  C9  1  0.256800  0.794090  0.722300  1.0  0.5921
  C  C10  1  0.145400  0.860300  0.770200  1.0  0.5557
  C  C11  1  0.743200  0.205910  0.722300  1.0  0.593
  C  C12  1  0.854600  0.139700  0.770200  1.0  0.5573
  C  C13  1  0.756800  0.705910  0.777700  1.0  0.5932
  C  C14  1  0.645400  0.639700  0.729800  1.0  0.5563
  C  C15  1  0.243200  0.294090  0.777700  1.0  0.5926
  C  C16  1  0.354600  0.360300  0.729800  1.0  0.5569
  C  C17  1  0.743200  0.205910  0.277700  1.0  0.5933
  C  C18  1  0.854600  0.139700  0.229800  1.0  0.556
  C  C19  1  0.256800  0.794090  0.277700  1.0  0.5921
  C  C20  1  0.145400  0.860300  0.229800  1.0  0.5569
  C  C21  1  0.243200  0.294090  0.222300  1.0  0.5924
  C  C22  1  0.354600  0.360300  0.270200  1.0  0.5558
  C  C23  1  0.756800  0.705910  0.222300  1.0  0.5931
  C  C24  1  0.645400  0.639700  0.270200  1.0  0.5573
  N  N25  1  0.295200  0.607700  0.000000  1.0  0.8375
  N  N26  1  0.704800  0.392300  0.000000  1.0  0.8374
  N  N27  1  0.795200  0.892300  0.500000  1.0  0.8377
  N  N28  1  0.204800  0.107700  0.500000  1.0  0.8372
  O  O29  1  0.267800  0.742150  0.788700  1.0  -0.6149
  O  O30  1  0.325900  0.799180  0.619900  1.0  -0.697
  O  O31  1  0.073000  0.855720  0.872500  1.0  -0.6119
  O  O32  1  0.132000  0.913120  0.706400  1.0  -0.587
  O  O33  1  0.732200  0.257850  0.788700  1.0  -0.6141
  O  O34  1  0.674100  0.200820  0.619900  1.0  -0.6973
  O  O35  1  0.927000  0.144280  0.872500  1.0  -0.6088
  O  O36  1  0.868000  0.086880  0.706400  1.0  -0.5867
  O  O37  1  0.767800  0.757850  0.711300  1.0  -0.6144
  O  O38  1  0.825900  0.700820  0.880100  1.0  -0.6972
  O  O39  1  0.573000  0.644280  0.627500  1.0  -0.6102
  O  O40  1  0.632000  0.586880  0.793600  1.0  -0.5859
  O  O41  1  0.232200  0.242150  0.711300  1.0  -0.615
  O  O42  1  0.174100  0.299180  0.880100  1.0  -0.6974
  O  O43  1  0.427000  0.355720  0.627500  1.0  -0.6125
  O  O44  1  0.368000  0.413120  0.793600  1.0  -0.587
  O  O45  1  0.732200  0.257850  0.211300  1.0  -0.6141
  O  O46  1  0.674100  0.200820  0.380100  1.0  -0.6979
  O  O47  1  0.927000  0.144280  0.127500  1.0  -0.6114
  O  O48  1  0.868000  0.086880  0.293600  1.0  -0.5857
  O  O49  1  0.267800  0.742150  0.211300  1.0  -0.6151
  O  O50  1  0.325900  0.799180  0.380100  1.0  -0.6967
  O  O51  1  0.073000  0.855720  0.127500  1.0  -0.6128
  O  O52  1  0.132000  0.913120  0.293600  1.0  -0.5871
  O  O53  1  0.232200  0.242150  0.288700  1.0  -0.6147
  O  O54  1  0.174100  0.299180  0.119900  1.0  -0.6972
  O  O55  1  0.427000  0.355720  0.372500  1.0  -0.6113
  O  O56  1  0.368000  0.413120  0.206400  1.0  -0.5867
  O  O57  1  0.767800  0.757850  0.288700  1.0  -0.6144
  O  O58  1  0.825900  0.700820  0.119900  1.0  -0.697
  O  O59  1  0.573000  0.644280  0.372500  1.0  -0.6098
  O  O60  1  0.632000  0.586880  0.206400  1.0  -0.5871
  O  O61  1  0.103900  0.621900  0.000000  1.0  -0.5771
  O  O62  1  0.420700  0.660140  0.000000  1.0  -0.5677
  O  O63  1  0.362800  0.545410  0.000000  1.0  -0.5105
  O  O64  1  0.896100  0.378100  0.000000  1.0  -0.5821
  O  O65  1  0.579300  0.339860  0.000000  1.0  -0.5693
  O  O66  1  0.637200  0.454590  0.000000  1.0  -0.5208
  O  O67  1  0.603900  0.878100  0.500000  1.0  -0.5778
  O  O68  1  0.920700  0.839860  0.500000  1.0  -0.5684
  O  O69  1  0.862800  0.954590  0.500000  1.0  -0.5124
  O  O70  1  0.396100  0.121900  0.500000  1.0  -0.582
  O  O71  1  0.079300  0.160140  0.500000  1.0  -0.5685
  O  O72  1  0.137200  0.045410  0.500000  1.0  -0.5191
  O  O73  1  0.500000  0.000000  0.363100  1.0  -0.5724
  O  O74  1  0.000000  0.500000  0.136900  1.0  -0.5726
  O  O75  1  0.500000  0.000000  0.636900  1.0  -0.5726
  O  O76  1  0.000000  0.500000  0.863100  1.0  -0.5724
