# generated using pymatgen
data_U3P4H8(C5O6)2
_symmetry_space_group_name_H-M   'P 1'
_cell_length_a   9.60500000
_cell_length_b   21.27800000
_cell_length_c   16.74700000
_cell_angle_alpha   90.00000000
_cell_angle_beta   91.46400000
_cell_angle_gamma   90.00000000
_symmetry_Int_Tables_number   1
_chemical_formula_structural   U3P4H8(C5O6)2
_chemical_formula_sum   'U12 P16 H32 C40 O48'
_cell_volume   3421.55406183
_cell_formula_units_Z   4
loop_
 _symmetry_equiv_pos_site_id
 _symmetry_equiv_pos_as_xyz
  1  'x, y, z'
loop_
 _atom_site_type_symbol
 _atom_site_label
 _atom_site_symmetry_multiplicity
 _atom_site_fract_x
 _atom_site_fract_y
 _atom_site_fract_z
 _atom_site_occupancy
 _atom_site_charge
  U  U1  1  0.781010  0.241480  0.962600  1.0  1.6821
  U  U2  1  0.708950  0.241900  0.516260  1.0  1.6897
  U  U3  1  0.243920  0.139770  0.742960  1.0  1.7234
  U  U4  1  0.718990  0.741480  0.537400  1.0  1.6814
  U  U5  1  0.791050  0.741900  0.983740  1.0  1.69
  U  U6  1  0.256080  0.639770  0.757040  1.0  1.7237
  U  U7  1  0.218990  0.758520  0.037400  1.0  1.6826
  U  U8  1  0.291050  0.758100  0.483740  1.0  1.6902
  U  U9  1  0.756080  0.860230  0.257040  1.0  1.7252
  U  U10  1  0.281010  0.258520  0.462600  1.0  1.6833
  U  U11  1  0.208950  0.258100  0.016260  1.0  1.6899
  U  U12  1  0.743920  0.360230  0.242960  1.0  1.7252
  P  P13  1  0.531800  0.343700  0.056410  1.0  1.6547
  P  P14  1  0.957500  0.347480  0.428300  1.0  1.6729
  P  P15  1  0.500000  0.141470  0.577610  1.0  1.4051
  P  P16  1  0.989700  0.137600  0.907170  1.0  1.4443
  P  P17  1  0.968200  0.843700  0.443590  1.0  1.654
  P  P18  1  0.542500  0.847480  0.071700  1.0  1.6745
  P  P19  1  0.000000  0.641470  0.922390  1.0  1.4039
  P  P20  1  0.510300  0.637600  0.592830  1.0  1.4453
  P  P21  1  0.468200  0.656300  0.943590  1.0  1.654
  P  P22  1  0.042500  0.652520  0.571700  1.0  1.673
  P  P23  1  0.500000  0.858530  0.422390  1.0  1.4036
  P  P24  1  0.010300  0.862400  0.092830  1.0  1.4468
  P  P25  1  0.031800  0.156300  0.556410  1.0  1.654
  P  P26  1  0.457500  0.152520  0.928300  1.0  1.6727
  P  P27  1  0.000000  0.358530  0.077610  1.0  1.4044
  P  P28  1  0.489700  0.362400  0.407170  1.0  1.4459
  H  H29  1  0.405600  0.403000  0.965400  1.0  0.1317
  H  H30  1  0.371600  0.424000  0.052300  1.0  0.1396
  H  H31  1  0.596000  0.476100  0.057000  1.0  0.0773
  H  H32  1  0.603600  0.463300  0.965000  1.0  0.0681
  H  H33  1  0.088500  0.400400  0.522100  1.0  0.1392
  H  H34  1  0.118000  0.426500  0.437000  1.0  0.1404
  H  H35  1  0.898100  0.481100  0.442600  1.0  0.0832
  H  H36  1  0.895000  0.462200  0.533000  1.0  0.0693
  H  H37  1  0.094400  0.903000  0.534600  1.0  0.1331
  H  H38  1  0.128400  0.924000  0.447700  1.0  0.1382
  H  H39  1  0.904000  0.976100  0.443000  1.0  0.0763
  H  H40  1  0.896400  0.963300  0.535000  1.0  0.0694
  H  H41  1  0.411500  0.900400  0.977900  1.0  0.138
  H  H42  1  0.382000  0.926500  0.063000  1.0  0.1414
  H  H43  1  0.601900  0.981100  0.057400  1.0  0.0837
  H  H44  1  0.605000  0.962200  0.967000  1.0  0.0674
  H  H45  1  0.594400  0.597000  0.034600  1.0  0.1325
  H  H46  1  0.628400  0.576000  0.947700  1.0  0.1381
  H  H47  1  0.404000  0.523900  0.943000  1.0  0.0759
  H  H48  1  0.396400  0.536700  0.035000  1.0  0.0693
  H  H49  1  0.911500  0.599600  0.477900  1.0  0.138
  H  H50  1  0.882000  0.573500  0.563000  1.0  0.1413
  H  H51  1  0.101900  0.518900  0.557400  1.0  0.084
  H  H52  1  0.105000  0.537800  0.467000  1.0  0.0675
  H  H53  1  0.905600  0.097000  0.465400  1.0  0.1311
  H  H54  1  0.871600  0.076000  0.552300  1.0  0.1395
  H  H55  1  0.096000  0.023900  0.557000  1.0  0.0774
  H  H56  1  0.103600  0.036700  0.465000  1.0  0.0688
  H  H57  1  0.588500  0.099600  0.022100  1.0  0.1394
  H  H58  1  0.618000  0.073500  0.937000  1.0  0.1404
  H  H59  1  0.398100  0.018900  0.942600  1.0  0.0828
  H  H60  1  0.395000  0.037800  0.033000  1.0  0.0692
  C  C61  1  0.446900  0.413000  0.017300  1.0  -0.4262
  C  C62  1  0.540400  0.470600  0.008300  1.0  -0.0835
  C  C63  1  0.044400  0.413800  0.472200  1.0  -0.4425
  C  C64  1  0.956000  0.471500  0.489300  1.0  -0.0779
  C  C65  1  0.028400  0.069500  0.965100  1.0  -0.0153
  C  C66  1  0.985000  0.010600  0.932200  1.0  0.0361
  C  C67  1  0.455600  0.067900  0.533100  1.0  0.0104
  C  C68  1  0.507000  0.011900  0.575800  1.0  -0.0467
  C  C69  1  0.528000  0.055700  0.462600  1.0  -0.0357
  C  C70  1  0.966000  0.056000  0.033900  1.0  -0.0473
  C  C71  1  0.053100  0.913000  0.482700  1.0  -0.4233
  C  C72  1  0.959600  0.970600  0.491700  1.0  -0.0837
  C  C73  1  0.455600  0.913800  0.027800  1.0  -0.4455
  C  C74  1  0.544000  0.971500  0.010700  1.0  -0.0779
  C  C75  1  0.471600  0.569500  0.534900  1.0  -0.0173
  C  C76  1  0.515000  0.510600  0.567800  1.0  0.0367
  C  C77  1  0.044400  0.567900  0.966900  1.0  0.0124
  C  C78  1  0.993000  0.511900  0.924200  1.0  -0.0451
  C  C79  1  0.972000  0.555700  0.037400  1.0  -0.038
  C  C80  1  0.534000  0.556000  0.466100  1.0  -0.0469
  C  C81  1  0.553100  0.587000  0.982700  1.0  -0.4237
  C  C82  1  0.459600  0.529400  0.991700  1.0  -0.0841
  C  C83  1  0.955600  0.586200  0.527800  1.0  -0.4455
  C  C84  1  0.044000  0.528500  0.510700  1.0  -0.0765
  C  C85  1  0.971600  0.930500  0.034900  1.0  -0.0181
  C  C86  1  0.015000  0.989400  0.067800  1.0  0.036
  C  C87  1  0.544400  0.932100  0.466900  1.0  0.0128
  C  C88  1  0.493000  0.988100  0.424200  1.0  -0.0437
  C  C89  1  0.472000  0.944300  0.537400  1.0  -0.0384
  C  C90  1  0.034000  0.944000  0.966100  1.0  -0.0442
  C  C91  1  0.946900  0.087000  0.517300  1.0  -0.4273
  C  C92  1  0.040400  0.029400  0.508300  1.0  -0.0833
  C  C93  1  0.544400  0.086200  0.972200  1.0  -0.4424
  C  C94  1  0.456000  0.028500  0.989300  1.0  -0.077
  C  C95  1  0.528400  0.430500  0.465100  1.0  -0.016
  C  C96  1  0.485000  0.489400  0.432200  1.0  0.0362
  C  C97  1  0.955600  0.432100  0.033100  1.0  0.0109
  C  C98  1  0.007000  0.488100  0.075800  1.0  -0.0461
  C  C99  1  0.028000  0.444300  0.962600  1.0  -0.0358
  C  C100  1  0.466000  0.444000  0.533900  1.0  -0.0458
  O  O101  1  0.647600  0.324200  0.002700  1.0  -0.9417
  O  O102  1  0.419300  0.292700  0.063700  1.0  -0.9151
  O  O103  1  0.588000  0.360500  0.139200  1.0  -0.9481
  O  O104  1  0.841300  0.326400  0.481300  1.0  -0.9258
  O  O105  1  0.066700  0.296000  0.417000  1.0  -0.9262
  O  O106  1  0.899800  0.367600  0.347200  1.0  -0.9378
  O  O107  1  0.656500  0.147300  0.588500  1.0  -0.8353
  O  O108  1  0.459500  0.195300  0.519900  1.0  -0.9645
  O  O109  1  0.425900  0.146800  0.656200  1.0  -0.9061
  O  O110  1  0.031300  0.196400  0.955200  1.0  -0.949
  O  O111  1  0.834100  0.145400  0.892200  1.0  -0.8423
  O  O112  1  0.067700  0.130800  0.830400  1.0  -0.9033
  O  O113  1  0.852400  0.824200  0.497300  1.0  -0.9407
  O  O114  1  0.080700  0.792700  0.436300  1.0  -0.9163
  O  O115  1  0.912000  0.860500  0.360800  1.0  -0.9487
  O  O116  1  0.658700  0.826400  0.018700  1.0  -0.9284
  O  O117  1  0.433300  0.796000  0.083000  1.0  -0.9243
  O  O118  1  0.600200  0.867600  0.152800  1.0  -0.9386
  O  O119  1  0.843500  0.647300  0.911500  1.0  -0.8342
  O  O120  1  0.040500  0.695300  0.980100  1.0  -0.9635
  O  O121  1  0.074100  0.646800  0.843800  1.0  -0.9042
  O  O122  1  0.468700  0.696400  0.544800  1.0  -0.9492
  O  O123  1  0.665900  0.645400  0.607800  1.0  -0.8441
  O  O124  1  0.432300  0.630800  0.669600  1.0  -0.9042
  O  O125  1  0.352400  0.675800  0.997300  1.0  -0.9417
  O  O126  1  0.580700  0.707300  0.936300  1.0  -0.9176
  O  O127  1  0.412000  0.639500  0.860800  1.0  -0.9485
  O  O128  1  0.158700  0.673600  0.518700  1.0  -0.9273
  O  O129  1  0.933300  0.704000  0.583000  1.0  -0.9236
  O  O130  1  0.100200  0.632400  0.652800  1.0  -0.939
  O  O131  1  0.343500  0.852700  0.411500  1.0  -0.8341
  O  O132  1  0.540500  0.804700  0.480100  1.0  -0.961
  O  O133  1  0.574100  0.853200  0.343800  1.0  -0.9041
  O  O134  1  0.968700  0.803600  0.044800  1.0  -0.9477
  O  O135  1  0.165900  0.854600  0.107800  1.0  -0.844
  O  O136  1  0.932300  0.869200  0.169600  1.0  -0.9047
  O  O137  1  0.147600  0.175800  0.502700  1.0  -0.9425
  O  O138  1  0.919300  0.207300  0.563700  1.0  -0.9169
  O  O139  1  0.088000  0.139500  0.639200  1.0  -0.9482
  O  O140  1  0.341300  0.173600  0.981300  1.0  -0.9259
  O  O141  1  0.566700  0.204000  0.917000  1.0  -0.9252
  O  O142  1  0.399800  0.132400  0.847200  1.0  -0.938
  O  O143  1  0.156500  0.352700  0.088500  1.0  -0.8351
  O  O144  1  0.959500  0.304700  0.019900  1.0  -0.9622
  O  O145  1  0.925900  0.353200  0.156200  1.0  -0.9057
  O  O146  1  0.531300  0.303600  0.455200  1.0  -0.9472
  O  O147  1  0.334100  0.354600  0.392200  1.0  -0.8424
  O  O148  1  0.567700  0.369200  0.330400  1.0  -0.9036
