# generated using pymatgen
data_Ga2P2H13C4N3O8
_symmetry_space_group_name_H-M   'P 1'
_cell_length_a   13.46640000
_cell_length_b   14.44490000
_cell_length_c   14.44490000
_cell_angle_alpha   69.19740000
_cell_angle_beta   71.89540000
_cell_angle_gamma   108.10500000
_symmetry_Int_Tables_number   1
_chemical_formula_structural   Ga2P2H13C4N3O8
_chemical_formula_sum   'Ga12 P12 H78 C24 N18 O48'
_cell_volume   2198.39116842
_cell_formula_units_Z   6
loop_
 _symmetry_equiv_pos_site_id
 _symmetry_equiv_pos_as_xyz
  1  'x, y, z'
loop_
 _atom_site_type_symbol
 _atom_site_label
 _atom_site_symmetry_multiplicity
 _atom_site_fract_x
 _atom_site_fract_y
 _atom_site_fract_z
 _atom_site_occupancy
 _atom_site_charge
  Ga  Ga1  1  0.146400  0.173900  0.373200  1.0  1.7071
  Ga  Ga2  1  0.192500  0.864200  0.543200  1.0  1.4667
  Ga  Ga3  1  0.519600  0.373200  0.452900  1.0  1.7048
  Ga  Ga4  1  0.735700  0.543200  0.592600  1.0  1.4663
  Ga  Ga5  1  0.972500  0.452900  0.173900  1.0  1.706
  Ga  Ga6  1  0.328300  0.592600  0.864200  1.0  1.4675
  Ga  Ga7  1  0.853600  0.826100  0.626800  1.0  1.7093
  Ga  Ga8  1  0.807500  0.135800  0.456800  1.0  1.4655
  Ga  Ga9  1  0.480400  0.626800  0.547100  1.0  1.7046
  Ga  Ga10  1  0.264300  0.456800  0.407400  1.0  1.4655
  Ga  Ga11  1  0.027500  0.547100  0.826100  1.0  1.7063
  Ga  Ga12  1  0.671700  0.407400  0.135800  1.0  1.4676
  P  P13  1  0.063900  0.946600  0.399100  1.0  1.7975
  P  P14  1  0.061600  0.352300  0.333500  1.0  1.8607
  P  P15  1  0.463000  0.399100  0.654300  1.0  1.7969
  P  P16  1  0.395100  0.333500  0.314200  1.0  1.8609
  P  P17  1  0.117300  0.654300  0.946600  1.0  1.7984
  P  P18  1  0.709300  0.314200  0.352300  1.0  1.8613
  P  P19  1  0.936100  0.053400  0.600900  1.0  1.7992
  P  P20  1  0.938400  0.647700  0.666500  1.0  1.8603
  P  P21  1  0.537000  0.600900  0.345700  1.0  1.7975
  P  P22  1  0.604900  0.666500  0.685800  1.0  1.8613
  P  P23  1  0.882700  0.345700  0.053400  1.0  1.7963
  P  P24  1  0.290700  0.685800  0.647700  1.0  1.8627
  H  H25  1  0.325100  0.847400  0.391100  1.0  0.314
  H  H26  1  0.255700  0.887400  0.349800  1.0  0.3005
  H  H27  1  0.307900  0.082300  0.458600  1.0  0.2811
  H  H28  1  0.111900  0.817200  0.750000  1.0  0.2973
  H  H29  1  0.049600  0.869400  0.701400  1.0  0.3279
  H  H30  1  0.463300  0.016000  0.267200  1.0  0.086
  H  H31  1  0.369700  0.067500  0.291400  1.0  0.0856
  H  H32  1  0.379500  0.093500  0.575400  1.0  0.0857
  H  H33  1  0.353600  0.968700  0.625500  1.0  0.0828
  H  H34  1  0.498400  0.113500  0.368300  1.0  0.1075
  H  H35  1  0.457100  0.977400  0.450000  1.0  0.0757
  H  H36  1  0.195700  0.970900  0.742000  1.0  0.0979
  H  H37  1  0.170000  0.035300  0.641700  1.0  0.1006
  H  H38  1  0.716200  0.391100  0.761500  1.0  0.3032
  H  H39  1  0.605500  0.349800  0.762800  1.0  0.3169
  H  H40  1  0.766500  0.458600  0.459100  1.0  0.2853
  H  H41  1  0.861900  0.750000  0.432800  1.0  0.303
  H  H42  1  0.751000  0.701400  0.429200  1.0  0.3292
  H  H43  1  0.730500  0.267200  0.716800  1.0  0.0924
  H  H44  1  0.661100  0.291400  0.641100  1.0  0.0839
  H  H45  1  0.954900  0.575400  0.331100  1.0  0.0853
  H  H46  1  0.979100  0.625500  0.405800  1.0  0.0803
  H  H47  1  0.866700  0.368300  0.518200  1.0  0.1083
  H  H48  1  0.907100  0.450000  0.572600  1.0  0.0739
  H  H49  1  0.937700  0.742000  0.287100  1.0  0.099
  H  H50  1  0.811700  0.641700  0.323000  1.0  0.0975
  H  H51  1  0.477700  0.761500  0.847400  1.0  0.3124
  H  H52  1  0.368300  0.762800  0.887400  1.0  0.3165
  H  H53  1  0.225600  0.459100  0.082300  1.0  0.2842
  H  H54  1  0.294700  0.432800  0.817200  1.0  0.3054
  H  H55  1  0.180200  0.429200  0.869400  1.0  0.3265
  H  H56  1  0.447300  0.716800  0.016000  1.0  0.0923
  H  H57  1  0.302200  0.641100  0.067500  1.0  0.0847
  H  H58  1  0.286000  0.331100  0.093500  1.0  0.084
  H  H59  1  0.384900  0.405800  0.968700  1.0  0.0794
  H  H60  1  0.384900  0.518200  0.113500  1.0  0.1092
  H  H61  1  0.479700  0.572600  0.977400  1.0  0.0746
  H  H62  1  0.224800  0.287100  0.970900  1.0  0.0962
  H  H63  1  0.134700  0.323000  0.035300  1.0  0.0978
  H  H64  1  0.674900  0.152600  0.608900  1.0  0.3077
  H  H65  1  0.744300  0.112600  0.650200  1.0  0.3012
  H  H66  1  0.692100  0.917700  0.541400  1.0  0.2799
  H  H67  1  0.888100  0.182800  0.250000  1.0  0.2967
  H  H68  1  0.950400  0.130600  0.298600  1.0  0.3291
  H  H69  1  0.536700  0.984000  0.732800  1.0  0.0823
  H  H70  1  0.630300  0.932500  0.708600  1.0  0.0856
  H  H71  1  0.620500  0.906500  0.424600  1.0  0.0839
  H  H72  1  0.646400  0.031300  0.374500  1.0  0.0839
  H  H73  1  0.501600  0.886500  0.631700  1.0  0.1101
  H  H74  1  0.542900  0.022600  0.550000  1.0  0.076
  H  H75  1  0.804300  0.029100  0.258000  1.0  0.0975
  H  H76  1  0.830000  0.964700  0.358300  1.0  0.0993
  H  H77  1  0.283800  0.608900  0.238500  1.0  0.3031
  H  H78  1  0.394500  0.650200  0.237200  1.0  0.3176
  H  H79  1  0.233500  0.541400  0.540900  1.0  0.2825
  H  H80  1  0.138100  0.250000  0.567200  1.0  0.3027
  H  H81  1  0.249000  0.298600  0.570800  1.0  0.3287
  H  H82  1  0.269500  0.732800  0.283200  1.0  0.0898
  H  H83  1  0.338900  0.708600  0.358900  1.0  0.0827
  H  H84  1  0.045100  0.424600  0.668900  1.0  0.0849
  H  H85  1  0.020900  0.374500  0.594200  1.0  0.082
  H  H86  1  0.133300  0.631700  0.481800  1.0  0.1084
  H  H87  1  0.092900  0.550000  0.427400  1.0  0.0755
  H  H88  1  0.062300  0.258000  0.712900  1.0  0.0978
  H  H89  1  0.188300  0.358300  0.677000  1.0  0.0971
  H  H90  1  0.522300  0.238500  0.152600  1.0  0.3104
  H  H91  1  0.631700  0.237200  0.112600  1.0  0.3142
  H  H92  1  0.774400  0.540900  0.917700  1.0  0.2833
  H  H93  1  0.705300  0.567200  0.182800  1.0  0.3023
  H  H94  1  0.819800  0.570800  0.130600  1.0  0.329
  H  H95  1  0.552700  0.283200  0.984000  1.0  0.0944
  H  H96  1  0.697800  0.358900  0.932500  1.0  0.0841
  H  H97  1  0.714000  0.668900  0.906500  1.0  0.0841
  H  H98  1  0.615100  0.594200  0.031300  1.0  0.0786
  H  H99  1  0.615100  0.481800  0.886500  1.0  0.1083
  H  H100  1  0.520300  0.427400  0.022600  1.0  0.075
  H  H101  1  0.775200  0.712900  0.029100  1.0  0.0985
  H  H102  1  0.865300  0.677000  0.964700  1.0  0.0989
  C  C103  1  0.398500  0.010100  0.323400  1.0  0.0403
  C  C104  1  0.432500  0.039500  0.403200  1.0  -0.0273
  C  C105  1  0.325100  0.019900  0.593000  1.0  -0.006
  C  C106  1  0.199600  0.980400  0.673500  1.0  0.0434
  C  C107  1  0.721900  0.323400  0.666500  1.0  0.0424
  C  C108  1  0.835700  0.403200  0.557300  1.0  -0.0284
  C  C109  1  0.918100  0.593000  0.387100  1.0  -0.0049
  C  C110  1  0.873100  0.673500  0.346100  1.0  0.0459
  C  C111  1  0.388400  0.666500  0.010100  1.0  0.0383
  C  C112  1  0.393000  0.557300  0.039500  1.0  -0.027
  C  C113  1  0.305200  0.387100  0.019900  1.0  -0.0015
  C  C114  1  0.219200  0.346100  0.980400  1.0  0.0463
  C  C115  1  0.601500  0.989900  0.676600  1.0  0.038
  C  C116  1  0.567500  0.960500  0.596800  1.0  -0.026
  C  C117  1  0.674900  0.980100  0.407000  1.0  -0.0044
  C  C118  1  0.800400  0.019600  0.326500  1.0  0.044
  C  C119  1  0.278100  0.676600  0.333500  1.0  0.0402
  C  C120  1  0.164300  0.596800  0.442700  1.0  -0.0279
  C  C121  1  0.081900  0.407000  0.612900  1.0  -0.0053
  C  C122  1  0.126900  0.326500  0.653900  1.0  0.0475
  C  C123  1  0.611600  0.333500  0.989900  1.0  0.0409
  C  C124  1  0.607000  0.442700  0.960500  1.0  -0.0291
  C  C125  1  0.694800  0.612900  0.980100  1.0  -0.002
  C  C126  1  0.780800  0.653900  0.019600  1.0  0.0467
  N  N127  1  0.299700  0.893700  0.387000  1.0  -0.6388
  N  N128  1  0.325100  0.019100  0.492000  1.0  -0.4173
  N  N129  1  0.121800  0.872700  0.687000  1.0  -0.6562
  N  N130  1  0.686700  0.387000  0.719300  1.0  -0.6373
  N  N131  1  0.817100  0.492000  0.488900  1.0  -0.4256
  N  N132  1  0.808800  0.687000  0.440300  1.0  -0.6555
  N  N133  1  0.406000  0.719300  0.893700  1.0  -0.6349
  N  N134  1  0.306000  0.488900  0.019100  1.0  -0.4219
  N  N135  1  0.249100  0.440300  0.872700  1.0  -0.6589
  N  N136  1  0.700300  0.106300  0.613000  1.0  -0.6392
  N  N137  1  0.674900  0.980900  0.508000  1.0  -0.4181
  N  N138  1  0.878200  0.127300  0.313000  1.0  -0.6558
  N  N139  1  0.313300  0.613000  0.280700  1.0  -0.6407
  N  N140  1  0.182900  0.508000  0.511100  1.0  -0.4219
  N  N141  1  0.191200  0.313000  0.559700  1.0  -0.6543
  N  N142  1  0.594000  0.280700  0.106300  1.0  -0.6356
  N  N143  1  0.694000  0.511100  0.980900  1.0  -0.4235
  N  N144  1  0.750900  0.559700  0.127300  1.0  -0.6568
  O  O145  1  0.119500  0.946600  0.476800  1.0  -1.0068
  O  O146  1  0.090600  0.071200  0.332000  1.0  -0.9082
  O  O147  1  0.926100  0.873600  0.476100  1.0  -0.9398
  O  O148  1  0.106700  0.905500  0.322000  1.0  -0.8821
  O  O149  1  0.118100  0.285500  0.294900  1.0  -0.9262
  O  O150  1  0.081500  0.448100  0.224400  1.0  -0.9284
  O  O151  1  0.118200  0.401500  0.391400  1.0  -0.9165
  O  O152  1  0.928400  0.278500  0.410300  1.0  -0.9363
  O  O153  1  0.596300  0.476800  0.576600  1.0  -1.0088
  O  O154  1  0.422600  0.332000  0.596800  1.0  -0.9075
  O  O155  1  0.402200  0.476100  0.650300  1.0  -0.9404
  O  O156  1  0.428700  0.322000  0.772500  1.0  -0.8374
  O  O157  1  0.413000  0.294900  0.419600  1.0  -0.9272
  O  O158  1  0.305900  0.224400  0.327500  1.0  -0.9282
  O  O159  1  0.509600  0.391400  0.207100  1.0  -0.9157
  O  O160  1  0.338700  0.410300  0.311200  1.0  -0.9376
  O  O161  1  0.172900  0.576600  0.946600  1.0  -1.0067
  O  O162  1  0.019400  0.596800  0.071200  1.0  -0.9119
  O  O163  1  0.052500  0.650300  0.873600  1.0  -0.94
  O  O164  1  0.201200  0.772500  0.905500  1.0  -0.8546
  O  O165  1  0.832600  0.419600  0.285500  1.0  -0.9254
  O  O166  1  0.633400  0.327500  0.448100  1.0  -0.9287
  O  O167  1  0.716700  0.207100  0.401500  1.0  -0.9171
  O  O168  1  0.649900  0.311200  0.278500  1.0  -0.9375
  O  O169  1  0.880500  0.053400  0.523200  1.0  -1.0057
  O  O170  1  0.909400  0.928800  0.668000  1.0  -0.9093
  O  O171  1  0.073900  0.126400  0.523900  1.0  -0.9395
  O  O172  1  0.893300  0.094500  0.678000  1.0  -0.8762
  O  O173  1  0.881900  0.714500  0.705100  1.0  -0.9258
  O  O174  1  0.918500  0.551900  0.775600  1.0  -0.9285
  O  O175  1  0.881800  0.598500  0.608600  1.0  -0.9161
  O  O176  1  0.071600  0.721500  0.589700  1.0  -0.9364
  O  O177  1  0.403700  0.523200  0.423400  1.0  -1.0077
  O  O178  1  0.577400  0.668000  0.403200  1.0  -0.9091
  O  O179  1  0.597800  0.523900  0.349700  1.0  -0.9413
  O  O180  1  0.571300  0.678000  0.227500  1.0  -0.8361
  O  O181  1  0.587000  0.705100  0.580400  1.0  -0.9272
  O  O182  1  0.694100  0.775600  0.672500  1.0  -0.928
  O  O183  1  0.490400  0.608600  0.792900  1.0  -0.9166
  O  O184  1  0.661300  0.589700  0.688800  1.0  -0.9364
  O  O185  1  0.827100  0.423400  0.053400  1.0  -1.0061
  O  O186  1  0.980600  0.403200  0.928800  1.0  -0.9105
  O  O187  1  0.947500  0.349700  0.126400  1.0  -0.9407
  O  O188  1  0.798800  0.227500  0.094500  1.0  -0.8594
  O  O189  1  0.167400  0.580400  0.714500  1.0  -0.9257
  O  O190  1  0.366600  0.672500  0.551900  1.0  -0.9282
  O  O191  1  0.283300  0.792900  0.598500  1.0  -0.9168
  O  O192  1  0.350100  0.688800  0.721500  1.0  -0.9371
