# generated using pymatgen
data_AlC8O5
_symmetry_space_group_name_H-M   'P 1'
_cell_length_a   6.61690000
_cell_length_b   9.43000000
_cell_length_c   9.46420000
_cell_angle_alpha   107.57700000
_cell_angle_beta   107.72500000
_cell_angle_gamma   93.20880000
_symmetry_Int_Tables_number   1
_chemical_formula_structural   AlC8O5
_chemical_formula_sum   'Al2 C16 O10'
_cell_volume   529.08299270
_cell_formula_units_Z   2
loop_
 _symmetry_equiv_pos_site_id
 _symmetry_equiv_pos_as_xyz
  1  'x, y, z'
loop_
 _atom_site_type_symbol
 _atom_site_label
 _atom_site_symmetry_multiplicity
 _atom_site_fract_x
 _atom_site_fract_y
 _atom_site_fract_z
 _atom_site_occupancy
 _atom_site_charge
  Al  Al1  1  0.000000  0.000000  0.000000  1.0  1.8759
  Al  Al2  1  0.500000  0.000000  0.000000  1.0  1.8556
  C  C3  1  0.363800  0.232000  0.230700  1.0  0.6547
  C  C4  1  0.443100  0.347000  0.393300  1.0  0.0052
  C  C5  1  0.650300  0.436700  0.391300  1.0  -0.036
  C  C6  1  0.279400  0.438800  0.446700  1.0  -0.0015
  C  C7  1  0.827000  0.890400  0.231260  1.0  0.6593
  C  C8  1  0.880800  0.846700  0.374700  1.0  -0.0117
  C  C9  1  0.748600  0.951100  0.449700  1.0  0.0587
  C  C10  1  0.881800  0.092900  0.552500  1.0  0.0151
  C  C11  1  0.636200  0.768000  0.769300  1.0  0.6545
  C  C12  1  0.556900  0.653000  0.606700  1.0  0.003
  C  C13  1  0.349700  0.563300  0.608700  1.0  -0.041
  C  C14  1  0.720600  0.561200  0.553300  1.0  -0.0036
  C  C15  1  0.173000  0.109600  0.768740  1.0  0.6596
  C  C16  1  0.119200  0.153300  0.625300  1.0  -0.0109
  C  C17  1  0.251400  0.048900  0.550300  1.0  0.0605
  C  C18  1  0.118200  0.907100  0.447500  1.0  0.0163
  O  O19  1  0.253300  0.932900  0.017000  1.0  -0.8187
  O  O20  1  0.494700  0.178400  0.173600  1.0  -0.5775
  O  O21  1  0.179600  0.170400  0.166400  1.0  -0.593
  O  O22  1  0.962500  0.911500  0.167000  1.0  -0.6309
  O  O23  1  0.638300  0.895600  0.154700  1.0  -0.5853
  O  O24  1  0.746700  0.067100  0.983000  1.0  -0.8231
  O  O25  1  0.505300  0.821600  0.826400  1.0  -0.5779
  O  O26  1  0.820400  0.829600  0.833600  1.0  -0.5882
  O  O27  1  0.037500  0.088500  0.833000  1.0  -0.6332
  O  O28  1  0.361700  0.104400  0.845300  1.0  -0.5859
