# generated using pymatgen
data_NiMo4H20C15N15O8
_symmetry_space_group_name_H-M   'P 1'
_cell_length_a   10.66100000
_cell_length_b   11.99800000
_cell_length_c   13.87800000
_cell_angle_alpha   72.77400000
_cell_angle_beta   79.85900000
_cell_angle_gamma   81.10600000
_symmetry_Int_Tables_number   1
_chemical_formula_structural   NiMo4H20C15N15O8
_chemical_formula_sum   'Ni2 Mo8 H40 C30 N30 O16'
_cell_volume   1659.08955527
_cell_formula_units_Z   2
loop_
 _symmetry_equiv_pos_site_id
 _symmetry_equiv_pos_as_xyz
  1  'x, y, z'
loop_
 _atom_site_type_symbol
 _atom_site_label
 _atom_site_symmetry_multiplicity
 _atom_site_fract_x
 _atom_site_fract_y
 _atom_site_fract_z
 _atom_site_occupancy
 _atom_site_charge
  Ni  Ni1  1  0.000000  0.000000  0.000000  1.0  0.7947
  Ni  Ni2  1  0.000000  0.500000  0.500000  1.0  0.8398
  Mo  Mo3  1  0.876850  0.214040  0.545770  1.0  1.3146
  Mo  Mo4  1  0.148170  0.012470  0.531830  1.0  1.287
  Mo  Mo5  1  0.909150  0.000610  0.746270  1.0  1.297
  Mo  Mo6  1  0.090850  0.999390  0.253730  1.0  1.2949
  Mo  Mo7  1  0.123150  0.785960  0.454230  1.0  1.3156
  Mo  Mo8  1  0.878510  0.221370  0.263380  1.0  0.6339
  Mo  Mo9  1  0.121490  0.778630  0.736620  1.0  0.6353
  Mo  Mo10  1  0.851830  0.987530  0.468170  1.0  1.2869
  H  H11  1  0.612300  0.192600  0.188300  1.0  0.0892
  H  H12  1  0.257300  0.601700  0.348400  1.0  0.0708
  H  H13  1  0.487100  0.945800  0.286600  1.0  0.0913
  H  H14  1  0.742700  0.398300  0.651600  1.0  0.0766
  H  H15  1  0.303700  0.990200  0.039000  1.0  0.0617
  H  H16  1  0.518900  0.755700  0.390600  1.0  0.0968
  H  H17  1  0.710600  0.825200  0.684500  1.0  0.1024
  H  H18  1  0.059400  0.422200  0.734300  1.0  0.0702
  H  H19  1  0.078100  0.518100  0.903500  1.0  0.1106
  H  H20  1  0.372600  0.153900  0.215900  1.0  0.0834
  H  H21  1  0.640600  0.639100  0.857200  1.0  0.0993
  H  H22  1  0.386300  0.749400  0.552800  1.0  0.0545
  H  H23  1  0.126300  0.441400  0.005900  1.0  0.0958
  H  H24  1  0.915800  0.653300  0.659200  1.0  0.0975
  H  H25  1  0.224900  0.313700  0.165700  1.0  0.1021
  H  H26  1  0.387700  0.807400  0.811700  1.0  0.0886
  H  H27  1  0.696300  0.009800  0.961000  1.0  0.0604
  H  H28  1  0.826000  0.248100  0.882800  1.0  0.0714
  H  H29  1  0.822800  0.952400  0.214300  1.0  0.0882
  H  H30  1  0.177200  0.047600  0.785700  1.0  0.0883
  H  H31  1  0.731600  0.685200  0.483400  1.0  0.0887
  H  H32  1  0.612000  0.935700  0.335400  1.0  0.0939
  H  H33  1  0.921900  0.481900  0.096500  1.0  0.1111
  H  H34  1  0.268400  0.314800  0.516600  1.0  0.0878
  H  H35  1  0.880500  0.777100  0.979500  1.0  0.0881
  H  H36  1  0.084200  0.346700  0.340800  1.0  0.0971
  H  H37  1  0.460900  0.250600  0.722300  1.0  0.12
  H  H38  1  0.119500  0.222900  0.020500  1.0  0.0877
  H  H39  1  0.539100  0.749400  0.277700  1.0  0.1207
  H  H40  1  0.289400  0.174800  0.315500  1.0  0.1035
  H  H41  1  0.775100  0.686300  0.834300  1.0  0.0967
  H  H42  1  0.940600  0.577800  0.265700  1.0  0.0694
  H  H43  1  0.388000  0.064300  0.664600  1.0  0.0937
  H  H44  1  0.174000  0.751900  0.117200  1.0  0.0682
  H  H45  1  0.359400  0.360900  0.142800  1.0  0.0988
  H  H46  1  0.873700  0.558600  0.994100  1.0  0.0958
  H  H47  1  0.627400  0.846100  0.784100  1.0  0.0828
  H  H48  1  0.481100  0.244300  0.609400  1.0  0.095
  H  H49  1  0.512900  0.054200  0.713400  1.0  0.0913
  H  H50  1  0.613700  0.250600  0.447200  1.0  0.0533
  C  C51  1  0.351800  0.207600  0.258100  1.0  -0.0413
  C  C52  1  0.769900  0.960300  0.165500  1.0  0.1481
  C  C53  1  0.143500  0.400300  0.328400  1.0  0.1434
  C  C54  1  0.574700  0.909000  0.288300  1.0  -0.0762
  C  C55  1  0.705300  0.674700  0.803200  1.0  -0.0496
  C  C56  1  0.110900  0.733000  0.088100  1.0  0.2522
  C  C57  1  0.298600  0.008500  0.969800  1.0  0.2564
  C  C58  1  0.762300  0.670400  0.420900  1.0  0.1583
  C  C59  1  0.238000  0.537600  0.331400  1.0  0.2414
  C  C60  1  0.412700  0.791000  0.749200  1.0  0.1198
  C  C61  1  0.762000  0.462400  0.668600  1.0  0.2397
  C  C62  1  0.425300  0.091000  0.711700  1.0  -0.0778
  C  C63  1  0.051900  0.466500  0.970200  1.0  -0.0303
  C  C64  1  0.585500  0.241000  0.390700  1.0  0.2493
  C  C65  1  0.230100  0.039700  0.834500  1.0  0.1477
  C  C66  1  0.587300  0.209000  0.250800  1.0  0.1209
  C  C67  1  0.648200  0.792400  0.741900  1.0  -0.0426
  C  C68  1  0.048700  0.251900  0.986300  1.0  0.1218
  C  C69  1  0.701400  0.991500  0.030200  1.0  0.2554
  C  C70  1  0.889100  0.267000  0.911900  1.0  0.2509
  C  C71  1  0.873200  0.614200  0.301700  1.0  0.3019
  C  C72  1  0.414500  0.759000  0.609300  1.0  0.2459
  C  C73  1  0.574600  0.775400  0.326100  1.0  -0.0935
  C  C74  1  0.948100  0.533500  0.029800  1.0  -0.029
  C  C75  1  0.294700  0.325300  0.196800  1.0  -0.0436
  C  C76  1  0.425400  0.224600  0.673900  1.0  -0.091
  C  C77  1  0.951300  0.748100  0.013700  1.0  0.1215
  C  C78  1  0.126800  0.385800  0.698300  1.0  0.3009
  C  C79  1  0.237700  0.329600  0.579100  1.0  0.1567
  C  C80  1  0.856500  0.599700  0.671600  1.0  0.1432
  N  N81  1  0.901300  0.374400  0.911800  1.0  -0.3589
  N  N82  1  0.870500  0.606500  0.402100  1.0  -0.4114
  N  N83  1  0.979400  0.186500  0.959500  1.0  -0.4062
  N  N84  1  0.332100  0.774600  0.690200  1.0  -0.4692
  N  N85  1  0.996000  0.637300  0.041800  1.0  0.1764
  N  N86  1  0.098700  0.625600  0.088200  1.0  -0.3577
  N  N87  1  0.191900  0.010900  0.935300  1.0  -0.3946
  N  N88  1  0.297200  0.289200  0.660300  1.0  0.1431
  N  N89  1  0.667900  0.225400  0.309800  1.0  -0.4716
  N  N90  1  0.598700  0.965500  0.101700  1.0  -0.3794
  N  N91  1  0.004000  0.362700  0.958200  1.0  0.176
  N  N92  1  0.311200  0.493400  0.259700  1.0  -0.4403
  N  N93  1  0.776000  0.675500  0.259700  1.0  -0.3751
  N  N94  1  0.648200  0.944900  0.186000  1.0  0.1663
  N  N95  1  0.351800  0.055100  0.814000  1.0  0.1654
  N  N96  1  0.865200  0.518100  0.623600  1.0  -0.3707
  N  N97  1  0.468900  0.220100  0.295500  1.0  0.142
  N  N98  1  0.753600  0.595000  0.738800  1.0  0.1658
  N  N99  1  0.129500  0.393500  0.597900  1.0  -0.4117
  N  N100  1  0.246400  0.405000  0.261200  1.0  0.1645
  N  N101  1  0.134800  0.481900  0.376400  1.0  -0.3686
  N  N102  1  0.401300  0.034500  0.898300  1.0  -0.3811
  N  N103  1  0.531100  0.779900  0.704500  1.0  0.1418
  N  N104  1  0.535300  0.757700  0.613300  1.0  -0.3886
  N  N105  1  0.702800  0.710800  0.339700  1.0  0.147
  N  N106  1  0.808100  0.989100  0.064700  1.0  -0.3949
  N  N107  1  0.224000  0.324500  0.740300  1.0  -0.376
  N  N108  1  0.020600  0.813500  0.040500  1.0  -0.4073
  N  N109  1  0.464700  0.242300  0.386700  1.0  -0.3874
  N  N110  1  0.688800  0.506600  0.740300  1.0  -0.4351
  O  O111  1  0.054000  0.166700  0.245800  1.0  -0.6392
  O  O112  1  0.097200  0.161100  0.499600  1.0  -0.6539
  O  O113  1  0.902800  0.838900  0.500400  1.0  -0.6527
  O  O114  1  0.089400  0.977300  0.419100  1.0  -0.8135
  O  O115  1  0.067300  0.839200  0.322500  1.0  -0.6641
  O  O116  1  0.879200  0.028800  0.324700  1.0  -0.7274
  O  O117  1  0.946000  0.833300  0.754200  1.0  -0.6395
  O  O118  1  0.954300  0.998900  0.860200  1.0  -0.6813
  O  O119  1  0.910600  0.022700  0.580900  1.0  -0.8158
  O  O120  1  0.919800  0.355800  0.500200  1.0  -0.6857
  O  O121  1  0.120800  0.971200  0.675300  1.0  -0.7286
  O  O122  1  0.080200  0.644200  0.499800  1.0  -0.686
  O  O123  1  0.932700  0.160800  0.677500  1.0  -0.663
  O  O124  1  0.045700  0.001100  0.139800  1.0  -0.679
  O  O125  1  0.133900  0.826600  0.575800  1.0  -0.7572
  O  O126  1  0.866100  0.173400  0.424200  1.0  -0.7586
