# generated using pymatgen
data_Al4P5HO20
_symmetry_space_group_name_H-M   'P 1'
_cell_length_a   9.21640000
_cell_length_b   10.22480000
_cell_length_c   12.60940000
_cell_angle_alpha   98.09800000
_cell_angle_beta   106.22700000
_cell_angle_gamma   106.14700000
_symmetry_Int_Tables_number   1
_chemical_formula_structural   Al4P5HO20
_chemical_formula_sum   'Al8 P10 H2 O40'
_cell_volume   1064.68939320
_cell_formula_units_Z   2
loop_
 _symmetry_equiv_pos_site_id
 _symmetry_equiv_pos_as_xyz
  1  'x, y, z'
loop_
 _atom_site_type_symbol
 _atom_site_label
 _atom_site_symmetry_multiplicity
 _atom_site_fract_x
 _atom_site_fract_y
 _atom_site_fract_z
 _atom_site_occupancy
 _atom_site_charge
  Al  Al1  1  0.513090  0.199750  0.219890  1.0  2.0225
  Al  Al2  1  0.212720  0.900050  0.481370  1.0  1.9003
  Al  Al3  1  0.501070  0.707580  0.226390  1.0  1.9974
  Al  Al4  1  0.782070  0.597300  0.515140  1.0  1.9154
  Al  Al5  1  0.486910  0.800250  0.780110  1.0  2.0204
  Al  Al6  1  0.787280  0.099950  0.518630  1.0  1.9008
  Al  Al7  1  0.498930  0.292420  0.773610  1.0  1.9969
  Al  Al8  1  0.217930  0.402700  0.484860  1.0  1.9156
  P  P9  1  0.504130  0.315590  0.019930  1.0  1.8016
  P  P10  1  0.152300  0.661540  0.600880  1.0  1.8689
  P  P11  1  0.575820  0.541450  0.674390  1.0  1.9628
  P  P12  1  0.428420  0.968690  0.334470  1.0  1.8932
  P  P13  1  0.842080  0.839390  0.394870  1.0  1.872
  P  P14  1  0.495870  0.684410  0.980070  1.0  1.7991
  P  P15  1  0.847700  0.338460  0.399120  1.0  1.867
  P  P16  1  0.424180  0.458550  0.325610  1.0  1.9582
  P  P17  1  0.571580  0.031310  0.665530  1.0  1.8956
  P  P18  1  0.157920  0.160610  0.605130  1.0  1.8744
  H  H19  1  0.341000  0.401000  0.951000  1.0  0.4272
  H  H20  1  0.659000  0.599000  0.049000  1.0  0.4284
  O  O21  1  0.479900  0.190500  0.075160  1.0  -0.8172
  O  O22  1  0.335200  0.333500  0.981540  1.0  -0.5712
  O  O23  1  0.630900  0.445900  0.100150  1.0  -0.7495
  O  O24  1  0.276600  0.953300  0.366840  1.0  -0.8596
  O  O25  1  0.433400  0.821700  0.298890  1.0  -1.0092
  O  O26  1  0.577900  0.062300  0.428910  1.0  -0.9489
  O  O27  1  0.724400  0.575300  0.637650  1.0  -0.9314
  O  O28  1  0.406900  0.034500  0.230940  1.0  -0.8544
  O  O29  1  0.546300  0.275900  0.913580  1.0  -0.951
  O  O30  1  0.161900  0.724300  0.498980  1.0  -0.886
  O  O31  1  0.707700  0.749100  0.284350  1.0  -0.9331
  O  O32  1  0.828500  0.772900  0.494650  1.0  -0.8983
  O  O33  1  0.283100  0.757200  0.711280  1.0  -0.943
  O  O34  1  0.993700  0.647000  0.621480  1.0  -0.7787
  O  O35  1  0.000100  0.849900  0.373740  1.0  -0.7913
  O  O36  1  0.568100  0.683000  0.726790  1.0  -1.0022
  O  O37  1  0.174600  0.519400  0.581650  1.0  -0.9612
  O  O38  1  0.827900  0.984900  0.418580  1.0  -0.9539
  O  O39  1  0.426200  0.454400  0.577990  1.0  -0.9479
  O  O40  1  0.604700  0.460600  0.767820  1.0  -0.87
  O  O41  1  0.520100  0.809500  0.924840  1.0  -0.8161
  O  O42  1  0.664800  0.666500  0.018460  1.0  -0.574
  O  O43  1  0.369100  0.554100  0.899850  1.0  -0.7493
  O  O44  1  0.723400  0.046700  0.633160  1.0  -0.8577
  O  O45  1  0.566600  0.178300  0.701110  1.0  -1.0122
  O  O46  1  0.422100  0.937700  0.571090  1.0  -0.9493
  O  O47  1  0.275600  0.424700  0.362350  1.0  -0.9266
  O  O48  1  0.593100  0.965500  0.769060  1.0  -0.8551
  O  O49  1  0.453700  0.724100  0.086420  1.0  -0.9529
  O  O50  1  0.838100  0.275700  0.501020  1.0  -0.8866
  O  O51  1  0.292300  0.250900  0.715650  1.0  -0.936
  O  O52  1  0.171500  0.227100  0.505350  1.0  -0.8991
  O  O53  1  0.716900  0.242800  0.288720  1.0  -0.9394
  O  O54  1  0.006300  0.353000  0.378520  1.0  -0.7775
  O  O55  1  0.999900  0.150100  0.626260  1.0  -0.7919
  O  O56  1  0.431900  0.317000  0.273210  1.0  -1.0026
  O  O57  1  0.825400  0.480600  0.418350  1.0  -0.9597
  O  O58  1  0.172100  0.015100  0.581420  1.0  -0.9556
  O  O59  1  0.573800  0.545600  0.422010  1.0  -0.9483
  O  O60  1  0.395300  0.539400  0.232180  1.0  -0.8697
