# generated using pymatgen
data_CaH2C6O5
_symmetry_space_group_name_H-M   'P 1'
_cell_length_a   9.53870000
_cell_length_b   10.42500000
_cell_length_c   11.59000000
_cell_angle_alpha   75.02000000
_cell_angle_beta   84.80000000
_cell_angle_gamma   80.99000000
_symmetry_Int_Tables_number   1
_chemical_formula_structural   CaH2C6O5
_chemical_formula_sum   'Ca4 H8 C24 O20'
_cell_volume   1098.09556624
_cell_formula_units_Z   4
loop_
 _symmetry_equiv_pos_site_id
 _symmetry_equiv_pos_as_xyz
  1  'x, y, z'
loop_
 _atom_site_type_symbol
 _atom_site_label
 _atom_site_symmetry_multiplicity
 _atom_site_fract_x
 _atom_site_fract_y
 _atom_site_fract_z
 _atom_site_occupancy
 _atom_site_charge
  Ca  Ca1  1  0.457910  0.413040  0.360610  1.0  1.5761
  Ca  Ca2  1  0.542090  0.586960  0.639390  1.0  1.5742
  Ca  Ca3  1  0.500000  0.000000  0.500000  1.0  1.6198
  Ca  Ca4  1  0.500000  0.500000  0.000000  1.0  1.5781
  H  H5  1  0.029300  0.714000  0.968100  1.0  0.1408
  H  H6  1  0.771000  0.681200  0.004600  1.0  0.1263
  H  H7  1  0.364400  0.800400  0.137000  1.0  0.1209
  H  H8  1  0.359300  0.046300  0.034100  1.0  0.1185
  H  H9  1  0.970700  0.286000  0.031900  1.0  0.1417
  H  H10  1  0.229000  0.318800  0.995400  1.0  0.1267
  H  H11  1  0.635600  0.199600  0.863000  1.0  0.1199
  H  H12  1  0.640700  0.953700  0.965900  1.0  0.1182
  C  C13  1  0.208500  0.554100  0.159400  1.0  0.7124
  C  C14  1  0.055700  0.583900  0.132800  1.0  0.0419
  C  C15  1  0.988400  0.660000  0.035400  1.0  -0.1523
  C  C16  1  0.843900  0.641600  0.055900  1.0  -0.1436
  C  C17  1  0.831900  0.555700  0.163800  1.0  0.055
  C  C18  1  0.709400  0.495300  0.231400  1.0  0.6976
  C  C19  1  0.447600  0.742500  0.391700  1.0  0.7203
  C  C20  1  0.423900  0.850800  0.282300  1.0  0.0291
  C  C21  1  0.385400  0.866900  0.170300  1.0  -0.155
  C  C22  1  0.382800  0.005200  0.112500  1.0  -0.1491
  C  C23  1  0.420800  0.065600  0.192400  1.0  0.0456
  C  C24  1  0.445400  0.201400  0.194800  1.0  0.7291
  C  C25  1  0.791500  0.445900  0.840600  1.0  0.7122
  C  C26  1  0.944300  0.416100  0.867200  1.0  0.0412
  C  C27  1  0.011600  0.340000  0.964600  1.0  -0.154
  C  C28  1  0.156100  0.358400  0.944100  1.0  -0.1441
  C  C29  1  0.168100  0.444300  0.836200  1.0  0.0552
  C  C30  1  0.290600  0.504700  0.768600  1.0  0.6973
  C  C31  1  0.552400  0.257500  0.608300  1.0  0.7203
  C  C32  1  0.576100  0.149200  0.717700  1.0  0.028
  C  C33  1  0.614600  0.133100  0.829700  1.0  -0.1525
  C  C34  1  0.617200  0.994800  0.887500  1.0  -0.151
  C  C35  1  0.579200  0.934400  0.807600  1.0  0.0448
  C  C36  1  0.554600  0.798600  0.805200  1.0  0.7304
  O  O37  1  0.292000  0.603000  0.075000  1.0  -0.7135
  O  O38  1  0.242300  0.484200  0.260000  1.0  -0.7177
  O  O39  1  0.961000  0.519600  0.214550  1.0  -0.1312
  O  O40  1  0.716500  0.438700  0.340420  1.0  -0.6184
  O  O41  1  0.599500  0.505700  0.174380  1.0  -0.6727
  O  O42  1  0.473000  0.778800  0.482320  1.0  -0.7073
  O  O43  1  0.441000  0.624900  0.390600  1.0  -0.7887
  O  O44  1  0.445400  0.972300  0.298130  1.0  -0.3693
  O  O45  1  0.471200  0.213600  0.296180  1.0  -0.6867
  O  O46  1  0.438400  0.289700  0.099220  1.0  -0.6993
  O  O47  1  0.708000  0.397000  0.925000  1.0  -0.7114
  O  O48  1  0.757700  0.515800  0.740000  1.0  -0.717
  O  O49  1  0.039000  0.480400  0.785450  1.0  -0.1309
  O  O50  1  0.283500  0.561300  0.659580  1.0  -0.6221
  O  O51  1  0.400500  0.494300  0.825620  1.0  -0.6753
  O  O52  1  0.527000  0.221200  0.517680  1.0  -0.708
  O  O53  1  0.559000  0.375100  0.609400  1.0  -0.7897
  O  O54  1  0.554600  0.027700  0.701870  1.0  -0.3731
  O  O55  1  0.528800  0.786400  0.703820  1.0  -0.6886
  O  O56  1  0.561600  0.710300  0.900780  1.0  -0.699
