# generated using pymatgen
data_ZnH12C15(NO2)2
_symmetry_space_group_name_H-M   'P 1'
_cell_length_a   12.31110000
_cell_length_b   20.01390000
_cell_length_c   20.01390000
_cell_angle_alpha   102.55200000
_cell_angle_beta   95.12270000
_cell_angle_gamma   95.12270000
_symmetry_Int_Tables_number   1
_chemical_formula_structural   ZnH12C15(NO2)2
_chemical_formula_sum   'Zn8 H96 C120 N16 O32'
_cell_volume   4764.14248872
_cell_formula_units_Z   8
loop_
 _symmetry_equiv_pos_site_id
 _symmetry_equiv_pos_as_xyz
  1  'x, y, z'
loop_
 _atom_site_type_symbol
 _atom_site_label
 _atom_site_symmetry_multiplicity
 _atom_site_fract_x
 _atom_site_fract_y
 _atom_site_fract_z
 _atom_site_occupancy
 _atom_site_charge
  Zn  Zn1  1  0.401890  0.529850  0.017540  1.0  0.885
  Zn  Zn2  1  0.098110  0.982460  0.470150  1.0  0.8882
  Zn  Zn3  1  0.796210  0.208350  0.942560  1.0  0.922
  Zn  Zn4  1  0.296210  0.942560  0.208350  1.0  0.9205
  Zn  Zn5  1  0.598110  0.470150  0.982460  1.0  0.8886
  Zn  Zn6  1  0.901890  0.017540  0.529850  1.0  0.8846
  Zn  Zn7  1  0.703790  0.057440  0.791650  1.0  0.9216
  Zn  Zn8  1  0.203790  0.791650  0.057440  1.0  0.9206
  H  H9  1  0.217300  0.862000  0.613400  1.0  0.105
  H  H10  1  0.168800  0.545400  0.954000  1.0  0.0742
  H  H11  1  0.979800  0.328000  0.966000  1.0  0.0786
  H  H12  1  0.844900  0.070500  0.673500  1.0  0.0859
  H  H13  1  0.390600  0.847000  0.297200  1.0  0.0815
  H  H14  1  0.410700  0.809800  0.887400  1.0  0.1098
  H  H15  1  0.967400  0.842300  0.901300  1.0  0.1044
  H  H16  1  0.569600  0.778700  0.309700  1.0  0.1111
  H  H17  1  0.286800  0.653600  0.994800  1.0  0.0881
  H  H18  1  0.655100  0.326500  0.929500  1.0  0.0844
  H  H19  1  0.331200  0.046000  0.454600  1.0  0.0795
  H  H20  1  0.263100  0.833100  0.297300  1.0  0.075
  H  H21  1  0.034400  0.042500  0.750900  1.0  0.1004
  H  H22  1  0.786800  0.994800  0.653600  1.0  0.0893
  H  H23  1  0.545300  0.096500  0.526300  1.0  0.0731
  H  H24  1  0.236900  0.702700  0.166900  1.0  0.07
  H  H25  1  0.281000  0.253900  0.958500  1.0  0.1085
  H  H26  1  0.760600  0.473400  0.878200  1.0  0.0716
  H  H27  1  0.719000  0.746100  0.041500  1.0  0.1088
  H  H28  1  0.239400  0.526600  0.121800  1.0  0.0733
  H  H29  1  0.552700  0.680100  0.206900  1.0  0.104
  H  H30  1  0.155100  0.929500  0.326500  1.0  0.0843
  H  H31  1  0.930400  0.690300  0.221300  1.0  0.1081
  H  H32  1  0.228600  0.779900  0.811700  1.0  0.1019
  H  H33  1  0.588800  0.910400  0.207200  1.0  0.0997
  H  H34  1  0.109400  0.702800  0.153000  1.0  0.081
  H  H35  1  0.506500  0.891300  0.403900  1.0  0.0814
  H  H36  1  0.020200  0.672000  0.034000  1.0  0.0793
  H  H37  1  0.411200  0.089600  0.792800  1.0  0.1015
  H  H38  1  0.479800  0.966000  0.328000  1.0  0.0778
  H  H39  1  0.465600  0.249100  0.957500  1.0  0.1005
  H  H40  1  0.520200  0.034000  0.672000  1.0  0.0779
  H  H41  1  0.089300  0.112600  0.190200  1.0  0.1096
  H  H42  1  0.650200  0.003700  0.495700  1.0  0.0837
  H  H43  1  0.684900  0.403500  0.851900  1.0  0.0609
  H  H44  1  0.736900  0.166900  0.702700  1.0  0.0738
  H  H45  1  0.717300  0.613400  0.862000  1.0  0.103
  H  H46  1  0.006500  0.403900  0.891300  1.0  0.0791
  H  H47  1  0.282700  0.386600  0.138000  1.0  0.1044
  H  H48  1  0.260600  0.878200  0.473400  1.0  0.072
  H  H49  1  0.591000  0.972800  0.652400  1.0  0.0753
  H  H50  1  0.713200  0.346400  0.005200  1.0  0.0863
  H  H51  1  0.532600  0.098700  0.157700  1.0  0.1035
  H  H52  1  0.765800  0.700500  0.809900  1.0  0.1132
  H  H53  1  0.910700  0.887400  0.809800  1.0  0.1116
  H  H54  1  0.734200  0.190100  0.299500  1.0  0.1153
  H  H55  1  0.739400  0.121800  0.526600  1.0  0.0732
  H  H56  1  0.054400  0.085100  0.302700  1.0  0.0967
  H  H57  1  0.175500  0.392100  0.860100  1.0  0.1022
  H  H58  1  0.763100  0.297300  0.833100  1.0  0.0688
  H  H59  1  0.454700  0.903500  0.473700  1.0  0.072
  H  H60  1  0.234200  0.299500  0.190100  1.0  0.1139
  H  H61  1  0.668800  0.954000  0.545400  1.0  0.0774
  H  H62  1  0.045300  0.526300  0.096500  1.0  0.0686
  H  H63  1  0.824500  0.607900  0.139900  1.0  0.1024
  H  H64  1  0.430400  0.221300  0.690300  1.0  0.1099
  H  H65  1  0.447300  0.319900  0.793100  1.0  0.1059
  H  H66  1  0.324500  0.139900  0.607900  1.0  0.1013
  H  H67  1  0.911200  0.792800  0.089600  1.0  0.0996
  H  H68  1  0.467400  0.901300  0.842300  1.0  0.1046
  H  H69  1  0.993500  0.596100  0.108700  1.0  0.0774
  H  H70  1  0.947300  0.793100  0.319900  1.0  0.104
  H  H71  1  0.781000  0.958500  0.253900  1.0  0.1087
  H  H72  1  0.849800  0.504300  0.996300  1.0  0.081
  H  H73  1  0.052700  0.206900  0.680100  1.0  0.1028
  H  H74  1  0.954700  0.473700  0.903500  1.0  0.067
  H  H75  1  0.831200  0.454600  0.046000  1.0  0.0745
  H  H76  1  0.032600  0.157700  0.098700  1.0  0.1044
  H  H77  1  0.589300  0.190200  0.112600  1.0  0.1097
  H  H78  1  0.265800  0.809900  0.700500  1.0  0.1143
  H  H79  1  0.945600  0.914900  0.697300  1.0  0.0975
  H  H80  1  0.493500  0.108700  0.596100  1.0  0.0794
  H  H81  1  0.609400  0.153000  0.702800  1.0  0.0804
  H  H82  1  0.150200  0.495700  0.003700  1.0  0.0799
  H  H83  1  0.315100  0.596500  0.148100  1.0  0.063
  H  H84  1  0.965600  0.957500  0.249100  1.0  0.1005
  H  H85  1  0.445600  0.697300  0.914900  1.0  0.0981
  H  H86  1  0.534400  0.750900  0.042500  1.0  0.1006
  H  H87  1  0.909000  0.347600  0.027200  1.0  0.0718
  H  H88  1  0.184900  0.851900  0.403500  1.0  0.0669
  H  H89  1  0.091000  0.652400  0.972800  1.0  0.069
  H  H90  1  0.554400  0.302700  0.085100  1.0  0.0979
  H  H91  1  0.728600  0.811700  0.779900  1.0  0.1022
  H  H92  1  0.271400  0.188300  0.220100  1.0  0.1025
  H  H93  1  0.771400  0.220100  0.188300  1.0  0.1026
  H  H94  1  0.344900  0.673500  0.070500  1.0  0.0864
  H  H95  1  0.213200  0.005200  0.346400  1.0  0.089
  H  H96  1  0.675500  0.860100  0.392100  1.0  0.1015
  H  H97  1  0.782700  0.138000  0.386600  1.0  0.1053
  H  H98  1  0.349800  0.996300  0.504300  1.0  0.0831
  H  H99  1  0.815100  0.148100  0.596500  1.0  0.0669
  H  H100  1  0.069600  0.309700  0.778700  1.0  0.1096
  H  H101  1  0.219000  0.041500  0.746100  1.0  0.1095
  H  H102  1  0.409000  0.027200  0.347600  1.0  0.073
  H  H103  1  0.890600  0.297200  0.847000  1.0  0.0809
  H  H104  1  0.088800  0.207200  0.910400  1.0  0.1019
  C  C105  1  0.009000  0.839230  0.864390  1.0  -0.0568
  C  C106  1  0.475500  0.810040  0.866880  1.0  -0.1269
  C  C107  1  0.975500  0.866880  0.810040  1.0  -0.1277
  C  C108  1  0.165800  0.802450  0.811290  1.0  -0.0649
  C  C109  1  0.871200  0.789880  0.317660  1.0  -0.0536
  C  C110  1  0.298200  0.299220  0.168580  1.0  -0.1118
  C  C111  1  0.576300  0.647440  0.894720  1.0  -0.1467
  C  C112  1  0.708800  0.829930  0.360070  1.0  -0.0309
  C  C113  1  0.916300  0.350420  0.980000  1.0  0.1161
  C  C114  1  0.363300  0.244770  0.168570  1.0  0.0499
  C  C115  1  0.615700  0.877710  0.174110  1.0  -0.0577
  C  C116  1  0.577300  0.165670  0.872850  1.0  0.692
  C  C117  1  0.307600  0.267110  0.737090  1.0  0.0516
  C  C118  1  0.176400  0.163850  0.636750  1.0  -0.14
  C  C119  1  0.604500  0.865080  0.806640  1.0  -0.1349
  C  C120  1  0.306500  0.220700  0.925360  1.0  -0.0923
  C  C121  1  0.730700  0.876820  0.173880  1.0  0.0354
  C  C122  1  0.147100  0.783420  0.928540  1.0  0.6875
  C  C123  1  0.057100  0.574170  0.093830  1.0  0.1307
  C  C124  1  0.076300  0.894720  0.647440  1.0  -0.1479
  C  C125  1  0.269300  0.123180  0.826120  1.0  0.035
  C  C126  1  0.645500  0.780800  0.311240  1.0  -0.0897
  C  C127  1  0.838700  0.456330  0.998530  1.0  0.1129
  C  C128  1  0.354500  0.219200  0.688760  1.0  -0.0862
  C  C129  1  0.609400  0.584900  0.106280  1.0  0.6769
  C  C130  1  0.043900  0.126680  0.831640  1.0  -0.1571
  C  C131  1  0.230700  0.173880  0.876820  1.0  0.0349
  C  C132  1  0.128800  0.210120  0.682340  1.0  -0.0553
  C  C133  1  0.193500  0.074640  0.779300  1.0  -0.0959
  C  C134  1  0.884300  0.825890  0.122290  1.0  -0.0523
  C  C135  1  0.201800  0.831420  0.700780  1.0  -0.1111
  C  C136  1  0.661300  0.001470  0.543670  1.0  0.1135
  C  C137  1  0.916500  0.924580  0.218240  1.0  -0.0536
  C  C138  1  0.109400  0.106280  0.584900  1.0  0.6796
  C  C139  1  0.510600  0.698890  0.894570  1.0  -0.0425
  C  C140  1  0.989400  0.105430  0.301110  1.0  -0.0446
  C  C141  1  0.046900  0.930400  0.590600  1.0  0.6872
  C  C142  1  0.104500  0.806640  0.865080  1.0  -0.1355
  C  C143  1  0.827200  0.137650  0.351350  1.0  -0.0522
  C  C144  1  0.172800  0.862350  0.648650  1.0  -0.0523
  C  C145  1  0.701800  0.700780  0.831420  1.0  -0.1104
  C  C146  1  0.509000  0.864390  0.839230  1.0  -0.0567
  C  C147  1  0.416500  0.218240  0.924580  1.0  -0.0528
  C  C148  1  0.557100  0.093830  0.574170  1.0  0.1324
  C  C149  1  0.863300  0.168570  0.244770  1.0  0.0499
  C  C150  1  0.278500  0.650710  0.041830  1.0  0.0664
  C  C151  1  0.291200  0.170070  0.639930  1.0  -0.0313
  C  C152  1  0.583700  0.020000  0.649580  1.0  0.1165
  C  C153  1  0.491000  0.135610  0.160770  1.0  -0.056
  C  C154  1  0.798200  0.168580  0.299220  1.0  -0.1104
  C  C155  1  0.942900  0.425830  0.906170  1.0  0.1303
  C  C156  1  0.693500  0.779300  0.074640  1.0  -0.0929
  C  C157  1  0.769300  0.826120  0.123180  1.0  0.0337
  C  C158  1  0.852900  0.216580  0.071460  1.0  0.7011
  C  C159  1  0.628800  0.682340  0.210120  1.0  -0.054
  C  C160  1  0.039500  0.864200  0.754340  1.0  0.0454
  C  C161  1  0.692400  0.732890  0.262910  1.0  0.0508
  C  C162  1  0.991000  0.160770  0.135610  1.0  -0.0575
  C  C163  1  0.423700  0.352560  0.105280  1.0  -0.1462
  C  C164  1  0.442900  0.906170  0.425830  1.0  0.1293
  C  C165  1  0.923700  0.105280  0.352560  1.0  -0.1478
  C  C166  1  0.221500  0.958170  0.349290  1.0  0.0667
  C  C167  1  0.136700  0.831430  0.755230  1.0  0.0479
  C  C168  1  0.636700  0.755230  0.831430  1.0  0.0495
  C  C169  1  0.338700  0.998530  0.456330  1.0  0.1123
  C  C170  1  0.778500  0.041830  0.650710  1.0  0.0671
  C  C171  1  0.077300  0.872850  0.165670  1.0  0.6929
  C  C172  1  0.208800  0.360070  0.829930  1.0  -0.0294
  C  C173  1  0.546900  0.590600  0.930400  1.0  0.6849
  C  C174  1  0.145500  0.311240  0.780800  1.0  -0.0916
  C  C175  1  0.327200  0.351350  0.137650  1.0  -0.0467
  C  C176  1  0.010600  0.894570  0.698890  1.0  -0.0458
  C  C177  1  0.489400  0.301110  0.105430  1.0  -0.0408
  C  C178  1  0.453100  0.409400  0.069600  1.0  0.6852
  C  C179  1  0.583500  0.781760  0.075420  1.0  -0.0535
  C  C180  1  0.323600  0.363250  0.836150  1.0  -0.1399
  C  C181  1  0.192400  0.262910  0.732890  1.0  0.0476
  C  C182  1  0.083700  0.649580  0.020000  1.0  0.1185
  C  C183  1  0.749400  0.118380  0.574380  1.0  0.1235
  C  C184  1  0.828400  0.320030  0.863010  1.0  0.1278
  C  C185  1  0.956100  0.873320  0.168360  1.0  -0.1553
  C  C186  1  0.161300  0.543670  0.001470  1.0  0.115
  C  C187  1  0.854500  0.688760  0.219200  1.0  -0.0871
  C  C188  1  0.953100  0.069600  0.409400  1.0  0.6877
  C  C189  1  0.024500  0.133120  0.189960  1.0  -0.1213
  C  C190  1  0.676400  0.636750  0.163850  1.0  -0.1413
  C  C191  1  0.539500  0.754340  0.864200  1.0  0.0454
  C  C192  1  0.895500  0.193360  0.134920  1.0  -0.1374
  C  C193  1  0.422700  0.834330  0.127150  1.0  0.6938
  C  C194  1  0.416300  0.980000  0.350420  1.0  0.1152
  C  C195  1  0.083500  0.075420  0.781760  1.0  -0.0536
  C  C196  1  0.750600  0.425620  0.881620  1.0  0.1246
  C  C197  1  0.543900  0.831640  0.126680  1.0  -0.1566
  C  C198  1  0.328400  0.863010  0.320030  1.0  0.1287
  C  C199  1  0.823600  0.836150  0.363250  1.0  -0.1388
  C  C200  1  0.249400  0.574380  0.118380  1.0  0.1236
  C  C201  1  0.834200  0.197550  0.188710  1.0  -0.0647
  C  C202  1  0.960500  0.135800  0.245660  1.0  0.0452
  C  C203  1  0.334200  0.188710  0.197550  1.0  -0.0634
  C  C204  1  0.352900  0.071460  0.216580  1.0  0.6921
  C  C205  1  0.395500  0.134920  0.193360  1.0  -0.1365
  C  C206  1  0.672800  0.648650  0.862350  1.0  -0.0467
  C  C207  1  0.524500  0.189960  0.133120  1.0  -0.1206
  C  C208  1  0.721500  0.349290  0.958170  1.0  0.0678
  C  C209  1  0.460500  0.245660  0.135800  1.0  0.0456
  C  C210  1  0.250600  0.881620  0.425620  1.0  0.1226
  C  C211  1  0.671600  0.136990  0.679970  1.0  0.1281
  C  C212  1  0.115700  0.174110  0.877710  1.0  -0.0549
  C  C213  1  0.791200  0.639930  0.170070  1.0  -0.0295
  C  C214  1  0.807600  0.737090  0.267110  1.0  0.0495
  C  C215  1  0.371200  0.317660  0.789880  1.0  -0.0535
  C  C216  1  0.890600  0.893720  0.415100  1.0  0.6778
  C  C217  1  0.806500  0.925360  0.220700  1.0  -0.0824
  C  C218  1  0.384300  0.122290  0.825890  1.0  -0.0575
  C  C219  1  0.665800  0.811290  0.802450  1.0  -0.065
  C  C220  1  0.171600  0.679970  0.136990  1.0  0.1295
  C  C221  1  0.390600  0.415100  0.893720  1.0  0.6768
  C  C222  1  0.456100  0.168360  0.873320  1.0  -0.1561
  C  C223  1  0.922700  0.127150  0.834330  1.0  0.6931
  C  C224  1  0.647100  0.928540  0.783420  1.0  0.6874
  N  N225  1  0.316480  0.935020  0.313380  1.0  -0.3014
  N  N226  1  0.066400  0.577370  0.023230  1.0  -0.3643
  N  N227  1  0.655600  0.141530  0.608190  1.0  -0.4227
  N  N228  1  0.933600  0.422630  0.976770  1.0  -0.3623
  N  N229  1  0.344400  0.858470  0.391810  1.0  -0.4192
  N  N230  1  0.736020  0.422820  0.954380  1.0  -0.2839
  N  N231  1  0.566400  0.023230  0.577370  1.0  -0.3635
  N  N232  1  0.816480  0.313380  0.935020  1.0  -0.3039
  N  N233  1  0.183520  0.686620  0.064980  1.0  -0.306
  N  N234  1  0.844400  0.391810  0.858470  1.0  -0.4173
  N  N235  1  0.683520  0.064980  0.686620  1.0  -0.3014
  N  N236  1  0.236020  0.954380  0.422820  1.0  -0.2842
  N  N237  1  0.763980  0.045620  0.577180  1.0  -0.2829
  N  N238  1  0.433600  0.976770  0.422630  1.0  -0.362
  N  N239  1  0.155600  0.608190  0.141530  1.0  -0.4209
  N  N240  1  0.263980  0.577180  0.045620  1.0  -0.284
  O  O241  1  0.612800  0.545890  0.930450  1.0  -0.5875
  O  O242  1  0.159800  0.068720  0.542140  1.0  -0.6103
  O  O243  1  0.863060  0.073940  0.802160  1.0  -0.6016
  O  O244  1  0.340200  0.457860  0.931280  1.0  -0.6093
  O  O245  1  0.222500  0.747110  0.927510  1.0  -0.592
  O  O246  1  0.887200  0.069550  0.454110  1.0  -0.5867
  O  O247  1  0.492240  0.411830  0.901790  1.0  -0.6014
  O  O248  1  0.363060  0.802160  0.073940  1.0  -0.6019
  O  O249  1  0.387200  0.454110  0.069550  1.0  -0.5865
  O  O250  1  0.507760  0.588170  0.098210  1.0  -0.6005
  O  O251  1  0.603900  0.982430  0.805370  1.0  -0.6144
  O  O252  1  0.396100  0.017570  0.194630  1.0  -0.6125
  O  O253  1  0.636940  0.197840  0.926060  1.0  -0.6016
  O  O254  1  0.960900  0.958750  0.591890  1.0  -0.6023
  O  O255  1  0.611740  0.133100  0.819520  1.0  -0.6207
  O  O256  1  0.992240  0.901790  0.411830  1.0  -0.6002
  O  O257  1  0.007760  0.098210  0.588170  1.0  -0.5971
  O  O258  1  0.777500  0.252890  0.072490  1.0  -0.5892
  O  O259  1  0.659800  0.542140  0.068720  1.0  -0.6104
  O  O260  1  0.388260  0.866900  0.180480  1.0  -0.622
  O  O261  1  0.039100  0.041250  0.408110  1.0  -0.6027
  O  O262  1  0.136940  0.926060  0.197840  1.0  -0.6014
  O  O263  1  0.277500  0.072490  0.252890  1.0  -0.5889
  O  O264  1  0.840200  0.931280  0.457860  1.0  -0.6089
  O  O265  1  0.111740  0.819520  0.133100  1.0  -0.6205
  O  O266  1  0.460900  0.591890  0.958750  1.0  -0.6004
  O  O267  1  0.539100  0.408110  0.041250  1.0  -0.6017
  O  O268  1  0.103900  0.805370  0.982430  1.0  -0.6145
  O  O269  1  0.888260  0.180480  0.866900  1.0  -0.6213
  O  O270  1  0.896100  0.194630  0.017570  1.0  -0.6138
  O  O271  1  0.722500  0.927510  0.747110  1.0  -0.5907
  O  O272  1  0.112800  0.930450  0.545890  1.0  -0.5856
