# generated using pymatgen
data_ZnH12C15(NO2)2
_symmetry_space_group_name_H-M   'P 1'
_cell_length_a   12.22410000
_cell_length_b   24.89820000
_cell_length_c   31.24820000
_cell_angle_alpha   90.00000000
_cell_angle_beta   90.00000000
_cell_angle_gamma   97.84600000
_symmetry_Int_Tables_number   1
_chemical_formula_structural   ZnH12C15(NO2)2
_chemical_formula_sum   'Zn16 H192 C240 N32 O64'
_cell_volume   9421.60907098
_cell_formula_units_Z   16
loop_
 _symmetry_equiv_pos_site_id
 _symmetry_equiv_pos_as_xyz
  1  'x, y, z'
loop_
 _atom_site_type_symbol
 _atom_site_label
 _atom_site_symmetry_multiplicity
 _atom_site_fract_x
 _atom_site_fract_y
 _atom_site_fract_z
 _atom_site_occupancy
 _atom_site_charge
  Zn  Zn1  1  0.696310  0.915180  0.873260  1.0  0.8865
  Zn  Zn2  1  0.207000  0.932280  0.138350  1.0  0.9067
  Zn  Zn3  1  0.389310  0.255020  0.730570  1.0  0.8998
  Zn  Zn4  1  0.410370  0.791380  0.257010  1.0  0.8791
  Zn  Zn5  1  0.803690  0.584820  0.373260  1.0  0.8866
  Zn  Zn6  1  0.196310  0.415180  0.626740  1.0  0.8877
  Zn  Zn7  1  0.293000  0.567720  0.638350  1.0  0.9063
  Zn  Zn8  1  0.589630  0.208620  0.742990  1.0  0.8794
  Zn  Zn9  1  0.707000  0.432280  0.361650  1.0  0.9043
  Zn  Zn10  1  0.303690  0.084820  0.126740  1.0  0.8873
  Zn  Zn11  1  0.110690  0.244980  0.230570  1.0  0.9015
  Zn  Zn12  1  0.910370  0.291380  0.242990  1.0  0.8787
  Zn  Zn13  1  0.889310  0.755020  0.769430  1.0  0.8997
  Zn  Zn14  1  0.793000  0.067720  0.861650  1.0  0.9053
  Zn  Zn15  1  0.089630  0.708620  0.757010  1.0  0.8799
  Zn  Zn16  1  0.610690  0.744980  0.269430  1.0  0.9015
  H  H17  1  0.767600  0.695300  0.212500  1.0  0.0774
  H  H18  1  0.350800  0.265000  0.191800  1.0  0.0805
  H  H19  1  0.716700  0.384100  0.636200  1.0  0.1126
  H  H20  1  0.478100  0.637100  0.686900  1.0  0.0818
  H  H21  1  0.563100  0.960500  0.252800  1.0  0.111
  H  H22  1  0.728600  0.901400  0.152800  1.0  0.1083
  H  H23  1  0.166400  0.106300  0.712600  1.0  0.1002
  H  H24  1  0.061700  0.691600  0.618300  1.0  0.101
  H  H25  1  0.736500  0.450800  0.262700  1.0  0.085
  H  H26  1  0.739100  0.805900  0.995800  1.0  0.1105
  H  H27  1  0.394800  0.841700  0.045700  1.0  0.0969
  H  H28  1  0.085200  0.148500  0.034100  1.0  0.1007
  H  H29  1  0.558100  0.700600  0.399500  1.0  0.1037
  H  H30  1  0.149200  0.235000  0.691800  1.0  0.0781
  H  H31  1  0.833600  0.893700  0.287400  1.0  0.0992
  H  H32  1  0.634300  0.733100  0.757300  1.0  0.0813
  H  H33  1  0.187400  0.146400  0.266100  1.0  0.0832
  H  H34  1  0.162300  0.143900  0.188100  1.0  0.0934
  H  H35  1  0.277100  0.711100  0.528200  1.0  0.1119
  H  H36  1  0.687200  0.143100  0.235300  1.0  0.0981
  H  H37  1  0.441900  0.299400  0.600500  1.0  0.1045
  H  H38  1  0.554000  0.139700  0.024100  1.0  0.111
  H  H39  1  0.993500  0.654700  0.325800  1.0  0.092
  H  H40  1  0.545000  0.327800  0.206100  1.0  0.0699
  H  H41  1  0.393900  0.558000  0.728700  1.0  0.0973
  H  H42  1  0.812800  0.356900  0.735300  1.0  0.0986
  H  H43  1  0.441100  0.477000  0.215500  1.0  0.107
  H  H44  1  0.461400  0.202300  0.278200  1.0  0.0691
  H  H45  1  0.459700  0.096800  0.850300  1.0  0.1073
  H  H46  1  0.605200  0.158300  0.954300  1.0  0.0971
  H  H47  1  0.106100  0.942000  0.228700  1.0  0.0968
  H  H48  1  0.750100  0.264200  0.038300  1.0  0.1147
  H  H49  1  0.040400  0.923100  0.732600  1.0  0.1075
  H  H50  1  0.941900  0.799400  0.899500  1.0  0.1045
  H  H51  1  0.420700  0.940100  0.759400  1.0  0.1026
  H  H52  1  0.525200  0.618600  0.533100  1.0  0.1149
  H  H53  1  0.991200  0.867400  0.262200  1.0  0.0766
  H  H54  1  0.961400  0.702300  0.221800  1.0  0.0689
  H  H55  1  0.232400  0.304700  0.787500  1.0  0.0775
  H  H56  1  0.459600  0.576900  0.232600  1.0  0.1081
  H  H57  1  0.227400  0.190700  0.158900  1.0  0.0931
  H  H58  1  0.529800  0.386500  0.636700  1.0  0.1028
  H  H59  1  0.283300  0.615900  0.363800  1.0  0.1127
  H  H60  1  0.974800  0.881400  0.033100  1.0  0.1151
  H  H61  1  0.316600  0.892000  0.284500  1.0  0.086
  H  H62  1  0.561700  0.191600  0.881700  1.0  0.1022
  H  H63  1  0.491200  0.367400  0.237800  1.0  0.0772
  H  H64  1  0.959700  0.596800  0.649700  1.0  0.1067
  H  H65  1  0.286500  0.276300  0.430400  1.0  0.1213
  H  H66  1  0.796400  0.336200  0.319300  1.0  0.0929
  H  H67  1  0.737300  0.760900  0.140100  1.0  0.1025
  H  H68  1  0.713500  0.723700  0.569600  1.0  0.1215
  H  H69  1  0.038600  0.297700  0.778200  1.0  0.0698
  H  H70  1  0.063100  0.460500  0.247200  1.0  0.1108
  H  H71  1  0.045000  0.827800  0.293900  1.0  0.0689
  H  H72  1  0.134300  0.233100  0.742700  1.0  0.0818
  H  H73  1  0.521900  0.362900  0.313100  1.0  0.082
  H  H74  1  0.821300  0.238000  0.784200  1.0  0.0886
  H  H75  1  0.579300  0.059900  0.240600  1.0  0.1024
  H  H76  1  0.149100  0.612500  0.707800  1.0  0.0924
  H  H77  1  0.986200  0.342500  0.751100  1.0  0.0719
  H  H78  1  0.656700  0.264700  0.233800  1.0  0.082
  H  H79  1  0.436900  0.039500  0.747200  1.0  0.112
  H  H80  1  0.666400  0.606300  0.787400  1.0  0.099
  H  H81  1  0.683400  0.108000  0.715500  1.0  0.0858
  H  H82  1  0.513800  0.157500  0.251100  1.0  0.0709
  H  H83  1  0.786500  0.776300  0.069600  1.0  0.1215
  H  H84  1  0.420700  0.450200  0.347300  1.0  0.1108
  H  H85  1  0.606100  0.442000  0.271300  1.0  0.0974
  H  H86  1  0.006500  0.345300  0.674200  1.0  0.0904
  H  H87  1  0.590000  0.067400  0.140200  1.0  0.1046
  H  H88  1  0.749900  0.235800  0.538300  1.0  0.1135
  H  H89  1  0.079300  0.049800  0.847300  1.0  0.1109
  H  H90  1  0.777100  0.211100  0.971800  1.0  0.1108
  H  H91  1  0.732400  0.804700  0.712500  1.0  0.0775
  H  H92  1  0.105200  0.658300  0.545700  1.0  0.0971
  H  H93  1  0.455000  0.672200  0.793900  1.0  0.0688
  H  H94  1  0.021900  0.862900  0.186900  1.0  0.0814
  H  H95  1  0.237300  0.260900  0.359900  1.0  0.1025
  H  H96  1  0.936900  0.539500  0.752800  1.0  0.1113
  H  H97  1  0.493500  0.154700  0.174200  1.0  0.093
  H  H98  1  0.740700  0.343000  0.192200  1.0  0.0871
  H  H99  1  0.978100  0.137100  0.813100  1.0  0.0813
  H  H100  1  0.850900  0.387500  0.292200  1.0  0.0925
  H  H101  1  0.260900  0.194100  0.004200  1.0  0.1088
  H  H102  1  0.470200  0.613500  0.363300  1.0  0.1029
  H  H103  1  0.343300  0.735300  0.766200  1.0  0.0821
  H  H104  1  0.910000  0.432600  0.640200  1.0  0.1045
  H  H105  1  0.029800  0.886500  0.863300  1.0  0.1027
  H  H106  1  0.426900  0.197300  0.150700  1.0  0.0844
  H  H107  1  0.736400  0.920500  0.774700  1.0  0.0822
  H  H108  1  0.722900  0.288900  0.471800  1.0  0.113
  H  H109  1  0.073100  0.302700  0.650700  1.0  0.0844
  H  H110  1  0.321300  0.738000  0.715800  1.0  0.0886
  H  H111  1  0.914800  0.851500  0.965900  1.0  0.1009
  H  H112  1  0.649100  0.112500  0.792200  1.0  0.0926
  H  H113  1  0.816600  0.392000  0.215500  1.0  0.0864
  H  H114  1  0.296400  0.836200  0.180700  1.0  0.0933
  H  H115  1  0.228600  0.401400  0.347200  1.0  0.1084
  H  H116  1  0.058100  0.200600  0.100500  1.0  0.1036
  H  H117  1  0.926900  0.697300  0.349300  1.0  0.0845
  H  H118  1  0.837700  0.856100  0.811900  1.0  0.095
  H  H119  1  0.843300  0.235300  0.733800  1.0  0.0832
  H  H120  1  0.312600  0.353600  0.766100  1.0  0.0812
  H  H121  1  0.262700  0.239100  0.859900  1.0  0.1028
  H  H122  1  0.506500  0.845300  0.825800  1.0  0.091
  H  H123  1  0.079300  0.559900  0.259400  1.0  0.1027
  H  H124  1  0.090000  0.567400  0.359800  1.0  0.1049
  H  H125  1  0.850800  0.765000  0.308200  1.0  0.0799
  H  H126  1  0.178700  0.762000  0.215800  1.0  0.0877
  H  H127  1  0.486200  0.842500  0.748900  1.0  0.0726
  H  H128  1  0.054000  0.639700  0.475900  1.0  0.1111
  H  H129  1  0.772600  0.809300  0.841100  1.0  0.0936
  H  H130  1  0.236400  0.420500  0.725300  1.0  0.0823
  H  H131  1  0.259300  0.657000  0.807800  1.0  0.087
  H  H132  1  0.573100  0.802700  0.849300  1.0  0.0869
  H  H133  1  0.156700  0.764700  0.266200  1.0  0.0829
  H  H134  1  0.203600  0.663800  0.680700  1.0  0.0951
  H  H135  1  0.438300  0.808400  0.118300  1.0  0.1001
  H  H136  1  0.678700  0.262000  0.284200  1.0  0.0898
  H  H137  1  0.605300  0.916600  0.780400  1.0  0.0776
  H  H138  1  0.771400  0.598600  0.652800  1.0  0.1087
  H  H139  1  0.199800  0.713000  0.892100  1.0  0.1046
  H  H140  1  0.538600  0.797700  0.721800  1.0  0.0698
  H  H141  1  0.508800  0.632600  0.762200  1.0  0.08
  H  H142  1  0.579300  0.549800  0.652700  1.0  0.1112
  H  H143  1  0.938300  0.308400  0.381700  1.0  0.1011
  H  H144  1  0.240700  0.843000  0.307800  1.0  0.0874
  H  H145  1  0.025200  0.118600  0.966900  1.0  0.1149
  H  H146  1  0.598300  0.320900  0.331700  1.0  0.0751
  H  H147  1  0.955000  0.172200  0.706100  1.0  0.0687
  H  H148  1  0.236500  0.950800  0.237300  1.0  0.0856
  H  H149  1  0.763500  0.049200  0.762700  1.0  0.0858
  H  H150  1  0.098300  0.820900  0.168300  1.0  0.0727
  H  H151  1  0.187200  0.643100  0.264700  1.0  0.0978
  H  H152  1  0.008800  0.132600  0.737800  1.0  0.08
  H  H153  1  0.446000  0.860300  0.975900  1.0  0.1118
  H  H154  1  0.894700  0.583400  0.280400  1.0  0.0769
  H  H155  1  0.410000  0.932600  0.859800  1.0  0.1054
  H  H156  1  0.894800  0.341700  0.454300  1.0  0.0976
  H  H157  1  0.759300  0.157000  0.692200  1.0  0.0861
  H  H158  1  0.540400  0.423100  0.767400  1.0  0.1072
  H  H159  1  0.970200  0.113500  0.136700  1.0  0.103
  H  H160  1  0.762700  0.739100  0.640100  1.0  0.1021
  H  H161  1  0.300200  0.787000  0.392100  1.0  0.1048
  H  H162  1  0.183400  0.608000  0.784500  1.0  0.087
  H  H163  1  0.239100  0.305900  0.504200  1.0  0.11
  H  H164  1  0.272600  0.309300  0.658900  1.0  0.0921
  H  H165  1  0.941100  0.977000  0.284500  1.0  0.1049
  H  H166  1  0.271400  0.098600  0.847200  1.0  0.1088
  H  H167  1  0.959600  0.076900  0.267400  1.0  0.1067
  H  H168  1  0.920700  0.440100  0.740600  1.0  0.1016
  H  H169  1  0.333600  0.393700  0.212600  1.0  0.0996
  H  H170  1  0.812600  0.853600  0.733900  1.0  0.0827
  H  H171  1  0.414800  0.351500  0.534100  1.0  0.1007
  H  H172  1  0.763600  0.579500  0.274700  1.0  0.0824
  H  H173  1  0.687400  0.646400  0.233900  1.0  0.0826
  H  H174  1  0.337700  0.356100  0.688100  1.0  0.0951
  H  H175  1  0.250100  0.764200  0.461700  1.0  0.1139
  H  H176  1  0.727400  0.690700  0.341100  1.0  0.0927
  H  H177  1  0.946000  0.360300  0.524100  1.0  0.1112
  H  H178  1  0.105300  0.416600  0.719600  1.0  0.0762
  H  H179  1  0.394700  0.083400  0.219600  1.0  0.0775
  H  H180  1  0.649200  0.735000  0.808200  1.0  0.0807
  H  H181  1  0.783300  0.115900  0.136200  1.0  0.1128
  H  H182  1  0.040300  0.403200  0.350300  1.0  0.1073
  H  H183  1  0.058900  0.023000  0.715500  1.0  0.1063
  H  H184  1  0.474800  0.381400  0.466900  1.0  0.1155
  H  H185  1  0.249900  0.735800  0.961700  1.0  0.1144
  H  H186  1  0.540300  0.903200  0.149700  1.0  0.1068
  H  H187  1  0.263500  0.549200  0.737300  1.0  0.0872
  H  H188  1  0.213500  0.223700  0.930400  1.0  0.122
  H  H189  1  0.312800  0.856900  0.764700  1.0  0.0981
  H  H190  1  0.216700  0.884100  0.863800  1.0  0.1125
  H  H191  1  0.901700  0.179100  0.831700  1.0  0.0729
  H  H192  1  0.365700  0.266900  0.242700  1.0  0.0808
  H  H193  1  0.013800  0.657500  0.248900  1.0  0.0715
  H  H194  1  0.263600  0.079500  0.225300  1.0  0.0838
  H  H195  1  0.662300  0.643900  0.311900  1.0  0.0938
  H  H196  1  0.222900  0.788900  0.028200  1.0  0.1123
  H  H197  1  0.350900  0.887500  0.207800  1.0  0.0927
  H  H198  1  0.703600  0.163800  0.819300  1.0  0.0928
  H  H199  1  0.865700  0.766900  0.257300  1.0  0.0821
  H  H200  1  0.760900  0.694100  0.495800  1.0  0.1108
  H  H201  1  0.699800  0.213000  0.607900  1.0  0.1048
  H  H202  1  0.893900  0.058000  0.771300  1.0  0.0972
  H  H203  1  0.585200  0.648500  0.465900  1.0  0.1006
  H  H204  1  0.267600  0.195300  0.287500  1.0  0.0775
  H  H205  1  0.800200  0.287000  0.107900  1.0  0.1047
  H  H206  1  0.920700  0.950200  0.152700  1.0  0.1105
  H  H207  1  0.401700  0.679100  0.668300  1.0  0.0729
  H  H208  1  0.558900  0.523000  0.784500  1.0  0.1062
  C  C209  1  0.187100  0.419330  0.230200  1.0  -0.1321
  C  C210  1  0.581800  0.783540  0.136120  1.0  -0.1405
  C  C211  1  0.536700  0.812660  0.064820  1.0  0.0517
  C  C212  1  0.097600  0.827970  0.753630  1.0  0.6734
  C  C213  1  0.841800  0.264440  0.091900  1.0  -0.0518
  C  C214  1  0.251000  0.864270  0.280950  1.0  0.1221
  C  C215  1  0.201200  0.435100  0.349800  1.0  -0.103
  C  C216  1  0.106400  0.838230  0.036630  1.0  -0.128
  C  C217  1  0.364800  0.474090  0.222210  1.0  -0.117
  C  C218  1  0.232300  0.168840  0.185100  1.0  0.0753
  C  C219  1  0.597600  0.327970  0.746370  1.0  0.6723
  C  C220  1  0.784500  0.360110  0.294940  1.0  0.097
  C  C221  1  0.343700  0.937310  0.753940  1.0  -0.1005
  C  C222  1  0.381100  0.966000  0.857340  1.0  -0.0859
  C  C223  1  0.831600  0.213250  0.760180  1.0  0.1248
  C  C224  1  0.796800  0.484160  0.757110  1.0  0.0449
  C  C225  1  0.135200  0.025910  0.722210  1.0  -0.0975
  C  C226  1  0.382400  0.573120  0.237810  1.0  -0.0933
  C  C227  1  0.715900  0.783050  0.079150  1.0  -0.1426
  C  C228  1  0.891800  0.983410  0.149120  1.0  -0.1154
  C  C229  1  0.004700  0.654390  0.494680  1.0  -0.0689
  C  C230  1  0.450200  0.178150  0.252910  1.0  0.1309
  C  C231  1  0.462600  0.530760  0.354900  1.0  -0.1423
  C  C232  1  0.049800  0.321850  0.752910  1.0  0.1314
  C  C233  1  0.256900  0.171380  0.262080  1.0  0.1228
  C  C234  1  0.670900  0.423000  0.266130  1.0  0.1245
  C  C235  1  0.189500  0.917870  0.860670  1.0  -0.0908
  C  C236  1  0.151400  0.861240  0.078560  1.0  0.6667
  C  C237  1  0.170900  0.923000  0.233870  1.0  0.1229
  C  C238  1  0.779700  0.387880  0.743030  1.0  -0.0434
  C  C239  1  0.667400  0.894970  0.778360  1.0  0.1376
  C  C240  1  0.145700  0.257580  0.717690  1.0  0.1149
  C  C241  1  0.810500  0.082130  0.139330  1.0  -0.0929
  C  C242  1  0.642500  0.802410  0.049960  1.0  0.0445
  C  C243  1  0.870200  0.215350  0.026790  1.0  0.0476
  C  C244  1  0.811300  0.250370  0.050850  1.0  -0.1507
  C  C245  1  0.420700  0.580890  0.360130  1.0  -0.066
  C  C246  1  0.910200  0.563880  0.648680  1.0  -0.0602
  C  C247  1  0.089800  0.436120  0.351320  1.0  -0.0609
  C  C248  1  0.701200  0.935100  0.150200  1.0  -0.1124
  C  C249  1  0.962600  0.030760  0.145100  1.0  -0.1425
  C  C250  1  0.108200  0.016590  0.850880  1.0  -0.1167
  C  C251  1  0.552900  0.775180  0.182200  1.0  0.6693
  C  C252  1  0.688700  0.249630  0.550850  1.0  -0.1559
  C  C253  1  0.156300  0.562690  0.253940  1.0  -0.1087
  C  C254  1  0.658200  0.235560  0.591900  1.0  -0.047
  C  C255  1  0.083600  0.029770  0.145330  1.0  0.6828
  C  C256  1  0.069900  0.324650  0.676950  1.0  0.1236
  C  C257  1  0.354300  0.242420  0.217690  1.0  0.1139
  C  C258  1  0.686600  0.773910  0.120950  1.0  -0.055
  C  C259  1  0.687100  0.919330  0.269800  1.0  -0.1272
  C  C260  1  0.447100  0.224820  0.817800  1.0  0.6716
  C  C261  1  0.645700  0.757580  0.782310  1.0  0.1154
  C  C262  1  0.188700  0.749630  0.949150  1.0  -0.1517
  C  C263  1  0.119800  0.363780  0.229930  1.0  0.6843
  C  C264  1  0.963300  0.687340  0.564820  1.0  0.052
  C  C265  1  0.465100  0.834560  0.036040  1.0  -0.1068
  C  C266  1  0.565100  0.254340  0.610920  1.0  -0.1277
  C  C267  1  0.117600  0.926880  0.737810  1.0  -0.0955
  C  C268  1  0.536400  0.303740  0.545610  1.0  0.049
  C  C269  1  0.298800  0.064900  0.849800  1.0  -0.1117
  C  C270  1  0.857500  0.697590  0.549960  1.0  0.0456
  C  C271  1  0.249000  0.635730  0.780950  1.0  0.1238
  C  C272  1  0.927000  0.487870  0.354700  1.0  0.6823
  C  C273  1  0.902400  0.172030  0.246370  1.0  0.6719
  C  C274  1  0.313400  0.226090  0.879050  1.0  -0.0562
  C  C275  1  0.537400  0.469240  0.645100  1.0  -0.1416
  C  C276  1  0.129800  0.784650  0.973210  1.0  0.0467
  C  C277  1  0.812900  0.580670  0.769800  1.0  -0.1299
  C  C278  1  0.651400  0.361240  0.421440  1.0  0.6666
  C  C279  1  0.784100  0.716950  0.579150  1.0  -0.1417
  C  C280  1  0.838000  0.197830  0.985090  1.0  -0.0904
  C  C281  1  0.451700  0.013340  0.854430  1.0  -0.1376
  C  C282  1  0.370200  0.715350  0.473210  1.0  0.0474
  C  C283  1  0.265300  0.966200  0.856680  1.0  0.0476
  C  C284  1  0.334700  0.617630  0.248820  1.0  -0.1402
  C  C285  1  0.331600  0.713250  0.739820  1.0  0.125
  C  C286  1  0.864800  0.974090  0.277790  1.0  -0.1033
  C  C287  1  0.606400  0.338230  0.463370  1.0  -0.1275
  C  C288  1  0.215500  0.639890  0.705060  1.0  0.0974
  C  C289  1  0.930100  0.675350  0.323050  1.0  0.1239
  C  C290  1  0.391800  0.483410  0.350880  1.0  -0.1161
  C  C291  1  0.318200  0.521150  0.233980  1.0  0.0617
  C  C292  1  0.734700  0.033800  0.143320  1.0  0.0472
  C  C293  1  0.329800  0.186390  0.993490  1.0  -0.0862
  C  C294  1  0.284100  0.216950  0.920850  1.0  -0.132
  C  C295  1  0.767700  0.831160  0.814900  1.0  0.0752
  C  C296  1  0.513400  0.356800  0.482070  1.0  -0.0521
  C  C297  1  0.743100  0.828620  0.737920  1.0  0.1212
  C  C298  1  0.504700  0.154390  0.005320  1.0  -0.0691
  C  C299  1  0.418200  0.216460  0.863880  1.0  -0.1399
  C  C300  1  0.579300  0.419110  0.639870  1.0  -0.0653
  C  C301  1  0.486600  0.643200  0.517930  1.0  -0.0518
  C  C302  1  0.521400  0.660590  0.477910  1.0  -0.1157
  C  C303  1  0.918200  0.716460  0.636120  1.0  -0.1402
  C  C304  1  0.934900  0.245660  0.110920  1.0  -0.1272
  C  C305  1  0.893600  0.161770  0.963370  1.0  -0.1282
  C  C306  1  0.619800  0.863780  0.270070  1.0  0.6849
  C  C307  1  0.724000  0.516570  0.647930  1.0  0.0464
  C  C308  1  0.732300  0.668840  0.314900  1.0  0.0757
  C  C309  1  0.965100  0.334560  0.463960  1.0  -0.1059
  C  C310  1  0.329100  0.577000  0.733870  1.0  0.1226
  C  C311  1  0.311300  0.750370  0.449150  1.0  -0.1493
  C  C312  1  0.861300  0.645580  0.435820  1.0  0.6949
  C  C313  1  0.380200  0.136220  0.729930  1.0  0.6833
  C  C314  1  0.005000  0.787380  0.912100  1.0  -0.1291
  C  C315  1  0.901100  0.664540  0.479520  1.0  -0.1116
  C  C316  1  0.798800  0.564900  0.650200  1.0  -0.1039
  C  C317  1  0.505000  0.287380  0.587900  1.0  -0.1282
  C  C318  1  0.916400  0.970230  0.854670  1.0  0.6798
  C  C319  1  0.557500  0.349440  0.232700  1.0  0.1436
  C  C320  1  0.978600  0.839410  0.977910  1.0  -0.1184
  C  C321  1  0.920700  0.080890  0.139870  1.0  -0.0653
  C  C322  1  0.665300  0.382370  0.751180  1.0  -0.1351
  C  C323  1  0.411800  0.654780  0.692680  1.0  0.1302
  C  C324  1  0.698900  0.575220  0.779530  1.0  -0.0319
  C  C325  1  0.301100  0.424780  0.220470  1.0  -0.0356
  C  C326  1  0.170200  0.313610  0.493490  1.0  -0.0837
  C  C327  1  0.057500  0.849440  0.267300  1.0  0.1412
  C  C328  1  0.950200  0.678150  0.247090  1.0  0.1301
  C  C329  1  0.410200  0.063880  0.851320  1.0  -0.06
  C  C330  1  0.881100  0.466000  0.642660  1.0  -0.0846
  C  C331  1  0.995000  0.212620  0.087900  1.0  -0.1266
  C  C332  1  0.495000  0.712620  0.412100  1.0  -0.127
  C  C333  1  0.073000  0.512130  0.645300  1.0  0.6824
  C  C334  1  0.203200  0.515840  0.242890  1.0  0.0432
  C  C335  1  0.357500  0.197590  0.950040  1.0  0.0459
  C  C336  1  0.834700  0.117630  0.251180  1.0  -0.1354
  C  C337  1  0.681800  0.478850  0.766020  1.0  0.0632
  C  C338  1  0.911800  0.154780  0.807320  1.0  0.1292
  C  C339  1  0.088200  0.845220  0.192680  1.0  0.1306
  C  C340  1  0.167400  0.394970  0.721640  1.0  0.1363
  C  C341  1  0.832600  0.605030  0.278360  1.0  0.1396
  C  C342  1  0.332600  0.105030  0.221640  1.0  0.1393
  C  C343  1  0.402400  0.672030  0.253630  1.0  0.6735
  C  C344  1  0.065100  0.754340  0.889080  1.0  -0.1274
  C  C345  1  0.583600  0.529770  0.354670  1.0  0.6821
  C  C346  1  0.296800  0.984160  0.742890  1.0  0.044
  C  C347  1  0.860200  0.535830  0.759050  1.0  -0.0982
  C  C348  1  0.942500  0.150560  0.732700  1.0  0.1407
  C  C349  1  0.715500  0.139890  0.794940  1.0  0.0978
  C  C350  1  0.751000  0.364270  0.219050  1.0  0.124
  C  C351  1  0.478600  0.339410  0.522090  1.0  -0.1154
  C  C352  1  0.021400  0.160590  0.022090  1.0  -0.117
  C  C353  1  0.589800  0.936120  0.148680  1.0  -0.0549
  C  C354  1  0.801100  0.924780  0.279530  1.0  -0.0264
  C  C355  1  0.341800  0.764440  0.408100  1.0  -0.0495
  C  C356  1  0.434900  0.745660  0.389080  1.0  -0.126
  C  C357  1  0.035200  0.741490  0.843440  1.0  0.6856
  C  C358  1  0.829100  0.077000  0.766130  1.0  0.1228
  C  C359  1  0.491100  0.197710  0.891760  1.0  -0.1285
  C  C360  1  0.986600  0.143200  0.982070  1.0  -0.052
  C  C361  1  0.348600  0.638760  0.578560  1.0  0.6661
  C  C362  1  0.267700  0.331160  0.685100  1.0  0.0747
  C  C363  1  0.573000  0.012130  0.854700  1.0  0.6859
  C  C364  1  0.947100  0.724820  0.682200  1.0  0.6697
  C  C365  1  0.052900  0.275180  0.317800  1.0  0.6702
  C  C366  1  0.843700  0.437310  0.746060  1.0  -0.0966
  C  C367  1  0.081800  0.283540  0.363880  1.0  -0.141
  C  C368  1  0.535200  0.241490  0.656560  1.0  0.685
  C  C369  1  0.427000  0.987870  0.145300  1.0  0.6826
  C  C370  1  0.312900  0.080670  0.730200  1.0  -0.128
  C  C371  1  0.608200  0.516590  0.649120  1.0  -0.1165
  C  C372  1  0.215900  0.283050  0.420850  1.0  -0.1364
  C  C373  1  0.848600  0.138760  0.921440  1.0  0.6663
  C  C374  1  0.951700  0.513340  0.645570  1.0  -0.1408
  C  C375  1  0.279700  0.887880  0.756970  1.0  -0.044
  C  C376  1  0.338000  0.697830  0.514910  1.0  -0.0903
  C  C377  1  0.463600  0.696260  0.454390  1.0  0.0496
  C  C378  1  0.186600  0.273910  0.379050  1.0  -0.057
  C  C379  1  0.276000  0.483430  0.352070  1.0  0.0477
  C  C380  1  0.668400  0.286750  0.260180  1.0  0.1247
  C  C381  1  0.598900  0.835460  0.979520  1.0  -0.1124
  C  C382  1  0.463300  0.187340  0.935180  1.0  0.0517
  C  C383  1  0.118900  0.534000  0.357340  1.0  -0.0855
  C  C384  1  0.882400  0.073120  0.262190  1.0  -0.0895
  C  C385  1  0.168400  0.786750  0.239820  1.0  0.1249
  C  C386  1  0.656300  0.062690  0.246060  1.0  -0.0956
  C  C387  1  0.638700  0.854420  0.935820  1.0  0.6953
  C  C388  1  0.703200  0.015840  0.257110  1.0  0.0443
  C  C389  1  0.234700  0.533800  0.356680  1.0  0.0482
  C  C390  1  0.662000  0.302170  0.485090  1.0  -0.0885
  C  C391  1  0.689500  0.417870  0.639330  1.0  -0.0975
  C  C392  1  0.617600  0.426880  0.762190  1.0  -0.0932
  C  C393  1  0.310500  0.582130  0.360670  1.0  -0.0968
  C  C394  1  0.639800  0.964170  0.259050  1.0  -0.0999
  C  C395  1  0.243100  0.328620  0.762080  1.0  0.1208
  C  C396  1  0.464800  0.758510  0.343440  1.0  0.6852
  C  C397  1  0.079300  0.919110  0.860130  1.0  -0.0653
  C  C398  1  0.198900  0.075220  0.720470  1.0  -0.0314
  C  C399  1  0.964800  0.258510  0.156560  1.0  0.6849
  C  C400  1  0.138700  0.354420  0.564180  1.0  0.6949
  C  C401  1  0.670200  0.813610  0.006510  1.0  -0.0843
  C  C402  1  0.756900  0.671380  0.237920  1.0  0.1198
  C  C403  1  0.629800  0.284650  0.526790  1.0  0.0471
  C  C404  1  0.765300  0.466200  0.643320  1.0  0.0472
  C  C405  1  0.813400  0.726090  0.620950  1.0  -0.054
  C  C406  1  0.162000  0.802170  0.014910  1.0  -0.0888
  C  C407  1  0.158200  0.735560  0.908100  1.0  -0.0508
  C  C408  1  0.508900  0.802290  0.108240  1.0  -0.1304
  C  C409  1  0.880200  0.636220  0.770070  1.0  0.6841
  C  C410  1  0.098900  0.335460  0.520480  1.0  -0.1173
  C  C411  1  0.995300  0.345610  0.505320  1.0  -0.0699
  C  C412  1  0.548300  0.986660  0.145570  1.0  -0.1404
  C  C413  1  0.361300  0.145580  0.064180  1.0  0.6945
  C  C414  1  0.776000  0.983430  0.147930  1.0  0.0464
  C  C415  1  0.401100  0.164540  0.020480  1.0  -0.113
  C  C416  1  0.165300  0.882370  0.748820  1.0  -0.1414
  C  C417  1  0.442500  0.650560  0.767300  1.0  0.1397
  C  C418  1  0.048300  0.486660  0.354430  1.0  -0.1376
  C  C419  1  0.549800  0.821850  0.747090  1.0  0.1317
  C  C420  1  0.854300  0.742420  0.282310  1.0  0.1147
  C  C421  1  0.430100  0.175350  0.176950  1.0  0.1239
  C  C422  1  0.618900  0.034000  0.142660  1.0  -0.0845
  C  C423  1  0.360200  0.035830  0.740950  1.0  -0.1029
  C  C424  1  0.749000  0.135730  0.719050  1.0  0.1222
  C  C425  1  0.963600  0.196260  0.045610  1.0  0.0495
  C  C426  1  0.220300  0.612120  0.256970  1.0  -0.0441
  C  C427  1  0.720300  0.112120  0.243030  1.0  -0.0434
  C  C428  1  0.829800  0.686390  0.506510  1.0  -0.0835
  C  C429  1  0.008900  0.302290  0.391760  1.0  -0.1303
  C  C430  1  0.034900  0.665440  0.536040  1.0  -0.1023
  C  C431  1  0.991100  0.697710  0.608240  1.0  -0.1291
  C  C432  1  0.569900  0.824650  0.823050  1.0  0.1242
  C  C433  1  0.142500  0.302410  0.450040  1.0  0.0446
  C  C434  1  0.224000  0.016570  0.852070  1.0  0.0481
  C  C435  1  0.013400  0.856800  0.017930  1.0  -0.053
  C  C436  1  0.036700  0.312660  0.435180  1.0  0.0515
  C  C437  1  0.139800  0.464170  0.240950  1.0  -0.0997
  C  C438  1  0.036400  0.803740  0.954390  1.0  0.0491
  C  C439  1  0.588200  0.345220  0.307320  1.0  0.1312
  C  C440  1  0.534900  0.165440  0.963960  1.0  -0.1017
  C  C441  1  0.181800  0.978850  0.733980  1.0  0.0623
  C  C442  1  0.635200  0.525910  0.777790  1.0  -0.1126
  C  C443  1  0.284500  0.860110  0.205060  1.0  0.0966
  C  C444  1  0.416400  0.470230  0.645330  1.0  0.6841
  C  C445  1  0.818200  0.021150  0.266020  1.0  0.0625
  C  C446  1  0.037400  0.969240  0.854900  1.0  -0.1416
  C  C447  1  0.393600  0.661770  0.536630  1.0  -0.1285
  C  C448  1  0.495300  0.845610  0.994680  1.0  -0.0691
  N  N449  1  0.651400  0.859830  0.741310  1.0  -0.4213
  N  N450  1  0.187500  0.887900  0.196080  1.0  -0.2491
  N  N451  1  0.252800  0.294640  0.722750  1.0  -0.2879
  N  N452  1  0.825900  0.636650  0.319020  1.0  -0.2797
  N  N453  1  0.674100  0.863350  0.819020  1.0  -0.2801
  N  N454  1  0.447000  0.211420  0.214070  1.0  -0.3621
  N  N455  1  0.174100  0.363350  0.680980  1.0  -0.2798
  N  N456  1  0.752800  0.794640  0.777250  1.0  -0.288
  N  N457  1  0.553000  0.788580  0.785930  1.0  -0.3631
  N  N458  1  0.229400  0.672720  0.744730  1.0  -0.2826
  N  N459  1  0.928900  0.186760  0.768280  1.0  -0.351
  N  N460  1  0.571100  0.313240  0.268280  1.0  -0.3495
  N  N461  1  0.153800  0.891220  0.273300  1.0  -0.4022
  N  N462  1  0.247200  0.205360  0.222750  1.0  -0.2896
  N  N463  1  0.687500  0.387900  0.303920  1.0  -0.2492
  N  N464  1  0.747200  0.705360  0.277250  1.0  -0.2899
  N  N465  1  0.325900  0.136650  0.180980  1.0  -0.2795
  N  N466  1  0.770600  0.327280  0.255270  1.0  -0.2806
  N  N467  1  0.346200  0.608780  0.773300  1.0  -0.3992
  N  N468  1  0.312500  0.612100  0.696080  1.0  -0.2486
  N  N469  1  0.846200  0.108780  0.726700  1.0  -0.4007
  N  N470  1  0.653800  0.391220  0.226700  1.0  -0.3992
  N  N471  1  0.151400  0.359830  0.758690  1.0  -0.4235
  N  N472  1  0.071100  0.813240  0.231720  1.0  -0.3504
  N  N473  1  0.348600  0.140170  0.258690  1.0  -0.4198
  N  N474  1  0.428900  0.686760  0.731720  1.0  -0.3502
  N  N475  1  0.812500  0.112100  0.803920  1.0  -0.2484
  N  N476  1  0.729400  0.172720  0.755270  1.0  -0.2832
  N  N477  1  0.053000  0.288580  0.714070  1.0  -0.3636
  N  N478  1  0.947000  0.711420  0.285930  1.0  -0.3631
  N  N479  1  0.270600  0.827280  0.244730  1.0  -0.28
  N  N480  1  0.848600  0.640170  0.241310  1.0  -0.4192
  O  O481  1  0.775400  0.158530  0.902050  1.0  -0.6049
  O  O482  1  0.994290  0.825010  0.753860  1.0  -0.5836
  O  O483  1  0.357100  0.428660  0.631310  1.0  -0.5844
  O  O484  1  0.981000  0.639550  0.759820  1.0  -0.5782
  O  O485  1  0.959000  0.283590  0.305650  1.0  -0.5845
  O  O486  1  0.519000  0.860450  0.259820  1.0  -0.5764
  O  O487  1  0.610600  0.403490  0.407720  1.0  -0.6075
  O  O488  1  0.151500  0.788280  0.756970  1.0  -0.5981
  O  O489  1  0.866780  0.443580  0.362620  1.0  -0.598
  O  O490  1  0.379320  0.511750  0.659500  1.0  -0.6202
  O  O491  1  0.541000  0.216410  0.805650  1.0  -0.5854
  O  O492  1  0.110600  0.903490  0.092280  1.0  -0.6059
  O  O493  1  0.593900  0.212240  0.677160  1.0  -0.5905
  O  O494  1  0.330400  0.175580  0.720310  1.0  -0.5925
  O  O495  1  0.642900  0.571340  0.368690  1.0  -0.586
  O  O496  1  0.406100  0.787760  0.322840  1.0  -0.5899
  O  O497  1  0.108550  0.468240  0.653610  1.0  -0.625
  O  O498  1  0.005710  0.174990  0.246140  1.0  -0.5842
  O  O499  1  0.120680  0.988250  0.159500  1.0  -0.6211
  O  O500  1  0.093900  0.712240  0.822840  1.0  -0.5893
  O  O501  1  0.348500  0.711720  0.256970  1.0  -0.5978
  O  O502  1  0.275400  0.658530  0.597950  1.0  -0.6045
  O  O503  1  0.830400  0.675580  0.779690  1.0  -0.593
  O  O504  1  0.459000  0.783590  0.194350  1.0  -0.585
  O  O505  1  0.725200  0.841980  0.920590  1.0  -0.6127
  O  O506  1  0.724600  0.341470  0.402050  1.0  -0.6066
  O  O507  1  0.127300  0.260990  0.293940  1.0  -0.5827
  O  O508  1  0.857100  0.928660  0.868690  1.0  -0.5861
  O  O509  1  0.872700  0.739010  0.706060  1.0  -0.5838
  O  O510  1  0.627300  0.760990  0.206060  1.0  -0.583
  O  O511  1  0.366780  0.943580  0.137380  1.0  -0.5968
  O  O512  1  0.906100  0.287760  0.177160  1.0  -0.5895
  O  O513  1  0.879320  0.011750  0.840500  1.0  -0.6194
  O  O514  1  0.019000  0.360450  0.240180  1.0  -0.5765
  O  O515  1  0.774800  0.658020  0.420590  1.0  -0.6125
  O  O516  1  0.224600  0.841470  0.097950  1.0  -0.6042
  O  O517  1  0.669600  0.824420  0.279690  1.0  -0.593
  O  O518  1  0.481000  0.139550  0.740180  1.0  -0.5777
  O  O519  1  0.372700  0.239010  0.793940  1.0  -0.5831
  O  O520  1  0.389400  0.596510  0.592280  1.0  -0.6073
  O  O521  1  0.142900  0.071340  0.131310  1.0  -0.5845
  O  O522  1  0.633220  0.056420  0.862620  1.0  -0.5982
  O  O523  1  0.133220  0.556420  0.637380  1.0  -0.5966
  O  O524  1  0.169600  0.324420  0.220310  1.0  -0.5928
  O  O525  1  0.225200  0.341980  0.579410  1.0  -0.6119
  O  O526  1  0.889400  0.096510  0.907720  1.0  -0.606
  O  O527  1  0.620680  0.488250  0.340500  1.0  -0.6213
  O  O528  1  0.651500  0.288280  0.743030  1.0  -0.5979
  O  O529  1  0.583000  0.886520  0.916560  1.0  -0.5982
  O  O530  1  0.848500  0.211720  0.243030  1.0  -0.5973
  O  O531  1  0.546100  0.738860  0.328400  1.0  -0.5958
  O  O532  1  0.505710  0.674990  0.253860  1.0  -0.5848
  O  O533  1  0.391450  0.031760  0.153610  1.0  -0.6254
  O  O534  1  0.046100  0.238860  0.171600  1.0  -0.5964
  O  O535  1  0.917000  0.613480  0.416560  1.0  -0.5975
  O  O536  1  0.453900  0.261140  0.671600  1.0  -0.5952
  O  O537  1  0.041000  0.716410  0.694350  1.0  -0.5854
  O  O538  1  0.494290  0.325010  0.746140  1.0  -0.5827
  O  O539  1  0.417000  0.113480  0.083440  1.0  -0.5962
  O  O540  1  0.274800  0.158020  0.079410  1.0  -0.6115
  O  O541  1  0.083000  0.386520  0.583440  1.0  -0.5957
  O  O542  1  0.953900  0.761140  0.828400  1.0  -0.5951
  O  O543  1  0.608550  0.968240  0.846390  1.0  -0.6247
  O  O544  1  0.891450  0.531760  0.346390  1.0  -0.6242
