# generated using pymatgen
data_ZnH8C12(NO2)2
_symmetry_space_group_name_H-M   'P 1'
_cell_length_a   6.91830000
_cell_length_b   15.48870000
_cell_length_c   15.48870000
_cell_angle_alpha   87.14100000
_cell_angle_beta   77.09510000
_cell_angle_gamma   77.09510000
_symmetry_Int_Tables_number   1
_chemical_formula_structural   ZnH8C12(NO2)2
_chemical_formula_sum   'Zn4 H32 C48 N8 O16'
_cell_volume   1576.91677395
_cell_formula_units_Z   4
loop_
 _symmetry_equiv_pos_site_id
 _symmetry_equiv_pos_as_xyz
  1  'x, y, z'
loop_
 _atom_site_type_symbol
 _atom_site_label
 _atom_site_symmetry_multiplicity
 _atom_site_fract_x
 _atom_site_fract_y
 _atom_site_fract_z
 _atom_site_occupancy
 _atom_site_charge
  Zn  Zn1  1  0.125000  0.760770  0.739230  1.0  0.8096
  Zn  Zn2  1  0.625000  0.239230  0.260770  1.0  0.81
  Zn  Zn3  1  0.135770  0.739230  0.239230  1.0  0.8096
  Zn  Zn4  1  0.114230  0.260770  0.760770  1.0  0.81
  H  H5  1  0.573800  0.737500  0.152500  1.0  0.0828
  H  H6  1  0.776600  0.747400  0.011200  1.0  0.1282
  H  H7  1  0.636900  0.752100  0.887500  1.0  0.103
  H  H8  1  0.097200  0.745500  0.050900  1.0  0.08
  H  H9  1  0.463800  0.262500  0.847500  1.0  0.0822
  H  H10  1  0.535200  0.252600  0.988800  1.0  0.1276
  H  H11  1  0.276500  0.247900  0.112500  1.0  0.1039
  H  H12  1  0.893600  0.254500  0.949100  1.0  0.0803
  H  H13  1  0.273700  0.152500  0.262500  1.0  0.0826
  H  H14  1  0.212200  0.011200  0.252600  1.0  0.1284
  H  H15  1  0.475600  0.887500  0.247900  1.0  0.1031
  H  H16  1  0.851900  0.050900  0.254500  1.0  0.0801
  H  H17  1  0.688700  0.847500  0.737500  1.0  0.0826
  H  H18  1  0.476000  0.988800  0.747400  1.0  0.1284
  H  H19  1  0.611000  0.112500  0.752100  1.0  0.1029
  H  H20  1  0.157300  0.949100  0.745500  1.0  0.0804
  H  H21  1  0.786200  0.652500  0.237500  1.0  0.0822
  H  H22  1  0.714800  0.511200  0.247400  1.0  0.1283
  H  H23  1  0.973500  0.387500  0.252100  1.0  0.1031
  H  H24  1  0.356400  0.550900  0.245500  1.0  0.0802
  H  H25  1  0.676200  0.347500  0.762500  1.0  0.0827
  H  H26  1  0.473400  0.488800  0.752600  1.0  0.1284
  H  H27  1  0.613100  0.612500  0.747900  1.0  0.1028
  H  H28  1  0.152800  0.449100  0.754500  1.0  0.0803
  H  H29  1  0.561300  0.762500  0.652500  1.0  0.0826
  H  H30  1  0.774000  0.752600  0.511200  1.0  0.1282
  H  H31  1  0.639000  0.747900  0.387500  1.0  0.1031
  H  H32  1  0.092700  0.754500  0.550900  1.0  0.08
  H  H33  1  0.976300  0.237500  0.347500  1.0  0.0819
  H  H34  1  0.037800  0.247400  0.488800  1.0  0.1276
  H  H35  1  0.774400  0.252100  0.612500  1.0  0.1039
  H  H36  1  0.398100  0.245500  0.449100  1.0  0.0802
  C  C37  1  0.514300  0.741700  0.102500  1.0  0.1693
  C  C38  1  0.637100  0.746700  0.017900  1.0  -0.169
  C  C39  1  0.554500  0.750400  0.945200  1.0  0.0506
  C  C40  1  0.348000  0.751700  0.956300  1.0  -0.2027
  C  C41  1  0.237000  0.746500  0.042500  1.0  0.1834
  C  C42  1  0.247300  0.758100  0.880900  1.0  0.6542
  C  C43  1  0.358500  0.258300  0.897500  1.0  0.1704
  C  C44  1  0.401700  0.253300  0.982100  1.0  -0.169
  C  C45  1  0.250100  0.249600  0.054800  1.0  0.047
  C  C46  1  0.056000  0.248300  0.043700  1.0  -0.2015
  C  C47  1  0.026000  0.253500  0.957500  1.0  0.1842
  C  C48  1  0.886300  0.241900  0.119100  1.0  0.6518
  C  C49  1  0.383200  0.102500  0.258300  1.0  0.1675
  C  C50  1  0.345000  0.017900  0.253300  1.0  -0.1707
  C  C51  1  0.500300  0.945200  0.249600  1.0  0.047
  C  C52  1  0.695700  0.956300  0.248300  1.0  -0.201
  C  C53  1  0.720500  0.042500  0.253500  1.0  0.1835
  C  C54  1  0.871800  0.880900  0.241900  1.0  0.652
  C  C55  1  0.744000  0.897500  0.741700  1.0  0.168
  C  C56  1  0.616200  0.982100  0.746700  1.0  -0.1706
  C  C57  1  0.695100  0.054800  0.750400  1.0  0.0477
  C  C58  1  0.900300  0.043700  0.751700  1.0  -0.2005
  C  C59  1  0.016500  0.957500  0.746500  1.0  0.1845
  C  C60  1  0.994600  0.119100  0.758100  1.0  0.6535
  C  C61  1  0.891500  0.602500  0.241700  1.0  0.1677
  C  C62  1  0.848300  0.517900  0.246700  1.0  -0.1706
  C  C63  1  0.999900  0.445200  0.250400  1.0  0.0473
  C  C64  1  0.194000  0.456300  0.251700  1.0  -0.1996
  C  C65  1  0.224000  0.542500  0.246500  1.0  0.1846
  C  C66  1  0.363700  0.380900  0.258100  1.0  0.6534
  C  C67  1  0.735700  0.397500  0.758300  1.0  0.1677
  C  C68  1  0.612900  0.482100  0.753300  1.0  -0.1707
  C  C69  1  0.695500  0.554800  0.749600  1.0  0.0472
  C  C70  1  0.902000  0.543700  0.748300  1.0  -0.2017
  C  C71  1  0.013000  0.457500  0.753500  1.0  0.1836
  C  C72  1  0.002700  0.619100  0.741900  1.0  0.6519
  C  C73  1  0.506000  0.758300  0.602500  1.0  0.1693
  C  C74  1  0.633800  0.753300  0.517900  1.0  -0.169
  C  C75  1  0.554900  0.749600  0.445200  1.0  0.0507
  C  C76  1  0.349700  0.748300  0.456300  1.0  -0.2028
  C  C77  1  0.233500  0.753500  0.542500  1.0  0.1833
  C  C78  1  0.255400  0.741900  0.380900  1.0  0.6539
  C  C79  1  0.866800  0.241700  0.397500  1.0  0.1703
  C  C80  1  0.905000  0.246700  0.482100  1.0  -0.169
  C  C81  1  0.749700  0.250400  0.554800  1.0  0.0469
  C  C82  1  0.554300  0.251700  0.543700  1.0  -0.2013
  C  C83  1  0.529500  0.246500  0.457500  1.0  0.1842
  C  C84  1  0.378200  0.258100  0.619100  1.0  0.6517
  N  N85  1  0.316700  0.742700  0.114700  1.0  -0.3282
  N  N86  1  0.174100  0.257300  0.885300  1.0  -0.3285
  N  N87  1  0.568600  0.114700  0.257300  1.0  -0.3278
  N  N88  1  0.940600  0.885300  0.742700  1.0  -0.3281
  N  N89  1  0.075900  0.614700  0.242700  1.0  -0.3275
  N  N90  1  0.933300  0.385300  0.757300  1.0  -0.3284
  N  N91  1  0.309400  0.757300  0.614700  1.0  -0.3282
  N  N92  1  0.681400  0.242700  0.385300  1.0  -0.3287
  O  O93  1  0.346890  0.771610  0.804410  1.0  -0.5705
  O  O94  1  0.065670  0.750870  0.893990  1.0  -0.583
  O  O95  1  0.922910  0.228390  0.195590  1.0  -0.5702
  O  O96  1  0.710530  0.249130  0.106010  1.0  -0.5828
  O  O97  1  0.848700  0.804410  0.228390  1.0  -0.5699
  O  O98  1  0.040340  0.893990  0.249130  1.0  -0.5824
  O  O99  1  0.881500  0.195590  0.771610  1.0  -0.5702
  O  O100  1  0.183460  0.106010  0.750870  1.0  -0.5826
  O  O101  1  0.327090  0.304410  0.271610  1.0  -0.5705
  O  O102  1  0.539470  0.393990  0.250870  1.0  -0.5824
  O  O103  1  0.903110  0.695590  0.728390  1.0  -0.5704
  O  O104  1  0.184330  0.606010  0.749130  1.0  -0.5825
  O  O105  1  0.368500  0.728390  0.304410  1.0  -0.5706
  O  O106  1  0.066540  0.749130  0.393990  1.0  -0.5831
  O  O107  1  0.401300  0.271610  0.695590  1.0  -0.5701
  O  O108  1  0.209660  0.250870  0.606010  1.0  -0.5828
