# generated using pymatgen
data_BaH4C2(N5O)2
_symmetry_space_group_name_H-M   'P 1'
_cell_length_a   8.58860000
_cell_length_b   9.40860000
_cell_length_c   9.42820000
_cell_angle_alpha   119.93100000
_cell_angle_beta   116.51400000
_cell_angle_gamma   90.00000000
_symmetry_Int_Tables_number   1
_chemical_formula_structural   BaH4C2(N5O)2
_chemical_formula_sum   'Ba2 H8 C4 N20 O4'
_cell_volume   565.91229097
_cell_formula_units_Z   2
loop_
 _symmetry_equiv_pos_site_id
 _symmetry_equiv_pos_as_xyz
  1  'x, y, z'
loop_
 _atom_site_type_symbol
 _atom_site_label
 _atom_site_symmetry_multiplicity
 _atom_site_fract_x
 _atom_site_fract_y
 _atom_site_fract_z
 _atom_site_occupancy
 _atom_site_charge
  Ba  Ba1  1  0.750000  0.919200  0.000000  1.0  1.395
  Ba  Ba2  1  0.250000  0.080800  0.000000  1.0  1.3973
  H  H3  1  0.425000  0.783000  0.024000  1.0  0.4483
  H  H4  1  0.348000  0.710700  0.839400  1.0  0.4025
  H  H5  1  0.075000  0.759000  0.976000  1.0  0.4467
  H  H6  1  0.152000  0.871300  0.160600  1.0  0.405
  H  H7  1  0.575000  0.217000  0.976000  1.0  0.4482
  H  H8  1  0.652000  0.289300  0.160600  1.0  0.4029
  H  H9  1  0.925000  0.241000  0.024000  1.0  0.4472
  H  H10  1  0.848000  0.128700  0.839400  1.0  0.4106
  C  C11  1  0.313600  0.423200  0.499600  1.0  0.4659
  C  C12  1  0.186400  0.923600  0.500400  1.0  0.4607
  C  C13  1  0.686400  0.576800  0.500400  1.0  0.4641
  C  C14  1  0.813600  0.076400  0.499600  1.0  0.4659
  N  N15  1  0.480300  0.526200  0.563600  1.0  -0.2098
  N  N16  1  0.243200  0.475100  0.610800  1.0  -0.3483
  N  N17  1  0.089800  0.351100  0.511600  1.0  -0.0804
  N  N18  1  0.070400  0.231200  0.347800  1.0  -0.107
  N  N19  1  0.211300  0.273200  0.335400  1.0  -0.4074
  N  N20  1  0.019700  0.962600  0.436400  1.0  -0.2105
  N  N21  1  0.256800  0.864300  0.389200  1.0  -0.3484
  N  N22  1  0.410200  0.839500  0.488400  1.0  -0.0813
  N  N23  1  0.429600  0.883400  0.652200  1.0  -0.1096
  N  N24  1  0.288700  0.937800  0.664600  1.0  -0.4092
  N  N25  1  0.519700  0.473800  0.436400  1.0  -0.2096
  N  N26  1  0.756800  0.524900  0.389200  1.0  -0.3476
  N  N27  1  0.910200  0.648900  0.488400  1.0  -0.0797
  N  N28  1  0.929600  0.768800  0.652200  1.0  -0.1075
  N  N29  1  0.788700  0.726800  0.664600  1.0  -0.4077
  N  N30  1  0.980300  0.037400  0.563600  1.0  -0.2087
  N  N31  1  0.743200  0.135700  0.610800  1.0  -0.3498
  N  N32  1  0.589800  0.160500  0.511600  1.0  -0.0814
  N  N33  1  0.570400  0.116600  0.347800  1.0  -0.1069
  N  N34  1  0.711300  0.062200  0.335400  1.0  -0.4078
  O  O35  1  0.405500  0.804700  0.943600  1.0  -0.8603
  O  O36  1  0.094500  0.861100  0.056400  1.0  -0.8609
  O  O37  1  0.594500  0.195300  0.056400  1.0  -0.8593
  O  O38  1  0.905500  0.138900  0.943600  1.0  -0.8612
