# generated using pymatgen
data_TbH9(C7O2)3
_symmetry_space_group_name_H-M   'P 1'
_cell_length_a   15.00050000
_cell_length_b   15.00050000
_cell_length_c   23.96390000
_cell_angle_alpha   80.50580000
_cell_angle_beta   76.39670000
_cell_angle_gamma   111.14600000
_symmetry_Int_Tables_number   1
_chemical_formula_structural   TbH9(C7O2)3
_chemical_formula_sum   'Tb4 H36 C84 O24'
_cell_volume   4698.82039073
_cell_formula_units_Z   4
loop_
 _symmetry_equiv_pos_site_id
 _symmetry_equiv_pos_as_xyz
  1  'x, y, z'
loop_
 _atom_site_type_symbol
 _atom_site_label
 _atom_site_symmetry_multiplicity
 _atom_site_fract_x
 _atom_site_fract_y
 _atom_site_fract_z
 _atom_site_occupancy
 _atom_site_charge
  Tb  Tb1  1  0.691040  0.145890  0.965570  1.0  1.9809
  Tb  Tb2  1  0.388540  0.343390  0.465570  1.0  2.0078
  Tb  Tb3  1  0.611460  0.656610  0.534430  1.0  2.0049
  Tb  Tb4  1  0.308960  0.854110  0.034430  1.0  1.9954
  H  H5  1  0.574500  0.976100  0.502400  1.0  0.1082
  H  H6  1  0.978500  0.076900  0.997600  1.0  0.1076
  H  H7  1  0.677400  0.922900  0.639700  1.0  0.0981
  H  H8  1  0.260400  0.005700  0.202700  1.0  0.0902
  H  H9  1  0.708400  0.463100  0.297300  1.0  0.0902
  H  H10  1  0.577900  0.257200  0.855300  1.0  0.1055
  H  H11  1  0.141100  0.092900  0.974200  1.0  0.1166
  H  H12  1  0.612500  0.433200  0.644700  1.0  0.1044
  H  H13  1  0.062600  0.317100  0.860300  1.0  0.0988
  H  H14  1  0.560800  0.238500  0.545100  1.0  0.1178
  H  H15  1  0.691700  0.239800  0.760100  1.0  0.0947
  H  H16  1  0.308300  0.760200  0.239900  1.0  0.0948
  H  H17  1  0.286200  0.040200  0.288800  1.0  0.1132
  H  H18  1  0.657800  0.332500  0.704500  1.0  0.0999
  H  H19  1  0.283600  0.105900  0.954900  1.0  0.1171
  H  H20  1  0.463000  0.637700  0.204500  1.0  0.0992
  H  H21  1  0.567100  0.115300  0.525800  1.0  0.1169
  H  H22  1  0.937400  0.682900  0.139700  1.0  0.0977
  H  H23  1  0.342200  0.667500  0.295500  1.0  0.1
  H  H24  1  0.432900  0.884700  0.474200  1.0  0.1165
  H  H25  1  0.387500  0.566800  0.355300  1.0  0.1038
  H  H26  1  0.500100  0.548200  0.260100  1.0  0.0948
  H  H27  1  0.537000  0.362300  0.795500  1.0  0.0997
  H  H28  1  0.422100  0.742800  0.144700  1.0  0.1067
  H  H29  1  0.439200  0.761500  0.454900  1.0  0.1181
  H  H30  1  0.322600  0.077100  0.360300  1.0  0.0978
  H  H31  1  0.858900  0.907100  0.025800  1.0  0.1168
  H  H32  1  0.021500  0.923100  0.002400  1.0  0.1071
  H  H33  1  0.499900  0.451800  0.739900  1.0  0.0956
  H  H34  1  0.171000  0.425000  0.788800  1.0  0.1101
  H  H35  1  0.716400  0.894100  0.045100  1.0  0.1168
  H  H36  1  0.829000  0.575000  0.211200  1.0  0.1101
  H  H37  1  0.713800  0.959800  0.711200  1.0  0.1134
  H  H38  1  0.425500  0.023900  0.497600  1.0  0.1085
  H  H39  1  0.739600  0.994300  0.797300  1.0  0.0903
  H  H40  1  0.291600  0.536900  0.702700  1.0  0.09
  C  C41  1  0.612400  0.195300  0.612500  1.0  -0.0451
  C  C42  1  0.970600  0.871200  0.035600  1.0  -0.0954
  C  C43  1  0.610100  0.372200  0.637300  1.0  -0.1032
  C  C44  1  0.542900  0.906500  0.053600  1.0  0.7196
  C  C45  1  0.874200  0.860900  0.049500  1.0  -0.1151
  C  C46  1  0.204600  0.215300  0.902500  1.0  0.0032
  C  C47  1  0.423100  0.658500  0.409200  1.0  -0.1433
  C  C48  1  0.722000  0.036800  0.772400  1.0  -0.0559
  C  C49  1  0.690800  0.505600  0.272400  1.0  -0.0539
  C  C50  1  0.705300  0.015400  0.721500  1.0  -0.1192
  C  C51  1  0.306900  0.818900  0.249400  1.0  -0.1302
  C  C52  1  0.346100  0.037800  0.383100  1.0  -0.0433
  C  C53  1  0.278000  0.963200  0.227600  1.0  -0.0555
  C  C54  1  0.285900  0.881800  0.211500  1.0  -0.1652
  C  C55  1  0.515200  0.689300  0.171700  1.0  -0.083
  C  C56  1  0.568300  0.556300  0.250600  1.0  -0.1307
  C  C57  1  0.359600  0.371200  0.802000  1.0  0.0496
  C  C58  1  0.334600  0.158400  0.922000  1.0  -0.0913
  C  C59  1  0.457100  0.093500  0.946400  1.0  0.7209
  C  C60  1  0.406800  0.006200  0.464400  1.0  -0.0956
  C  C61  1  0.642200  0.224300  0.660900  1.0  -0.0256
  C  C62  1  0.589600  0.076300  0.549500  1.0  -0.1146
  C  C63  1  0.460100  0.596500  0.446400  1.0  0.7208
  C  C64  1  0.514400  0.427500  0.345300  1.0  0.6998
  C  C65  1  0.650000  0.047000  0.632200  1.0  0.0261
  C  C66  1  0.820800  0.717800  0.132200  1.0  0.0255
  C  C67  1  0.361000  0.686900  0.328300  1.0  -0.0895
  C  C68  1  0.665400  0.841600  0.078000  1.0  -0.0921
  C  C69  1  0.490500  0.752600  0.137300  1.0  -0.1007
  C  C70  1  0.727200  0.140300  0.845300  1.0  0.7027
  C  C71  1  0.326800  0.838400  0.302000  1.0  0.0493
  C  C72  1  0.385200  0.303100  0.839100  1.0  -0.0261
  C  C73  1  0.625300  0.934200  0.570700  1.0  -0.0396
  C  C74  1  0.309200  0.494400  0.727600  1.0  -0.0541
  C  C75  1  0.742600  0.640000  0.184000  1.0  0.1001
  C  C76  1  0.236900  0.426800  0.778500  1.0  -0.1195
  C  C77  1  0.410400  0.923700  0.450500  1.0  -0.1155
  C  C78  1  0.509500  0.247400  0.862700  1.0  -0.1011
  C  C79  1  0.125800  0.139100  0.950500  1.0  -0.1188
  C  C80  1  0.692200  0.775100  0.112500  1.0  -0.045
  C  C81  1  0.617800  0.107100  0.597500  1.0  0.0043
  C  C82  1  0.382200  0.892900  0.402500  1.0  0.0028
  C  C83  1  0.539900  0.403500  0.553600  1.0  0.7202
  C  C84  1  0.763100  0.573200  0.221500  1.0  -0.1169
  C  C85  1  0.079100  0.270800  0.883100  1.0  -0.0431
  C  C86  1  0.593200  0.993800  0.535600  1.0  -0.0972
  C  C87  1  0.257400  0.360000  0.816000  1.0  0.0977
  C  C88  1  0.484800  0.310700  0.828300  1.0  -0.0841
  C  C89  1  0.419600  0.743400  0.422000  1.0  -0.0908
  C  C90  1  0.614800  0.696900  0.160900  1.0  -0.0257
  C  C91  1  0.179200  0.282200  0.867800  1.0  0.0258
  C  C92  1  0.485600  0.572500  0.654700  1.0  0.6991
  C  C93  1  0.567700  0.832300  0.090800  1.0  -0.1425
  C  C94  1  0.920900  0.729200  0.116900  1.0  -0.0417
  C  C95  1  0.639000  0.313100  0.671700  1.0  -0.0887
  C  C96  1  0.272800  0.859700  0.154700  1.0  0.7015
  C  C97  1  0.619800  0.837500  0.556700  1.0  0.6379
  C  C98  1  0.432300  0.167700  0.909200  1.0  -0.141
  C  C99  1  0.004900  0.196000  0.929300  1.0  -0.0353
  C  C100  1  0.640400  0.628800  0.198000  1.0  0.0496
  C  C101  1  0.389900  0.627800  0.362700  1.0  -0.1021
  C  C102  1  0.406700  0.502600  0.711500  1.0  -0.1671
  C  C103  1  0.374700  0.065800  0.429300  1.0  -0.04
  C  C104  1  0.350000  0.953000  0.367800  1.0  0.026
  C  C105  1  0.105800  0.823500  0.056700  1.0  0.6403
  C  C106  1  0.307800  0.224900  0.887500  1.0  -0.0457
  C  C107  1  0.357800  0.775700  0.339100  1.0  -0.0268
  C  C108  1  0.324000  0.926600  0.316000  1.0  0.0979
  C  C109  1  0.693100  0.181100  0.750600  1.0  -0.1299
  C  C110  1  0.676000  0.073400  0.684000  1.0  0.0989
  C  C111  1  0.894200  0.176500  0.943300  1.0  0.6389
  C  C112  1  0.795400  0.784700  0.097500  1.0  0.0032
  C  C113  1  0.387600  0.804700  0.387500  1.0  -0.0455
  C  C114  1  0.673200  0.161600  0.698000  1.0  0.0496
  C  C115  1  0.294700  0.984600  0.278500  1.0  -0.1184
  C  C116  1  0.714100  0.118200  0.788500  1.0  -0.1643
  C  C117  1  0.995100  0.804000  0.070700  1.0  -0.0346
  C  C118  1  0.380200  0.162500  0.443300  1.0  0.6392
  C  C119  1  0.653900  0.962200  0.616900  1.0  -0.0412
  C  C120  1  0.431700  0.443700  0.749400  1.0  -0.1285
  C  C121  1  0.580400  0.256600  0.578000  1.0  -0.0904
  C  C122  1  0.576900  0.341500  0.590800  1.0  -0.1422
  C  C123  1  0.593300  0.497400  0.288500  1.0  -0.1682
  C  C124  1  0.029400  0.128800  0.964400  1.0  -0.0954
  O  O125  1  0.673820  0.797880  0.576500  1.0  -0.6595
  O  O126  1  0.424410  0.409380  0.354610  1.0  -0.6314
  O  O127  1  0.383510  0.022390  0.984700  1.0  -0.733
  O  O128  1  0.428150  0.197850  0.474800  1.0  -0.5611
  O  O129  1  0.874380  0.250320  0.923500  1.0  -0.6634
  O  O130  1  0.172650  0.902950  0.025200  1.0  -0.5553
  O  O131  1  0.326180  0.202120  0.423500  1.0  -0.6625
  O  O132  1  0.278060  0.930340  0.114400  1.0  -0.6298
  O  O133  1  0.460800  0.520300  0.436100  1.0  -0.7133
  O  O134  1  0.456400  0.896900  0.063900  1.0  -0.7108
  O  O135  1  0.575590  0.590620  0.645390  1.0  -0.6289
  O  O136  1  0.827350  0.097050  0.974800  1.0  -0.5507
  O  O137  1  0.125620  0.749680  0.076500  1.0  -0.664
  O  O138  1  0.543600  0.103100  0.936100  1.0  -0.7119
  O  O139  1  0.455260  0.607540  0.614400  1.0  -0.628
  O  O140  1  0.539200  0.479700  0.563900  1.0  -0.7125
  O  O141  1  0.736010  0.220980  0.854610  1.0  -0.6266
  O  O142  1  0.507090  0.368210  0.515300  1.0  -0.7359
  O  O143  1  0.492910  0.631790  0.484700  1.0  -0.7341
  O  O144  1  0.571850  0.802150  0.525200  1.0  -0.5585
  O  O145  1  0.544740  0.392460  0.385600  1.0  -0.6291
  O  O146  1  0.721940  0.069660  0.885600  1.0  -0.6293
  O  O147  1  0.263990  0.779020  0.145390  1.0  -0.6278
  O  O148  1  0.616490  0.977610  0.015300  1.0  -0.7342
