# generated using pymatgen
data_TbH9(C7O2)3
_symmetry_space_group_name_H-M   'P 1'
_cell_length_a   15.14660000
_cell_length_b   15.14660000
_cell_length_c   25.68910000
_cell_angle_alpha   84.50930000
_cell_angle_beta   77.39490000
_cell_angle_gamma   117.87800000
_symmetry_Int_Tables_number   1
_chemical_formula_structural   TbH9(C7O2)3
_chemical_formula_sum   'Tb4 H36 C84 O24'
_cell_volume   4948.68345233
_cell_formula_units_Z   4
loop_
 _symmetry_equiv_pos_site_id
 _symmetry_equiv_pos_as_xyz
  1  'x, y, z'
loop_
 _atom_site_type_symbol
 _atom_site_label
 _atom_site_symmetry_multiplicity
 _atom_site_fract_x
 _atom_site_fract_y
 _atom_site_fract_z
 _atom_site_occupancy
 _atom_site_charge
  Tb  Tb1  1  0.348830  0.915700  0.449030  1.0  2.1239
  Tb  Tb2  1  0.135270  0.202140  0.949030  1.0  2.0485
  Tb  Tb3  1  0.864730  0.797860  0.050970  1.0  2.0633
  Tb  Tb4  1  0.651170  0.084300  0.550970  1.0  2.1263
  H  H5  1  0.870700  0.916700  0.478800  1.0  0.088
  H  H6  1  0.478300  0.761400  0.691300  1.0  0.1067
  H  H7  1  0.919600  0.135800  0.728000  1.0  0.1374
  H  H8  1  0.521700  0.238600  0.308700  1.0  0.1069
  H  H9  1  0.901500  0.126800  0.653700  1.0  0.102
  H  H10  1  0.952700  0.169600  0.808700  1.0  0.1062
  H  H11  1  0.752300  0.931500  0.138200  1.0  0.1163
  H  H12  1  0.080400  0.864200  0.272000  1.0  0.1374
  H  H13  1  0.098500  0.873200  0.346300  1.0  0.1029
  H  H14  1  0.249200  0.070000  0.538200  1.0  0.1079
  H  H15  1  0.219000  0.158100  0.758500  1.0  0.0995
  H  H16  1  0.010200  0.916200  0.498000  1.0  0.1145
  H  H17  1  0.750800  0.930000  0.461800  1.0  0.1086
  H  H18  1  0.569700  0.890500  0.361800  1.0  0.1156
  H  H19  1  0.416600  0.977500  0.741500  1.0  0.1021
  H  H20  1  0.129300  0.083300  0.521200  1.0  0.0876
  H  H21  1  0.332000  0.016700  0.794500  1.0  0.1295
  H  H22  1  0.781000  0.841900  0.241500  1.0  0.1009
  H  H23  1  0.895500  0.349500  0.021200  1.0  0.0882
  H  H24  1  0.085800  0.491800  0.998000  1.0  0.1157
  H  H25  1  0.636200  0.352400  0.228000  1.0  0.1393
  H  H26  1  0.688800  0.873500  0.294500  1.0  0.1296
  H  H27  1  0.583400  0.022500  0.258500  1.0  0.1024
  H  H28  1  0.430300  0.109500  0.638200  1.0  0.1153
  H  H29  1  0.891800  0.212600  0.038200  1.0  0.106
  H  H30  1  0.668000  0.983300  0.205500  1.0  0.1294
  H  H31  1  0.311200  0.126500  0.705500  1.0  0.1304
  H  H32  1  0.719500  0.444800  0.153700  1.0  0.1034
  H  H33  1  0.280500  0.555200  0.846300  1.0  0.1044
  H  H34  1  0.989800  0.083800  0.502000  1.0  0.1143
  H  H35  1  0.914200  0.508200  0.002000  1.0  0.1154
  H  H36  1  0.108200  0.787400  0.961800  1.0  0.1076
  H  H37  1  0.104500  0.650500  0.978800  1.0  0.0893
  H  H38  1  0.247700  0.068500  0.861800  1.0  0.1166
  H  H39  1  0.047300  0.830400  0.191300  1.0  0.1063
  H  H40  1  0.363800  0.647600  0.772000  1.0  0.1397
  C  C41  1  0.948300  0.868700  0.308400  1.0  -0.0067
  C  C42  1  0.018200  0.858400  0.266200  1.0  -0.1234
  C  C43  1  0.897500  0.898000  0.400900  1.0  0.0439
  C  C44  1  0.746200  0.329600  0.139400  1.0  -0.1128
  C  C45  1  0.969000  0.885600  0.360600  1.0  -0.1127
  C  C46  1  0.261800  0.083200  0.572000  1.0  -0.1011
  C  C47  1  0.844800  0.166200  0.072000  1.0  -0.1073
  C  C48  1  0.711500  0.029800  0.171100  1.0  -0.1191
  C  C49  1  0.999900  0.091000  0.536900  1.0  0.0356
  C  C50  1  0.105900  0.958100  0.958000  1.0  0.7287
  C  C51  1  0.051700  0.131300  0.691600  1.0  -0.0079
  C  C52  1  0.157300  0.152900  0.752400  1.0  -0.1149
  C  C53  1  0.212400  0.802700  0.888900  1.0  -0.0292
  C  C54  1  0.000000  0.159700  0.782300  1.0  -0.0868
  C  C55  1  0.525700  0.954900  0.654400  1.0  0.6596
  C  C56  1  0.052500  0.884200  0.372900  1.0  0.0617
  C  C57  1  0.165000  0.901000  0.433000  1.0  0.6402
  C  C58  1  0.798900  0.298400  0.099100  1.0  0.0417
  C  C59  1  0.168300  0.929900  0.916600  1.0  -0.1048
  C  C60  1  0.860400  0.865200  0.297200  1.0  -0.107
  C  C61  1  0.201100  0.701600  0.900900  1.0  0.0416
  C  C62  1  0.624600  0.284400  0.233800  1.0  -0.1208
  C  C63  1  0.000100  0.909000  0.463100  1.0  0.0358
  C  C64  1  0.831700  0.070100  0.083400  1.0  -0.1054
  C  C65  1  0.918100  0.908900  0.451200  1.0  -0.0797
  C  C66  1  0.416100  0.063900  0.542000  1.0  0.7438
  C  C67  1  0.894100  0.041900  0.042000  1.0  0.7274
  C  C68  1  0.757100  0.425400  0.127100  1.0  0.0583
  C  C69  1  0.872100  0.463200  0.036900  1.0  0.0251
  C  C70  1  0.677100  0.256700  0.191600  1.0  -0.0075
  C  C71  1  0.242900  0.574600  0.872900  1.0  0.0577
  C  C72  1  0.474300  0.045100  0.345600  1.0  0.6586
  C  C73  1  0.405300  0.909700  0.747600  1.0  -0.1164
  C  C74  1  0.031000  0.114400  0.639400  1.0  -0.1135
  C  C75  1  0.278300  0.872000  0.838700  1.0  -0.0222
  C  C76  1  0.631200  0.895300  0.368100  1.0  -0.0396
  C  C77  1  0.700900  0.882600  0.328900  1.0  -0.1166
  C  C78  1  0.910700  0.836200  0.206100  1.0  -0.0822
  C  C79  1  0.835000  0.099000  0.567000  1.0  0.6366
  C  C80  1  0.180300  0.506900  0.921600  1.0  -0.1093
  C  C81  1  0.890700  0.819900  0.154400  1.0  0.6643
  C  C82  1  0.191600  0.101300  0.611100  1.0  -0.0236
  C  C83  1  0.210700  0.117000  0.661300  1.0  -0.0207
  C  C84  1  0.442000  0.782300  0.717700  1.0  -0.0843
  C  C85  1  0.127900  0.536800  0.963100  1.0  0.0266
  C  C86  1  0.928500  0.101900  0.578400  1.0  -0.1133
  C  C87  1  0.457700  0.883200  0.706100  1.0  -0.0816
  C  C88  1  0.109300  0.180100  0.845600  1.0  0.6616
  C  C89  1  0.763400  0.999300  0.131900  1.0  -0.039
  C  C90  1  0.738200  0.916800  0.428000  1.0  -0.1016
  C  C91  1  0.071500  0.898100  0.421600  1.0  -0.1132
  C  C92  1  0.000000  0.840300  0.217700  1.0  -0.0857
  C  C93  1  0.166000  0.402000  0.933000  1.0  0.6449
  C  C94  1  0.558000  0.217700  0.282300  1.0  -0.0859
  C  C95  1  0.102500  0.102000  0.599100  1.0  0.0452
  C  C96  1  0.139600  0.134800  0.702800  1.0  -0.107
  C  C97  1  0.081900  0.091100  0.548800  1.0  -0.0783
  C  C98  1  0.089300  0.163800  0.793900  1.0  -0.0828
  C  C99  1  0.368800  0.104700  0.631900  1.0  -0.0396
  C  C100  1  0.155200  0.833800  0.928000  1.0  -0.1063
  C  C101  1  0.253800  0.670400  0.860600  1.0  -0.1125
  C  C102  1  0.288500  0.970200  0.828900  1.0  -0.1221
  C  C103  1  0.819700  0.493100  0.078400  1.0  -0.1088
  C  C104  1  0.583900  0.936100  0.458000  1.0  0.7451
  C  C105  1  0.662400  0.157600  0.202800  1.0  -0.1079
  C  C106  1  0.594700  0.090300  0.252400  1.0  -0.1157
  C  C107  1  0.346500  0.084900  0.583400  1.0  -0.1132
  C  C108  1  0.834000  0.598000  0.067000  1.0  0.6454
  C  C109  1  0.139900  0.630700  0.951200  1.0  -0.0886
  C  C110  1  0.375400  0.715600  0.766200  1.0  -0.1245
  C  C111  1  0.322900  0.743300  0.808400  1.0  -0.006
  C  C112  1  0.947500  0.115800  0.627100  1.0  0.0621
  C  C113  1  0.337600  0.842400  0.797200  1.0  -0.1077
  C  C114  1  0.236600  0.000700  0.868100  1.0  -0.0401
  C  C115  1  0.653500  0.915100  0.416600  1.0  -0.1156
  C  C116  1  0.842700  0.847100  0.247600  1.0  -0.1156
  C  C117  1  0.860100  0.369300  0.048800  1.0  -0.0963
  C  C118  1  0.299100  0.117400  0.671100  1.0  -0.1164
  C  C119  1  0.721700  0.128000  0.161300  1.0  -0.0225
  C  C120  1  0.787600  0.197300  0.111100  1.0  -0.0288
  C  C121  1  0.808400  0.898700  0.388900  1.0  -0.0248
  C  C122  1  0.542300  0.116800  0.293900  1.0  -0.0822
  C  C123  1  0.789300  0.883000  0.338700  1.0  -0.0204
  C  C124  1  0.981800  0.141600  0.733800  1.0  -0.1224
  O  O125  1  0.962200  0.109700  0.001700  1.0  -0.7292
  O  O126  1  0.554500  0.049200  0.647300  1.0  -0.6531
  O  O127  1  0.784300  0.624100  0.102200  1.0  -0.6668
  O  O128  1  0.964600  0.826600  0.114000  1.0  -0.599
  O  O129  1  0.037800  0.890300  0.998300  1.0  -0.7308
  O  O130  1  0.889700  0.659300  0.023400  1.0  -0.6046
  O  O131  1  0.611400  0.963900  0.498300  1.0  -0.7311
  O  O132  1  0.559400  0.921400  0.614000  1.0  -0.5995
  O  O133  1  0.215700  0.375900  0.897800  1.0  -0.6694
  O  O134  1  0.388600  0.036100  0.501700  1.0  -0.7316
  O  O135  1  0.226300  0.886500  0.397800  1.0  -0.6739
  O  O136  1  0.445500  0.950800  0.352700  1.0  -0.6553
  O  O137  1  0.803500  0.798200  0.147300  1.0  -0.6539
  O  O138  1  0.868680  0.948600  0.047120  1.0  -0.7645
  O  O139  1  0.182700  0.913100  0.476600  1.0  -0.5964
  O  O140  1  0.110300  0.340700  0.976600  1.0  -0.6052
  O  O141  1  0.817300  0.086900  0.523400  1.0  -0.5975
  O  O142  1  0.131320  0.051400  0.952880  1.0  -0.7634
  O  O143  1  0.035400  0.173400  0.886000  1.0  -0.6002
  O  O144  1  0.773700  0.113500  0.602200  1.0  -0.6719
  O  O145  1  0.440600  0.078600  0.386000  1.0  -0.6005
  O  O146  1  0.495720  0.915800  0.452880  1.0  -0.7612
  O  O147  1  0.504280  0.084200  0.547120  1.0  -0.7615
  O  O148  1  0.196500  0.201800  0.852700  1.0  -0.654
