# generated using pymatgen
data_CrH5C8O5
_symmetry_space_group_name_H-M   'P 1'
_cell_length_a   6.81200000
_cell_length_b   16.73310000
_cell_length_c   13.03800000
_cell_angle_alpha   90.00000000
_cell_angle_beta   90.00000000
_cell_angle_gamma   90.00000000
_symmetry_Int_Tables_number   1
_chemical_formula_structural   CrH5C8O5
_chemical_formula_sum   'Cr4 H20 C32 O20'
_cell_volume   1486.14786693
_cell_formula_units_Z   4
loop_
 _symmetry_equiv_pos_site_id
 _symmetry_equiv_pos_as_xyz
  1  'x, y, z'
loop_
 _atom_site_type_symbol
 _atom_site_label
 _atom_site_symmetry_multiplicity
 _atom_site_fract_x
 _atom_site_fract_y
 _atom_site_fract_z
 _atom_site_occupancy
 _atom_site_charge
  Cr  Cr1  1  0.250000  0.750000  0.750000  1.0  1.3788
  Cr  Cr2  1  0.750000  0.750000  0.750000  1.0  1.3788
  Cr  Cr3  1  0.750000  0.250000  0.250000  1.0  1.3788
  Cr  Cr4  1  0.250000  0.250000  0.250000  1.0  1.3788
  H  H5  1  0.839620  0.425240  0.477130  1.0  0.159
  H  H6  1  0.339620  0.925240  0.977130  1.0  0.159
  H  H7  1  0.160380  0.074760  0.477130  1.0  0.1585
  H  H8  1  0.660380  0.574760  0.977130  1.0  0.1585
  H  H9  1  0.160380  0.925240  0.522870  1.0  0.1579
  H  H10  1  0.660380  0.425240  0.022870  1.0  0.1579
  H  H11  1  0.839620  0.574760  0.522870  1.0  0.1567
  H  H12  1  0.339620  0.074760  0.022870  1.0  0.1567
  H  H13  1  0.160380  0.574760  0.522870  1.0  0.1573
  H  H14  1  0.660380  0.074760  0.022870  1.0  0.1573
  H  H15  1  0.839620  0.925240  0.522870  1.0  0.1586
  H  H16  1  0.339620  0.425240  0.022870  1.0  0.1584
  H  H17  1  0.839620  0.074760  0.477130  1.0  0.1586
  H  H18  1  0.339620  0.574760  0.977130  1.0  0.1586
  H  H19  1  0.160380  0.425240  0.477130  1.0  0.1588
  H  H20  1  0.660380  0.925240  0.977130  1.0  0.159
  H  H21  1  0.500000  0.750000  0.890700  1.0  0.4393
  H  H22  1  0.000000  0.250000  0.390700  1.0  0.4393
  H  H23  1  0.500000  0.250000  0.109300  1.0  0.4418
  H  H24  1  0.000000  0.750000  0.609300  1.0  0.4418
  C  C25  1  0.304000  0.040000  0.482000  1.0  -0.0475
  C  C26  1  0.804000  0.540000  0.982000  1.0  -0.0475
  C  C27  1  0.696000  0.460000  0.482000  1.0  -0.0471
  C  C28  1  0.196000  0.960000  0.982000  1.0  -0.0471
  C  C29  1  0.696000  0.540000  0.518000  1.0  -0.0473
  C  C30  1  0.196000  0.040000  0.018000  1.0  -0.0473
  C  C31  1  0.304000  0.960000  0.518000  1.0  -0.0473
  C  C32  1  0.804000  0.460000  0.018000  1.0  -0.0473
  C  C33  1  0.696000  0.960000  0.518000  1.0  -0.0472
  C  C34  1  0.196000  0.460000  0.018000  1.0  -0.0472
  C  C35  1  0.304000  0.540000  0.518000  1.0  -0.0475
  C  C36  1  0.804000  0.040000  0.018000  1.0  -0.0475
  C  C37  1  0.304000  0.460000  0.482000  1.0  -0.0472
  C  C38  1  0.804000  0.960000  0.982000  1.0  -0.0472
  C  C39  1  0.696000  0.040000  0.482000  1.0  -0.0473
  C  C40  1  0.196000  0.540000  0.982000  1.0  -0.0473
  C  C41  1  0.500000  0.054000  0.461000  1.0  -0.0244
  C  C42  1  0.500000  0.125000  0.388000  1.0  0.5774
  C  C43  1  0.000000  0.554000  0.961000  1.0  -0.0244
  C  C44  1  0.000000  0.625000  0.888000  1.0  0.5774
  C  C45  1  0.500000  0.446000  0.461000  1.0  -0.0244
  C  C46  1  0.500000  0.375000  0.388000  1.0  0.5767
  C  C47  1  0.000000  0.946000  0.961000  1.0  -0.0244
  C  C48  1  0.000000  0.875000  0.888000  1.0  0.5767
  C  C49  1  0.500000  0.554000  0.539000  1.0  -0.0242
  C  C50  1  0.500000  0.625000  0.612000  1.0  0.5773
  C  C51  1  0.000000  0.054000  0.039000  1.0  -0.0242
  C  C52  1  0.000000  0.125000  0.112000  1.0  0.5773
  C  C53  1  0.500000  0.946000  0.539000  1.0  -0.0242
  C  C54  1  0.500000  0.875000  0.612000  1.0  0.5764
  C  C55  1  0.000000  0.446000  0.039000  1.0  -0.0242
  C  C56  1  0.000000  0.375000  0.112000  1.0  0.5764
  O  O57  1  0.650000  0.166000  0.343000  1.0  -0.6215
  O  O58  1  0.150000  0.666000  0.843000  1.0  -0.6215
  O  O59  1  0.350000  0.334000  0.343000  1.0  -0.6226
  O  O60  1  0.850000  0.834000  0.843000  1.0  -0.6226
  O  O61  1  0.350000  0.666000  0.657000  1.0  -0.6224
  O  O62  1  0.850000  0.166000  0.157000  1.0  -0.6224
  O  O63  1  0.650000  0.834000  0.657000  1.0  -0.6224
  O  O64  1  0.150000  0.334000  0.157000  1.0  -0.6224
  O  O65  1  0.350000  0.834000  0.657000  1.0  -0.6227
  O  O66  1  0.850000  0.334000  0.157000  1.0  -0.6227
  O  O67  1  0.650000  0.666000  0.657000  1.0  -0.6218
  O  O68  1  0.150000  0.166000  0.157000  1.0  -0.6218
  O  O69  1  0.650000  0.334000  0.343000  1.0  -0.6223
  O  O70  1  0.150000  0.834000  0.843000  1.0  -0.6223
  O  O71  1  0.350000  0.166000  0.343000  1.0  -0.6221
  O  O72  1  0.850000  0.666000  0.843000  1.0  -0.6221
  O  O73  1  0.000000  0.750000  0.686000  1.0  -0.8804
  O  O74  1  0.500000  0.250000  0.186000  1.0  -0.8804
  O  O75  1  0.000000  0.250000  0.314000  1.0  -0.878
  O  O76  1  0.500000  0.750000  0.814000  1.0  -0.878
