# generated using pymatgen
data_CrC8O5
_symmetry_space_group_name_H-M   'P 1'
_cell_length_a   17.34000000
_cell_length_b   12.17800000
_cell_length_c   6.82200000
_cell_angle_alpha   90.00000000
_cell_angle_beta   90.00000000
_cell_angle_gamma   90.00000000
_symmetry_Int_Tables_number   1
_chemical_formula_structural   CrC8O5
_chemical_formula_sum   'Cr4 C32 O20'
_cell_volume   1440.57799944
_cell_formula_units_Z   4
loop_
 _symmetry_equiv_pos_site_id
 _symmetry_equiv_pos_as_xyz
  1  'x, y, z'
loop_
 _atom_site_type_symbol
 _atom_site_label
 _atom_site_symmetry_multiplicity
 _atom_site_fract_x
 _atom_site_fract_y
 _atom_site_fract_z
 _atom_site_occupancy
 _atom_site_charge
  Cr  Cr1  1  0.000000  0.000000  0.000000  1.0  1.6486
  Cr  Cr2  1  0.500000  0.500000  0.000000  1.0  1.6486
  Cr  Cr3  1  0.000000  0.000000  0.500000  1.0  1.6486
  Cr  Cr4  1  0.500000  0.500000  0.500000  1.0  1.6486
  C  C5  1  0.229000  0.198000  0.922000  1.0  -0.0913
  C  C6  1  0.295000  0.264000  0.920000  1.0  0.0422
  C  C7  1  0.271000  0.698000  0.078000  1.0  -0.0948
  C  C8  1  0.205000  0.764000  0.080000  1.0  0.0409
  C  C9  1  0.771000  0.802000  0.422000  1.0  -0.0913
  C  C10  1  0.705000  0.736000  0.420000  1.0  0.0426
  C  C11  1  0.729000  0.302000  0.578000  1.0  -0.0946
  C  C12  1  0.795000  0.236000  0.580000  1.0  0.0407
  C  C13  1  0.771000  0.802000  0.078000  1.0  -0.0938
  C  C14  1  0.705000  0.736000  0.080000  1.0  0.0405
  C  C15  1  0.729000  0.302000  0.922000  1.0  -0.0913
  C  C16  1  0.795000  0.236000  0.920000  1.0  0.0422
  C  C17  1  0.229000  0.198000  0.578000  1.0  -0.0958
  C  C18  1  0.295000  0.264000  0.580000  1.0  0.0408
  C  C19  1  0.271000  0.698000  0.422000  1.0  -0.0914
  C  C20  1  0.205000  0.764000  0.420000  1.0  0.0421
  C  C21  1  0.392000  0.357000  0.750000  1.0  0.6121
  C  C22  1  0.123000  0.117000  0.750000  1.0  0.6517
  C  C23  1  0.329000  0.287000  0.750000  1.0  0.3629
  C  C24  1  0.191000  0.180000  0.750000  1.0  0.0608
  C  C25  1  0.108000  0.857000  0.250000  1.0  0.6121
  C  C26  1  0.377000  0.617000  0.250000  1.0  0.652
  C  C27  1  0.171000  0.787000  0.250000  1.0  0.3632
  C  C28  1  0.309000  0.680000  0.250000  1.0  0.0603
  C  C29  1  0.608000  0.643000  0.250000  1.0  0.6115
  C  C30  1  0.877000  0.883000  0.250000  1.0  0.652
  C  C31  1  0.671000  0.713000  0.250000  1.0  0.3623
  C  C32  1  0.809000  0.820000  0.250000  1.0  0.0604
  C  C33  1  0.892000  0.143000  0.750000  1.0  0.6114
  C  C34  1  0.623000  0.383000  0.750000  1.0  0.652
  C  C35  1  0.829000  0.213000  0.750000  1.0  0.3622
  C  C36  1  0.691000  0.320000  0.750000  1.0  0.0607
  O  O37  1  0.089000  0.089000  0.913000  1.0  -0.6223
  O  O38  1  0.427000  0.388000  0.910000  1.0  -0.6484
  O  O39  1  0.411000  0.589000  0.087000  1.0  -0.6213
  O  O40  1  0.073000  0.888000  0.090000  1.0  -0.6461
  O  O41  1  0.911000  0.911000  0.413000  1.0  -0.6226
  O  O42  1  0.573000  0.612000  0.410000  1.0  -0.6482
  O  O43  1  0.589000  0.411000  0.587000  1.0  -0.6208
  O  O44  1  0.927000  0.112000  0.590000  1.0  -0.647
  O  O45  1  0.911000  0.911000  0.087000  1.0  -0.6212
  O  O46  1  0.573000  0.612000  0.090000  1.0  -0.6462
  O  O47  1  0.589000  0.411000  0.913000  1.0  -0.6225
  O  O48  1  0.927000  0.112000  0.910000  1.0  -0.649
  O  O49  1  0.089000  0.089000  0.587000  1.0  -0.6211
  O  O50  1  0.427000  0.388000  0.590000  1.0  -0.6465
  O  O51  1  0.411000  0.589000  0.413000  1.0  -0.6231
  O  O52  1  0.073000  0.888000  0.410000  1.0  -0.6478
  O  O53  1  0.002000  0.922000  0.750000  1.0  -0.6962
  O  O54  1  0.498000  0.422000  0.250000  1.0  -0.6962
  O  O55  1  0.998000  0.078000  0.250000  1.0  -0.6915
  O  O56  1  0.502000  0.578000  0.750000  1.0  -0.6915
