# generated using pymatgen
data_CrC8O5
_symmetry_space_group_name_H-M   'P 1'
_cell_length_a   17.34000000
_cell_length_b   6.82200000
_cell_length_c   12.17800000
_cell_angle_alpha   90.00000000
_cell_angle_beta   90.00000000
_cell_angle_gamma   90.00000000
_symmetry_Int_Tables_number   1
_chemical_formula_structural   CrC8O5
_chemical_formula_sum   'Cr4 C32 O20'
_cell_volume   1440.57799944
_cell_formula_units_Z   4
loop_
 _symmetry_equiv_pos_site_id
 _symmetry_equiv_pos_as_xyz
  1  'x, y, z'
loop_
 _atom_site_type_symbol
 _atom_site_label
 _atom_site_symmetry_multiplicity
 _atom_site_fract_x
 _atom_site_fract_y
 _atom_site_fract_z
 _atom_site_occupancy
 _atom_site_charge
  Cr  Cr1  1  0.000000  0.000000  0.000000  1.0  1.6498
  Cr  Cr2  1  0.500000  0.000000  0.500000  1.0  1.6498
  Cr  Cr3  1  0.000000  0.500000  0.000000  1.0  1.6498
  Cr  Cr4  1  0.500000  0.500000  0.500000  1.0  1.6498
  C  C5  1  0.229000  0.922000  0.198000  1.0  -0.0919
  C  C6  1  0.295000  0.920000  0.264000  1.0  0.0411
  C  C7  1  0.271000  0.078000  0.698000  1.0  -0.0905
  C  C8  1  0.205000  0.080000  0.764000  1.0  0.042
  C  C9  1  0.771000  0.422000  0.802000  1.0  -0.0918
  C  C10  1  0.705000  0.420000  0.736000  1.0  0.041
  C  C11  1  0.729000  0.578000  0.302000  1.0  -0.0914
  C  C12  1  0.795000  0.580000  0.236000  1.0  0.0416
  C  C13  1  0.771000  0.078000  0.802000  1.0  -0.091
  C  C14  1  0.705000  0.080000  0.736000  1.0  0.0413
  C  C15  1  0.729000  0.922000  0.302000  1.0  -0.0917
  C  C16  1  0.795000  0.920000  0.236000  1.0  0.0407
  C  C17  1  0.229000  0.578000  0.198000  1.0  -0.0914
  C  C18  1  0.295000  0.580000  0.264000  1.0  0.0415
  C  C19  1  0.271000  0.422000  0.698000  1.0  -0.0918
  C  C20  1  0.205000  0.420000  0.764000  1.0  0.0415
  C  C21  1  0.392000  0.750000  0.357000  1.0  0.6143
  C  C22  1  0.123000  0.750000  0.117000  1.0  0.6514
  C  C23  1  0.329000  0.750000  0.287000  1.0  0.3641
  C  C24  1  0.191000  0.750000  0.180000  1.0  0.0627
  C  C25  1  0.108000  0.250000  0.857000  1.0  0.6142
  C  C26  1  0.377000  0.250000  0.617000  1.0  0.6516
  C  C27  1  0.171000  0.250000  0.787000  1.0  0.3642
  C  C28  1  0.309000  0.250000  0.680000  1.0  0.0622
  C  C29  1  0.608000  0.250000  0.643000  1.0  0.6124
  C  C30  1  0.877000  0.250000  0.883000  1.0  0.6526
  C  C31  1  0.671000  0.250000  0.713000  1.0  0.3641
  C  C32  1  0.809000  0.250000  0.820000  1.0  0.0621
  C  C33  1  0.892000  0.750000  0.143000  1.0  0.6123
  C  C34  1  0.623000  0.750000  0.383000  1.0  0.6523
  C  C35  1  0.829000  0.750000  0.213000  1.0  0.3642
  C  C36  1  0.691000  0.750000  0.320000  1.0  0.0623
  O  O37  1  0.089000  0.913000  0.089000  1.0  -0.6236
  O  O38  1  0.427000  0.910000  0.388000  1.0  -0.6478
  O  O39  1  0.411000  0.087000  0.589000  1.0  -0.6236
  O  O40  1  0.073000  0.090000  0.888000  1.0  -0.6473
  O  O41  1  0.911000  0.413000  0.911000  1.0  -0.624
  O  O42  1  0.573000  0.410000  0.612000  1.0  -0.6458
  O  O43  1  0.589000  0.587000  0.411000  1.0  -0.6237
  O  O44  1  0.927000  0.590000  0.112000  1.0  -0.6468
  O  O45  1  0.911000  0.087000  0.911000  1.0  -0.6237
  O  O46  1  0.573000  0.090000  0.612000  1.0  -0.6464
  O  O47  1  0.589000  0.913000  0.411000  1.0  -0.624
  O  O48  1  0.927000  0.910000  0.112000  1.0  -0.647
  O  O49  1  0.089000  0.587000  0.089000  1.0  -0.6237
  O  O50  1  0.427000  0.590000  0.388000  1.0  -0.6473
  O  O51  1  0.411000  0.413000  0.589000  1.0  -0.6244
  O  O52  1  0.073000  0.410000  0.888000  1.0  -0.6469
  O  O53  1  0.002000  0.750000  0.922000  1.0  -0.7005
  O  O54  1  0.498000  0.250000  0.422000  1.0  -0.7004
  O  O55  1  0.998000  0.250000  0.078000  1.0  -0.6992
  O  O56  1  0.502000  0.750000  0.578000  1.0  -0.6992
