# generated using pymatgen
data_Zn2H3C9BrO7
_symmetry_space_group_name_H-M   'P 1'
_cell_length_a   10.24960000
_cell_length_b   13.45830000
_cell_length_c   16.24220000
_cell_angle_alpha   90.00000000
_cell_angle_beta   95.72000000
_cell_angle_gamma   90.00000000
_symmetry_Int_Tables_number   1
_chemical_formula_structural   Zn2H3C9BrO7
_chemical_formula_sum   'Zn8 H12 C36 Br4 O28'
_cell_volume   2229.32893454
_cell_formula_units_Z   4
loop_
 _symmetry_equiv_pos_site_id
 _symmetry_equiv_pos_as_xyz
  1  'x, y, z'
loop_
 _atom_site_type_symbol
 _atom_site_label
 _atom_site_symmetry_multiplicity
 _atom_site_fract_x
 _atom_site_fract_y
 _atom_site_fract_z
 _atom_site_occupancy
 _atom_site_charge
  Zn  Zn1  1  0.124110  0.531530  0.455080  1.0  1.0499
  Zn  Zn2  1  0.978330  0.706080  0.564000  1.0  0.9917
  Zn  Zn3  1  0.375890  0.031530  0.044920  1.0  1.0495
  Zn  Zn4  1  0.521670  0.206080  0.936000  1.0  0.9924
  Zn  Zn5  1  0.875890  0.468470  0.544920  1.0  1.0499
  Zn  Zn6  1  0.021670  0.293920  0.436000  1.0  0.9926
  Zn  Zn7  1  0.624110  0.968470  0.955080  1.0  1.0501
  Zn  Zn8  1  0.478330  0.793920  0.064000  1.0  0.9919
  H  H9  1  0.306500  0.778200  0.721400  1.0  0.1343
  H  H10  1  0.699600  0.771200  0.745900  1.0  0.1313
  H  H11  1  0.497000  0.598500  0.576900  1.0  0.1293
  H  H12  1  0.193500  0.278200  0.778600  1.0  0.1344
  H  H13  1  0.800400  0.271200  0.754100  1.0  0.1319
  H  H14  1  0.003000  0.098500  0.923100  1.0  0.1298
  H  H15  1  0.693500  0.221800  0.278600  1.0  0.134
  H  H16  1  0.300400  0.228800  0.254100  1.0  0.132
  H  H17  1  0.503000  0.401500  0.423100  1.0  0.1294
  H  H18  1  0.806500  0.721800  0.221400  1.0  0.1343
  H  H19  1  0.199600  0.728800  0.245900  1.0  0.1316
  H  H20  1  0.997000  0.901500  0.076900  1.0  0.1292
  C  C21  1  0.381270  0.683910  0.641350  1.0  -0.1515
  C  C22  1  0.384630  0.753430  0.705110  1.0  0.0578
  C  C23  1  0.502820  0.786110  0.744610  1.0  -0.1412
  C  C24  1  0.619850  0.749110  0.719990  1.0  0.0458
  C  C25  1  0.617380  0.679060  0.656620  1.0  -0.1293
  C  C26  1  0.498460  0.646220  0.618370  1.0  0.0586
  C  C27  1  0.252950  0.652770  0.596960  1.0  0.7306
  C  C28  1  0.501410  0.859910  0.814530  1.0  0.7279
  C  C29  1  0.742640  0.639490  0.627850  1.0  0.7625
  C  C30  1  0.118730  0.183910  0.858650  1.0  -0.1514
  C  C31  1  0.115370  0.253430  0.794890  1.0  0.0577
  C  C32  1  0.997180  0.286110  0.755390  1.0  -0.141
  C  C33  1  0.880150  0.249110  0.780010  1.0  0.0431
  C  C34  1  0.882620  0.179060  0.843380  1.0  -0.1292
  C  C35  1  0.001540  0.146220  0.881630  1.0  0.059
  C  C36  1  0.247050  0.152770  0.903040  1.0  0.7298
  C  C37  1  0.998590  0.359910  0.685470  1.0  0.7271
  C  C38  1  0.757360  0.139490  0.872150  1.0  0.7632
  C  C39  1  0.618730  0.316090  0.358650  1.0  -0.1514
  C  C40  1  0.615370  0.246570  0.294890  1.0  0.0579
  C  C41  1  0.497180  0.213890  0.255390  1.0  -0.1418
  C  C42  1  0.380150  0.250890  0.280010  1.0  0.043
  C  C43  1  0.382620  0.320940  0.343380  1.0  -0.1292
  C  C44  1  0.501540  0.353780  0.381630  1.0  0.0582
  C  C45  1  0.747050  0.347230  0.403040  1.0  0.7305
  C  C46  1  0.498590  0.140090  0.185470  1.0  0.7271
  C  C47  1  0.257360  0.360510  0.372150  1.0  0.7635
  C  C48  1  0.881270  0.816090  0.141350  1.0  -0.1514
  C  C49  1  0.884630  0.746570  0.205110  1.0  0.0573
  C  C50  1  0.002820  0.713890  0.244610  1.0  -0.1417
  C  C51  1  0.119850  0.750890  0.219990  1.0  0.0458
  C  C52  1  0.117380  0.820940  0.156620  1.0  -0.1293
  C  C53  1  0.998460  0.853780  0.118370  1.0  0.0584
  C  C54  1  0.752950  0.847230  0.096960  1.0  0.7311
  C  C55  1  0.001410  0.640090  0.314530  1.0  0.7286
  C  C56  1  0.242640  0.860510  0.127850  1.0  0.7629
  Br  Br57  1  0.970810  0.855210  0.491940  1.0  -0.3158
  Br  Br58  1  0.529190  0.355210  0.008060  1.0  -0.3168
  Br  Br59  1  0.029190  0.144790  0.508060  1.0  -0.3179
  Br  Br60  1  0.470810  0.644790  0.991940  1.0  -0.3171
  O  O61  1  0.257850  0.596630  0.534910  1.0  -0.5791
  O  O62  1  0.151350  0.684320  0.624760  1.0  -0.5724
  O  O63  1  0.393040  0.888720  0.832770  1.0  -0.4689
  O  O64  1  0.611880  0.887700  0.850010  1.0  -0.5619
  O  O65  1  0.843220  0.693110  0.641900  1.0  -0.5731
  O  O66  1  0.735610  0.557920  0.591330  1.0  -0.579
  O  O67  1  0.950460  0.590030  0.493130  1.0  -0.7469
  O  O68  1  0.242150  0.096630  0.965090  1.0  -0.5792
  O  O69  1  0.348650  0.184320  0.875240  1.0  -0.5705
  O  O70  1  0.106960  0.388720  0.667230  1.0  -0.4684
  O  O71  1  0.888120  0.387700  0.649990  1.0  -0.5626
  O  O72  1  0.656780  0.193110  0.858100  1.0  -0.5714
  O  O73  1  0.764390  0.057920  0.908670  1.0  -0.5779
  O  O74  1  0.549540  0.090030  0.006870  1.0  -0.7482
  O  O75  1  0.742150  0.403370  0.465090  1.0  -0.579
  O  O76  1  0.848650  0.315680  0.375240  1.0  -0.57
  O  O77  1  0.606960  0.111280  0.167230  1.0  -0.4692
  O  O78  1  0.388120  0.112300  0.149990  1.0  -0.5628
  O  O79  1  0.156780  0.306890  0.358100  1.0  -0.57
  O  O80  1  0.264390  0.442080  0.408670  1.0  -0.5797
  O  O81  1  0.049540  0.409970  0.506870  1.0  -0.7481
  O  O82  1  0.757850  0.903370  0.034910  1.0  -0.58
  O  O83  1  0.651350  0.815680  0.124760  1.0  -0.5721
  O  O84  1  0.893040  0.611280  0.332770  1.0  -0.4698
  O  O85  1  0.111880  0.612300  0.350010  1.0  -0.5619
  O  O86  1  0.343220  0.806890  0.141900  1.0  -0.5712
  O  O87  1  0.235610  0.942080  0.091330  1.0  -0.5806
  O  O88  1  0.450460  0.909970  0.993130  1.0  -0.7469
