# generated using pymatgen
data_EuH3(C5O4)2
_symmetry_space_group_name_H-M   'P 1'
_cell_length_a   7.20750000
_cell_length_b   10.75620000
_cell_length_c   17.21800000
_cell_angle_alpha   97.07200000
_cell_angle_beta   90.00000000
_cell_angle_gamma   90.00000000
_symmetry_Int_Tables_number   1
_chemical_formula_structural   EuH3(C5O4)2
_chemical_formula_sum   'Eu4 H12 C40 O32'
_cell_volume   1324.67571753
_cell_formula_units_Z   4
loop_
 _symmetry_equiv_pos_site_id
 _symmetry_equiv_pos_as_xyz
  1  'x, y, z'
loop_
 _atom_site_type_symbol
 _atom_site_label
 _atom_site_symmetry_multiplicity
 _atom_site_fract_x
 _atom_site_fract_y
 _atom_site_fract_z
 _atom_site_occupancy
 _atom_site_charge
  Eu  Eu1  1  0.480360  0.325620  0.753050  1.0  2.1594
  Eu  Eu2  1  0.980360  0.174380  0.746950  1.0  2.1606
  Eu  Eu3  1  0.519640  0.674380  0.246950  1.0  2.1607
  Eu  Eu4  1  0.019640  0.825620  0.253050  1.0  2.1607
  H  H5  1  0.542400  0.671600  0.559600  1.0  0.4094
  H  H6  1  0.683900  0.492500  0.019500  1.0  0.1149
  H  H7  1  0.147700  0.665200  0.450500  1.0  0.1122
  H  H8  1  0.042400  0.828400  0.940400  1.0  0.409
  H  H9  1  0.183900  0.007500  0.480500  1.0  0.115
  H  H10  1  0.647700  0.834800  0.049500  1.0  0.1122
  H  H11  1  0.457600  0.328400  0.440400  1.0  0.4098
  H  H12  1  0.316100  0.507500  0.980500  1.0  0.1145
  H  H13  1  0.852300  0.334800  0.549500  1.0  0.1122
  H  H14  1  0.957600  0.171600  0.059600  1.0  0.411
  H  H15  1  0.816100  0.992500  0.519500  1.0  0.1145
  H  H16  1  0.352300  0.165200  0.950500  1.0  0.1123
  C  C17  1  0.171800  0.416000  0.851900  1.0  0.7164
  C  C18  1  0.749500  0.405400  0.874600  1.0  0.7042
  C  C19  1  0.882500  0.451900  0.938100  1.0  -0.1304
  C  C20  1  0.074600  0.457600  0.927100  1.0  -0.043
  C  C21  1  0.811400  0.495200  0.011400  1.0  -0.0488
  C  C22  1  0.148500  0.392100  0.633800  1.0  0.7443
  C  C23  1  0.070900  0.452700  0.566700  1.0  -0.0934
  C  C24  1  0.318200  0.622500  0.578100  1.0  0.6625
  C  C25  1  0.157900  0.552600  0.536700  1.0  -0.0748
  C  C26  1  0.087800  0.599200  0.470200  1.0  -0.014
  C  C27  1  0.671800  0.084000  0.648100  1.0  0.7147
  C  C28  1  0.249500  0.094600  0.625400  1.0  0.705
  C  C29  1  0.382500  0.048100  0.561900  1.0  -0.1306
  C  C30  1  0.574600  0.042400  0.572900  1.0  -0.0437
  C  C31  1  0.311400  0.004800  0.488600  1.0  -0.0484
  C  C32  1  0.648500  0.107900  0.866200  1.0  0.745
  C  C33  1  0.570900  0.047300  0.933300  1.0  -0.0941
  C  C34  1  0.818200  0.877500  0.921900  1.0  0.6616
  C  C35  1  0.657900  0.947400  0.963300  1.0  -0.0753
  C  C36  1  0.587800  0.900800  0.029800  1.0  -0.0137
  C  C37  1  0.828200  0.584000  0.148100  1.0  0.7148
  C  C38  1  0.250500  0.594600  0.125400  1.0  0.7064
  C  C39  1  0.117500  0.548100  0.061900  1.0  -0.1299
  C  C40  1  0.925400  0.542400  0.072900  1.0  -0.0441
  C  C41  1  0.188600  0.504800  0.988600  1.0  -0.048
  C  C42  1  0.851500  0.607900  0.366200  1.0  0.7456
  C  C43  1  0.929100  0.547300  0.433300  1.0  -0.0948
  C  C44  1  0.681800  0.377500  0.421900  1.0  0.661
  C  C45  1  0.842100  0.447400  0.463300  1.0  -0.0699
  C  C46  1  0.912200  0.400800  0.529800  1.0  -0.0157
  C  C47  1  0.328200  0.916000  0.351900  1.0  0.717
  C  C48  1  0.750500  0.905400  0.374600  1.0  0.7055
  C  C49  1  0.617500  0.951900  0.438100  1.0  -0.129
  C  C50  1  0.425400  0.957600  0.427100  1.0  -0.0435
  C  C51  1  0.688600  0.995200  0.511400  1.0  -0.0484
  C  C52  1  0.351500  0.892100  0.133800  1.0  0.7446
  C  C53  1  0.429100  0.952700  0.066700  1.0  -0.0938
  C  C54  1  0.181800  0.122500  0.078100  1.0  0.6616
  C  C55  1  0.342100  0.052600  0.036700  1.0  -0.069
  C  C56  1  0.412200  0.099200  0.970200  1.0  -0.0158
  O  O57  1  0.580300  0.417800  0.886500  1.0  -0.6315
  O  O58  1  0.315500  0.653600  0.649200  1.0  -0.4848
  O  O59  1  0.451600  0.648300  0.533000  1.0  -0.5107
  O  O60  1  0.192400  0.297400  0.830200  1.0  -0.8023
  O  O61  1  0.811200  0.356200  0.808000  1.0  -0.8136
  O  O62  1  0.251900  0.493700  0.815500  1.0  -0.6007
  O  O63  1  0.321600  0.388500  0.642400  1.0  -0.6767
  O  O64  1  0.032300  0.344400  0.675800  1.0  -0.706
  O  O65  1  0.080300  0.082200  0.613500  1.0  -0.6322
  O  O66  1  0.815500  0.846400  0.850800  1.0  -0.4838
  O  O67  1  0.951600  0.851700  0.967000  1.0  -0.5122
  O  O68  1  0.692400  0.202600  0.669800  1.0  -0.7993
  O  O69  1  0.311200  0.143800  0.692000  1.0  -0.8143
  O  O70  1  0.751900  0.006300  0.684500  1.0  -0.5975
  O  O71  1  0.821600  0.111500  0.857600  1.0  -0.6741
  O  O72  1  0.532300  0.155600  0.824200  1.0  -0.7059
  O  O73  1  0.419700  0.582200  0.113500  1.0  -0.6321
  O  O74  1  0.684500  0.346400  0.350800  1.0  -0.4843
  O  O75  1  0.548400  0.351700  0.467000  1.0  -0.5104
  O  O76  1  0.807600  0.702600  0.169800  1.0  -0.8002
  O  O77  1  0.188800  0.643800  0.192000  1.0  -0.8139
  O  O78  1  0.748100  0.506300  0.184500  1.0  -0.5968
  O  O79  1  0.678400  0.611500  0.357600  1.0  -0.6772
  O  O80  1  0.967700  0.655600  0.324200  1.0  -0.7055
  O  O81  1  0.919700  0.917800  0.386500  1.0  -0.6314
  O  O82  1  0.184500  0.153600  0.149200  1.0  -0.485
  O  O83  1  0.048400  0.148300  0.033000  1.0  -0.5097
  O  O84  1  0.307600  0.797400  0.330200  1.0  -0.8027
  O  O85  1  0.688800  0.856200  0.308000  1.0  -0.8126
  O  O86  1  0.248100  0.993700  0.315500  1.0  -0.6006
  O  O87  1  0.178400  0.888500  0.142400  1.0  -0.6731
  O  O88  1  0.467700  0.844400  0.175800  1.0  -0.7053
