# generated using pymatgen
data_KU(C4O5)2
_symmetry_space_group_name_H-M   'P 1'
_cell_length_a   16.25400000
_cell_length_b   13.50800000
_cell_length_c   7.68300000
_cell_angle_alpha   90.00000000
_cell_angle_beta   90.91000000
_cell_angle_gamma   90.00000000
_symmetry_Int_Tables_number   1
_chemical_formula_structural   KU(C4O5)2
_chemical_formula_sum   'K4 U4 C32 O40'
_cell_volume   1686.65928748
_cell_formula_units_Z   4
loop_
 _symmetry_equiv_pos_site_id
 _symmetry_equiv_pos_as_xyz
  1  'x, y, z'
loop_
 _atom_site_type_symbol
 _atom_site_label
 _atom_site_symmetry_multiplicity
 _atom_site_fract_x
 _atom_site_fract_y
 _atom_site_fract_z
 _atom_site_occupancy
 _atom_site_charge
  K  K1  1  0.500000  0.360370  0.750000  1.0  0.9677
  K  K2  1  0.000000  0.860370  0.750000  1.0  0.9677
  K  K3  1  0.500000  0.639630  0.250000  1.0  0.9669
  K  K4  1  0.000000  0.139630  0.250000  1.0  0.9669
  U  U5  1  0.500000  0.265530  0.250000  1.0  2.7636
  U  U6  1  0.000000  0.765530  0.250000  1.0  2.7636
  U  U7  1  0.500000  0.734470  0.750000  1.0  2.7642
  U  U8  1  0.000000  0.234470  0.750000  1.0  2.7642
  C  C9  1  0.642100  0.182700  0.536000  1.0  0.7757
  C  C10  1  0.720800  0.134900  0.566300  1.0  -0.0151
  C  C11  1  0.786800  0.098400  0.596000  1.0  -0.0122
  C  C12  1  0.866400  0.048900  0.629100  1.0  0.78
  C  C13  1  0.142100  0.682700  0.536000  1.0  0.7757
  C  C14  1  0.220800  0.634900  0.566300  1.0  -0.0151
  C  C15  1  0.286800  0.598400  0.596000  1.0  -0.0122
  C  C16  1  0.366400  0.548900  0.629100  1.0  0.78
  C  C17  1  0.357900  0.182700  0.964000  1.0  0.7766
  C  C18  1  0.279200  0.134900  0.933700  1.0  -0.018
  C  C19  1  0.213200  0.098400  0.904000  1.0  -0.0121
  C  C20  1  0.133600  0.048900  0.870900  1.0  0.7794
  C  C21  1  0.857900  0.682700  0.964000  1.0  0.7766
  C  C22  1  0.779200  0.634900  0.933700  1.0  -0.018
  C  C23  1  0.713200  0.598400  0.904000  1.0  -0.0121
  C  C24  1  0.633600  0.548900  0.870900  1.0  0.7794
  C  C25  1  0.357900  0.817300  0.464000  1.0  0.7764
  C  C26  1  0.279200  0.865100  0.433700  1.0  -0.0187
  C  C27  1  0.213200  0.901600  0.404000  1.0  -0.0119
  C  C28  1  0.133600  0.951100  0.370900  1.0  0.7789
  C  C29  1  0.857900  0.317300  0.464000  1.0  0.7764
  C  C30  1  0.779200  0.365100  0.433700  1.0  -0.0187
  C  C31  1  0.713200  0.401600  0.404000  1.0  -0.0119
  C  C32  1  0.633600  0.451100  0.370900  1.0  0.7789
  C  C33  1  0.642100  0.817300  0.036000  1.0  0.7751
  C  C34  1  0.720800  0.865100  0.066300  1.0  -0.0155
  C  C35  1  0.786800  0.901600  0.096000  1.0  -0.0122
  C  C36  1  0.866400  0.951100  0.129100  1.0  0.7797
  C  C37  1  0.142100  0.317300  0.036000  1.0  0.7751
  C  C38  1  0.220800  0.365100  0.066300  1.0  -0.0155
  C  C39  1  0.286800  0.401600  0.096000  1.0  -0.0122
  C  C40  1  0.366400  0.451100  0.129100  1.0  0.7797
  O  O41  1  0.440500  0.266300  0.441800  1.0  -0.7922
  O  O42  1  0.621400  0.193100  0.378900  1.0  -0.6535
  O  O43  1  0.602100  0.207300  0.661300  1.0  -0.6616
  O  O44  1  0.930000  0.101800  0.625100  1.0  -0.7183
  O  O45  1  0.865300  0.960300  0.656600  1.0  -0.5669
  O  O46  1  0.940500  0.766300  0.441800  1.0  -0.7922
  O  O47  1  0.121400  0.693100  0.378900  1.0  -0.6535
  O  O48  1  0.102100  0.707300  0.661300  1.0  -0.6616
  O  O49  1  0.430000  0.601800  0.625100  1.0  -0.7183
  O  O50  1  0.365300  0.460300  0.656600  1.0  -0.5669
  O  O51  1  0.559500  0.266300  0.058200  1.0  -0.7919
  O  O52  1  0.378600  0.193100  0.121100  1.0  -0.6527
  O  O53  1  0.397900  0.207300  0.838700  1.0  -0.6621
  O  O54  1  0.070000  0.101800  0.874900  1.0  -0.7185
  O  O55  1  0.134700  0.960300  0.843400  1.0  -0.5676
  O  O56  1  0.059500  0.766300  0.058200  1.0  -0.7919
  O  O57  1  0.878600  0.693100  0.121100  1.0  -0.6527
  O  O58  1  0.897900  0.707300  0.838700  1.0  -0.6621
  O  O59  1  0.570000  0.601800  0.874900  1.0  -0.7185
  O  O60  1  0.634700  0.460300  0.843400  1.0  -0.5676
  O  O61  1  0.559500  0.733700  0.558200  1.0  -0.7914
  O  O62  1  0.378600  0.806900  0.621100  1.0  -0.6528
  O  O63  1  0.397900  0.792700  0.338700  1.0  -0.6625
  O  O64  1  0.070000  0.898200  0.374900  1.0  -0.7191
  O  O65  1  0.134700  0.039700  0.343400  1.0  -0.5655
  O  O66  1  0.059500  0.233700  0.558200  1.0  -0.7914
  O  O67  1  0.878600  0.306900  0.621100  1.0  -0.6528
  O  O68  1  0.897900  0.292700  0.338700  1.0  -0.6625
  O  O69  1  0.570000  0.398200  0.374900  1.0  -0.7191
  O  O70  1  0.634700  0.539700  0.343400  1.0  -0.5655
  O  O71  1  0.440500  0.733700  0.941800  1.0  -0.7923
  O  O72  1  0.621400  0.806900  0.878900  1.0  -0.6524
  O  O73  1  0.602100  0.792700  0.161300  1.0  -0.6629
  O  O74  1  0.930000  0.898200  0.125100  1.0  -0.7191
  O  O75  1  0.865300  0.039700  0.156600  1.0  -0.5653
  O  O76  1  0.940500  0.233700  0.941800  1.0  -0.7923
  O  O77  1  0.121400  0.306900  0.878900  1.0  -0.6524
  O  O78  1  0.102100  0.292700  0.161300  1.0  -0.6629
  O  O79  1  0.430000  0.398200  0.125100  1.0  -0.7191
  O  O80  1  0.365300  0.539700  0.156600  1.0  -0.5653
