# generated using pymatgen
data_Al2PH2(O3F)2
_symmetry_space_group_name_H-M   'P 1'
_cell_length_a   9.33920000
_cell_length_b   9.33920000
_cell_length_c   6.99420000
_cell_angle_alpha   90.00000000
_cell_angle_beta   90.00000000
_cell_angle_gamma   120.00000000
_symmetry_Int_Tables_number   1
_chemical_formula_structural   Al2PH2(O3F)2
_chemical_formula_sum   'Al6 P3 H6 O18 F6'
_cell_volume   528.30902593
_cell_formula_units_Z   3
loop_
 _symmetry_equiv_pos_site_id
 _symmetry_equiv_pos_as_xyz
  1  'x, y, z'
loop_
 _atom_site_type_symbol
 _atom_site_label
 _atom_site_symmetry_multiplicity
 _atom_site_fract_x
 _atom_site_fract_y
 _atom_site_fract_z
 _atom_site_occupancy
 _atom_site_charge
  Al  Al1  1  0.640880  0.161990  0.222980  1.0  1.8333
  Al  Al2  1  0.838010  0.478890  0.556310  1.0  1.836
  Al  Al3  1  0.521110  0.359120  0.889650  1.0  1.8279
  Al  Al4  1  0.161990  0.640880  0.777020  1.0  1.8308
  Al  Al5  1  0.478890  0.838010  0.443690  1.0  1.8335
  Al  Al6  1  0.359120  0.521110  0.110350  1.0  1.8295
  P  P7  1  0.000000  0.449420  0.166670  1.0  1.8078
  P  P8  1  0.550580  0.550580  0.500000  1.0  1.8066
  P  P9  1  0.449420  0.000000  0.833330  1.0  1.8041
  H  H10  1  0.536700  0.351000  0.209300  1.0  0.3705
  H  H11  1  0.649000  0.185700  0.542630  1.0  0.3699
  H  H12  1  0.814300  0.463300  0.875970  1.0  0.3669
  H  H13  1  0.351000  0.536700  0.790700  1.0  0.367
  H  H14  1  0.185700  0.649000  0.457370  1.0  0.3692
  H  H15  1  0.463300  0.814300  0.124030  1.0  0.3678
  O  O16  1  0.851500  0.278400  0.126000  1.0  -0.853
  O  O17  1  0.967300  0.533170  0.336400  1.0  -0.8291
  O  O18  1  0.571100  0.301300  0.126800  1.0  -0.9324
  O  O19  1  0.721600  0.573100  0.459330  1.0  -0.8532
  O  O20  1  0.466830  0.434130  0.669730  1.0  -0.8284
  O  O21  1  0.698700  0.269800  0.460130  1.0  -0.9337
  O  O22  1  0.426900  0.148500  0.792670  1.0  -0.8486
  O  O23  1  0.565870  0.032700  0.003070  1.0  -0.8269
  O  O24  1  0.730200  0.428900  0.793470  1.0  -0.9339
  O  O25  1  0.278400  0.851500  0.874000  1.0  -0.8483
  O  O26  1  0.533170  0.967300  0.663600  1.0  -0.8266
  O  O27  1  0.301300  0.571100  0.873200  1.0  -0.9321
  O  O28  1  0.573100  0.721600  0.540670  1.0  -0.854
  O  O29  1  0.434130  0.466830  0.330270  1.0  -0.8282
  O  O30  1  0.269800  0.698700  0.539870  1.0  -0.93
  O  O31  1  0.148500  0.426900  0.207330  1.0  -0.8543
  O  O32  1  0.032700  0.565870  0.996930  1.0  -0.8282
  O  O33  1  0.428900  0.730200  0.206530  1.0  -0.9317
  F  F34  1  0.682200  0.000000  0.333333  1.0  -0.4441
  F  F35  1  0.431600  0.000000  0.333333  1.0  -0.5382
  F  F36  1  0.000000  0.682200  0.666667  1.0  -0.4436
  F  F37  1  0.000000  0.431600  0.666667  1.0  -0.5392
  F  F38  1  0.317800  0.317800  0.000000  1.0  -0.4438
  F  F39  1  0.568400  0.568400  0.000000  1.0  -0.5393
