# generated using pymatgen
data_Al2PH2(O3F)2
_symmetry_space_group_name_H-M   'P 1'
_cell_length_a   9.34210000
_cell_length_b   9.34210000
_cell_length_c   6.99600000
_cell_angle_alpha   90.00000000
_cell_angle_beta   90.00000000
_cell_angle_gamma   120.00000000
_symmetry_Int_Tables_number   1
_chemical_formula_structural   Al2PH2(O3F)2
_chemical_formula_sum   'Al6 P3 H6 O18 F6'
_cell_volume   528.77322496
_cell_formula_units_Z   3
loop_
 _symmetry_equiv_pos_site_id
 _symmetry_equiv_pos_as_xyz
  1  'x, y, z'
loop_
 _atom_site_type_symbol
 _atom_site_label
 _atom_site_symmetry_multiplicity
 _atom_site_fract_x
 _atom_site_fract_y
 _atom_site_fract_z
 _atom_site_occupancy
 _atom_site_charge
  Al  Al1  1  0.478920  0.838000  0.943640  1.0  1.7965
  Al  Al2  1  0.162000  0.640920  0.276970  1.0  1.7989
  Al  Al3  1  0.359080  0.521080  0.610310  1.0  1.798
  Al  Al4  1  0.838000  0.478920  0.056360  1.0  1.7972
  Al  Al5  1  0.640920  0.162000  0.723030  1.0  1.7989
  Al  Al6  1  0.521080  0.359080  0.389690  1.0  1.7987
  P  P7  1  0.550590  0.550590  0.000000  1.0  1.7873
  P  P8  1  0.449410  0.000000  0.333333  1.0  1.7867
  P  P9  1  0.000000  0.449410  0.666667  1.0  1.7871
  H  H10  1  0.204000  0.652000  0.968000  1.0  0.4373
  H  H11  1  0.348000  0.552000  0.301330  1.0  0.4354
  H  H12  1  0.448000  0.796000  0.634670  1.0  0.435
  H  H13  1  0.652000  0.204000  0.032000  1.0  0.4359
  H  H14  1  0.552000  0.348000  0.698670  1.0  0.4373
  H  H15  1  0.796000  0.448000  0.365330  1.0  0.4366
  O  O16  1  0.573400  0.721600  0.040900  1.0  -0.8512
  O  O17  1  0.434500  0.467500  0.830200  1.0  -0.865
  O  O18  1  0.270100  0.698600  0.040400  1.0  -0.8924
  O  O19  1  0.278400  0.851800  0.374230  1.0  -0.8453
  O  O20  1  0.532500  0.967000  0.163530  1.0  -0.8627
  O  O21  1  0.301400  0.571500  0.373730  1.0  -0.8939
  O  O22  1  0.148200  0.426600  0.707570  1.0  -0.8512
  O  O23  1  0.033000  0.565500  0.496870  1.0  -0.8638
  O  O24  1  0.428500  0.729900  0.707070  1.0  -0.89
  O  O25  1  0.721600  0.573400  0.959100  1.0  -0.8523
  O  O26  1  0.467500  0.434500  0.169800  1.0  -0.8644
  O  O27  1  0.698600  0.270100  0.959600  1.0  -0.8926
  O  O28  1  0.851800  0.278400  0.625770  1.0  -0.8501
  O  O29  1  0.967000  0.532500  0.836470  1.0  -0.8646
  O  O30  1  0.571500  0.301400  0.626270  1.0  -0.8931
  O  O31  1  0.426600  0.148200  0.292430  1.0  -0.8457
  O  O32  1  0.565500  0.033000  0.503130  1.0  -0.8627
  O  O33  1  0.729900  0.428500  0.292930  1.0  -0.8955
  F  F34  1  0.681800  0.000000  0.833330  1.0  -0.4872
  F  F35  1  0.431700  0.000000  0.833330  1.0  -0.5561
  F  F36  1  0.000000  0.681800  0.166670  1.0  -0.4829
  F  F37  1  0.000000  0.431700  0.166670  1.0  -0.559
  F  F38  1  0.318200  0.318200  0.500000  1.0  -0.4828
  F  F39  1  0.568300  0.568300  0.500000  1.0  -0.5621
