# generated using pymatgen
data_Al2PH2(O3F)2
_symmetry_space_group_name_H-M   'P 1'
_cell_length_a   9.34110000
_cell_length_b   9.34110000
_cell_length_c   6.99320000
_cell_angle_alpha   90.00000000
_cell_angle_beta   90.00000000
_cell_angle_gamma   120.00000000
_symmetry_Int_Tables_number   1
_chemical_formula_structural   Al2PH2(O3F)2
_chemical_formula_sum   'Al6 P3 H6 O18 F6'
_cell_volume   528.44844388
_cell_formula_units_Z   3
loop_
 _symmetry_equiv_pos_site_id
 _symmetry_equiv_pos_as_xyz
  1  'x, y, z'
loop_
 _atom_site_type_symbol
 _atom_site_label
 _atom_site_symmetry_multiplicity
 _atom_site_fract_x
 _atom_site_fract_y
 _atom_site_fract_z
 _atom_site_occupancy
 _atom_site_charge
  Al  Al1  1  0.640750  0.161990  0.223070  1.0  1.8138
  Al  Al2  1  0.838010  0.478760  0.556400  1.0  1.8148
  Al  Al3  1  0.521240  0.359250  0.889740  1.0  1.8119
  Al  Al4  1  0.161990  0.640750  0.776930  1.0  1.8128
  Al  Al5  1  0.478760  0.838010  0.443600  1.0  1.8138
  Al  Al6  1  0.359250  0.521240  0.110260  1.0  1.8139
  P  P7  1  0.000000  0.449360  0.166670  1.0  1.8031
  P  P8  1  0.550640  0.550640  0.500000  1.0  1.8013
  P  P9  1  0.449360  0.000000  0.833330  1.0  1.8023
  H  H10  1  0.553500  0.367900  0.198200  1.0  0.4032
  H  H11  1  0.632100  0.185600  0.531530  1.0  0.4026
  H  H12  1  0.814400  0.446500  0.864870  1.0  0.403
  H  H13  1  0.367900  0.553500  0.801800  1.0  0.4025
  H  H14  1  0.185600  0.632100  0.468470  1.0  0.4032
  H  H15  1  0.446500  0.814400  0.135130  1.0  0.4022
  O  O16  1  0.571100  0.301400  0.127100  1.0  -0.9658
  O  O17  1  0.851500  0.278500  0.126000  1.0  -0.8236
  O  O18  1  0.032900  0.565600  0.997000  1.0  -0.8312
  O  O19  1  0.698600  0.269700  0.460430  1.0  -0.9651
  O  O20  1  0.721500  0.573000  0.459330  1.0  -0.8246
  O  O21  1  0.434400  0.467300  0.330330  1.0  -0.8311
  O  O22  1  0.730300  0.428900  0.793770  1.0  -0.9667
  O  O23  1  0.427000  0.148500  0.792670  1.0  -0.8204
  O  O24  1  0.532700  0.967100  0.663670  1.0  -0.8288
  O  O25  1  0.301400  0.571100  0.872900  1.0  -0.9663
  O  O26  1  0.278500  0.851500  0.874000  1.0  -0.8204
  O  O27  1  0.565600  0.032900  0.003000  1.0  -0.829
  O  O28  1  0.269700  0.698600  0.539570  1.0  -0.9659
  O  O29  1  0.573000  0.721500  0.540670  1.0  -0.8241
  O  O30  1  0.467300  0.434400  0.669670  1.0  -0.8312
  O  O31  1  0.428900  0.730300  0.206230  1.0  -0.9639
  O  O32  1  0.148500  0.427000  0.207330  1.0  -0.8247
  O  O33  1  0.967100  0.532700  0.336330  1.0  -0.8322
  F  F34  1  0.682200  0.000000  0.333333  1.0  -0.4583
  F  F35  1  0.431700  0.000000  0.333333  1.0  -0.5388
  F  F36  1  0.000000  0.682200  0.666667  1.0  -0.4561
  F  F37  1  0.000000  0.431700  0.666667  1.0  -0.5401
  F  F38  1  0.317800  0.317800  0.000000  1.0  -0.4565
  F  F39  1  0.568300  0.568300  0.000000  1.0  -0.5396
