# generated using pymatgen
data_Al2PH2(O3F)2
_symmetry_space_group_name_H-M   'P 1'
_cell_length_a   9.34250000
_cell_length_b   9.34250000
_cell_length_c   6.99400000
_cell_angle_alpha   90.00000000
_cell_angle_beta   90.00000000
_cell_angle_gamma   120.00000000
_symmetry_Int_Tables_number   1
_chemical_formula_structural   Al2PH2(O3F)2
_chemical_formula_sum   'Al6 P3 H6 O18 F6'
_cell_volume   528.66732943
_cell_formula_units_Z   3
loop_
 _symmetry_equiv_pos_site_id
 _symmetry_equiv_pos_as_xyz
  1  'x, y, z'
loop_
 _atom_site_type_symbol
 _atom_site_label
 _atom_site_symmetry_multiplicity
 _atom_site_fract_x
 _atom_site_fract_y
 _atom_site_fract_z
 _atom_site_occupancy
 _atom_site_charge
  Al  Al1  1  0.162180  0.521180  0.056220  1.0  1.8036
  Al  Al2  1  0.478820  0.641000  0.389550  1.0  1.8077
  Al  Al3  1  0.359000  0.837820  0.722890  1.0  1.8004
  Al  Al4  1  0.521180  0.162180  0.943780  1.0  1.802
  Al  Al5  1  0.641000  0.478820  0.610450  1.0  1.8083
  Al  Al6  1  0.837820  0.359000  0.277110  1.0  1.8029
  P  P7  1  0.449400  0.449400  0.000000  1.0  1.7827
  P  P8  1  0.550600  0.000000  0.333333  1.0  1.7832
  P  P9  1  0.000000  0.550600  0.666667  1.0  1.7816
  H  H10  1  0.357700  0.820600  0.051200  1.0  0.3536
  H  H11  1  0.179400  0.537100  0.384530  1.0  0.3528
  H  H12  1  0.462900  0.642300  0.717870  1.0  0.3521
  H  H13  1  0.820600  0.357700  0.948800  1.0  0.3501
  H  H14  1  0.537100  0.179400  0.615470  1.0  0.3522
  H  H15  1  0.642300  0.462900  0.282130  1.0  0.3506
  O  O16  1  0.301400  0.730330  0.960300  1.0  -0.8456
  O  O17  1  0.278400  0.427000  0.959500  1.0  -0.878
  O  O18  1  0.533140  0.565800  0.169600  1.0  -0.8074
  O  O19  1  0.269670  0.571070  0.293630  1.0  -0.846
  O  O20  1  0.573000  0.851400  0.292830  1.0  -0.8732
  O  O21  1  0.434200  0.967340  0.502930  1.0  -0.808
  O  O22  1  0.428930  0.698600  0.626970  1.0  -0.8462
  O  O23  1  0.148600  0.721600  0.626170  1.0  -0.8783
  O  O24  1  0.032660  0.466860  0.836270  1.0  -0.8079
  O  O25  1  0.730330  0.301400  0.039700  1.0  -0.8443
  O  O26  1  0.427000  0.278400  0.040500  1.0  -0.8779
  O  O27  1  0.565800  0.533140  0.830400  1.0  -0.8076
  O  O28  1  0.571070  0.269670  0.706370  1.0  -0.8452
  O  O29  1  0.851400  0.573000  0.707170  1.0  -0.8788
  O  O30  1  0.967340  0.434200  0.497070  1.0  -0.8085
  O  O31  1  0.698600  0.428930  0.373030  1.0  -0.8439
  O  O32  1  0.721600  0.148600  0.373830  1.0  -0.874
  O  O33  1  0.466860  0.032660  0.163730  1.0  -0.8078
  F  F34  1  0.000000  0.317900  0.166670  1.0  -0.4765
  F  F35  1  0.000000  0.568300  0.166670  1.0  -0.558
  F  F36  1  0.682100  0.682100  0.500000  1.0  -0.4784
  F  F37  1  0.431700  0.431700  0.500000  1.0  -0.5589
  F  F38  1  0.317900  0.000000  0.833330  1.0  -0.4742
  F  F39  1  0.568300  0.000000  0.833330  1.0  -0.5593
