# generated using pymatgen
data_Al2PH2(O3F)2
_symmetry_space_group_name_H-M   'P 1'
_cell_length_a   9.33760000
_cell_length_b   9.33760000
_cell_length_c   6.99100000
_cell_angle_alpha   90.00000000
_cell_angle_beta   90.00000000
_cell_angle_gamma   120.00000000
_symmetry_Int_Tables_number   1
_chemical_formula_structural   Al2PH2(O3F)2
_chemical_formula_sum   'Al6 P3 H6 O18 F6'
_cell_volume   527.88639054
_cell_formula_units_Z   3
loop_
 _symmetry_equiv_pos_site_id
 _symmetry_equiv_pos_as_xyz
  1  'x, y, z'
loop_
 _atom_site_type_symbol
 _atom_site_label
 _atom_site_symmetry_multiplicity
 _atom_site_fract_x
 _atom_site_fract_y
 _atom_site_fract_z
 _atom_site_occupancy
 _atom_site_charge
  Al  Al1  1  0.478810  0.837840  0.943820  1.0  1.8186
  Al  Al2  1  0.162160  0.640970  0.277150  1.0  1.818
  Al  Al3  1  0.359030  0.521190  0.610490  1.0  1.8199
  Al  Al4  1  0.837840  0.478810  0.056180  1.0  1.8189
  Al  Al5  1  0.640970  0.162160  0.722850  1.0  1.8207
  Al  Al6  1  0.521190  0.359030  0.389510  1.0  1.8209
  P  P7  1  0.550710  0.550710  0.000000  1.0  1.7866
  P  P8  1  0.449290  0.000000  0.333333  1.0  1.7847
  P  P9  1  0.000000  0.449290  0.666667  1.0  1.788
  H  H10  1  0.193600  0.641100  0.958300  1.0  0.4093
  H  H11  1  0.358900  0.552500  0.291630  1.0  0.406
  H  H12  1  0.447500  0.806400  0.624970  1.0  0.4067
  H  H13  1  0.641100  0.193600  0.041700  1.0  0.4074
  H  H14  1  0.552500  0.358900  0.708370  1.0  0.4096
  H  H15  1  0.806400  0.447500  0.375030  1.0  0.4071
  O  O16  1  0.270300  0.698700  0.040400  1.0  -0.8996
  O  O17  1  0.572600  0.721500  0.040700  1.0  -0.8679
  O  O18  1  0.434400  0.467200  0.830700  1.0  -0.8458
  O  O19  1  0.301300  0.571600  0.373730  1.0  -0.9014
  O  O20  1  0.278500  0.851100  0.374030  1.0  -0.8648
  O  O21  1  0.532800  0.967200  0.164030  1.0  -0.8439
  O  O22  1  0.428400  0.729700  0.707070  1.0  -0.8996
  O  O23  1  0.148900  0.427400  0.707370  1.0  -0.8678
  O  O24  1  0.032800  0.565600  0.497370  1.0  -0.8455
  O  O25  1  0.698700  0.270300  0.959600  1.0  -0.9034
  O  O26  1  0.721500  0.572600  0.959300  1.0  -0.8689
  O  O27  1  0.467200  0.434400  0.169300  1.0  -0.8463
  O  O28  1  0.571600  0.301300  0.626270  1.0  -0.902
  O  O29  1  0.851100  0.278500  0.625970  1.0  -0.8666
  O  O30  1  0.967200  0.532800  0.835970  1.0  -0.8463
  O  O31  1  0.729700  0.428400  0.292930  1.0  -0.9036
  O  O32  1  0.427400  0.148900  0.292630  1.0  -0.8652
  O  O33  1  0.565600  0.032800  0.502630  1.0  -0.8442
  F  F34  1  0.682100  0.000000  0.833330  1.0  -0.4745
  F  F35  1  0.431900  0.000000  0.833330  1.0  -0.5397
  F  F36  1  0.000000  0.682100  0.166670  1.0  -0.4707
  F  F37  1  0.000000  0.431900  0.166670  1.0  -0.5411
  F  F38  1  0.317900  0.317900  0.500000  1.0  -0.4706
  F  F39  1  0.568100  0.568100  0.500000  1.0  -0.5428
