# generated using pymatgen
data_Al2PH2(O3F)2
_symmetry_space_group_name_H-M   'P 1'
_cell_length_a   9.34150000
_cell_length_b   9.34150000
_cell_length_c   6.99550000
_cell_angle_alpha   90.00000000
_cell_angle_beta   90.00000000
_cell_angle_gamma   120.00000000
_symmetry_Int_Tables_number   1
_chemical_formula_structural   Al2PH2(O3F)2
_chemical_formula_sum   'Al6 P3 H6 O18 F6'
_cell_volume   528.66751955
_cell_formula_units_Z   3
loop_
 _symmetry_equiv_pos_site_id
 _symmetry_equiv_pos_as_xyz
  1  'x, y, z'
loop_
 _atom_site_type_symbol
 _atom_site_label
 _atom_site_symmetry_multiplicity
 _atom_site_fract_x
 _atom_site_fract_y
 _atom_site_fract_z
 _atom_site_occupancy
 _atom_site_charge
  Al  Al1  1  0.161960  0.521270  0.056250  1.0  1.7756
  Al  Al2  1  0.478730  0.640690  0.389580  1.0  1.7748
  Al  Al3  1  0.359310  0.838040  0.722920  1.0  1.7728
  Al  Al4  1  0.521270  0.161960  0.943750  1.0  1.7734
  Al  Al5  1  0.640690  0.478730  0.610420  1.0  1.776
  Al  Al6  1  0.838040  0.359310  0.277080  1.0  1.7762
  P  P7  1  0.449300  0.449300  0.000000  1.0  1.7573
  P  P8  1  0.550700  0.000000  0.333333  1.0  1.7577
  P  P9  1  0.000000  0.550700  0.666667  1.0  1.7556
  H  H10  1  0.360500  0.831000  0.042900  1.0  0.3291
  H  H11  1  0.169000  0.529500  0.376230  1.0  0.3284
  H  H12  1  0.470500  0.639500  0.709570  1.0  0.3294
  H  H13  1  0.831000  0.360500  0.957100  1.0  0.3283
  H  H14  1  0.529500  0.169000  0.623770  1.0  0.33
  H  H15  1  0.639500  0.470500  0.290430  1.0  0.3279
  O  O16  1  0.301800  0.730200  0.959900  1.0  -0.7071
  O  O17  1  0.278300  0.427000  0.959200  1.0  -0.9083
  O  O18  1  0.532500  0.565800  0.169100  1.0  -0.8217
  O  O19  1  0.269800  0.571600  0.293230  1.0  -0.7096
  O  O20  1  0.573000  0.851300  0.292530  1.0  -0.9051
  O  O21  1  0.434200  0.966700  0.502430  1.0  -0.8219
  O  O22  1  0.428400  0.698200  0.626570  1.0  -0.7081
  O  O23  1  0.148700  0.721700  0.625870  1.0  -0.9093
  O  O24  1  0.033300  0.467500  0.835770  1.0  -0.822
  O  O25  1  0.730200  0.301800  0.040100  1.0  -0.7074
  O  O26  1  0.427000  0.278300  0.040800  1.0  -0.9079
  O  O27  1  0.565800  0.532500  0.830900  1.0  -0.8217
  O  O28  1  0.571600  0.269800  0.706770  1.0  -0.7093
  O  O29  1  0.851300  0.573000  0.707470  1.0  -0.9098
  O  O30  1  0.966700  0.434200  0.497570  1.0  -0.8223
  O  O31  1  0.698200  0.428400  0.373430  1.0  -0.7092
  O  O32  1  0.721700  0.148700  0.374130  1.0  -0.906
  O  O33  1  0.467500  0.033300  0.164230  1.0  -0.8219
  F  F34  1  0.000000  0.318300  0.166670  1.0  -0.4921
  F  F35  1  0.000000  0.568600  0.166670  1.0  -0.5955
  F  F36  1  0.681700  0.681700  0.500000  1.0  -0.4926
  F  F37  1  0.431400  0.431400  0.500000  1.0  -0.5965
  F  F38  1  0.318300  0.000000  0.833330  1.0  -0.4905
  F  F39  1  0.568600  0.000000  0.833330  1.0  -0.5969
