# generated using pymatgen
data_Al2PH2(O3F)2
_symmetry_space_group_name_H-M   'P 1'
_cell_length_a   9.36200000
_cell_length_b   9.36200000
_cell_length_c   7.00400000
_cell_angle_alpha   90.00000000
_cell_angle_beta   90.00000000
_cell_angle_gamma   120.00000000
_symmetry_Int_Tables_number   1
_chemical_formula_structural   Al2PH2(O3F)2
_chemical_formula_sum   'Al6 P3 H6 O18 F6'
_cell_volume   531.63558496
_cell_formula_units_Z   3
loop_
 _symmetry_equiv_pos_site_id
 _symmetry_equiv_pos_as_xyz
  1  'x, y, z'
loop_
 _atom_site_type_symbol
 _atom_site_label
 _atom_site_symmetry_multiplicity
 _atom_site_fract_x
 _atom_site_fract_y
 _atom_site_fract_z
 _atom_site_occupancy
 _atom_site_charge
  Al  Al1  1  0.162000  0.520990  0.056330  1.0  1.799
  Al  Al2  1  0.479010  0.641010  0.389660  1.0  1.8044
  Al  Al3  1  0.358990  0.838000  0.723000  1.0  1.8015
  Al  Al4  1  0.520990  0.162000  0.943670  1.0  1.8009
  Al  Al5  1  0.641010  0.479010  0.610340  1.0  1.8026
  Al  Al6  1  0.838000  0.358990  0.277000  1.0  1.799
  P  P7  1  0.449340  0.449340  0.000000  1.0  1.7787
  P  P8  1  0.550660  0.000000  0.333333  1.0  1.7792
  P  P9  1  0.000000  0.550660  0.666667  1.0  1.7793
  H  H10  1  0.345700  0.812200  0.062100  1.0  0.3207
  H  H11  1  0.187800  0.533500  0.395430  1.0  0.3204
  H  H12  1  0.466500  0.654300  0.728770  1.0  0.3227
  H  H13  1  0.812200  0.345700  0.937900  1.0  0.3226
  H  H14  1  0.533500  0.187800  0.604570  1.0  0.3205
  H  H15  1  0.654300  0.466500  0.271230  1.0  0.3198
  O  O16  1  0.301500  0.730000  0.960200  1.0  -0.8221
  O  O17  1  0.278500  0.427200  0.959200  1.0  -0.8721
  O  O18  1  0.532800  0.565300  0.169400  1.0  -0.8076
  O  O19  1  0.270000  0.571500  0.293530  1.0  -0.823
  O  O20  1  0.572800  0.851300  0.292530  1.0  -0.8666
  O  O21  1  0.434700  0.967500  0.502730  1.0  -0.808
  O  O22  1  0.428500  0.698500  0.626870  1.0  -0.8228
  O  O23  1  0.148700  0.721500  0.625870  1.0  -0.8717
  O  O24  1  0.032500  0.467200  0.836070  1.0  -0.8083
  O  O25  1  0.730000  0.301500  0.039800  1.0  -0.8219
  O  O26  1  0.427200  0.278500  0.040800  1.0  -0.8708
  O  O27  1  0.565300  0.532800  0.830600  1.0  -0.8082
  O  O28  1  0.571500  0.270000  0.706470  1.0  -0.8213
  O  O29  1  0.851300  0.572800  0.707470  1.0  -0.8728
  O  O30  1  0.967500  0.434700  0.497270  1.0  -0.808
  O  O31  1  0.698500  0.428500  0.373130  1.0  -0.8216
  O  O32  1  0.721500  0.148700  0.374130  1.0  -0.8671
  O  O33  1  0.467200  0.032500  0.163930  1.0  -0.808
  F  F34  1  0.000000  0.317800  0.166670  1.0  -0.4837
  F  F35  1  0.000000  0.568600  0.166670  1.0  -0.5367
  F  F36  1  0.682200  0.682200  0.500000  1.0  -0.4853
  F  F37  1  0.431400  0.431400  0.500000  1.0  -0.5399
  F  F38  1  0.317800  0.000000  0.833330  1.0  -0.4838
  F  F39  1  0.568600  0.000000  0.833330  1.0  -0.54
