# generated using pymatgen
data_Al2PH2(O3F)2
_symmetry_space_group_name_H-M   'P 1'
_cell_length_a   9.34290000
_cell_length_b   9.34290000
_cell_length_c   6.99270000
_cell_angle_alpha   90.00000000
_cell_angle_beta   90.00000000
_cell_angle_gamma   120.00000000
_symmetry_Int_Tables_number   1
_chemical_formula_structural   Al2PH2(O3F)2
_chemical_formula_sum   'Al6 P3 H6 O18 F6'
_cell_volume   528.61432656
_cell_formula_units_Z   3
loop_
 _symmetry_equiv_pos_site_id
 _symmetry_equiv_pos_as_xyz
  1  'x, y, z'
loop_
 _atom_site_type_symbol
 _atom_site_label
 _atom_site_symmetry_multiplicity
 _atom_site_fract_x
 _atom_site_fract_y
 _atom_site_fract_z
 _atom_site_occupancy
 _atom_site_charge
  Al  Al1  1  0.478920  0.641050  0.889530  1.0  1.8175
  Al  Al2  1  0.358950  0.837870  0.222860  1.0  1.8205
  Al  Al3  1  0.162130  0.521080  0.556200  1.0  1.8183
  Al  Al4  1  0.641050  0.478920  0.110470  1.0  1.8149
  Al  Al5  1  0.837870  0.358950  0.777140  1.0  1.8188
  Al  Al6  1  0.521080  0.162130  0.443800  1.0  1.82
  P  P7  1  0.550670  0.000000  0.833330  1.0  1.7866
  P  P8  1  0.000000  0.550670  0.166670  1.0  1.7858
  P  P9  1  0.449330  0.449330  0.500000  1.0  1.7867
  H  H10  1  0.450600  0.646000  0.229500  1.0  0.3165
  H  H11  1  0.354000  0.804600  0.562830  1.0  0.3159
  H  H12  1  0.195400  0.549400  0.896170  1.0  0.3163
  H  H13  1  0.646000  0.450600  0.770500  1.0  0.3167
  H  H14  1  0.804600  0.354000  0.437170  1.0  0.3165
  H  H15  1  0.549400  0.195400  0.103830  1.0  0.316
  O  O16  1  0.428700  0.698500  0.126300  1.0  -0.8232
  O  O17  1  0.572900  0.851500  0.792500  1.0  -0.8583
  O  O18  1  0.434200  0.967100  0.002800  1.0  -0.846
  O  O19  1  0.301500  0.730200  0.459630  1.0  -0.823
  O  O20  1  0.148500  0.721400  0.125830  1.0  -0.8642
  O  O21  1  0.032900  0.467100  0.336130  1.0  -0.8451
  O  O22  1  0.269800  0.571300  0.792970  1.0  -0.8236
  O  O23  1  0.278600  0.427100  0.459170  1.0  -0.8615
  O  O24  1  0.532900  0.565800  0.669470  1.0  -0.8443
  O  O25  1  0.698500  0.428700  0.873700  1.0  -0.8215
  O  O26  1  0.851500  0.572900  0.207500  1.0  -0.8638
  O  O27  1  0.967100  0.434200  0.997200  1.0  -0.8444
  O  O28  1  0.730200  0.301500  0.540370  1.0  -0.8219
  O  O29  1  0.721400  0.148500  0.874170  1.0  -0.8585
  O  O30  1  0.467100  0.032900  0.663870  1.0  -0.8456
  O  O31  1  0.571300  0.269800  0.207030  1.0  -0.8222
  O  O32  1  0.427100  0.278600  0.540830  1.0  -0.8625
  O  O33  1  0.565800  0.532900  0.330530  1.0  -0.8441
  F  F34  1  0.682200  0.682200  0.000000  1.0  -0.4644
  F  F35  1  0.431800  0.431800  0.000000  1.0  -0.5341
  F  F36  1  0.317800  0.000000  0.333333  1.0  -0.4641
  F  F37  1  0.568200  0.000000  0.333333  1.0  -0.5349
  F  F38  1  0.000000  0.317800  0.666667  1.0  -0.4639
  F  F39  1  0.000000  0.568200  0.666667  1.0  -0.5317
