# generated using pymatgen
data_Yb2H2(C5O4)3
_symmetry_space_group_name_H-M   'P 1'
_cell_length_a   5.72520000
_cell_length_b   13.63370000
_cell_length_c   13.63370000
_cell_angle_alpha   99.50380000
_cell_angle_beta   91.77360000
_cell_angle_gamma   88.22640000
_symmetry_Int_Tables_number   1
_chemical_formula_structural   Yb2H2(C5O4)3
_chemical_formula_sum   'Yb4 H4 C30 O24'
_cell_volume   1048.71781493
_cell_formula_units_Z   2
loop_
 _symmetry_equiv_pos_site_id
 _symmetry_equiv_pos_as_xyz
  1  'x, y, z'
loop_
 _atom_site_type_symbol
 _atom_site_label
 _atom_site_symmetry_multiplicity
 _atom_site_fract_x
 _atom_site_fract_y
 _atom_site_fract_z
 _atom_site_occupancy
 _atom_site_charge
  Yb  Yb1  1  0.584340  0.375950  0.100330  1.0  1.5285
  Yb  Yb2  1  0.415660  0.100330  0.375950  1.0  1.5277
  Yb  Yb3  1  0.415660  0.624050  0.899670  1.0  1.5284
  Yb  Yb4  1  0.584340  0.899670  0.624050  1.0  1.5288
  H  H5  1  0.783100  0.622000  0.378000  1.0  0.123
  H  H6  1  0.382900  0.765300  0.234700  1.0  0.1299
  H  H7  1  0.216900  0.378000  0.622000  1.0  0.1221
  H  H8  1  0.617100  0.234700  0.765300  1.0  0.1295
  C  C9  1  0.994200  0.602600  0.260400  1.0  -0.0747
  C  C10  1  0.171700  0.644600  0.218000  1.0  -0.0302
  C  C11  1  0.872300  0.511900  0.206700  1.0  0.6196
  C  C12  1  0.279600  0.602700  0.118900  1.0  0.7303
  C  C13  1  0.788900  0.190300  0.084500  1.0  0.648
  C  C14  1  0.900600  0.090300  0.048100  1.0  -0.065
  C  C15  1  0.005800  0.260400  0.602600  1.0  -0.0722
  C  C16  1  0.828300  0.218000  0.644600  1.0  -0.0309
  C  C17  1  0.127700  0.206700  0.511900  1.0  0.6209
  C  C18  1  0.720400  0.118900  0.602700  1.0  0.7303
  C  C19  1  0.211100  0.084500  0.190300  1.0  0.6485
  C  C20  1  0.099400  0.048100  0.090300  1.0  -0.0652
  C  C21  1  0.005800  0.397400  0.739600  1.0  -0.0727
  C  C22  1  0.828300  0.355400  0.782000  1.0  -0.0307
  C  C23  1  0.127700  0.488100  0.793300  1.0  0.6188
  C  C24  1  0.720400  0.397300  0.881100  1.0  0.7315
  C  C25  1  0.211100  0.809700  0.915500  1.0  0.6492
  C  C26  1  0.099400  0.909700  0.951900  1.0  -0.0644
  C  C27  1  0.994200  0.739600  0.397400  1.0  -0.069
  C  C28  1  0.171700  0.782000  0.355400  1.0  -0.0305
  C  C29  1  0.872300  0.793300  0.488100  1.0  0.6213
  C  C30  1  0.279600  0.881100  0.397300  1.0  0.73
  C  C31  1  0.788900  0.915500  0.809700  1.0  0.6483
  C  C32  1  0.900600  0.951900  0.909700  1.0  -0.0669
  C  C33  1  0.905000  0.650300  0.349700  1.0  0.0092
  C  C34  1  0.264000  0.736100  0.263900  1.0  -0.0991
  C  C35  1  0.095000  0.349700  0.650300  1.0  0.0099
  C  C36  1  0.736000  0.263900  0.736100  1.0  -0.0992
  C  C37  1  0.807000  0.041600  0.958400  1.0  0.1183
  C  C38  1  0.193000  0.958400  0.041600  1.0  0.1168
  O  O39  1  0.751300  0.459700  0.253100  1.0  -0.5654
  O  O40  1  0.886700  0.492600  0.113000  1.0  -0.5198
  O  O41  1  0.395200  0.521900  0.113700  1.0  -0.6809
  O  O42  1  0.252200  0.652200  0.051600  1.0  -0.6011
  O  O43  1  0.905200  0.263900  0.129700  1.0  -0.5429
  O  O44  1  0.578600  0.203500  0.062100  1.0  -0.5826
  O  O45  1  0.248700  0.253100  0.459700  1.0  -0.5606
  O  O46  1  0.113300  0.113000  0.492600  1.0  -0.525
  O  O47  1  0.604800  0.113700  0.521900  1.0  -0.6814
  O  O48  1  0.747800  0.051600  0.652200  1.0  -0.6008
  O  O49  1  0.094800  0.129700  0.263900  1.0  -0.5509
  O  O50  1  0.421400  0.062100  0.203500  1.0  -0.5813
  O  O51  1  0.248700  0.540300  0.746900  1.0  -0.5616
  O  O52  1  0.113300  0.507400  0.887000  1.0  -0.5259
  O  O53  1  0.604800  0.478100  0.886300  1.0  -0.6827
  O  O54  1  0.747800  0.347800  0.948400  1.0  -0.6011
  O  O55  1  0.094800  0.736100  0.870300  1.0  -0.5462
  O  O56  1  0.421400  0.796500  0.937900  1.0  -0.5823
  O  O57  1  0.751300  0.746900  0.540300  1.0  -0.5633
  O  O58  1  0.886700  0.887000  0.507400  1.0  -0.5259
  O  O59  1  0.395200  0.886300  0.478100  1.0  -0.6802
  O  O60  1  0.252200  0.948400  0.347800  1.0  -0.602
  O  O61  1  0.905200  0.870300  0.736100  1.0  -0.5509
  O  O62  1  0.578600  0.937900  0.796500  1.0  -0.5833
