# generated using pymatgen
data_TbH3(C5O4)2
_symmetry_space_group_name_H-M   'P 1'
_cell_length_a   7.16800000
_cell_length_b   10.72300000
_cell_length_c   17.15500000
_cell_angle_alpha   97.07900000
_cell_angle_beta   90.00000000
_cell_angle_gamma   90.00000000
_symmetry_Int_Tables_number   1
_chemical_formula_structural   TbH3(C5O4)2
_chemical_formula_sum   'Tb4 H12 C40 O32'
_cell_volume   1308.52429717
_cell_formula_units_Z   4
loop_
 _symmetry_equiv_pos_site_id
 _symmetry_equiv_pos_as_xyz
  1  'x, y, z'
loop_
 _atom_site_type_symbol
 _atom_site_label
 _atom_site_symmetry_multiplicity
 _atom_site_fract_x
 _atom_site_fract_y
 _atom_site_fract_z
 _atom_site_occupancy
 _atom_site_charge
  Tb  Tb1  1  0.479740  0.675720  0.746730  1.0  2.28
  Tb  Tb2  1  0.979740  0.824280  0.753270  1.0  2.2821
  Tb  Tb3  1  0.520260  0.324280  0.253260  1.0  2.2801
  Tb  Tb4  1  0.020260  0.175720  0.246730  1.0  2.2807
  H  H5  1  0.670000  0.515000  0.477000  1.0  0.1177
  H  H6  1  0.344000  0.832000  0.551000  1.0  0.1182
  H  H7  1  0.037000  0.194000  0.562000  1.0  0.334
  H  H8  1  0.170000  0.985000  0.023000  1.0  0.1186
  H  H9  1  0.844000  0.668000  0.949000  1.0  0.1182
  H  H10  1  0.537000  0.306000  0.938000  1.0  0.3318
  H  H11  1  0.330000  0.485000  0.523000  1.0  0.1186
  H  H12  1  0.656000  0.168000  0.449000  1.0  0.1195
  H  H13  1  0.963000  0.806000  0.438000  1.0  0.3331
  H  H14  1  0.830000  0.015000  0.977000  1.0  0.1175
  H  H15  1  0.156000  0.332000  0.051000  1.0  0.1198
  H  H16  1  0.463000  0.694000  0.062000  1.0  0.335
  C  C17  1  0.747500  0.595600  0.625960  1.0  0.6889
  C  C18  1  0.882600  0.548000  0.561680  1.0  -0.1174
  C  C19  1  0.073900  0.542000  0.573020  1.0  -0.0239
  C  C20  1  0.173300  0.584200  0.648870  1.0  0.6924
  C  C21  1  0.809200  0.505600  0.488110  1.0  -0.117
  C  C22  1  0.647300  0.891600  0.634910  1.0  0.7429
  C  C23  1  0.659100  0.053700  0.536770  1.0  -0.0747
  C  C24  1  0.819900  0.121900  0.579270  1.0  0.6504
  C  C25  1  0.410200  0.901400  0.529630  1.0  -0.0712
  C  C26  1  0.571500  0.952800  0.566730  1.0  -0.0885
  C  C27  1  0.247500  0.904400  0.874040  1.0  0.6885
  C  C28  1  0.382600  0.952000  0.938320  1.0  -0.1176
  C  C29  1  0.573900  0.958000  0.926980  1.0  -0.0239
  C  C30  1  0.673300  0.915800  0.851130  1.0  0.6915
  C  C31  1  0.309200  0.994400  0.011890  1.0  -0.1177
  C  C32  1  0.147300  0.608400  0.865090  1.0  0.7431
  C  C33  1  0.159100  0.446300  0.963230  1.0  -0.0747
  C  C34  1  0.319900  0.378100  0.920730  1.0  0.6523
  C  C35  1  0.910200  0.598600  0.970370  1.0  -0.0705
  C  C36  1  0.071500  0.547200  0.933270  1.0  -0.0895
  C  C37  1  0.252500  0.404400  0.374040  1.0  0.6913
  C  C38  1  0.117400  0.452000  0.438320  1.0  -0.1166
  C  C39  1  0.926100  0.458000  0.426980  1.0  -0.0242
  C  C40  1  0.826700  0.415800  0.351130  1.0  0.6904
  C  C41  1  0.190800  0.494400  0.511890  1.0  -0.1152
  C  C42  1  0.352700  0.108400  0.365090  1.0  0.7441
  C  C43  1  0.340900  0.946300  0.463230  1.0  -0.0693
  C  C44  1  0.180100  0.878100  0.420730  1.0  0.6585
  C  C45  1  0.589800  0.098600  0.470370  1.0  -0.0691
  C  C46  1  0.428500  0.047200  0.433270  1.0  -0.0884
  C  C47  1  0.752500  0.095600  0.125960  1.0  0.6918
  C  C48  1  0.617400  0.048000  0.061680  1.0  -0.1176
  C  C49  1  0.426100  0.042000  0.073020  1.0  -0.0242
  C  C50  1  0.326700  0.084200  0.148870  1.0  0.6903
  C  C51  1  0.690800  0.005600  0.988110  1.0  -0.1147
  C  C52  1  0.852700  0.391600  0.134910  1.0  0.7438
  C  C53  1  0.840900  0.553700  0.036770  1.0  -0.0683
  C  C54  1  0.680100  0.621900  0.079270  1.0  0.6514
  C  C55  1  0.089800  0.401400  0.029630  1.0  -0.0695
  C  C56  1  0.928500  0.452800  0.066730  1.0  -0.0881
  O  O57  1  0.578000  0.584800  0.613550  1.0  -0.6199
  O  O58  1  0.810100  0.644400  0.692060  1.0  -0.7713
  O  O59  1  0.191300  0.703110  0.670640  1.0  -0.7908
  O  O60  1  0.253600  0.506330  0.684730  1.0  -0.5808
  O  O61  1  0.530800  0.845200  0.676850  1.0  -0.6801
  O  O62  1  0.821300  0.887770  0.643400  1.0  -0.7037
  O  O63  1  0.818900  0.153200  0.649920  1.0  -0.4912
  O  O64  1  0.954000  0.148800  0.532520  1.0  -0.5084
  O  O65  1  0.078000  0.915200  0.886450  1.0  -0.6199
  O  O66  1  0.310100  0.855600  0.807940  1.0  -0.77
  O  O67  1  0.691300  0.796890  0.829360  1.0  -0.7939
  O  O68  1  0.753600  0.993670  0.815270  1.0  -0.5799
  O  O69  1  0.030800  0.654800  0.823150  1.0  -0.6804
  O  O70  1  0.321300  0.612230  0.856600  1.0  -0.7092
  O  O71  1  0.318900  0.346800  0.850080  1.0  -0.4889
  O  O72  1  0.454000  0.351200  0.967480  1.0  -0.5092
  O  O73  1  0.422000  0.415200  0.386450  1.0  -0.6194
  O  O74  1  0.189900  0.355600  0.307940  1.0  -0.7691
  O  O75  1  0.808700  0.296890  0.329360  1.0  -0.7938
  O  O76  1  0.746400  0.493670  0.315270  1.0  -0.5798
  O  O77  1  0.469200  0.154800  0.323150  1.0  -0.6804
  O  O78  1  0.178700  0.112230  0.356600  1.0  -0.6949
  O  O79  1  0.181100  0.846800  0.350080  1.0  -0.4897
  O  O80  1  0.046000  0.851200  0.467480  1.0  -0.5098
  O  O81  1  0.922000  0.084800  0.113550  1.0  -0.6198
  O  O82  1  0.689900  0.144400  0.192060  1.0  -0.7706
  O  O83  1  0.308700  0.203110  0.170640  1.0  -0.7907
  O  O84  1  0.246400  0.006330  0.184730  1.0  -0.5774
  O  O85  1  0.969200  0.345200  0.176850  1.0  -0.6802
  O  O86  1  0.678700  0.387770  0.143400  1.0  -0.6916
  O  O87  1  0.681100  0.653200  0.149920  1.0  -0.4915
  O  O88  1  0.546000  0.648800  0.032520  1.0  -0.5089
