# generated using pymatgen
data_TbH2(C5O4)2
_symmetry_space_group_name_H-M   'P 1'
_cell_length_a   7.16930000
_cell_length_b   10.72460000
_cell_length_c   17.15800000
_cell_angle_alpha   97.10900000
_cell_angle_beta   90.00000000
_cell_angle_gamma   90.00000000
_symmetry_Int_Tables_number   1
_chemical_formula_structural   TbH2(C5O4)2
_chemical_formula_sum   'Tb4 H8 C40 O32'
_cell_volume   1309.10049508
_cell_formula_units_Z   4
loop_
 _symmetry_equiv_pos_site_id
 _symmetry_equiv_pos_as_xyz
  1  'x, y, z'
loop_
 _atom_site_type_symbol
 _atom_site_label
 _atom_site_symmetry_multiplicity
 _atom_site_fract_x
 _atom_site_fract_y
 _atom_site_fract_z
 _atom_site_occupancy
 _atom_site_charge
  Tb  Tb1  1  0.479950  0.824290  0.253270  1.0  2.2885
  Tb  Tb2  1  0.979950  0.675710  0.246730  1.0  2.2839
  Tb  Tb3  1  0.520050  0.175710  0.746730  1.0  2.2892
  Tb  Tb4  1  0.020050  0.324290  0.753270  1.0  2.2844
  H  H5  1  0.684500  0.990100  0.518800  1.0  0.1197
  H  H6  1  0.350200  0.664500  0.450400  1.0  0.1262
  H  H7  1  0.184500  0.509900  0.981200  1.0  0.1201
  H  H8  1  0.850200  0.835500  0.049600  1.0  0.1262
  H  H9  1  0.315500  0.009900  0.481200  1.0  0.1194
  H  H10  1  0.649800  0.335500  0.549600  1.0  0.1266
  H  H11  1  0.815500  0.490100  0.018800  1.0  0.1193
  H  H12  1  0.149800  0.164500  0.950400  1.0  0.1263
  C  C13  1  0.812700  0.993100  0.511100  1.0  -0.0805
  C  C14  1  0.882000  0.950500  0.437800  1.0  -0.1047
  C  C15  1  0.075800  0.959400  0.425900  1.0  -0.0556
  C  C16  1  0.748500  0.904900  0.373300  1.0  0.7139
  C  C17  1  0.172400  0.914000  0.351200  1.0  0.6873
  C  C18  1  0.410800  0.598400  0.470100  1.0  -0.0286
  C  C19  1  0.571700  0.548000  0.432300  1.0  -0.1002
  C  C20  1  0.661100  0.446900  0.463900  1.0  -0.0577
  C  C21  1  0.647500  0.610900  0.364100  1.0  0.7325
  C  C22  1  0.819400  0.379700  0.422200  1.0  0.7091
  C  C23  1  0.312700  0.506900  0.988900  1.0  -0.0801
  C  C24  1  0.382000  0.549500  0.062200  1.0  -0.1044
  C  C25  1  0.575800  0.540600  0.074100  1.0  -0.0557
  C  C26  1  0.248500  0.595100  0.126700  1.0  0.7145
  C  C27  1  0.672400  0.586000  0.148800  1.0  0.6876
  C  C28  1  0.910800  0.901600  0.029900  1.0  -0.0283
  C  C29  1  0.071700  0.952000  0.067700  1.0  -0.1005
  C  C30  1  0.161100  0.053100  0.036100  1.0  -0.0583
  C  C31  1  0.147500  0.889100  0.135900  1.0  0.7315
  C  C32  1  0.319400  0.120300  0.077800  1.0  0.7088
  C  C33  1  0.187300  0.006900  0.488900  1.0  -0.0797
  C  C34  1  0.118000  0.049500  0.562200  1.0  -0.1051
  C  C35  1  0.924200  0.040600  0.574100  1.0  -0.056
  C  C36  1  0.251500  0.095100  0.626700  1.0  0.7137
  C  C37  1  0.827600  0.086000  0.648800  1.0  0.6882
  C  C38  1  0.589200  0.401600  0.529900  1.0  -0.0273
  C  C39  1  0.428300  0.452000  0.567700  1.0  -0.1001
  C  C40  1  0.338900  0.553100  0.536100  1.0  -0.058
  C  C41  1  0.352500  0.389100  0.635900  1.0  0.7315
  C  C42  1  0.180600  0.620300  0.577800  1.0  0.7072
  C  C43  1  0.687300  0.493100  0.011100  1.0  -0.0802
  C  C44  1  0.618000  0.450500  0.937800  1.0  -0.1047
  C  C45  1  0.424200  0.459400  0.925900  1.0  -0.056
  C  C46  1  0.751500  0.404900  0.873300  1.0  0.7127
  C  C47  1  0.327600  0.414000  0.851200  1.0  0.6881
  C  C48  1  0.089200  0.098400  0.970100  1.0  -0.0277
  C  C49  1  0.928300  0.048000  0.932300  1.0  -0.1002
  C  C50  1  0.838900  0.946900  0.963900  1.0  -0.0577
  C  C51  1  0.852500  0.110900  0.864100  1.0  0.7323
  C  C52  1  0.680600  0.879700  0.922200  1.0  0.7101
  O  O53  1  0.576100  0.916400  0.386100  1.0  -0.6519
  O  O54  1  0.809600  0.853500  0.308300  1.0  -0.7355
  O  O55  1  0.192000  0.794900  0.329900  1.0  -0.7231
  O  O56  1  0.252100  0.993800  0.315000  1.0  -0.58
  O  O57  1  0.528800  0.654800  0.323700  1.0  -0.6341
  O  O58  1  0.821200  0.613900  0.356800  1.0  -0.6489
  O  O59  1  0.819400  0.348000  0.350500  1.0  -0.4782
  O  O60  1  0.956000  0.349700  0.467700  1.0  -0.4972
  O  O61  1  0.076100  0.583600  0.113900  1.0  -0.6525
  O  O62  1  0.309600  0.646500  0.191700  1.0  -0.7369
  O  O63  1  0.692000  0.705100  0.170100  1.0  -0.7218
  O  O64  1  0.752100  0.506200  0.185000  1.0  -0.5785
  O  O65  1  0.028800  0.845200  0.176300  1.0  -0.6339
  O  O66  1  0.321200  0.886100  0.143200  1.0  -0.6482
  O  O67  1  0.319400  0.152000  0.149500  1.0  -0.4789
  O  O68  1  0.456000  0.150300  0.032300  1.0  -0.4959
  O  O69  1  0.423900  0.083600  0.613900  1.0  -0.6521
  O  O70  1  0.190400  0.146500  0.691700  1.0  -0.7369
  O  O71  1  0.808000  0.205100  0.670100  1.0  -0.722
  O  O72  1  0.747900  0.006200  0.685000  1.0  -0.5787
  O  O73  1  0.471200  0.345200  0.676300  1.0  -0.6333
  O  O74  1  0.178800  0.386100  0.643200  1.0  -0.6484
  O  O75  1  0.180600  0.652000  0.649500  1.0  -0.4793
  O  O76  1  0.044000  0.650300  0.532300  1.0  -0.496
  O  O77  1  0.923900  0.416400  0.886100  1.0  -0.652
  O  O78  1  0.690400  0.353500  0.808300  1.0  -0.7354
  O  O79  1  0.308000  0.294900  0.829900  1.0  -0.7233
  O  O80  1  0.247900  0.493800  0.815000  1.0  -0.5801
  O  O81  1  0.971200  0.154800  0.823700  1.0  -0.6337
  O  O82  1  0.678800  0.113900  0.856800  1.0  -0.6491
  O  O83  1  0.680600  0.848000  0.850500  1.0  -0.4785
  O  O84  1  0.544000  0.849700  0.967700  1.0  -0.4971
