# generated using pymatgen
data_Er2H3(C5O4)3
_symmetry_space_group_name_H-M   'P 1'
_cell_length_a   9.67390000
_cell_length_b   11.00390000
_cell_length_c   11.55230000
_cell_angle_alpha   104.83300000
_cell_angle_beta   91.00000000
_cell_angle_gamma   114.25700000
_symmetry_Int_Tables_number   1
_chemical_formula_structural   Er2H3(C5O4)3
_chemical_formula_sum   'Er4 H6 C30 O24'
_cell_volume   1073.27310461
_cell_formula_units_Z   2
loop_
 _symmetry_equiv_pos_site_id
 _symmetry_equiv_pos_as_xyz
  1  'x, y, z'
loop_
 _atom_site_type_symbol
 _atom_site_label
 _atom_site_symmetry_multiplicity
 _atom_site_fract_x
 _atom_site_fract_y
 _atom_site_fract_z
 _atom_site_occupancy
 _atom_site_charge
  Er  Er1  1  0.492270  0.992760  0.253530  1.0  1.5543
  Er  Er2  1  0.516860  0.424470  0.329990  1.0  1.5636
  Er  Er3  1  0.507730  0.007240  0.746470  1.0  1.5554
  Er  Er4  1  0.483140  0.575530  0.670010  1.0  1.5656
  H  H5  1  0.993000  0.316500  0.344700  1.0  0.1202
  H  H6  1  0.089800  0.202200  0.159300  1.0  0.117
  H  H7  1  0.012600  0.217800  0.591000  1.0  0.1225
  H  H8  1  0.007000  0.683500  0.655300  1.0  0.1195
  H  H9  1  0.910200  0.797800  0.840700  1.0  0.117
  H  H10  1  0.987400  0.782200  0.409000  1.0  0.1224
  C  C11  1  0.717500  0.250200  0.393100  1.0  0.7063
  C  C12  1  0.859200  0.382300  0.450100  1.0  -0.0532
  C  C13  1  0.995300  0.390300  0.407200  1.0  -0.0542
  C  C14  1  0.865600  0.494800  0.545300  1.0  -0.0687
  C  C15  1  0.728100  0.498200  0.600900  1.0  0.7158
  C  C16  1  0.314100  0.129300  0.111800  1.0  0.739
  C  C17  1  0.152900  0.064400  0.050900  1.0  -0.0736
  C  C18  1  0.053400  0.120800  0.095300  1.0  -0.0145
  C  C19  1  0.098900  0.941600  0.954000  1.0  -0.0294
  C  C20  1  0.209600  0.887100  0.897200  1.0  0.6862
  C  C21  1  0.258500  0.253600  0.491100  1.0  0.7135
  C  C22  1  0.126600  0.119300  0.496400  1.0  -0.0813
  C  C23  1  0.007700  0.130100  0.554100  1.0  -0.0148
  C  C24  1  0.120300  0.988000  0.441700  1.0  -0.0302
  C  C25  1  0.249600  0.970100  0.382400  1.0  0.6368
  C  C26  1  0.282500  0.749800  0.606900  1.0  0.7063
  C  C27  1  0.140800  0.617700  0.549900  1.0  -0.0519
  C  C28  1  0.004700  0.609700  0.592800  1.0  -0.0545
  C  C29  1  0.134400  0.505200  0.454700  1.0  -0.069
  C  C30  1  0.271900  0.501800  0.399100  1.0  0.7147
  C  C31  1  0.685900  0.870700  0.888200  1.0  0.742
  C  C32  1  0.847100  0.935600  0.949100  1.0  -0.0675
  C  C33  1  0.946600  0.879200  0.904700  1.0  -0.0146
  C  C34  1  0.901100  0.058400  0.046000  1.0  -0.029
  C  C35  1  0.790400  0.112900  0.102800  1.0  0.6861
  C  C36  1  0.741500  0.746400  0.508900  1.0  0.7144
  C  C37  1  0.873400  0.880700  0.503600  1.0  -0.0831
  C  C38  1  0.992300  0.869900  0.445900  1.0  -0.0148
  C  C39  1  0.879700  0.012000  0.558300  1.0  -0.0305
  C  C40  1  0.750400  0.029900  0.617600  1.0  0.6365
  O  O41  1  0.717200  0.138800  0.398500  1.0  -0.5685
  O  O42  1  0.605600  0.251000  0.333200  1.0  -0.6988
  O  O43  1  0.598800  0.446700  0.533600  1.0  -0.6985
  O  O44  1  0.742200  0.558400  0.709700  1.0  -0.5666
  O  O45  1  0.371300  0.050200  0.126500  1.0  -0.6285
  O  O46  1  0.383600  0.261200  0.149400  1.0  -0.6364
  O  O47  1  0.318800  0.971000  0.859900  1.0  -0.6731
  O  O48  1  0.183200  0.763700  0.886800  1.0  -0.4445
  O  O49  1  0.295400  0.353500  0.587600  1.0  -0.6645
  O  O50  1  0.313700  0.258200  0.394700  1.0  -0.5768
  O  O51  1  0.387700  0.048100  0.432000  1.0  -0.5493
  O  O52  1  0.223600  0.879700  0.283000  1.0  -0.5554
  O  O53  1  0.282800  0.861200  0.601500  1.0  -0.5693
  O  O54  1  0.394400  0.749000  0.666800  1.0  -0.6996
  O  O55  1  0.401200  0.553300  0.466400  1.0  -0.699
  O  O56  1  0.257800  0.441600  0.290300  1.0  -0.5488
  O  O57  1  0.628700  0.949800  0.873500  1.0  -0.6288
  O  O58  1  0.616400  0.738800  0.850600  1.0  -0.6365
  O  O59  1  0.681200  0.029000  0.140100  1.0  -0.6705
  O  O60  1  0.816800  0.236300  0.113200  1.0  -0.4494
  O  O61  1  0.704600  0.646500  0.412400  1.0  -0.6728
  O  O62  1  0.686300  0.741800  0.605300  1.0  -0.5781
  O  O63  1  0.612300  0.951900  0.568000  1.0  -0.5482
  O  O64  1  0.776400  0.120300  0.717000  1.0  -0.5584
