# generated using pymatgen
data_Cd3H24C33NO18
_symmetry_space_group_name_H-M   'P 1'
_cell_length_a   10.24300000
_cell_length_b   17.97100000
_cell_length_c   36.48500000
_cell_angle_alpha   90.00000000
_cell_angle_beta   90.00000000
_cell_angle_gamma   99.75300000
_symmetry_Int_Tables_number   1
_chemical_formula_structural   Cd3H24C33NO18
_chemical_formula_sum   'Cd12 H96 C132 N4 O72'
_cell_volume   6618.98187380
_cell_formula_units_Z   4
loop_
 _symmetry_equiv_pos_site_id
 _symmetry_equiv_pos_as_xyz
  1  'x, y, z'
loop_
 _atom_site_type_symbol
 _atom_site_label
 _atom_site_symmetry_multiplicity
 _atom_site_fract_x
 _atom_site_fract_y
 _atom_site_fract_z
 _atom_site_occupancy
 _atom_site_charge
  Cd  Cd1  1  0.374500  0.552700  0.969390  1.0  1.0861
  Cd  Cd2  1  0.157810  0.004190  0.995200  1.0  1.0753
  Cd  Cd3  1  0.475080  0.153010  0.796920  1.0  1.0597
  Cd  Cd4  1  0.625500  0.947300  0.469390  1.0  1.0857
  Cd  Cd5  1  0.842190  0.495810  0.495200  1.0  1.0736
  Cd  Cd6  1  0.524920  0.346990  0.296920  1.0  1.0588
  Cd  Cd7  1  0.625500  0.447300  0.030610  1.0  1.0876
  Cd  Cd8  1  0.842190  0.995810  0.004800  1.0  1.0742
  Cd  Cd9  1  0.524920  0.846990  0.203080  1.0  1.0575
  Cd  Cd10  1  0.374500  0.052700  0.530610  1.0  1.0872
  Cd  Cd11  1  0.157810  0.504190  0.504800  1.0  1.0761
  Cd  Cd12  1  0.475080  0.653010  0.703080  1.0  1.0585
  H  H13  1  0.262800  0.258200  0.011700  1.0  0.125
  H  H14  1  0.869700  0.244900  0.016900  1.0  0.1228
  H  H15  1  0.106400  0.445600  0.021800  1.0  0.1306
  H  H16  1  0.421300  0.378500  0.874900  1.0  0.1227
  H  H17  1  0.484200  0.416200  0.767800  1.0  0.1383
  H  H18  1  0.423800  0.584700  0.834100  1.0  0.1362
  H  H19  1  0.754500  0.067700  0.887400  1.0  0.1345
  H  H20  1  0.144500  0.064800  0.882100  1.0  0.1186
  H  H21  1  0.969800  0.149900  0.798500  1.0  0.1429
  H  H22  1  0.737200  0.241800  0.511700  1.0  0.1248
  H  H23  1  0.130300  0.255100  0.516900  1.0  0.1233
  H  H24  1  0.893600  0.054400  0.521800  1.0  0.1306
  H  H25  1  0.578700  0.121500  0.374900  1.0  0.1227
  H  H26  1  0.515800  0.083800  0.267800  1.0  0.1383
  H  H27  1  0.576200  0.915300  0.334100  1.0  0.1371
  H  H28  1  0.245500  0.432300  0.387400  1.0  0.134
  H  H29  1  0.855500  0.435200  0.382100  1.0  0.1183
  H  H30  1  0.030200  0.350100  0.298500  1.0  0.143
  H  H31  1  0.737200  0.741800  0.988300  1.0  0.1239
  H  H32  1  0.130300  0.755100  0.983100  1.0  0.123
  H  H33  1  0.893600  0.554400  0.978200  1.0  0.1304
  H  H34  1  0.578700  0.621500  0.125100  1.0  0.1228
  H  H35  1  0.515800  0.583800  0.232200  1.0  0.1388
  H  H36  1  0.576200  0.415300  0.165900  1.0  0.1373
  H  H37  1  0.245500  0.932300  0.112600  1.0  0.1339
  H  H38  1  0.855500  0.935200  0.117900  1.0  0.1185
  H  H39  1  0.030200  0.850100  0.201500  1.0  0.1448
  H  H40  1  0.262800  0.758200  0.488300  1.0  0.1239
  H  H41  1  0.869700  0.744900  0.483100  1.0  0.1225
  H  H42  1  0.106400  0.945600  0.478200  1.0  0.1308
  H  H43  1  0.421300  0.878500  0.625100  1.0  0.1237
  H  H44  1  0.484200  0.916200  0.732200  1.0  0.1386
  H  H45  1  0.423800  0.084700  0.665900  1.0  0.1367
  H  H46  1  0.754500  0.567700  0.612600  1.0  0.1345
  H  H47  1  0.144500  0.564800  0.617900  1.0  0.1184
  H  H48  1  0.969800  0.649900  0.701500  1.0  0.1444
  H  H49  1  0.496000  0.357600  0.936400  1.0  0.121
  H  H50  1  0.585700  0.319000  0.962400  1.0  0.1191
  H  H51  1  0.692400  0.418900  0.938400  1.0  0.1335
  H  H52  1  0.658900  0.386100  0.899000  1.0  0.1351
  H  H53  1  0.748900  0.347600  0.925200  1.0  0.1255
  H  H54  1  0.702500  0.235500  0.902500  1.0  0.1058
  H  H55  1  0.594300  0.162400  0.900600  1.0  0.1043
  H  H56  1  0.731700  0.152500  0.953500  1.0  0.1337
  H  H57  1  0.589100  0.158100  0.967600  1.0  0.1273
  H  H58  1  0.701100  0.229300  0.968800  1.0  0.1192
  H  H59  1  0.381100  0.157200  0.919300  1.0  0.1479
  H  H60  1  0.392400  0.203200  0.955700  1.0  0.14
  H  H61  1  0.180700  0.202100  0.929000  1.0  0.1314
  H  H62  1  0.246400  0.241500  0.893600  1.0  0.1484
  H  H63  1  0.255400  0.285700  0.930800  1.0  0.1341
  H  H64  1  0.504000  0.142400  0.436400  1.0  0.1262
  H  H65  1  0.414300  0.181000  0.462400  1.0  0.119
  H  H66  1  0.307600  0.081100  0.438400  1.0  0.1336
  H  H67  1  0.341100  0.113900  0.399000  1.0  0.1331
  H  H68  1  0.251100  0.152400  0.425200  1.0  0.1259
  H  H69  1  0.297500  0.264500  0.402500  1.0  0.1045
  H  H70  1  0.405700  0.337600  0.400600  1.0  0.1048
  H  H71  1  0.268300  0.347500  0.453500  1.0  0.1331
  H  H72  1  0.410900  0.341900  0.467600  1.0  0.1256
  H  H73  1  0.298900  0.270700  0.468800  1.0  0.1188
  H  H74  1  0.618900  0.342800  0.419300  1.0  0.1504
  H  H75  1  0.607600  0.296800  0.455700  1.0  0.1405
  H  H76  1  0.819300  0.297900  0.429000  1.0  0.1317
  H  H77  1  0.753600  0.258500  0.393600  1.0  0.1491
  H  H78  1  0.744600  0.214300  0.430800  1.0  0.1355
  H  H79  1  0.504000  0.642400  0.063600  1.0  0.1263
  H  H80  1  0.414300  0.681000  0.037600  1.0  0.1189
  H  H81  1  0.307600  0.581100  0.061600  1.0  0.1334
  H  H82  1  0.341100  0.613900  0.101000  1.0  0.1338
  H  H83  1  0.251100  0.652400  0.074800  1.0  0.1262
  H  H84  1  0.297500  0.764500  0.097500  1.0  0.1041
  H  H85  1  0.405700  0.837600  0.099400  1.0  0.1037
  H  H86  1  0.268300  0.847500  0.046500  1.0  0.1333
  H  H87  1  0.410900  0.841900  0.032400  1.0  0.1258
  H  H88  1  0.298900  0.770700  0.031200  1.0  0.1199
  H  H89  1  0.618900  0.842800  0.080700  1.0  0.1503
  H  H90  1  0.607600  0.796800  0.044300  1.0  0.141
  H  H91  1  0.819300  0.797900  0.071000  1.0  0.1314
  H  H92  1  0.753600  0.758500  0.106400  1.0  0.1477
  H  H93  1  0.744600  0.714300  0.069200  1.0  0.1349
  H  H94  1  0.496000  0.857600  0.563600  1.0  0.1215
  H  H95  1  0.585700  0.819000  0.537600  1.0  0.1199
  H  H96  1  0.692400  0.918900  0.561600  1.0  0.1334
  H  H97  1  0.658900  0.886100  0.601000  1.0  0.1338
  H  H98  1  0.748900  0.847600  0.574800  1.0  0.1245
  H  H99  1  0.702500  0.735500  0.597500  1.0  0.1053
  H  H100  1  0.594300  0.662400  0.599400  1.0  0.105
  H  H101  1  0.731700  0.652500  0.546500  1.0  0.1341
  H  H102  1  0.589100  0.658100  0.532400  1.0  0.1256
  H  H103  1  0.701100  0.729300  0.531200  1.0  0.121
  H  H104  1  0.381100  0.657200  0.580700  1.0  0.1488
  H  H105  1  0.392400  0.703200  0.544300  1.0  0.1393
  H  H106  1  0.180700  0.702100  0.571000  1.0  0.1312
  H  H107  1  0.246400  0.741500  0.606400  1.0  0.1477
  H  H108  1  0.255400  0.785700  0.569200  1.0  0.1347
  C  C109  1  0.342300  0.404500  0.017460  1.0  0.7107
  C  C110  1  0.204900  0.358700  0.016900  1.0  -0.1426
  C  C111  1  0.188500  0.281400  0.013420  1.0  0.0094
  C  C112  1  0.064700  0.238000  0.012420  1.0  -0.1516
  C  C113  1  0.047400  0.153200  0.009570  1.0  0.781
  C  C114  1  0.954200  0.273700  0.016400  1.0  0.0241
  C  C115  1  0.969300  0.350500  0.019620  1.0  -0.1405
  C  C116  1  0.849300  0.387400  0.023840  1.0  0.7449
  C  C117  1  0.095800  0.393300  0.019760  1.0  0.0225
  C  C118  1  0.401900  0.513300  0.898100  1.0  0.719
  C  C119  1  0.421400  0.485100  0.860800  1.0  -0.1232
  C  C120  1  0.431700  0.411500  0.855020  1.0  -0.0063
  C  C121  1  0.457200  0.383400  0.820520  1.0  -0.1429
  C  C122  1  0.473800  0.303200  0.815480  1.0  0.75
  C  C123  1  0.467100  0.433300  0.791040  1.0  0.0561
  C  C124  1  0.451800  0.508600  0.795720  1.0  -0.1436
  C  C125  1  0.459200  0.559600  0.763300  1.0  0.7284
  C  C126  1  0.431200  0.534300  0.830570  1.0  0.0188
  C  C127  1  0.717600  0.128400  0.822700  1.0  0.734
  C  C128  1  0.840200  0.109200  0.840210  1.0  -0.1137
  C  C129  1  0.834700  0.077700  0.874840  1.0  0.032
  C  C130  1  0.948400  0.061100  0.890700  1.0  -0.1307
  C  C131  1  0.942800  0.030500  0.929400  1.0  0.7316
  C  C132  1  0.067900  0.076200  0.871400  1.0  0.0097
  C  C133  1  0.074200  0.106700  0.837900  1.0  -0.0978
  C  C134  1  0.209500  0.121800  0.819500  1.0  0.7568
  C  C135  1  0.963900  0.126300  0.821300  1.0  0.0032
  C  C136  1  0.657700  0.095500  0.517460  1.0  0.7091
  C  C137  1  0.795100  0.141300  0.516900  1.0  -0.1425
  C  C138  1  0.811500  0.218600  0.513420  1.0  0.0072
  C  C139  1  0.935300  0.262000  0.512420  1.0  -0.152
  C  C140  1  0.952600  0.346800  0.509570  1.0  0.7809
  C  C141  1  0.045800  0.226300  0.516400  1.0  0.0246
  C  C142  1  0.030700  0.149500  0.519620  1.0  -0.1395
  C  C143  1  0.150700  0.112600  0.523840  1.0  0.7456
  C  C144  1  0.904200  0.106700  0.519760  1.0  0.0243
  C  C145  1  0.598100  0.986700  0.398100  1.0  0.7178
  C  C146  1  0.578600  0.014900  0.360800  1.0  -0.1249
  C  C147  1  0.568300  0.088500  0.355020  1.0  -0.0054
  C  C148  1  0.542800  0.116600  0.320520  1.0  -0.1418
  C  C149  1  0.526200  0.196800  0.315480  1.0  0.7507
  C  C150  1  0.532900  0.066700  0.291040  1.0  0.0572
  C  C151  1  0.548200  0.991400  0.295720  1.0  -0.1436
  C  C152  1  0.540800  0.940400  0.263300  1.0  0.7289
  C  C153  1  0.568800  0.965700  0.330570  1.0  0.0172
  C  C154  1  0.282400  0.371600  0.322700  1.0  0.7332
  C  C155  1  0.159800  0.390800  0.340210  1.0  -0.1139
  C  C156  1  0.165300  0.422300  0.374840  1.0  0.0326
  C  C157  1  0.051600  0.438900  0.390700  1.0  -0.1295
  C  C158  1  0.057200  0.469500  0.429400  1.0  0.7303
  C  C159  1  0.932100  0.423800  0.371400  1.0  0.007
  C  C160  1  0.925800  0.393300  0.337900  1.0  -0.0983
  C  C161  1  0.790500  0.378200  0.319500  1.0  0.756
  C  C162  1  0.036100  0.373700  0.321300  1.0  0.0031
  C  C163  1  0.657700  0.595500  0.982540  1.0  0.7107
  C  C164  1  0.795100  0.641300  0.983100  1.0  -0.1438
  C  C165  1  0.811500  0.718600  0.986580  1.0  0.0081
  C  C166  1  0.935300  0.762000  0.987580  1.0  -0.152
  C  C167  1  0.952600  0.846800  0.990430  1.0  0.7814
  C  C168  1  0.045800  0.726300  0.983600  1.0  0.0243
  C  C169  1  0.030700  0.649500  0.980380  1.0  -0.1409
  C  C170  1  0.150700  0.612600  0.976160  1.0  0.7444
  C  C171  1  0.904200  0.606700  0.980240  1.0  0.024
  C  C172  1  0.598100  0.486700  0.101900  1.0  0.7167
  C  C173  1  0.578600  0.514900  0.139200  1.0  -0.1245
  C  C174  1  0.568300  0.588500  0.144980  1.0  -0.0067
  C  C175  1  0.542800  0.616600  0.179480  1.0  -0.1436
  C  C176  1  0.526200  0.696800  0.184520  1.0  0.7495
  C  C177  1  0.532900  0.566700  0.208960  1.0  0.0556
  C  C178  1  0.548200  0.491400  0.204280  1.0  -0.1429
  C  C179  1  0.540800  0.440400  0.236700  1.0  0.7282
  C  C180  1  0.568800  0.465700  0.169430  1.0  0.0173
  C  C181  1  0.282400  0.871600  0.177300  1.0  0.7327
  C  C182  1  0.159800  0.890800  0.159790  1.0  -0.1129
  C  C183  1  0.165300  0.922300  0.125160  1.0  0.0317
  C  C184  1  0.051600  0.938900  0.109300  1.0  -0.1292
  C  C185  1  0.057200  0.969500  0.070600  1.0  0.7316
  C  C186  1  0.932100  0.923800  0.128600  1.0  0.0071
  C  C187  1  0.925800  0.893300  0.162100  1.0  -0.0958
  C  C188  1  0.790500  0.878200  0.180500  1.0  0.7555
  C  C189  1  0.036100  0.873700  0.178700  1.0  0.0055
  C  C190  1  0.342300  0.904500  0.482540  1.0  0.7115
  C  C191  1  0.204900  0.858700  0.483100  1.0  -0.1422
  C  C192  1  0.188500  0.781400  0.486580  1.0  0.0082
  C  C193  1  0.064700  0.738000  0.487580  1.0  -0.153
  C  C194  1  0.047400  0.653200  0.490430  1.0  0.781
  C  C195  1  0.954200  0.773700  0.483600  1.0  0.024
  C  C196  1  0.969300  0.850500  0.480380  1.0  -0.1413
  C  C197  1  0.849300  0.887400  0.476160  1.0  0.746
  C  C198  1  0.095800  0.893300  0.480240  1.0  0.0207
  C  C199  1  0.401900  0.013300  0.601900  1.0  0.7183
  C  C200  1  0.421400  0.985100  0.639200  1.0  -0.1238
  C  C201  1  0.431700  0.911500  0.644980  1.0  -0.0075
  C  C202  1  0.457200  0.883400  0.679480  1.0  -0.143
  C  C203  1  0.473800  0.803200  0.684520  1.0  0.7506
  C  C204  1  0.467100  0.933300  0.708960  1.0  0.0571
  C  C205  1  0.451800  0.008600  0.704280  1.0  -0.1429
  C  C206  1  0.459200  0.059600  0.736700  1.0  0.7273
  C  C207  1  0.431200  0.034300  0.669430  1.0  0.0185
  C  C208  1  0.717600  0.628400  0.677300  1.0  0.7333
  C  C209  1  0.840200  0.609200  0.659790  1.0  -0.1126
  C  C210  1  0.834700  0.577700  0.625160  1.0  0.0312
  C  C211  1  0.948400  0.561100  0.609300  1.0  -0.1309
  C  C212  1  0.942800  0.530500  0.570600  1.0  0.7322
  C  C213  1  0.067900  0.576200  0.628600  1.0  0.0093
  C  C214  1  0.074200  0.606700  0.662100  1.0  -0.0959
  C  C215  1  0.209500  0.621800  0.680500  1.0  0.758
  C  C216  1  0.963900  0.626300  0.678700  1.0  0.0049
  C  C217  1  0.569200  0.329800  0.937000  1.0  0.0367
  C  C218  1  0.674400  0.373500  0.924000  1.0  -0.3394
  C  C219  1  0.625400  0.207700  0.914800  1.0  0.0425
  C  C220  1  0.665900  0.184600  0.955200  1.0  -0.3015
  C  C221  1  0.388600  0.207800  0.929200  1.0  -0.0468
  C  C222  1  0.255000  0.237200  0.919700  1.0  -0.2687
  C  C223  1  0.430800  0.170200  0.437000  1.0  0.0386
  C  C224  1  0.325600  0.126500  0.424000  1.0  -0.3391
  C  C225  1  0.374600  0.292300  0.414800  1.0  0.0432
  C  C226  1  0.334100  0.315400  0.455200  1.0  -0.3016
  C  C227  1  0.611400  0.292200  0.429200  1.0  -0.0489
  C  C228  1  0.745000  0.262800  0.419700  1.0  -0.268
  C  C229  1  0.430800  0.670200  0.063000  1.0  0.0398
  C  C230  1  0.325600  0.626500  0.076000  1.0  -0.339
  C  C231  1  0.374600  0.792300  0.085200  1.0  0.0427
  C  C232  1  0.334100  0.815400  0.044800  1.0  -0.3003
  C  C233  1  0.611400  0.792200  0.070800  1.0  -0.0492
  C  C234  1  0.745000  0.762800  0.080300  1.0  -0.2678
  C  C235  1  0.569200  0.829800  0.563000  1.0  0.0375
  C  C236  1  0.674400  0.873500  0.576000  1.0  -0.3376
  C  C237  1  0.625400  0.707700  0.585200  1.0  0.0419
  C  C238  1  0.665900  0.684600  0.544800  1.0  -0.3011
  C  C239  1  0.388600  0.707800  0.570800  1.0  -0.0481
  C  C240  1  0.255000  0.737200  0.580300  1.0  -0.2688
  N  N241  1  0.524900  0.252600  0.916500  1.0  -0.186
  N  N242  1  0.475100  0.247400  0.416500  1.0  -0.1876
  N  N243  1  0.475100  0.747400  0.083500  1.0  -0.1858
  N  N244  1  0.524900  0.752600  0.583500  1.0  -0.1844
  O  O245  1  0.356200  0.474930  0.018150  1.0  -0.6595
  O  O246  1  0.437800  0.369300  0.018700  1.0  -0.5819
  O  O247  1  0.386700  0.466300  0.924380  1.0  -0.591
  O  O248  1  0.400000  0.581100  0.904010  1.0  -0.5799
  O  O249  1  0.150700  0.125700  0.004600  1.0  -0.6021
  O  O250  1  0.931700  0.117900  0.010940  1.0  -0.6437
  O  O251  1  0.480700  0.278000  0.784040  1.0  -0.5454
  O  O252  1  0.480600  0.263400  0.843020  1.0  -0.6144
  O  O253  1  0.723000  0.164400  0.794240  1.0  -0.6199
  O  O254  1  0.609000  0.105300  0.839370  1.0  -0.5771
  O  O255  1  0.467700  0.629900  0.767940  1.0  -0.6049
  O  O256  1  0.459300  0.531200  0.732150  1.0  -0.5955
  O  O257  1  0.861600  0.454000  0.034350  1.0  -0.5827
  O  O258  1  0.738200  0.350100  0.016160  1.0  -0.582
  O  O259  1  0.218200  0.154300  0.789500  1.0  -0.6009
  O  O260  1  0.301700  0.101400  0.833500  1.0  -0.6075
  O  O261  1  0.054200  0.021000  0.942110  1.0  -0.7479
  O  O262  1  0.832300  0.019200  0.945930  1.0  -0.5615
  O  O263  1  0.643800  0.025070  0.518150  1.0  -0.6591
  O  O264  1  0.562200  0.130700  0.518700  1.0  -0.583
  O  O265  1  0.613300  0.033700  0.424380  1.0  -0.5911
  O  O266  1  0.600000  0.918900  0.404010  1.0  -0.5776
  O  O267  1  0.849300  0.374300  0.504600  1.0  -0.603
  O  O268  1  0.068300  0.382100  0.510940  1.0  -0.6434
  O  O269  1  0.519300  0.222000  0.284040  1.0  -0.5453
  O  O270  1  0.519400  0.236600  0.343020  1.0  -0.6144
  O  O271  1  0.277000  0.335600  0.294240  1.0  -0.6195
  O  O272  1  0.391000  0.394700  0.339370  1.0  -0.5786
  O  O273  1  0.532300  0.870100  0.267940  1.0  -0.6046
  O  O274  1  0.540700  0.968800  0.232150  1.0  -0.5957
  O  O275  1  0.138400  0.046000  0.534350  1.0  -0.5828
  O  O276  1  0.261800  0.149900  0.516160  1.0  -0.5823
  O  O277  1  0.781800  0.345700  0.289500  1.0  -0.6003
  O  O278  1  0.698300  0.398600  0.333500  1.0  -0.6074
  O  O279  1  0.945800  0.479000  0.442110  1.0  -0.7487
  O  O280  1  0.167700  0.480800  0.445930  1.0  -0.5617
  O  O281  1  0.643800  0.525070  0.981850  1.0  -0.6591
  O  O282  1  0.562200  0.630700  0.981300  1.0  -0.5807
  O  O283  1  0.613300  0.533700  0.075620  1.0  -0.5912
  O  O284  1  0.600000  0.418900  0.095990  1.0  -0.5772
  O  O285  1  0.849300  0.874300  0.995400  1.0  -0.6028
  O  O286  1  0.068300  0.882100  0.989060  1.0  -0.644
  O  O287  1  0.519300  0.722000  0.215960  1.0  -0.5448
  O  O288  1  0.519400  0.736600  0.156980  1.0  -0.6151
  O  O289  1  0.277000  0.835600  0.205760  1.0  -0.6197
  O  O290  1  0.391000  0.894700  0.160630  1.0  -0.578
  O  O291  1  0.532300  0.370100  0.232060  1.0  -0.6056
  O  O292  1  0.540700  0.468800  0.267850  1.0  -0.5941
  O  O293  1  0.138400  0.546000  0.965650  1.0  -0.5836
  O  O294  1  0.261800  0.649900  0.983840  1.0  -0.5824
  O  O295  1  0.781800  0.845700  0.210500  1.0  -0.6005
  O  O296  1  0.698300  0.898600  0.166500  1.0  -0.6065
  O  O297  1  0.945800  0.979000  0.057890  1.0  -0.7493
  O  O298  1  0.167700  0.980800  0.054070  1.0  -0.5613
  O  O299  1  0.356200  0.974930  0.481850  1.0  -0.6595
  O  O300  1  0.437800  0.869300  0.481300  1.0  -0.5831
  O  O301  1  0.386700  0.966300  0.575620  1.0  -0.5913
  O  O302  1  0.400000  0.081100  0.595990  1.0  -0.5791
  O  O303  1  0.150700  0.625700  0.495400  1.0  -0.6023
  O  O304  1  0.931700  0.617900  0.489060  1.0  -0.6438
  O  O305  1  0.480700  0.778000  0.715960  1.0  -0.5443
  O  O306  1  0.480600  0.763400  0.656980  1.0  -0.6135
  O  O307  1  0.723000  0.664400  0.705760  1.0  -0.6184
  O  O308  1  0.609000  0.605300  0.660630  1.0  -0.5765
  O  O309  1  0.467700  0.129900  0.732060  1.0  -0.6056
  O  O310  1  0.459300  0.031200  0.767850  1.0  -0.5935
  O  O311  1  0.861600  0.954000  0.465650  1.0  -0.5842
  O  O312  1  0.738200  0.850100  0.483840  1.0  -0.5811
  O  O313  1  0.218200  0.654300  0.710500  1.0  -0.5987
  O  O314  1  0.301700  0.601400  0.666500  1.0  -0.6066
  O  O315  1  0.054200  0.521000  0.557890  1.0  -0.7477
  O  O316  1  0.832300  0.519200  0.554070  1.0  -0.5618
