# generated using pymatgen
data_CdH3(C3O2)3
_symmetry_space_group_name_H-M   'P 1'
_cell_length_a   16.09840000
_cell_length_b   14.60700000
_cell_length_c   16.12570000
_cell_angle_alpha   90.00000000
_cell_angle_beta   101.47900000
_cell_angle_gamma   90.00000000
_symmetry_Int_Tables_number   1
_chemical_formula_structural   CdH3(C3O2)3
_chemical_formula_sum   'Cd8 H24 C72 O48'
_cell_volume   3716.09990090
_cell_formula_units_Z   8
loop_
 _symmetry_equiv_pos_site_id
 _symmetry_equiv_pos_as_xyz
  1  'x, y, z'
loop_
 _atom_site_type_symbol
 _atom_site_label
 _atom_site_symmetry_multiplicity
 _atom_site_fract_x
 _atom_site_fract_y
 _atom_site_fract_z
 _atom_site_occupancy
 _atom_site_charge
  Cd  Cd1  1  0.457720  0.931800  0.391400  1.0  1.099
  Cd  Cd2  1  0.042330  0.067340  0.108630  1.0  1.1009
  Cd  Cd3  1  0.542280  0.431800  0.108600  1.0  1.1001
  Cd  Cd4  1  0.957670  0.567340  0.391370  1.0  1.0999
  Cd  Cd5  1  0.542280  0.068200  0.608600  1.0  1.1002
  Cd  Cd6  1  0.957670  0.932660  0.891370  1.0  1.1003
  Cd  Cd7  1  0.457720  0.568200  0.891400  1.0  1.0988
  Cd  Cd8  1  0.042330  0.432660  0.608630  1.0  1.1009
  H  H9  1  0.076800  0.224900  0.375100  1.0  0.154
  H  H10  1  0.273800  0.215000  0.567800  1.0  0.1506
  H  H11  1  0.269500  0.055200  0.366300  1.0  0.1467
  H  H12  1  0.423000  0.725900  0.627700  1.0  0.1343
  H  H13  1  0.236200  0.552500  0.635400  1.0  0.1463
  H  H14  1  0.226200  0.710100  0.430800  1.0  0.0889
  H  H15  1  0.923200  0.724900  0.124900  1.0  0.1541
  H  H16  1  0.726200  0.715000  0.932200  1.0  0.1504
  H  H17  1  0.730500  0.555200  0.133700  1.0  0.1466
  H  H18  1  0.577000  0.225900  0.872300  1.0  0.1348
  H  H19  1  0.763800  0.052500  0.864600  1.0  0.1469
  H  H20  1  0.773800  0.210100  0.069200  1.0  0.0884
  H  H21  1  0.923200  0.775100  0.624900  1.0  0.1541
  H  H22  1  0.726200  0.785000  0.432200  1.0  0.1504
  H  H23  1  0.730500  0.944800  0.633700  1.0  0.1463
  H  H24  1  0.577000  0.274100  0.372300  1.0  0.1348
  H  H25  1  0.763800  0.447500  0.364600  1.0  0.147
  H  H26  1  0.773800  0.289900  0.569200  1.0  0.0885
  H  H27  1  0.076800  0.275100  0.875100  1.0  0.1546
  H  H28  1  0.273800  0.285000  0.067800  1.0  0.1502
  H  H29  1  0.269500  0.444800  0.866300  1.0  0.1467
  H  H30  1  0.423000  0.774100  0.127700  1.0  0.1343
  H  H31  1  0.236200  0.947500  0.135400  1.0  0.1463
  H  H32  1  0.226200  0.789900  0.930800  1.0  0.0889
  C  C33  1  0.117700  0.103300  0.270900  1.0  0.7007
  C  C34  1  0.166500  0.133600  0.360100  1.0  -0.0911
  C  C35  1  0.128900  0.200400  0.400900  1.0  0.055
  C  C36  1  0.167900  0.230400  0.478500  1.0  -0.1235
  C  C37  1  0.246000  0.193900  0.515200  1.0  0.0531
  C  C38  1  0.283600  0.125900  0.474400  1.0  -0.1433
  C  C39  1  0.243900  0.098100  0.395700  1.0  0.033
  C  C40  1  0.129100  0.298900  0.531400  1.0  0.7472
  C  C41  1  0.369800  0.092100  0.512700  1.0  0.7582
  C  C42  1  0.371700  0.798400  0.472100  1.0  0.7637
  C  C43  1  0.329400  0.730700  0.514800  1.0  -0.1045
  C  C44  1  0.371800  0.699400  0.601900  1.0  0.0697
  C  C45  1  0.338800  0.636400  0.641800  1.0  -0.0802
  C  C46  1  0.259700  0.597600  0.606400  1.0  0.0307
  C  C47  1  0.214100  0.629500  0.522200  1.0  -0.0953
  C  C48  1  0.253700  0.691500  0.484400  1.0  0.0694
  C  C49  1  0.380600  0.603700  0.731100  1.0  0.7168
  C  C50  1  0.128400  0.591800  0.486700  1.0  0.7772
  C  C51  1  0.882300  0.603300  0.229100  1.0  0.7005
  C  C52  1  0.833500  0.633600  0.139900  1.0  -0.0905
  C  C53  1  0.871100  0.700400  0.099100  1.0  0.0555
  C  C54  1  0.832100  0.730400  0.021500  1.0  -0.1242
  C  C55  1  0.754000  0.693900  0.984800  1.0  0.0529
  C  C56  1  0.716400  0.625900  0.025600  1.0  -0.1428
  C  C57  1  0.756100  0.598100  0.104300  1.0  0.0315
  C  C58  1  0.870900  0.798900  0.968600  1.0  0.747
  C  C59  1  0.630200  0.592100  0.987300  1.0  0.7571
  C  C60  1  0.628300  0.298400  0.027900  1.0  0.7638
  C  C61  1  0.670600  0.230700  0.985200  1.0  -0.1053
  C  C62  1  0.628200  0.199400  0.898100  1.0  0.0682
  C  C63  1  0.661200  0.136400  0.858200  1.0  -0.0791
  C  C64  1  0.740300  0.097600  0.893600  1.0  0.0301
  C  C65  1  0.785900  0.129500  0.977800  1.0  -0.0941
  C  C66  1  0.746300  0.191500  0.015600  1.0  0.0694
  C  C67  1  0.619400  0.103700  0.768900  1.0  0.7163
  C  C68  1  0.871600  0.091800  0.013300  1.0  0.776
  C  C69  1  0.882300  0.896700  0.729100  1.0  0.7007
  C  C70  1  0.833500  0.866400  0.639900  1.0  -0.0911
  C  C71  1  0.871100  0.799600  0.599100  1.0  0.0555
  C  C72  1  0.832100  0.769600  0.521500  1.0  -0.1239
  C  C73  1  0.754000  0.806100  0.484800  1.0  0.0528
  C  C74  1  0.716400  0.874100  0.525600  1.0  -0.1424
  C  C75  1  0.756100  0.901900  0.604300  1.0  0.0315
  C  C76  1  0.870900  0.701100  0.468600  1.0  0.7463
  C  C77  1  0.630200  0.907900  0.487300  1.0  0.7575
  C  C78  1  0.628300  0.201600  0.527900  1.0  0.7632
  C  C79  1  0.670600  0.269300  0.485200  1.0  -0.1055
  C  C80  1  0.628200  0.300600  0.398100  1.0  0.0683
  C  C81  1  0.661200  0.363600  0.358200  1.0  -0.0789
  C  C82  1  0.740300  0.402400  0.393600  1.0  0.0288
  C  C83  1  0.785900  0.370500  0.477800  1.0  -0.0946
  C  C84  1  0.746300  0.308500  0.515600  1.0  0.0695
  C  C85  1  0.619400  0.396300  0.268900  1.0  0.7171
  C  C86  1  0.871600  0.408200  0.513300  1.0  0.7761
  C  C87  1  0.117700  0.396700  0.770900  1.0  0.7008
  C  C88  1  0.166500  0.366400  0.860100  1.0  -0.0909
  C  C89  1  0.128900  0.299600  0.900900  1.0  0.0549
  C  C90  1  0.167900  0.269600  0.978500  1.0  -0.1237
  C  C91  1  0.246000  0.306100  0.015200  1.0  0.0532
  C  C92  1  0.283600  0.374100  0.974400  1.0  -0.1435
  C  C93  1  0.243900  0.401900  0.895700  1.0  0.0329
  C  C94  1  0.129100  0.201100  0.031400  1.0  0.7463
  C  C95  1  0.369800  0.407900  0.012700  1.0  0.7585
  C  C96  1  0.371700  0.701600  0.972100  1.0  0.7629
  C  C97  1  0.329400  0.769300  0.014800  1.0  -0.1042
  C  C98  1  0.371800  0.800600  0.101900  1.0  0.0694
  C  C99  1  0.338800  0.863600  0.141800  1.0  -0.0805
  C  C100  1  0.259700  0.902400  0.106400  1.0  0.0289
  C  C101  1  0.214100  0.870500  0.022200  1.0  -0.0955
  C  C102  1  0.253700  0.808500  0.984400  1.0  0.0694
  C  C103  1  0.380600  0.896300  0.231100  1.0  0.7167
  C  C104  1  0.128400  0.908200  0.986700  1.0  0.7769
  O  O105  1  0.147160  0.035400  0.237290  1.0  -0.5722
  O  O106  1  0.053730  0.144900  0.235920  1.0  -0.5647
  O  O107  1  0.404120  0.034000  0.472920  1.0  -0.7693
  O  O108  1  0.405640  0.125850  0.583460  1.0  -0.5186
  O  O109  1  0.167300  0.326900  0.598540  1.0  -0.5754
  O  O110  1  0.053630  0.327400  0.496560  1.0  -0.5676
  O  O111  1  0.443700  0.827700  0.500470  1.0  -0.5382
  O  O112  1  0.330300  0.827400  0.400500  1.0  -0.6209
  O  O113  1  0.444800  0.649300  0.762900  1.0  -0.6052
  O  O114  1  0.352900  0.540500  0.764680  1.0  -0.5308
  O  O115  1  0.094400  0.623500  0.415570  1.0  -0.5584
  O  O116  1  0.094220  0.537200  0.524000  1.0  -0.7306
  O  O117  1  0.852840  0.535400  0.262710  1.0  -0.5707
  O  O118  1  0.946270  0.644900  0.264080  1.0  -0.5651
  O  O119  1  0.595880  0.534000  0.027080  1.0  -0.7693
  O  O120  1  0.594360  0.625850  0.916540  1.0  -0.5203
  O  O121  1  0.832700  0.826900  0.901460  1.0  -0.5765
  O  O122  1  0.946370  0.827400  0.003440  1.0  -0.5661
  O  O123  1  0.556300  0.327700  0.999530  1.0  -0.5373
  O  O124  1  0.669700  0.327400  0.099500  1.0  -0.6215
  O  O125  1  0.555200  0.149300  0.737100  1.0  -0.6052
  O  O126  1  0.647100  0.040500  0.735320  1.0  -0.5327
  O  O127  1  0.905600  0.123500  0.084430  1.0  -0.5566
  O  O128  1  0.905780  0.037200  0.976000  1.0  -0.7317
  O  O129  1  0.852840  0.964600  0.762710  1.0  -0.5696
  O  O130  1  0.946270  0.855100  0.764080  1.0  -0.5638
  O  O131  1  0.595880  0.966000  0.527080  1.0  -0.7697
  O  O132  1  0.594360  0.874150  0.416540  1.0  -0.5214
  O  O133  1  0.832700  0.673100  0.401460  1.0  -0.5766
  O  O134  1  0.946370  0.672600  0.503440  1.0  -0.5665
  O  O135  1  0.556300  0.172300  0.499530  1.0  -0.5374
  O  O136  1  0.669700  0.172600  0.599500  1.0  -0.6216
  O  O137  1  0.555200  0.350700  0.237100  1.0  -0.6077
  O  O138  1  0.647100  0.459500  0.235320  1.0  -0.5314
  O  O139  1  0.905600  0.376500  0.584430  1.0  -0.5577
  O  O140  1  0.905780  0.462800  0.476000  1.0  -0.732
  O  O141  1  0.147160  0.464600  0.737290  1.0  -0.5709
  O  O142  1  0.053730  0.355100  0.735920  1.0  -0.5646
  O  O143  1  0.404120  0.466000  0.972920  1.0  -0.7694
  O  O144  1  0.405640  0.374150  0.083460  1.0  -0.519
  O  O145  1  0.167300  0.173100  0.098540  1.0  -0.5761
  O  O146  1  0.053630  0.172600  0.996560  1.0  -0.5678
  O  O147  1  0.443700  0.672300  0.000470  1.0  -0.5385
  O  O148  1  0.330300  0.672600  0.900500  1.0  -0.6204
  O  O149  1  0.444800  0.850700  0.262900  1.0  -0.6079
  O  O150  1  0.352900  0.959500  0.264680  1.0  -0.5299
  O  O151  1  0.094400  0.876500  0.915570  1.0  -0.5609
  O  O152  1  0.094220  0.962800  0.024000  1.0  -0.7315
