# generated using pymatgen
data_CdH3(C3O2)3
_symmetry_space_group_name_H-M   'P 1'
_cell_length_a   10.03550000
_cell_length_b   12.81900000
_cell_length_c   15.47970000
_cell_angle_alpha   90.00000000
_cell_angle_beta   102.48600000
_cell_angle_gamma   90.00000000
_symmetry_Int_Tables_number   1
_chemical_formula_structural   CdH3(C3O2)3
_chemical_formula_sum   'Cd4 H12 C36 O24'
_cell_volume   1944.28859149
_cell_formula_units_Z   4
loop_
 _symmetry_equiv_pos_site_id
 _symmetry_equiv_pos_as_xyz
  1  'x, y, z'
loop_
 _atom_site_type_symbol
 _atom_site_label
 _atom_site_symmetry_multiplicity
 _atom_site_fract_x
 _atom_site_fract_y
 _atom_site_fract_z
 _atom_site_occupancy
 _atom_site_charge
  Cd  Cd1  1  0.178710  0.966050  0.091690  1.0  1.0869
  Cd  Cd2  1  0.821290  0.466050  0.408320  1.0  1.0858
  Cd  Cd3  1  0.821290  0.033950  0.908320  1.0  1.0859
  Cd  Cd4  1  0.178710  0.533950  0.591690  1.0  1.0877
  H  H5  1  0.639700  0.917400  0.054100  1.0  0.1355
  H  H6  1  0.917600  0.717100  0.187500  1.0  0.139
  H  H7  1  0.534100  0.710200  0.222400  1.0  0.1434
  H  H8  1  0.360300  0.417400  0.445900  1.0  0.135
  H  H9  1  0.082400  0.217100  0.312500  1.0  0.1396
  H  H10  1  0.465900  0.210200  0.277600  1.0  0.1428
  H  H11  1  0.360300  0.082600  0.945900  1.0  0.1351
  H  H12  1  0.082400  0.282900  0.812500  1.0  0.1391
  H  H13  1  0.465900  0.289800  0.777600  1.0  0.1429
  H  H14  1  0.639700  0.582600  0.554100  1.0  0.1351
  H  H15  1  0.917600  0.782900  0.687500  1.0  0.1393
  H  H16  1  0.534100  0.789800  0.722400  1.0  0.1429
  C  C17  1  0.421260  0.861640  0.117350  1.0  0.7497
  C  C18  1  0.563250  0.819750  0.134880  1.0  -0.1266
  C  C19  1  0.662950  0.863770  0.095040  1.0  0.0608
  C  C20  1  0.796710  0.827290  0.116840  1.0  -0.1367
  C  C21  1  0.829320  0.743690  0.175290  1.0  0.0658
  C  C22  1  0.732330  0.699900  0.215320  1.0  -0.133
  C  C23  1  0.599540  0.738830  0.195100  1.0  0.0666
  C  C24  1  0.768010  0.615840  0.283730  1.0  0.7291
  C  C25  1  0.906880  0.883570  0.084240  1.0  0.751
  C  C26  1  0.578740  0.361640  0.382650  1.0  0.7495
  C  C27  1  0.436750  0.319750  0.365120  1.0  -0.1266
  C  C28  1  0.337050  0.363770  0.404960  1.0  0.0612
  C  C29  1  0.203290  0.327290  0.383160  1.0  -0.1362
  C  C30  1  0.170680  0.243690  0.324710  1.0  0.0637
  C  C31  1  0.267670  0.199900  0.284680  1.0  -0.1329
  C  C32  1  0.400460  0.238830  0.304900  1.0  0.0663
  C  C33  1  0.231990  0.115840  0.216270  1.0  0.7294
  C  C34  1  0.093120  0.383570  0.415760  1.0  0.7513
  C  C35  1  0.578740  0.138360  0.882650  1.0  0.7492
  C  C36  1  0.436750  0.180250  0.865120  1.0  -0.1267
  C  C37  1  0.337050  0.136230  0.904960  1.0  0.0626
  C  C38  1  0.203290  0.172710  0.883160  1.0  -0.1363
  C  C39  1  0.170680  0.256310  0.824710  1.0  0.0635
  C  C40  1  0.267670  0.300100  0.784680  1.0  -0.1319
  C  C41  1  0.400460  0.261170  0.804900  1.0  0.0663
  C  C42  1  0.231990  0.384160  0.716270  1.0  0.7283
  C  C43  1  0.093120  0.116430  0.915760  1.0  0.7511
  C  C44  1  0.421260  0.638360  0.617350  1.0  0.7494
  C  C45  1  0.563250  0.680250  0.634880  1.0  -0.1266
  C  C46  1  0.662950  0.636230  0.595040  1.0  0.062
  C  C47  1  0.796710  0.672710  0.616840  1.0  -0.137
  C  C48  1  0.829320  0.756310  0.675290  1.0  0.0654
  C  C49  1  0.732330  0.800100  0.715320  1.0  -0.1322
  C  C50  1  0.599540  0.761170  0.695100  1.0  0.0661
  C  C51  1  0.768010  0.884160  0.783730  1.0  0.7278
  C  C52  1  0.906880  0.616430  0.584240  1.0  0.7508
  O  O53  1  0.378650  0.913920  0.048330  1.0  -0.5479
  O  O54  1  0.348640  0.844790  0.172270  1.0  -0.6158
  O  O55  1  0.688340  0.599530  0.333900  1.0  -0.5623
  O  O56  1  0.874890  0.565680  0.290860  1.0  -0.5422
  O  O57  1  0.025860  0.845660  0.103730  1.0  -0.5659
  O  O58  1  0.879870  0.968750  0.045620  1.0  -0.6911
  O  O59  1  0.621350  0.413920  0.451670  1.0  -0.5483
  O  O60  1  0.651360  0.344790  0.327730  1.0  -0.6199
  O  O61  1  0.311660  0.099530  0.166100  1.0  -0.5624
  O  O62  1  0.125110  0.065680  0.209140  1.0  -0.5437
  O  O63  1  0.974140  0.345660  0.396270  1.0  -0.5671
  O  O64  1  0.120130  0.468750  0.454380  1.0  -0.6921
  O  O65  1  0.621350  0.086080  0.951670  1.0  -0.5465
  O  O66  1  0.651360  0.155210  0.827730  1.0  -0.6169
  O  O67  1  0.311660  0.400470  0.666100  1.0  -0.5623
  O  O68  1  0.125110  0.434320  0.709140  1.0  -0.5429
  O  O69  1  0.974140  0.154340  0.896270  1.0  -0.5681
  O  O70  1  0.120130  0.031250  0.954380  1.0  -0.6933
  O  O71  1  0.378650  0.586080  0.548330  1.0  -0.546
  O  O72  1  0.348640  0.655210  0.672270  1.0  -0.6183
  O  O73  1  0.688340  0.900470  0.833900  1.0  -0.5624
  O  O74  1  0.874890  0.934320  0.790860  1.0  -0.5453
  O  O75  1  0.025860  0.654340  0.603730  1.0  -0.5676
  O  O76  1  0.879870  0.531250  0.545620  1.0  -0.6925
