# generated using pymatgen
data_Cd2H33C30NO12
_symmetry_space_group_name_H-M   'P 1'
_cell_length_a   10.22350000
_cell_length_b   12.98940000
_cell_length_c   30.48700000
_cell_angle_alpha   90.00000000
_cell_angle_beta   91.99300000
_cell_angle_gamma   90.00000000
_symmetry_Int_Tables_number   1
_chemical_formula_structural   Cd2H33C30NO12
_chemical_formula_sum   'Cd8 H132 C120 N4 O48'
_cell_volume   4046.13707254
_cell_formula_units_Z   4
loop_
 _symmetry_equiv_pos_site_id
 _symmetry_equiv_pos_as_xyz
  1  'x, y, z'
loop_
 _atom_site_type_symbol
 _atom_site_label
 _atom_site_symmetry_multiplicity
 _atom_site_fract_x
 _atom_site_fract_y
 _atom_site_fract_z
 _atom_site_occupancy
 _atom_site_charge
  Cd  Cd1  1  0.229190  0.619500  0.815610  1.0  1.0648
  Cd  Cd2  1  0.455170  0.476760  0.870200  1.0  1.0648
  Cd  Cd3  1  0.770810  0.119500  0.684390  1.0  1.0623
  Cd  Cd4  1  0.544830  0.976760  0.629800  1.0  1.0634
  Cd  Cd5  1  0.770810  0.380500  0.184390  1.0  1.0624
  Cd  Cd6  1  0.544830  0.523240  0.129800  1.0  1.0632
  Cd  Cd7  1  0.229190  0.880500  0.315610  1.0  1.0651
  Cd  Cd8  1  0.455170  0.023240  0.370200  1.0  1.0649
  H  H9  1  0.169200  0.795800  0.938900  1.0  0.115
  H  H10  1  0.282200  0.762700  0.064800  1.0  0.1084
  H  H11  1  0.361000  0.541300  0.977700  1.0  0.1115
  H  H12  1  0.078800  0.321500  0.759800  1.0  0.1227
  H  H13  1  0.228000  0.111500  0.678800  1.0  0.102
  H  H14  1  0.470100  0.285800  0.755200  1.0  0.1048
  H  H15  1  0.830800  0.295800  0.561100  1.0  0.1174
  H  H16  1  0.717800  0.262700  0.435200  1.0  0.1087
  H  H17  1  0.639000  0.041300  0.522300  1.0  0.1114
  H  H18  1  0.921200  0.821500  0.740200  1.0  0.1227
  H  H19  1  0.772000  0.611500  0.821200  1.0  0.1003
  H  H20  1  0.529900  0.785800  0.744800  1.0  0.1047
  H  H21  1  0.830800  0.204200  0.061100  1.0  0.1184
  H  H22  1  0.717800  0.237300  0.935200  1.0  0.1089
  H  H23  1  0.639000  0.458700  0.022300  1.0  0.1122
  H  H24  1  0.921200  0.678500  0.240200  1.0  0.1226
  H  H25  1  0.772000  0.888500  0.321200  1.0  0.1003
  H  H26  1  0.529900  0.714200  0.244800  1.0  0.1043
  H  H27  1  0.169200  0.704200  0.438900  1.0  0.116
  H  H28  1  0.282200  0.737300  0.564800  1.0  0.1088
  H  H29  1  0.361000  0.958700  0.477700  1.0  0.112
  H  H30  1  0.078800  0.178500  0.259800  1.0  0.1228
  H  H31  1  0.228000  0.388500  0.178800  1.0  0.1021
  H  H32  1  0.470100  0.214200  0.255200  1.0  0.1053
  H  H33  1  0.063600  0.053900  0.879500  1.0  0.0995
  H  H34  1  0.077000  0.940100  0.864300  1.0  0.0883
  H  H35  1  0.027000  0.009900  0.792300  1.0  0.0876
  H  H36  1  0.073200  0.113600  0.814200  1.0  0.0934
  H  H37  1  0.244500  0.028700  0.840400  1.0  0.0893
  H  H38  1  0.238300  0.069900  0.793700  1.0  0.06
  H  H39  1  0.412000  0.990500  0.816900  1.0  0.126
  H  H40  1  0.336000  0.886100  0.811700  1.0  0.1204
  H  H41  1  0.354500  0.957000  0.770700  1.0  0.11
  H  H42  1  0.908700  0.043700  0.803500  1.0  0.242
  H  H43  1  0.766700  0.010600  0.814100  1.0  0.1167
  H  H44  1  0.886500  0.189200  0.822100  1.0  0.0917
  H  H45  1  0.811800  0.161300  0.863100  1.0  0.0947
  H  H46  1  0.657700  0.246000  0.846600  1.0  0.0955
  H  H47  1  0.657700  0.217600  0.796900  1.0  0.0908
  H  H48  1  0.689500  0.386200  0.802100  1.0  0.1143
  H  H49  1  0.804000  0.372400  0.837100  1.0  0.1056
  H  H50  1  0.823100  0.338900  0.788400  1.0  0.1137
  H  H51  1  0.916500  0.853200  0.895200  1.0  0.1045
  H  H52  1  0.851800  0.841900  0.848500  1.0  0.0876
  H  H53  1  0.695900  0.927400  0.906900  1.0  0.1099
  H  H54  1  0.663000  0.847500  0.870300  1.0  0.0975
  H  H55  1  0.630100  0.816300  0.945700  1.0  0.0894
  H  H56  1  0.652300  0.730000  0.911900  1.0  0.0892
  H  H57  1  0.732600  0.674400  0.972900  1.0  0.1227
  H  H58  1  0.855900  0.703400  0.946400  1.0  0.1222
  H  H59  1  0.808300  0.776900  0.983400  1.0  0.126
  H  H60  1  0.936400  0.553900  0.620500  1.0  0.0996
  H  H61  1  0.923000  0.440100  0.635700  1.0  0.0863
  H  H62  1  0.973000  0.509900  0.707700  1.0  0.088
  H  H63  1  0.926800  0.613600  0.685800  1.0  0.0944
  H  H64  1  0.755500  0.528700  0.659600  1.0  0.0891
  H  H65  1  0.761700  0.569900  0.706300  1.0  0.0608
  H  H66  1  0.588000  0.490500  0.683100  1.0  0.1304
  H  H67  1  0.664000  0.386100  0.688300  1.0  0.1187
  H  H68  1  0.645500  0.457000  0.729300  1.0  0.1098
  H  H69  1  0.091300  0.543700  0.696500  1.0  0.2436
  H  H70  1  0.233300  0.510600  0.685900  1.0  0.1161
  H  H71  1  0.113500  0.689200  0.677900  1.0  0.0898
  H  H72  1  0.188200  0.661300  0.636900  1.0  0.0963
  H  H73  1  0.342300  0.746000  0.653400  1.0  0.0975
  H  H74  1  0.342300  0.717600  0.703100  1.0  0.0886
  H  H75  1  0.310500  0.886200  0.697900  1.0  0.1137
  H  H76  1  0.196000  0.872400  0.662900  1.0  0.1061
  H  H77  1  0.176900  0.838900  0.711600  1.0  0.1134
  H  H78  1  0.083500  0.353200  0.604800  1.0  0.1031
  H  H79  1  0.148200  0.341900  0.651500  1.0  0.0879
  H  H80  1  0.304100  0.427400  0.593100  1.0  0.1112
  H  H81  1  0.337000  0.347500  0.629700  1.0  0.0983
  H  H82  1  0.369900  0.316300  0.554300  1.0  0.0914
  H  H83  1  0.347700  0.230000  0.588100  1.0  0.0906
  H  H84  1  0.267400  0.174400  0.527100  1.0  0.1229
  H  H85  1  0.144100  0.203400  0.553600  1.0  0.1261
  H  H86  1  0.191700  0.276900  0.516600  1.0  0.125
  H  H87  1  0.936400  0.946100  0.120500  1.0  0.0992
  H  H88  1  0.923000  0.059900  0.135700  1.0  0.0862
  H  H89  1  0.973000  0.990100  0.207700  1.0  0.0889
  H  H90  1  0.926800  0.886400  0.185800  1.0  0.1
  H  H91  1  0.755500  0.971300  0.159600  1.0  0.0896
  H  H92  1  0.761700  0.930100  0.206300  1.0  0.0614
  H  H93  1  0.588000  0.009500  0.183100  1.0  0.1302
  H  H94  1  0.664000  0.113900  0.188300  1.0  0.1216
  H  H95  1  0.645500  0.043000  0.229300  1.0  0.1098
  H  H96  1  0.091300  0.956300  0.196500  1.0  0.2434
  H  H97  1  0.233300  0.989400  0.185900  1.0  0.1163
  H  H98  1  0.113500  0.810800  0.177900  1.0  0.0908
  H  H99  1  0.188200  0.838700  0.136900  1.0  0.0955
  H  H100  1  0.342300  0.754000  0.153400  1.0  0.0973
  H  H101  1  0.342300  0.782400  0.203100  1.0  0.0871
  H  H102  1  0.310500  0.613800  0.197900  1.0  0.1141
  H  H103  1  0.196000  0.627600  0.162900  1.0  0.1064
  H  H104  1  0.176900  0.661100  0.211600  1.0  0.1135
  H  H105  1  0.083500  0.146800  0.104800  1.0  0.1039
  H  H106  1  0.148200  0.158100  0.151500  1.0  0.0885
  H  H107  1  0.304100  0.072600  0.093100  1.0  0.1101
  H  H108  1  0.337000  0.152500  0.129700  1.0  0.0985
  H  H109  1  0.369900  0.183700  0.054300  1.0  0.0904
  H  H110  1  0.347700  0.270000  0.088100  1.0  0.0912
  H  H111  1  0.267400  0.325600  0.027100  1.0  0.1231
  H  H112  1  0.144100  0.296600  0.053600  1.0  0.1267
  H  H113  1  0.191700  0.223100  0.016600  1.0  0.125
  H  H114  1  0.063600  0.446100  0.379500  1.0  0.0995
  H  H115  1  0.077000  0.559900  0.364300  1.0  0.0855
  H  H116  1  0.027000  0.490100  0.292300  1.0  0.0881
  H  H117  1  0.073200  0.386400  0.314200  1.0  0.1037
  H  H118  1  0.244500  0.471300  0.340400  1.0  0.0893
  H  H119  1  0.238300  0.430100  0.293700  1.0  0.0599
  H  H120  1  0.412000  0.509500  0.316900  1.0  0.1267
  H  H121  1  0.336000  0.613900  0.311700  1.0  0.1214
  H  H122  1  0.354500  0.543000  0.270700  1.0  0.1099
  H  H123  1  0.908700  0.456300  0.303500  1.0  0.2437
  H  H124  1  0.766700  0.489400  0.314100  1.0  0.1173
  H  H125  1  0.886500  0.310800  0.322100  1.0  0.0923
  H  H126  1  0.811800  0.338700  0.363100  1.0  0.0954
  H  H127  1  0.657700  0.254000  0.346600  1.0  0.0955
  H  H128  1  0.657700  0.282400  0.296900  1.0  0.0876
  H  H129  1  0.689500  0.113800  0.302100  1.0  0.1148
  H  H130  1  0.804000  0.127600  0.337100  1.0  0.1059
  H  H131  1  0.823100  0.161100  0.288400  1.0  0.1137
  H  H132  1  0.916500  0.646800  0.395200  1.0  0.1036
  H  H133  1  0.851800  0.658100  0.348500  1.0  0.0879
  H  H134  1  0.695900  0.572600  0.406900  1.0  0.1098
  H  H135  1  0.663000  0.652500  0.370300  1.0  0.0973
  H  H136  1  0.630100  0.683700  0.445700  1.0  0.0905
  H  H137  1  0.652300  0.770000  0.411900  1.0  0.0908
  H  H138  1  0.732600  0.825600  0.472900  1.0  0.1232
  H  H139  1  0.855900  0.796600  0.446400  1.0  0.1229
  H  H140  1  0.808300  0.723100  0.483400  1.0  0.1261
  C  C141  1  0.272400  0.623800  0.904830  1.0  0.7063
  C  C142  1  0.271100  0.664300  0.951620  1.0  -0.1512
  C  C143  1  0.210500  0.757600  0.961130  1.0  -0.0103
  C  C144  1  0.212600  0.792400  0.003630  1.0  -0.1426
  C  C145  1  0.277000  0.736900  0.036360  1.0  0.0033
  C  C146  1  0.334400  0.642300  0.027020  1.0  -0.1575
  C  C147  1  0.327300  0.605800  0.984170  1.0  -0.0074
  C  C148  1  0.143000  0.889400  0.016340  1.0  0.6447
  C  C149  1  0.400900  0.577200  0.061840  1.0  0.6891
  C  C150  1  0.297900  0.402400  0.795080  1.0  0.7117
  C  C151  1  0.279000  0.316600  0.761350  1.0  -0.0944
  C  C152  1  0.150800  0.288600  0.748360  1.0  -0.0395
  C  C153  1  0.134800  0.208200  0.717110  1.0  -0.0932
  C  C154  1  0.240400  0.163200  0.699680  1.0  -0.0072
  C  C155  1  0.369500  0.193100  0.712530  1.0  -0.1757
  C  C156  1  0.386400  0.268400  0.744860  1.0  -0.0156
  C  C157  1  0.999100  0.171400  0.703270  1.0  0.6634
  C  C158  1  0.483600  0.144500  0.690870  1.0  0.6968
  C  C159  1  0.727600  0.123800  0.595170  1.0  0.7076
  C  C160  1  0.728900  0.164300  0.548380  1.0  -0.1529
  C  C161  1  0.789500  0.257600  0.538870  1.0  -0.0101
  C  C162  1  0.787400  0.292400  0.496370  1.0  -0.1422
  C  C163  1  0.723000  0.236900  0.463640  1.0  0.0023
  C  C164  1  0.665600  0.142300  0.472980  1.0  -0.1578
  C  C165  1  0.672700  0.105800  0.515830  1.0  -0.0094
  C  C166  1  0.857000  0.389400  0.483660  1.0  0.6428
  C  C167  1  0.599100  0.077200  0.438160  1.0  0.6868
  C  C168  1  0.702100  0.902400  0.704920  1.0  0.713
  C  C169  1  0.721000  0.816600  0.738650  1.0  -0.0934
  C  C170  1  0.849200  0.788600  0.751640  1.0  -0.0384
  C  C171  1  0.865200  0.708200  0.782890  1.0  -0.0913
  C  C172  1  0.759600  0.663200  0.800320  1.0  -0.0067
  C  C173  1  0.630500  0.693100  0.787470  1.0  -0.1767
  C  C174  1  0.613600  0.768400  0.755140  1.0  -0.0146
  C  C175  1  0.000900  0.671400  0.796730  1.0  0.6634
  C  C176  1  0.516400  0.644500  0.809130  1.0  0.6982
  C  C177  1  0.727600  0.376200  0.095170  1.0  0.7072
  C  C178  1  0.728900  0.335700  0.048380  1.0  -0.1531
  C  C179  1  0.789500  0.242400  0.038870  1.0  -0.0092
  C  C180  1  0.787400  0.207600  0.996370  1.0  -0.1414
  C  C181  1  0.723000  0.263100  0.963640  1.0  0.0026
  C  C182  1  0.665600  0.357700  0.972980  1.0  -0.1577
  C  C183  1  0.672700  0.394200  0.015830  1.0  -0.0094
  C  C184  1  0.857000  0.110600  0.983660  1.0  0.6429
  C  C185  1  0.599100  0.422800  0.938160  1.0  0.6887
  C  C186  1  0.702100  0.597600  0.204920  1.0  0.713
  C  C187  1  0.721000  0.683400  0.238650  1.0  -0.0951
  C  C188  1  0.849200  0.711400  0.251640  1.0  -0.0389
  C  C189  1  0.865200  0.791800  0.282890  1.0  -0.0916
  C  C190  1  0.759600  0.836800  0.300320  1.0  -0.0059
  C  C191  1  0.630500  0.806900  0.287470  1.0  -0.1761
  C  C192  1  0.613600  0.731600  0.255140  1.0  -0.0135
  C  C193  1  0.000900  0.828600  0.296730  1.0  0.6638
  C  C194  1  0.516400  0.855500  0.309130  1.0  0.6984
  C  C195  1  0.272400  0.876200  0.404830  1.0  0.7065
  C  C196  1  0.271100  0.835700  0.451620  1.0  -0.1511
  C  C197  1  0.210500  0.742400  0.461130  1.0  -0.0102
  C  C198  1  0.212600  0.707600  0.503630  1.0  -0.1419
  C  C199  1  0.277000  0.763100  0.536360  1.0  0.0035
  C  C200  1  0.334400  0.857700  0.527020  1.0  -0.1576
  C  C201  1  0.327300  0.894200  0.484170  1.0  -0.0082
  C  C202  1  0.143000  0.610600  0.516340  1.0  0.6442
  C  C203  1  0.400900  0.922800  0.561840  1.0  0.6898
  C  C204  1  0.297900  0.097600  0.295080  1.0  0.7116
  C  C205  1  0.279000  0.183400  0.261350  1.0  -0.0946
  C  C206  1  0.150800  0.211400  0.248360  1.0  -0.0394
  C  C207  1  0.134800  0.291800  0.217110  1.0  -0.0927
  C  C208  1  0.240400  0.336800  0.199680  1.0  -0.0057
  C  C209  1  0.369500  0.306900  0.212530  1.0  -0.1756
  C  C210  1  0.386400  0.231600  0.244860  1.0  -0.0179
  C  C211  1  0.999100  0.328600  0.203270  1.0  0.6627
  C  C212  1  0.483600  0.355500  0.190870  1.0  0.697
  C  C213  1  0.033200  0.004600  0.857500  1.0  0.0053
  C  C214  1  0.080700  0.039300  0.816000  1.0  -0.1007
  C  C215  1  0.217200  0.009400  0.810700  1.0  -0.0717
  C  C216  1  0.340700  0.956100  0.801700  1.0  -0.2834
  C  C217  1  0.843400  0.046700  0.825800  1.0  -0.0059
  C  C218  1  0.806600  0.156600  0.831300  1.0  -0.0594
  C  C219  1  0.713300  0.239700  0.821600  1.0  -0.1594
  C  C220  1  0.761700  0.343300  0.811400  1.0  -0.3336
  C  C221  1  0.850100  0.882000  0.875300  1.0  0.0071
  C  C222  1  0.723400  0.862100  0.894800  1.0  -0.1558
  C  C223  1  0.696600  0.784700  0.928200  1.0  -0.1333
  C  C224  1  0.781000  0.730000  0.960500  1.0  -0.31
  C  C225  1  0.966800  0.504600  0.642500  1.0  0.0059
  C  C226  1  0.919300  0.539300  0.684000  1.0  -0.1011
  C  C227  1  0.782800  0.509400  0.689300  1.0  -0.0766
  C  C228  1  0.659300  0.456100  0.698300  1.0  -0.2861
  C  C229  1  0.156600  0.546700  0.674200  1.0  -0.0103
  C  C230  1  0.193400  0.656600  0.668700  1.0  -0.0644
  C  C231  1  0.286700  0.739700  0.678400  1.0  -0.1588
  C  C232  1  0.238300  0.843300  0.688600  1.0  -0.3344
  C  C233  1  0.149900  0.382000  0.624700  1.0  0.0054
  C  C234  1  0.276600  0.362100  0.605200  1.0  -0.1484
  C  C235  1  0.303400  0.284700  0.571800  1.0  -0.1264
  C  C236  1  0.219000  0.230000  0.539500  1.0  -0.3109
  C  C237  1  0.966800  0.995400  0.142500  1.0  0.0066
  C  C238  1  0.919300  0.960700  0.184000  1.0  -0.1014
  C  C239  1  0.782800  0.990600  0.189300  1.0  -0.0812
  C  C240  1  0.659300  0.043900  0.198300  1.0  -0.2861
  C  C241  1  0.156600  0.953300  0.174200  1.0  -0.008
  C  C242  1  0.193400  0.843400  0.168700  1.0  -0.0675
  C  C243  1  0.286700  0.760300  0.178400  1.0  -0.1579
  C  C244  1  0.238300  0.656700  0.188600  1.0  -0.3339
  C  C245  1  0.149900  0.118000  0.124700  1.0  0.0064
  C  C246  1  0.276600  0.137900  0.105200  1.0  -0.1483
  C  C247  1  0.303400  0.215300  0.071800  1.0  -0.1265
  C  C248  1  0.219000  0.270000  0.039500  1.0  -0.3121
  C  C249  1  0.033200  0.495400  0.357500  1.0  0.006
  C  C250  1  0.080700  0.460700  0.316000  1.0  -0.1003
  C  C251  1  0.217200  0.490600  0.310700  1.0  -0.0777
  C  C252  1  0.340700  0.543900  0.301700  1.0  -0.2827
  C  C253  1  0.843400  0.453300  0.325800  1.0  -0.0063
  C  C254  1  0.806600  0.343400  0.331300  1.0  -0.063
  C  C255  1  0.713300  0.260300  0.321600  1.0  -0.1596
  C  C256  1  0.761700  0.156700  0.311400  1.0  -0.3337
  C  C257  1  0.850100  0.618000  0.375300  1.0  0.0084
  C  C258  1  0.723400  0.637900  0.394800  1.0  -0.1566
  C  C259  1  0.696600  0.715300  0.428200  1.0  -0.1331
  C  C260  1  0.781000  0.770000  0.460500  1.0  -0.3101
  N  N261  1  0.894400  0.988400  0.864100  1.0  -0.2499
  N  N262  1  0.105600  0.488400  0.635900  1.0  -0.248
  N  N263  1  0.105600  0.011600  0.135900  1.0  -0.2486
  N  N264  1  0.894400  0.511600  0.364100  1.0  -0.2495
  O  O265  1  0.245300  0.685400  0.875340  1.0  -0.5719
  O  O266  1  0.302900  0.532820  0.899390  1.0  -0.6127
  O  O267  1  0.068000  0.928700  0.986080  1.0  -0.5767
  O  O268  1  0.122800  0.898500  0.058100  1.0  -0.5361
  O  O269  1  0.411100  0.482800  0.056530  1.0  -0.6098
  O  O270  1  0.445500  0.626300  0.095300  1.0  -0.5888
  O  O271  1  0.220900  0.475250  0.793270  1.0  -0.5988
  O  O272  1  0.395900  0.391250  0.820980  1.0  -0.6016
  O  O273  1  0.901500  0.205300  0.721180  1.0  -0.5514
  O  O274  1  0.991600  0.105300  0.673110  1.0  -0.6093
  O  O275  1  0.455900  0.088300  0.658490  1.0  -0.5983
  O  O276  1  0.596700  0.161180  0.707310  1.0  -0.601
  O  O277  1  0.754700  0.185400  0.624660  1.0  -0.571
  O  O278  1  0.697100  0.032820  0.600610  1.0  -0.6129
  O  O279  1  0.932000  0.428700  0.513920  1.0  -0.5764
  O  O280  1  0.877200  0.398500  0.441900  1.0  -0.5391
  O  O281  1  0.588900  0.982800  0.443470  1.0  -0.6127
  O  O282  1  0.554500  0.126300  0.404700  1.0  -0.5913
  O  O283  1  0.779100  0.975250  0.706730  1.0  -0.5995
  O  O284  1  0.604100  0.891250  0.679020  1.0  -0.6002
  O  O285  1  0.098500  0.705300  0.778820  1.0  -0.55
  O  O286  1  0.008400  0.605300  0.826890  1.0  -0.6093
  O  O287  1  0.544100  0.588300  0.841510  1.0  -0.6
  O  O288  1  0.403300  0.661180  0.792690  1.0  -0.6008
  O  O289  1  0.754700  0.314600  0.124660  1.0  -0.5702
  O  O290  1  0.697100  0.467180  0.100610  1.0  -0.6116
  O  O291  1  0.932000  0.071300  0.013920  1.0  -0.5767
  O  O292  1  0.877200  0.101500  0.941900  1.0  -0.5397
  O  O293  1  0.588900  0.517200  0.943470  1.0  -0.6125
  O  O294  1  0.554500  0.373700  0.904700  1.0  -0.59
  O  O295  1  0.779100  0.524750  0.206730  1.0  -0.6002
  O  O296  1  0.604100  0.608750  0.179020  1.0  -0.6004
  O  O297  1  0.098500  0.794700  0.278820  1.0  -0.5507
  O  O298  1  0.008400  0.894700  0.326890  1.0  -0.6078
  O  O299  1  0.544100  0.911700  0.341510  1.0  -0.6004
  O  O300  1  0.403300  0.838820  0.292690  1.0  -0.601
  O  O301  1  0.245300  0.814600  0.375340  1.0  -0.5711
  O  O302  1  0.302900  0.967180  0.399390  1.0  -0.612
  O  O303  1  0.068000  0.571300  0.486080  1.0  -0.5764
  O  O304  1  0.122800  0.601500  0.558100  1.0  -0.5368
  O  O305  1  0.411100  0.017200  0.556530  1.0  -0.6103
  O  O306  1  0.445500  0.873700  0.595300  1.0  -0.5897
  O  O307  1  0.220900  0.024750  0.293270  1.0  -0.5989
  O  O308  1  0.395900  0.108750  0.320980  1.0  -0.6014
  O  O309  1  0.901500  0.294700  0.221180  1.0  -0.5521
  O  O310  1  0.991600  0.394700  0.173110  1.0  -0.6089
  O  O311  1  0.455900  0.411700  0.158490  1.0  -0.5983
  O  O312  1  0.596700  0.338820  0.207310  1.0  -0.601
