# generated using pymatgen
data_Mn12H8C24N32Cl
_symmetry_space_group_name_H-M   'P 1'
_cell_length_a   18.91530000
_cell_length_b   18.91530000
_cell_length_c   18.91530000
_cell_angle_alpha   90.00000000
_cell_angle_beta   90.00000000
_cell_angle_gamma   90.00000000
_symmetry_Int_Tables_number   1
_chemical_formula_structural   Mn12H8C24N32Cl
_chemical_formula_sum   'Mn36 H24 C72 N96 Cl3'
_cell_volume   6767.67821548
_cell_formula_units_Z   3
loop_
 _symmetry_equiv_pos_site_id
 _symmetry_equiv_pos_as_xyz
  1  'x, y, z'
loop_
 _atom_site_type_symbol
 _atom_site_label
 _atom_site_symmetry_multiplicity
 _atom_site_fract_x
 _atom_site_fract_y
 _atom_site_fract_z
 _atom_site_occupancy
 _atom_site_charge
  Mn  Mn1  1  0.500000  0.359580  0.000000  1.0  0.8303
  Mn  Mn2  1  0.500000  0.640420  0.000000  1.0  0.8303
  Mn  Mn3  1  0.000000  0.500000  0.359580  1.0  0.832
  Mn  Mn4  1  0.000000  0.500000  0.640420  1.0  0.8305
  Mn  Mn5  1  0.359580  0.000000  0.500000  1.0  0.8306
  Mn  Mn6  1  0.640420  0.000000  0.500000  1.0  0.8311
  Mn  Mn7  1  0.359580  0.500000  0.000000  1.0  0.8306
  Mn  Mn8  1  0.640420  0.500000  0.000000  1.0  0.8311
  Mn  Mn9  1  0.500000  0.000000  0.640420  1.0  0.8305
  Mn  Mn10  1  0.500000  0.000000  0.359580  1.0  0.832
  Mn  Mn11  1  0.000000  0.359580  0.500000  1.0  0.8303
  Mn  Mn12  1  0.000000  0.640420  0.500000  1.0  0.8303
  Mn  Mn13  1  0.500000  0.258400  0.857400  1.0  0.8723
  Mn  Mn14  1  0.500000  0.741600  0.857400  1.0  0.8685
  Mn  Mn15  1  0.500000  0.258400  0.142600  1.0  0.8721
  Mn  Mn16  1  0.500000  0.741600  0.142600  1.0  0.8682
  Mn  Mn17  1  0.857400  0.500000  0.258400  1.0  0.8694
  Mn  Mn18  1  0.857400  0.500000  0.741600  1.0  0.8715
  Mn  Mn19  1  0.142600  0.500000  0.258400  1.0  0.8705
  Mn  Mn20  1  0.142600  0.500000  0.741600  1.0  0.8718
  Mn  Mn21  1  0.258400  0.857400  0.500000  1.0  0.8707
  Mn  Mn22  1  0.741600  0.857400  0.500000  1.0  0.8731
  Mn  Mn23  1  0.258400  0.142600  0.500000  1.0  0.8717
  Mn  Mn24  1  0.741600  0.142600  0.500000  1.0  0.8737
  Mn  Mn25  1  0.258400  0.500000  0.142600  1.0  0.8713
  Mn  Mn26  1  0.741600  0.500000  0.142600  1.0  0.8733
  Mn  Mn27  1  0.258400  0.500000  0.857400  1.0  0.8715
  Mn  Mn28  1  0.741600  0.500000  0.857400  1.0  0.8731
  Mn  Mn29  1  0.500000  0.857400  0.741600  1.0  0.8702
  Mn  Mn30  1  0.500000  0.857400  0.258400  1.0  0.8685
  Mn  Mn31  1  0.500000  0.142600  0.741600  1.0  0.8701
  Mn  Mn32  1  0.500000  0.142600  0.258400  1.0  0.869
  Mn  Mn33  1  0.857400  0.258400  0.500000  1.0  0.872
  Mn  Mn34  1  0.857400  0.741600  0.500000  1.0  0.8686
  Mn  Mn35  1  0.142600  0.258400  0.500000  1.0  0.8726
  Mn  Mn36  1  0.142600  0.741600  0.500000  1.0  0.8693
  H  H37  1  0.387100  0.237700  0.762300  1.0  -0.0024
  H  H38  1  0.612900  0.762300  0.762300  1.0  -0.0028
  H  H39  1  0.612900  0.237700  0.237700  1.0  -0.0031
  H  H40  1  0.387100  0.762300  0.237700  1.0  -0.003
  H  H41  1  0.762300  0.387100  0.237700  1.0  -0.0035
  H  H42  1  0.762300  0.612900  0.762300  1.0  -0.0031
  H  H43  1  0.237700  0.612900  0.237700  1.0  -0.0038
  H  H44  1  0.237700  0.387100  0.762300  1.0  -0.0034
  H  H45  1  0.237700  0.762300  0.387100  1.0  -0.0033
  H  H46  1  0.762300  0.762300  0.612900  1.0  -0.0033
  H  H47  1  0.237700  0.237700  0.612900  1.0  -0.0036
  H  H48  1  0.762300  0.237700  0.387100  1.0  -0.003
  H  H49  1  0.237700  0.387100  0.237700  1.0  -0.0035
  H  H50  1  0.762300  0.612900  0.237700  1.0  -0.0033
  H  H51  1  0.237700  0.612900  0.762300  1.0  -0.0035
  H  H52  1  0.762300  0.387100  0.762300  1.0  -0.0032
  H  H53  1  0.387100  0.762300  0.762300  1.0  -0.0027
  H  H54  1  0.612900  0.762300  0.237700  1.0  -0.003
  H  H55  1  0.612900  0.237700  0.762300  1.0  -0.0025
  H  H56  1  0.387100  0.237700  0.237700  1.0  -0.0028
  H  H57  1  0.762300  0.237700  0.612900  1.0  -0.0034
  H  H58  1  0.762300  0.762300  0.387100  1.0  -0.0032
  H  H59  1  0.237700  0.237700  0.387100  1.0  -0.003
  H  H60  1  0.237700  0.762300  0.612900  1.0  -0.0033
  C  C61  1  0.348800  0.348800  0.834400  1.0  0.2332
  C  C62  1  0.316900  0.316900  0.772100  1.0  -0.1645
  C  C63  1  0.651200  0.651200  0.834400  1.0  0.2334
  C  C64  1  0.683100  0.683100  0.772100  1.0  -0.1649
  C  C65  1  0.651200  0.348800  0.165600  1.0  0.2338
  C  C66  1  0.683100  0.316900  0.227900  1.0  -0.1649
  C  C67  1  0.348800  0.651200  0.165600  1.0  0.2338
  C  C68  1  0.316900  0.683100  0.227900  1.0  -0.1649
  C  C69  1  0.834400  0.348800  0.348800  1.0  0.2335
  C  C70  1  0.772100  0.316900  0.316900  1.0  -0.1632
  C  C71  1  0.834400  0.651200  0.651200  1.0  0.2338
  C  C72  1  0.772100  0.683100  0.683100  1.0  -0.1633
  C  C73  1  0.165600  0.651200  0.348800  1.0  0.2336
  C  C74  1  0.227900  0.683100  0.316900  1.0  -0.1648
  C  C75  1  0.165600  0.348800  0.651200  1.0  0.2335
  C  C76  1  0.227900  0.316900  0.683100  1.0  -0.1646
  C  C77  1  0.348800  0.834400  0.348800  1.0  0.2332
  C  C78  1  0.316900  0.772100  0.316900  1.0  -0.1637
  C  C79  1  0.651200  0.834400  0.651200  1.0  0.2333
  C  C80  1  0.683100  0.772100  0.683100  1.0  -0.1639
  C  C81  1  0.348800  0.165600  0.651200  1.0  0.2336
  C  C82  1  0.316900  0.227900  0.683100  1.0  -0.1637
  C  C83  1  0.651200  0.165600  0.348800  1.0  0.2336
  C  C84  1  0.683100  0.227900  0.316900  1.0  -0.1638
  C  C85  1  0.348800  0.348800  0.165600  1.0  0.2337
  C  C86  1  0.316900  0.316900  0.227900  1.0  -0.1646
  C  C87  1  0.651200  0.651200  0.165600  1.0  0.2339
  C  C88  1  0.683100  0.683100  0.227900  1.0  -0.1652
  C  C89  1  0.348800  0.651200  0.834400  1.0  0.2334
  C  C90  1  0.316900  0.683100  0.772100  1.0  -0.1647
  C  C91  1  0.651200  0.348800  0.834400  1.0  0.2332
  C  C92  1  0.683100  0.316900  0.772100  1.0  -0.1647
  C  C93  1  0.348800  0.834400  0.651200  1.0  0.2331
  C  C94  1  0.316900  0.772100  0.683100  1.0  -0.1637
  C  C95  1  0.651200  0.834400  0.348800  1.0  0.2333
  C  C96  1  0.683100  0.772100  0.316900  1.0  -0.1639
  C  C97  1  0.651200  0.165600  0.651200  1.0  0.2338
  C  C98  1  0.683100  0.227900  0.683100  1.0  -0.164
  C  C99  1  0.348800  0.165600  0.348800  1.0  0.2335
  C  C100  1  0.316900  0.227900  0.316900  1.0  -0.1636
  C  C101  1  0.834400  0.348800  0.651200  1.0  0.2336
  C  C102  1  0.772100  0.316900  0.683100  1.0  -0.1631
  C  C103  1  0.834400  0.651200  0.348800  1.0  0.2337
  C  C104  1  0.772100  0.683100  0.316900  1.0  -0.1634
  C  C105  1  0.165600  0.348800  0.348800  1.0  0.2334
  C  C106  1  0.227900  0.316900  0.316900  1.0  -0.1646
  C  C107  1  0.165600  0.651200  0.651200  1.0  0.2337
  C  C108  1  0.227900  0.683100  0.683100  1.0  -0.165
  C  C109  1  0.346800  0.257600  0.742400  1.0  -0.2184
  C  C110  1  0.653200  0.742400  0.742400  1.0  -0.2183
  C  C111  1  0.653200  0.257600  0.257600  1.0  -0.2182
  C  C112  1  0.346800  0.742400  0.257600  1.0  -0.2186
  C  C113  1  0.742400  0.346800  0.257600  1.0  -0.2131
  C  C114  1  0.742400  0.653200  0.742400  1.0  -0.2133
  C  C115  1  0.257600  0.653200  0.257600  1.0  -0.2139
  C  C116  1  0.257600  0.346800  0.742400  1.0  -0.2135
  C  C117  1  0.257600  0.742400  0.346800  1.0  -0.2176
  C  C118  1  0.742400  0.742400  0.653200  1.0  -0.2169
  C  C119  1  0.257600  0.257600  0.653200  1.0  -0.2173
  C  C120  1  0.742400  0.257600  0.346800  1.0  -0.2158
  C  C121  1  0.257600  0.346800  0.257600  1.0  -0.2176
  C  C122  1  0.742400  0.653200  0.257600  1.0  -0.2173
  C  C123  1  0.257600  0.653200  0.742400  1.0  -0.2182
  C  C124  1  0.742400  0.346800  0.742400  1.0  -0.2168
  C  C125  1  0.346800  0.742400  0.742400  1.0  -0.2146
  C  C126  1  0.653200  0.742400  0.257600  1.0  -0.2145
  C  C127  1  0.653200  0.257600  0.742400  1.0  -0.2138
  C  C128  1  0.346800  0.257600  0.257600  1.0  -0.2148
  C  C129  1  0.742400  0.257600  0.653200  1.0  -0.2167
  C  C130  1  0.742400  0.742400  0.346800  1.0  -0.2165
  C  C131  1  0.257600  0.257600  0.346800  1.0  -0.217
  C  C132  1  0.257600  0.742400  0.653200  1.0  -0.2174
  N  N133  1  0.416770  0.367330  0.920180  1.0  -0.1297
  N  N134  1  0.406390  0.323340  0.867220  1.0  -0.4131
  N  N135  1  0.583230  0.632670  0.920180  1.0  -0.1317
  N  N136  1  0.593610  0.676660  0.867220  1.0  -0.4132
  N  N137  1  0.583230  0.367330  0.079820  1.0  -0.1314
  N  N138  1  0.593610  0.323340  0.132780  1.0  -0.4134
  N  N139  1  0.416770  0.632670  0.079820  1.0  -0.13
  N  N140  1  0.406390  0.676660  0.132780  1.0  -0.414
  N  N141  1  0.920180  0.416770  0.367330  1.0  -0.1303
  N  N142  1  0.867220  0.406390  0.323340  1.0  -0.4184
  N  N143  1  0.920180  0.583230  0.632670  1.0  -0.1304
  N  N144  1  0.867220  0.593610  0.676660  1.0  -0.4173
  N  N145  1  0.079820  0.583230  0.367330  1.0  -0.1325
  N  N146  1  0.132780  0.593610  0.323340  1.0  -0.4188
  N  N147  1  0.079820  0.416770  0.632670  1.0  -0.1314
  N  N148  1  0.132780  0.406390  0.676660  1.0  -0.4177
  N  N149  1  0.367330  0.920180  0.416770  1.0  -0.1301
  N  N150  1  0.323340  0.867220  0.406390  1.0  -0.413
  N  N151  1  0.632670  0.920180  0.583230  1.0  -0.1301
  N  N152  1  0.676660  0.867220  0.593610  1.0  -0.4167
  N  N153  1  0.367330  0.079820  0.583230  1.0  -0.1309
  N  N154  1  0.323340  0.132780  0.593610  1.0  -0.4127
  N  N155  1  0.632670  0.079820  0.416770  1.0  -0.1312
  N  N156  1  0.676660  0.132780  0.406390  1.0  -0.4151
  N  N157  1  0.367330  0.416770  0.079820  1.0  -0.1316
  N  N158  1  0.323340  0.406390  0.132780  1.0  -0.4148
  N  N159  1  0.632670  0.583230  0.079820  1.0  -0.1313
  N  N160  1  0.676660  0.593610  0.132780  1.0  -0.4167
  N  N161  1  0.367330  0.583230  0.920180  1.0  -0.1319
  N  N162  1  0.323340  0.593610  0.867220  1.0  -0.4144
  N  N163  1  0.632670  0.416770  0.920180  1.0  -0.1315
  N  N164  1  0.676660  0.406390  0.867220  1.0  -0.4178
  N  N165  1  0.416770  0.920180  0.632670  1.0  -0.1293
  N  N166  1  0.406390  0.867220  0.676660  1.0  -0.4151
  N  N167  1  0.583230  0.920180  0.367330  1.0  -0.131
  N  N168  1  0.593610  0.867220  0.323340  1.0  -0.4155
  N  N169  1  0.583230  0.079820  0.632670  1.0  -0.1317
  N  N170  1  0.593610  0.132780  0.676660  1.0  -0.4144
  N  N171  1  0.416770  0.079820  0.367330  1.0  -0.1304
  N  N172  1  0.406390  0.132780  0.323340  1.0  -0.4166
  N  N173  1  0.920180  0.367330  0.583230  1.0  -0.1293
  N  N174  1  0.867220  0.323340  0.593610  1.0  -0.4149
  N  N175  1  0.920180  0.632670  0.416770  1.0  -0.1295
  N  N176  1  0.867220  0.676660  0.406390  1.0  -0.414
  N  N177  1  0.079820  0.367330  0.416770  1.0  -0.1319
  N  N178  1  0.132780  0.323340  0.406390  1.0  -0.4148
  N  N179  1  0.079820  0.632670  0.583230  1.0  -0.1304
  N  N180  1  0.132780  0.676660  0.593610  1.0  -0.4156
  N  N181  1  0.583230  0.632670  0.079820  1.0  -0.1309
  N  N182  1  0.593610  0.676660  0.132780  1.0  -0.4132
  N  N183  1  0.416770  0.367330  0.079820  1.0  -0.13
  N  N184  1  0.406390  0.323340  0.132780  1.0  -0.4131
  N  N185  1  0.416770  0.632670  0.920180  1.0  -0.1299
  N  N186  1  0.406390  0.676660  0.867220  1.0  -0.414
  N  N187  1  0.583230  0.367330  0.920180  1.0  -0.1318
  N  N188  1  0.593610  0.323340  0.867220  1.0  -0.4133
  N  N189  1  0.079820  0.583230  0.632670  1.0  -0.1321
  N  N190  1  0.132780  0.593610  0.676660  1.0  -0.4176
  N  N191  1  0.079820  0.416770  0.367330  1.0  -0.1319
  N  N192  1  0.132780  0.406390  0.323340  1.0  -0.4189
  N  N193  1  0.920180  0.416770  0.632670  1.0  -0.13
  N  N194  1  0.867220  0.406390  0.676660  1.0  -0.4176
  N  N195  1  0.920180  0.583230  0.367330  1.0  -0.1307
  N  N196  1  0.867220  0.593610  0.323340  1.0  -0.4182
  N  N197  1  0.632670  0.079820  0.583230  1.0  -0.1304
  N  N198  1  0.676660  0.132780  0.593610  1.0  -0.4162
  N  N199  1  0.367330  0.079820  0.416770  1.0  -0.1312
  N  N200  1  0.323340  0.132780  0.406390  1.0  -0.4123
  N  N201  1  0.632670  0.920180  0.416770  1.0  -0.1303
  N  N202  1  0.676660  0.867220  0.406390  1.0  -0.4158
  N  N203  1  0.367330  0.920180  0.583230  1.0  -0.1303
  N  N204  1  0.323340  0.867220  0.593610  1.0  -0.413
  N  N205  1  0.632670  0.583230  0.920180  1.0  -0.1318
  N  N206  1  0.676660  0.593610  0.867220  1.0  -0.417
  N  N207  1  0.367330  0.416770  0.920180  1.0  -0.1314
  N  N208  1  0.323340  0.406390  0.867220  1.0  -0.4147
  N  N209  1  0.632670  0.416770  0.079820  1.0  -0.1314
  N  N210  1  0.676660  0.406390  0.132780  1.0  -0.4175
  N  N211  1  0.367330  0.583230  0.079820  1.0  -0.1319
  N  N212  1  0.323340  0.593610  0.132780  1.0  -0.4147
  N  N213  1  0.583230  0.079820  0.367330  1.0  -0.1321
  N  N214  1  0.593610  0.132780  0.323340  1.0  -0.415
  N  N215  1  0.416770  0.079820  0.632670  1.0  -0.1299
  N  N216  1  0.406390  0.132780  0.676660  1.0  -0.4145
  N  N217  1  0.416770  0.920180  0.367330  1.0  -0.1296
  N  N218  1  0.406390  0.867220  0.323340  1.0  -0.4172
  N  N219  1  0.583230  0.920180  0.632670  1.0  -0.1307
  N  N220  1  0.593610  0.867220  0.676660  1.0  -0.4147
  N  N221  1  0.079820  0.632670  0.416770  1.0  -0.1318
  N  N222  1  0.132780  0.676660  0.406390  1.0  -0.4148
  N  N223  1  0.079820  0.367330  0.583230  1.0  -0.1308
  N  N224  1  0.132780  0.323340  0.593610  1.0  -0.4155
  N  N225  1  0.920180  0.632670  0.583230  1.0  -0.1292
  N  N226  1  0.867220  0.676660  0.593610  1.0  -0.4149
  N  N227  1  0.920180  0.367330  0.416770  1.0  -0.1293
  N  N228  1  0.867220  0.323340  0.406390  1.0  -0.4144
  Cl  Cl229  1  0.500000  0.500000  0.000000  1.0  -0.3518
  Cl  Cl230  1  0.000000  0.500000  0.500000  1.0  -0.3518
  Cl  Cl231  1  0.500000  0.000000  0.500000  1.0  -0.3518
