# generated using pymatgen
data_Mn4Cu12H8C24N32Cl
_symmetry_space_group_name_H-M   'P 1'
_cell_length_a   18.48520000
_cell_length_b   18.48520000
_cell_length_c   18.48520000
_cell_angle_alpha   90.00000000
_cell_angle_beta   90.00000000
_cell_angle_gamma   90.00000000
_symmetry_Int_Tables_number   1
_chemical_formula_structural   Mn4Cu12H8C24N32Cl
_chemical_formula_sum   'Mn12 Cu36 H24 C72 N96 Cl3'
_cell_volume   6316.44125348
_cell_formula_units_Z   3
loop_
 _symmetry_equiv_pos_site_id
 _symmetry_equiv_pos_as_xyz
  1  'x, y, z'
loop_
 _atom_site_type_symbol
 _atom_site_label
 _atom_site_symmetry_multiplicity
 _atom_site_fract_x
 _atom_site_fract_y
 _atom_site_fract_z
 _atom_site_occupancy
 _atom_site_charge
  Mn  Mn1  1  0.500000  0.348000  0.000000  1.0  0.5046
  Mn  Mn2  1  0.500000  0.652000  0.000000  1.0  0.5007
  Mn  Mn3  1  0.000000  0.500000  0.348000  1.0  0.504
  Mn  Mn4  1  0.000000  0.500000  0.652000  1.0  0.4894
  Mn  Mn5  1  0.348000  0.000000  0.500000  1.0  0.5113
  Mn  Mn6  1  0.652000  0.000000  0.500000  1.0  0.5054
  Mn  Mn7  1  0.348000  0.500000  0.000000  1.0  0.5113
  Mn  Mn8  1  0.652000  0.500000  0.000000  1.0  0.5054
  Mn  Mn9  1  0.500000  0.000000  0.652000  1.0  0.4894
  Mn  Mn10  1  0.500000  0.000000  0.348000  1.0  0.504
  Mn  Mn11  1  0.000000  0.348000  0.500000  1.0  0.5046
  Mn  Mn12  1  0.000000  0.652000  0.500000  1.0  0.5007
  Cu  Cu13  1  0.500000  0.363600  0.000000  1.0  0.8121
  Cu  Cu14  1  0.500000  0.636400  0.000000  1.0  0.8112
  Cu  Cu15  1  0.000000  0.500000  0.363600  1.0  0.8056
  Cu  Cu16  1  0.000000  0.500000  0.636400  1.0  0.8038
  Cu  Cu17  1  0.363600  0.000000  0.500000  1.0  0.8111
  Cu  Cu18  1  0.636400  0.000000  0.500000  1.0  0.8145
  Cu  Cu19  1  0.363600  0.500000  0.000000  1.0  0.8111
  Cu  Cu20  1  0.636400  0.500000  0.000000  1.0  0.8145
  Cu  Cu21  1  0.500000  0.000000  0.636400  1.0  0.8038
  Cu  Cu22  1  0.500000  0.000000  0.363600  1.0  0.8056
  Cu  Cu23  1  0.000000  0.363600  0.500000  1.0  0.8121
  Cu  Cu24  1  0.000000  0.636400  0.500000  1.0  0.8112
  Cu  Cu25  1  0.500000  0.256500  0.137000  1.0  0.2082
  Cu  Cu26  1  0.500000  0.743500  0.137000  1.0  0.208
  Cu  Cu27  1  0.500000  0.256500  0.863000  1.0  0.2081
  Cu  Cu28  1  0.500000  0.743500  0.863000  1.0  0.2081
  Cu  Cu29  1  0.137000  0.500000  0.256500  1.0  0.2083
  Cu  Cu30  1  0.137000  0.500000  0.743500  1.0  0.209
  Cu  Cu31  1  0.863000  0.500000  0.256500  1.0  0.2086
  Cu  Cu32  1  0.863000  0.500000  0.743500  1.0  0.2093
  Cu  Cu33  1  0.256500  0.137000  0.500000  1.0  0.2203
  Cu  Cu34  1  0.743500  0.137000  0.500000  1.0  0.2199
  Cu  Cu35  1  0.256500  0.863000  0.500000  1.0  0.2205
  Cu  Cu36  1  0.743500  0.863000  0.500000  1.0  0.2204
  Cu  Cu37  1  0.256500  0.500000  0.863000  1.0  0.2198
  Cu  Cu38  1  0.743500  0.500000  0.863000  1.0  0.2197
  Cu  Cu39  1  0.256500  0.500000  0.137000  1.0  0.2196
  Cu  Cu40  1  0.743500  0.500000  0.137000  1.0  0.2194
  Cu  Cu41  1  0.500000  0.137000  0.743500  1.0  0.2087
  Cu  Cu42  1  0.500000  0.137000  0.256500  1.0  0.2074
  Cu  Cu43  1  0.500000  0.863000  0.743500  1.0  0.2085
  Cu  Cu44  1  0.500000  0.863000  0.256500  1.0  0.208
  Cu  Cu45  1  0.137000  0.256500  0.500000  1.0  0.2085
  Cu  Cu46  1  0.137000  0.743500  0.500000  1.0  0.2088
  Cu  Cu47  1  0.863000  0.256500  0.500000  1.0  0.2093
  Cu  Cu48  1  0.863000  0.743500  0.500000  1.0  0.2089
  H  H49  1  0.388500  0.236150  0.236150  1.0  0.069
  H  H50  1  0.611500  0.763850  0.236150  1.0  0.0691
  H  H51  1  0.611500  0.236150  0.763850  1.0  0.0697
  H  H52  1  0.388500  0.763850  0.763850  1.0  0.0693
  H  H53  1  0.236150  0.388500  0.236150  1.0  0.0681
  H  H54  1  0.236150  0.611500  0.763850  1.0  0.0684
  H  H55  1  0.763850  0.611500  0.236150  1.0  0.0686
  H  H56  1  0.763850  0.388500  0.763850  1.0  0.0682
  H  H57  1  0.236150  0.236150  0.388500  1.0  0.0684
  H  H58  1  0.763850  0.236150  0.611500  1.0  0.0684
  H  H59  1  0.236150  0.763850  0.611500  1.0  0.0686
  H  H60  1  0.763850  0.763850  0.388500  1.0  0.0686
  H  H61  1  0.236150  0.388500  0.763850  1.0  0.0682
  H  H62  1  0.763850  0.611500  0.763850  1.0  0.0689
  H  H63  1  0.236150  0.611500  0.236150  1.0  0.0681
  H  H64  1  0.763850  0.388500  0.236150  1.0  0.068
  H  H65  1  0.388500  0.236150  0.763850  1.0  0.0695
  H  H66  1  0.611500  0.236150  0.236150  1.0  0.069
  H  H67  1  0.611500  0.763850  0.763850  1.0  0.0694
  H  H68  1  0.388500  0.763850  0.236150  1.0  0.0689
  H  H69  1  0.236150  0.236150  0.611500  1.0  0.0682
  H  H70  1  0.236150  0.763850  0.388500  1.0  0.0683
  H  H71  1  0.763850  0.236150  0.388500  1.0  0.0686
  H  H72  1  0.763850  0.763850  0.611500  1.0  0.0687
  C  C73  1  0.350800  0.350800  0.162300  1.0  0.3257
  C  C74  1  0.319100  0.319100  0.227600  1.0  -0.1002
  C  C75  1  0.649200  0.649200  0.162300  1.0  0.3259
  C  C76  1  0.680900  0.680900  0.227600  1.0  -0.1
  C  C77  1  0.649200  0.350800  0.837700  1.0  0.3261
  C  C78  1  0.680900  0.319100  0.772400  1.0  -0.0996
  C  C79  1  0.350800  0.649200  0.837700  1.0  0.3263
  C  C80  1  0.319100  0.680900  0.772400  1.0  -0.1
  C  C81  1  0.162300  0.350800  0.350800  1.0  0.3258
  C  C82  1  0.227600  0.319100  0.319100  1.0  -0.0996
  C  C83  1  0.162300  0.649200  0.649200  1.0  0.326
  C  C84  1  0.227600  0.680900  0.680900  1.0  -0.0999
  C  C85  1  0.837700  0.649200  0.350800  1.0  0.3254
  C  C86  1  0.772400  0.680900  0.319100  1.0  -0.099
  C  C87  1  0.837700  0.350800  0.649200  1.0  0.3251
  C  C88  1  0.772400  0.319100  0.680900  1.0  -0.0993
  C  C89  1  0.350800  0.162300  0.350800  1.0  0.3258
  C  C90  1  0.319100  0.227600  0.319100  1.0  -0.0993
  C  C91  1  0.649200  0.162300  0.649200  1.0  0.326
  C  C92  1  0.680900  0.227600  0.680900  1.0  -0.0994
  C  C93  1  0.350800  0.837700  0.649200  1.0  0.3256
  C  C94  1  0.319100  0.772400  0.680900  1.0  -0.0991
  C  C95  1  0.649200  0.837700  0.350800  1.0  0.326
  C  C96  1  0.680900  0.772400  0.319100  1.0  -0.0989
  C  C97  1  0.350800  0.350800  0.837700  1.0  0.3259
  C  C98  1  0.319100  0.319100  0.772400  1.0  -0.0998
  C  C99  1  0.649200  0.649200  0.837700  1.0  0.3264
  C  C100  1  0.680900  0.680900  0.772400  1.0  -0.0997
  C  C101  1  0.350800  0.649200  0.162300  1.0  0.326
  C  C102  1  0.319100  0.680900  0.227600  1.0  -0.1002
  C  C103  1  0.649200  0.350800  0.162300  1.0  0.3258
  C  C104  1  0.680900  0.319100  0.227600  1.0  -0.1001
  C  C105  1  0.350800  0.162300  0.649200  1.0  0.3258
  C  C106  1  0.319100  0.227600  0.680900  1.0  -0.0996
  C  C107  1  0.649200  0.162300  0.350800  1.0  0.326
  C  C108  1  0.680900  0.227600  0.319100  1.0  -0.0991
  C  C109  1  0.649200  0.837700  0.649200  1.0  0.3259
  C  C110  1  0.680900  0.772400  0.680900  1.0  -0.0991
  C  C111  1  0.350800  0.837700  0.350800  1.0  0.3258
  C  C112  1  0.319100  0.772400  0.319100  1.0  -0.099
  C  C113  1  0.162300  0.350800  0.649200  1.0  0.3256
  C  C114  1  0.227600  0.319100  0.680900  1.0  -0.0999
  C  C115  1  0.162300  0.649200  0.350800  1.0  0.3262
  C  C116  1  0.227600  0.680900  0.319100  1.0  -0.0997
  C  C117  1  0.837700  0.350800  0.350800  1.0  0.325
  C  C118  1  0.772400  0.319100  0.319100  1.0  -0.099
  C  C119  1  0.837700  0.649200  0.649200  1.0  0.3255
  C  C120  1  0.772400  0.680900  0.680900  1.0  -0.0993
  C  C121  1  0.348400  0.257700  0.257700  1.0  -0.0856
  C  C122  1  0.651600  0.742300  0.257700  1.0  -0.0855
  C  C123  1  0.651600  0.257700  0.742300  1.0  -0.0848
  C  C124  1  0.348400  0.742300  0.742300  1.0  -0.0846
  C  C125  1  0.257700  0.348400  0.257700  1.0  -0.0834
  C  C126  1  0.257700  0.651600  0.742300  1.0  -0.084
  C  C127  1  0.742300  0.651600  0.257700  1.0  -0.0845
  C  C128  1  0.742300  0.348400  0.742300  1.0  -0.0834
  C  C129  1  0.257700  0.257700  0.348400  1.0  -0.0865
  C  C130  1  0.742300  0.257700  0.651600  1.0  -0.086
  C  C131  1  0.257700  0.742300  0.651600  1.0  -0.0857
  C  C132  1  0.742300  0.742300  0.348400  1.0  -0.086
  C  C133  1  0.257700  0.348400  0.742300  1.0  -0.0832
  C  C134  1  0.742300  0.651600  0.742300  1.0  -0.0846
  C  C135  1  0.257700  0.651600  0.257700  1.0  -0.0845
  C  C136  1  0.742300  0.348400  0.257700  1.0  -0.084
  C  C137  1  0.348400  0.257700  0.742300  1.0  -0.0848
  C  C138  1  0.651600  0.257700  0.257700  1.0  -0.0853
  C  C139  1  0.651600  0.742300  0.742300  1.0  -0.0847
  C  C140  1  0.348400  0.742300  0.257700  1.0  -0.0849
  C  C141  1  0.257700  0.257700  0.651600  1.0  -0.086
  C  C142  1  0.257700  0.742300  0.348400  1.0  -0.0864
  C  C143  1  0.742300  0.257700  0.348400  1.0  -0.086
  C  C144  1  0.742300  0.742300  0.651600  1.0  -0.0859
  N  N145  1  0.420300  0.369700  0.075000  1.0  -0.1488
  N  N146  1  0.409500  0.324700  0.130400  1.0  -0.376
  N  N147  1  0.579700  0.630300  0.075000  1.0  -0.1473
  N  N148  1  0.590500  0.675300  0.130400  1.0  -0.3735
  N  N149  1  0.579700  0.369700  0.925000  1.0  -0.1473
  N  N150  1  0.590500  0.324700  0.869600  1.0  -0.375
  N  N151  1  0.420300  0.630300  0.925000  1.0  -0.149
  N  N152  1  0.409500  0.675300  0.869600  1.0  -0.3758
  N  N153  1  0.075000  0.420300  0.369700  1.0  -0.1488
  N  N154  1  0.130400  0.409500  0.324700  1.0  -0.38
  N  N155  1  0.075000  0.579700  0.630300  1.0  -0.1464
  N  N156  1  0.130400  0.590500  0.675300  1.0  -0.3768
  N  N157  1  0.925000  0.579700  0.369700  1.0  -0.1502
  N  N158  1  0.869600  0.590500  0.324700  1.0  -0.3811
  N  N159  1  0.925000  0.420300  0.630300  1.0  -0.1487
  N  N160  1  0.869600  0.409500  0.675300  1.0  -0.3777
  N  N161  1  0.369700  0.075000  0.420300  1.0  -0.148
  N  N162  1  0.324700  0.130400  0.409500  1.0  -0.3729
  N  N163  1  0.630300  0.075000  0.579700  1.0  -0.1467
  N  N164  1  0.675300  0.130400  0.590500  1.0  -0.3774
  N  N165  1  0.369700  0.925000  0.579700  1.0  -0.1484
  N  N166  1  0.324700  0.869600  0.590500  1.0  -0.3744
  N  N167  1  0.630300  0.925000  0.420300  1.0  -0.1457
  N  N168  1  0.675300  0.869600  0.409500  1.0  -0.3761
  N  N169  1  0.369700  0.420300  0.925000  1.0  -0.1477
  N  N170  1  0.324700  0.409500  0.869600  1.0  -0.372
  N  N171  1  0.630300  0.579700  0.925000  1.0  -0.147
  N  N172  1  0.675300  0.590500  0.869600  1.0  -0.3768
  N  N173  1  0.369700  0.579700  0.075000  1.0  -0.149
  N  N174  1  0.324700  0.590500  0.130400  1.0  -0.3727
  N  N175  1  0.630300  0.420300  0.075000  1.0  -0.1466
  N  N176  1  0.675300  0.409500  0.130400  1.0  -0.3761
  N  N177  1  0.420300  0.075000  0.630300  1.0  -0.1503
  N  N178  1  0.409500  0.130400  0.675300  1.0  -0.3763
  N  N179  1  0.579700  0.075000  0.369700  1.0  -0.1493
  N  N180  1  0.590500  0.130400  0.324700  1.0  -0.3779
  N  N181  1  0.579700  0.925000  0.630300  1.0  -0.1473
  N  N182  1  0.590500  0.869600  0.675300  1.0  -0.3751
  N  N183  1  0.420300  0.925000  0.369700  1.0  -0.1511
  N  N184  1  0.409500  0.869600  0.324700  1.0  -0.381
  N  N185  1  0.075000  0.369700  0.579700  1.0  -0.1489
  N  N186  1  0.130400  0.324700  0.590500  1.0  -0.3779
  N  N187  1  0.075000  0.630300  0.420300  1.0  -0.1489
  N  N188  1  0.130400  0.675300  0.409500  1.0  -0.3761
  N  N189  1  0.925000  0.369700  0.420300  1.0  -0.1518
  N  N190  1  0.869600  0.324700  0.409500  1.0  -0.3772
  N  N191  1  0.925000  0.630300  0.579700  1.0  -0.1526
  N  N192  1  0.869600  0.675300  0.590500  1.0  -0.3773
  N  N193  1  0.579700  0.630300  0.925000  1.0  -0.1479
  N  N194  1  0.590500  0.675300  0.869600  1.0  -0.3739
  N  N195  1  0.420300  0.369700  0.925000  1.0  -0.1496
  N  N196  1  0.409500  0.324700  0.869600  1.0  -0.3761
  N  N197  1  0.420300  0.630300  0.075000  1.0  -0.1505
  N  N198  1  0.409500  0.675300  0.130400  1.0  -0.3756
  N  N199  1  0.579700  0.369700  0.075000  1.0  -0.1475
  N  N200  1  0.590500  0.324700  0.130400  1.0  -0.3749
  N  N201  1  0.925000  0.579700  0.630300  1.0  -0.1505
  N  N202  1  0.869600  0.590500  0.675300  1.0  -0.3778
  N  N203  1  0.925000  0.420300  0.369700  1.0  -0.1507
  N  N204  1  0.869600  0.409500  0.324700  1.0  -0.3799
  N  N205  1  0.075000  0.420300  0.630300  1.0  -0.1464
  N  N206  1  0.130400  0.409500  0.675300  1.0  -0.3771
  N  N207  1  0.075000  0.579700  0.369700  1.0  -0.1483
  N  N208  1  0.130400  0.590500  0.324700  1.0  -0.3812
  N  N209  1  0.630300  0.925000  0.579700  1.0  -0.1467
  N  N210  1  0.675300  0.869600  0.590500  1.0  -0.3782
  N  N211  1  0.369700  0.925000  0.420300  1.0  -0.1481
  N  N212  1  0.324700  0.869600  0.409500  1.0  -0.3733
  N  N213  1  0.630300  0.075000  0.420300  1.0  -0.147
  N  N214  1  0.675300  0.130400  0.409500  1.0  -0.3759
  N  N215  1  0.369700  0.075000  0.579700  1.0  -0.1491
  N  N216  1  0.324700  0.130400  0.590500  1.0  -0.3736
  N  N217  1  0.630300  0.579700  0.075000  1.0  -0.1486
  N  N218  1  0.675300  0.590500  0.130400  1.0  -0.3763
  N  N219  1  0.369700  0.420300  0.075000  1.0  -0.1498
  N  N220  1  0.324700  0.409500  0.130400  1.0  -0.3717
  N  N221  1  0.630300  0.420300  0.925000  1.0  -0.147
  N  N222  1  0.675300  0.409500  0.869600  1.0  -0.3763
  N  N223  1  0.369700  0.579700  0.925000  1.0  -0.1496
  N  N224  1  0.324700  0.590500  0.869600  1.0  -0.3732
  N  N225  1  0.579700  0.925000  0.369700  1.0  -0.1506
  N  N226  1  0.590500  0.869600  0.324700  1.0  -0.3789
  N  N227  1  0.420300  0.925000  0.630300  1.0  -0.1508
  N  N228  1  0.409500  0.869600  0.675300  1.0  -0.3767
  N  N229  1  0.420300  0.075000  0.369700  1.0  -0.1524
  N  N230  1  0.409500  0.130400  0.324700  1.0  -0.3799
  N  N231  1  0.579700  0.075000  0.630300  1.0  -0.1491
  N  N232  1  0.590500  0.130400  0.675300  1.0  -0.3749
  N  N233  1  0.925000  0.630300  0.420300  1.0  -0.1535
  N  N234  1  0.869600  0.675300  0.409500  1.0  -0.3756
  N  N235  1  0.925000  0.369700  0.579700  1.0  -0.1528
  N  N236  1  0.869600  0.324700  0.590500  1.0  -0.3782
  N  N237  1  0.075000  0.630300  0.579700  1.0  -0.15
  N  N238  1  0.130400  0.675300  0.590500  1.0  -0.3776
  N  N239  1  0.075000  0.369700  0.420300  1.0  -0.1505
  N  N240  1  0.130400  0.324700  0.409500  1.0  -0.377
  Cl  Cl241  1  0.500000  0.500000  0.000000  1.0  -0.2207
  Cl  Cl242  1  0.000000  0.500000  0.500000  1.0  -0.2207
  Cl  Cl243  1  0.500000  0.000000  0.500000  1.0  -0.2207
