# generated using pymatgen
data_LuH3C8NO6
_symmetry_space_group_name_H-M   'P 1'
_cell_length_a   6.60080000
_cell_length_b   12.82500000
_cell_length_c   13.31000000
_cell_angle_alpha   90.00000000
_cell_angle_beta   103.63000000
_cell_angle_gamma   90.00000000
_symmetry_Int_Tables_number   1
_chemical_formula_structural   LuH3C8NO6
_chemical_formula_sum   'Lu4 H12 C32 N4 O24'
_cell_volume   1095.02936812
_cell_formula_units_Z   4
loop_
 _symmetry_equiv_pos_site_id
 _symmetry_equiv_pos_as_xyz
  1  'x, y, z'
loop_
 _atom_site_type_symbol
 _atom_site_label
 _atom_site_symmetry_multiplicity
 _atom_site_fract_x
 _atom_site_fract_y
 _atom_site_fract_z
 _atom_site_occupancy
 _atom_site_charge
  Lu  Lu1  1  0.260930  0.076190  0.705520  1.0  1.9224
  Lu  Lu2  1  0.239070  0.576190  0.294480  1.0  1.9227
  Lu  Lu3  1  0.739070  0.923810  0.294480  1.0  1.9233
  Lu  Lu4  1  0.760930  0.423810  0.705520  1.0  1.9231
  H  H5  1  0.124500  0.057700  0.971200  1.0  0.0786
  H  H6  1  0.094100  0.367400  0.988700  1.0  0.1163
  H  H7  1  0.252800  0.190900  0.241300  1.0  0.0806
  H  H8  1  0.375500  0.557700  0.028800  1.0  0.0787
  H  H9  1  0.405900  0.867400  0.011300  1.0  0.1158
  H  H10  1  0.247200  0.690900  0.758700  1.0  0.0817
  H  H11  1  0.875500  0.942300  0.028800  1.0  0.0783
  H  H12  1  0.905900  0.632600  0.011300  1.0  0.1155
  H  H13  1  0.747200  0.809100  0.758700  1.0  0.0822
  H  H14  1  0.624500  0.442300  0.971200  1.0  0.0787
  H  H15  1  0.594100  0.132600  0.988700  1.0  0.1156
  H  H16  1  0.752800  0.309100  0.241300  1.0  0.0805
  C  C17  1  0.137200  0.117900  0.011100  1.0  0.2351
  C  C18  1  0.097000  0.213400  0.961000  1.0  -0.2675
  C  C19  1  0.120300  0.302300  0.019900  1.0  0.0752
  C  C20  1  0.183300  0.293800  0.126300  1.0  -0.2375
  C  C21  1  0.214700  0.196000  0.169600  1.0  0.2231
  C  C22  1  0.024800  0.223100  0.846000  1.0  0.7852
  C  C23  1  0.212000  0.390500  0.190400  1.0  0.6637
  C  C24  1  0.899100  0.005900  0.519500  1.0  0.5755
  C  C25  1  0.362800  0.617900  0.988900  1.0  0.235
  C  C26  1  0.403000  0.713400  0.039000  1.0  -0.2705
  C  C27  1  0.379700  0.802300  0.980100  1.0  0.0739
  C  C28  1  0.316700  0.793800  0.873700  1.0  -0.2359
  C  C29  1  0.285300  0.696000  0.830400  1.0  0.2252
  C  C30  1  0.475200  0.723100  0.154000  1.0  0.7834
  C  C31  1  0.288000  0.890500  0.809600  1.0  0.6637
  C  C32  1  0.600900  0.505900  0.480500  1.0  0.5753
  C  C33  1  0.862800  0.882100  0.988900  1.0  0.2279
  C  C34  1  0.903000  0.786600  0.039000  1.0  -0.2702
  C  C35  1  0.879700  0.697700  0.980100  1.0  0.0735
  C  C36  1  0.816700  0.706200  0.873700  1.0  -0.2381
  C  C37  1  0.785300  0.804000  0.830400  1.0  0.2244
  C  C38  1  0.975200  0.776900  0.154000  1.0  0.7801
  C  C39  1  0.788000  0.609500  0.809600  1.0  0.6642
  C  C40  1  0.100900  0.994100  0.480500  1.0  0.5756
  C  C41  1  0.637200  0.382100  0.011100  1.0  0.2282
  C  C42  1  0.597000  0.286600  0.961000  1.0  -0.2667
  C  C43  1  0.620300  0.197700  0.019900  1.0  0.0747
  C  C44  1  0.683300  0.206200  0.126300  1.0  -0.2371
  C  C45  1  0.714700  0.304000  0.169600  1.0  0.2216
  C  C46  1  0.524800  0.276900  0.846000  1.0  0.7823
  C  C47  1  0.712000  0.109500  0.190400  1.0  0.6639
  C  C48  1  0.399100  0.494100  0.519500  1.0  0.5756
  N  N49  1  0.193400  0.108300  0.114500  1.0  -0.4153
  N  N50  1  0.306600  0.608300  0.885500  1.0  -0.4151
  N  N51  1  0.806600  0.891700  0.885500  1.0  -0.4155
  N  N52  1  0.693400  0.391700  0.114500  1.0  -0.4158
  O  O53  1  0.029100  0.143700  0.788300  1.0  -0.698
  O  O54  1  0.957500  0.309600  0.813800  1.0  -0.6843
  O  O55  1  0.167000  0.478300  0.145500  1.0  -0.6145
  O  O56  1  0.277900  0.386800  0.287400  1.0  -0.6143
  O  O57  1  0.920900  0.045200  0.607900  1.0  -0.6083
  O  O58  1  0.734700  0.976700  0.461200  1.0  -0.609
  O  O59  1  0.470900  0.643700  0.211700  1.0  -0.6961
  O  O60  1  0.542500  0.809600  0.186200  1.0  -0.6857
  O  O61  1  0.333000  0.978300  0.854500  1.0  -0.6153
  O  O62  1  0.222100  0.886800  0.712600  1.0  -0.6129
  O  O63  1  0.579100  0.545200  0.392100  1.0  -0.6079
  O  O64  1  0.765300  0.476700  0.538800  1.0  -0.6089
  O  O65  1  0.970900  0.856300  0.211700  1.0  -0.6969
  O  O66  1  0.042500  0.690400  0.186200  1.0  -0.6853
  O  O67  1  0.833000  0.521700  0.854500  1.0  -0.6173
  O  O68  1  0.722100  0.613200  0.712600  1.0  -0.6128
  O  O69  1  0.079100  0.954800  0.392100  1.0  -0.6081
  O  O70  1  0.265300  0.023300  0.538800  1.0  -0.6094
  O  O71  1  0.529100  0.356300  0.788300  1.0  -0.6974
  O  O72  1  0.457500  0.190400  0.813800  1.0  -0.6828
  O  O73  1  0.667000  0.021700  0.145500  1.0  -0.6178
  O  O74  1  0.777900  0.113200  0.287400  1.0  -0.6147
  O  O75  1  0.420900  0.454800  0.607900  1.0  -0.6076
  O  O76  1  0.234700  0.523300  0.461200  1.0  -0.6097
