# generated using pymatgen
data_TmH3C8NO6
_symmetry_space_group_name_H-M   'P 1'
_cell_length_a   7.57160000
_cell_length_b   9.78910000
_cell_length_c   14.67020000
_cell_angle_alpha   90.00000000
_cell_angle_beta   97.93300000
_cell_angle_gamma   90.00000000
_symmetry_Int_Tables_number   1
_chemical_formula_structural   TmH3C8NO6
_chemical_formula_sum   'Tm4 H12 C32 N4 O24'
_cell_volume   1076.93702628
_cell_formula_units_Z   4
loop_
 _symmetry_equiv_pos_site_id
 _symmetry_equiv_pos_as_xyz
  1  'x, y, z'
loop_
 _atom_site_type_symbol
 _atom_site_label
 _atom_site_symmetry_multiplicity
 _atom_site_fract_x
 _atom_site_fract_y
 _atom_site_fract_z
 _atom_site_occupancy
 _atom_site_charge
  Tm  Tm1  1  0.848110  0.455710  0.638730  1.0  2.1781
  Tm  Tm2  1  0.651890  0.955710  0.861270  1.0  2.1795
  Tm  Tm3  1  0.151890  0.544290  0.361270  1.0  2.1794
  Tm  Tm4  1  0.348110  0.044290  0.138730  1.0  2.1781
  H  H5  1  0.831200  0.886800  0.636900  1.0  0.1088
  H  H6  1  0.612600  0.198800  0.484200  1.0  0.0687
  H  H7  1  0.797500  0.887000  0.361500  1.0  0.0868
  H  H8  1  0.668800  0.386800  0.863100  1.0  0.1095
  H  H9  1  0.887400  0.698800  0.015800  1.0  0.068
  H  H10  1  0.702500  0.387000  0.138500  1.0  0.087
  H  H11  1  0.168800  0.113200  0.363100  1.0  0.1094
  H  H12  1  0.387400  0.801200  0.515800  1.0  0.0682
  H  H13  1  0.202500  0.113000  0.638500  1.0  0.0868
  H  H14  1  0.331200  0.613200  0.136900  1.0  0.1087
  H  H15  1  0.112600  0.301200  0.984200  1.0  0.068
  H  H16  1  0.297500  0.613000  0.861500  1.0  0.0867
  C  C17  1  0.720900  0.058800  0.574920  1.0  -0.2758
  C  C18  1  0.692900  0.139600  0.658450  1.0  0.8051
  C  C19  1  0.799100  0.929200  0.580300  1.0  0.0924
  C  C20  1  0.544100  0.468800  0.460120  1.0  0.5459
  C  C21  1  0.667300  0.113600  0.487760  1.0  0.2676
  C  C22  1  0.912700  0.725500  0.500580  1.0  0.8438
  C  C23  1  0.827700  0.864900  0.498760  1.0  -0.2587
  C  C24  1  0.774200  0.929400  0.415400  1.0  0.2286
  C  C25  1  0.779100  0.558800  0.925080  1.0  -0.2745
  C  C26  1  0.807100  0.639600  0.841550  1.0  0.8117
  C  C27  1  0.700900  0.429200  0.919700  1.0  0.0918
  C  C28  1  0.955900  0.968800  0.039880  1.0  0.5448
  C  C29  1  0.832700  0.613600  0.012240  1.0  0.2683
  C  C30  1  0.587300  0.225500  0.999420  1.0  0.8429
  C  C31  1  0.672300  0.364900  0.001240  1.0  -0.2572
  C  C32  1  0.725800  0.429400  0.084600  1.0  0.2288
  C  C33  1  0.279100  0.941200  0.425080  1.0  -0.2752
  C  C34  1  0.307100  0.860400  0.341550  1.0  0.8137
  C  C35  1  0.200900  0.070800  0.419700  1.0  0.091
  C  C36  1  0.455900  0.531200  0.539880  1.0  0.545
  C  C37  1  0.332700  0.886400  0.512240  1.0  0.2685
  C  C38  1  0.087300  0.274500  0.499420  1.0  0.8457
  C  C39  1  0.172300  0.135100  0.501240  1.0  -0.2567
  C  C40  1  0.225800  0.070600  0.584600  1.0  0.2288
  C  C41  1  0.220900  0.441200  0.074920  1.0  -0.2753
  C  C42  1  0.192900  0.360400  0.158450  1.0  0.8068
  C  C43  1  0.299100  0.570800  0.080300  1.0  0.0915
  C  C44  1  0.044100  0.031200  0.960120  1.0  0.5461
  C  C45  1  0.167300  0.386400  0.987760  1.0  0.2676
  C  C46  1  0.412700  0.774500  0.000580  1.0  0.8467
  C  C47  1  0.327700  0.635100  0.998760  1.0  -0.2581
  C  C48  1  0.274200  0.570600  0.915400  1.0  0.2284
  N  N49  1  0.689700  0.051400  0.409020  1.0  -0.4569
  N  N50  1  0.810300  0.551400  0.090980  1.0  -0.4579
  N  N51  1  0.310300  0.948600  0.590980  1.0  -0.4562
  N  N52  1  0.189700  0.448600  0.909020  1.0  -0.4575
  O  O53  1  0.705700  0.436100  0.479470  1.0  -0.6011
  O  O54  1  0.665700  0.267860  0.647000  1.0  -0.7285
  O  O55  1  0.905900  0.653900  0.570760  1.0  -0.7563
  O  O56  1  0.698100  0.080100  0.734050  1.0  -0.7693
  O  O57  1  0.983400  0.690500  0.431330  1.0  -0.7948
  O  O58  1  0.447100  0.453500  0.384420  1.0  -0.5902
  O  O59  1  0.794300  0.936100  0.020530  1.0  -0.6018
  O  O60  1  0.834300  0.767860  0.853000  1.0  -0.7296
  O  O61  1  0.594100  0.153900  0.929240  1.0  -0.7566
  O  O62  1  0.801900  0.580100  0.765950  1.0  -0.7697
  O  O63  1  0.516600  0.190500  0.068670  1.0  -0.7942
  O  O64  1  0.052900  0.953500  0.115580  1.0  -0.5912
  O  O65  1  0.294300  0.563900  0.520530  1.0  -0.6028
  O  O66  1  0.334300  0.732140  0.353000  1.0  -0.7296
  O  O67  1  0.094100  0.346100  0.429240  1.0  -0.7561
  O  O68  1  0.301900  0.919900  0.265950  1.0  -0.7675
  O  O69  1  0.016600  0.309500  0.568670  1.0  -0.7956
  O  O70  1  0.552900  0.546500  0.615580  1.0  -0.5915
  O  O71  1  0.205700  0.063900  0.979470  1.0  -0.6016
  O  O72  1  0.165700  0.232140  0.147000  1.0  -0.7263
  O  O73  1  0.405900  0.846100  0.070760  1.0  -0.756
  O  O74  1  0.198100  0.419900  0.234050  1.0  -0.7674
  O  O75  1  0.483400  0.809500  0.931330  1.0  -0.7954
  O  O76  1  0.947100  0.046500  0.884420  1.0  -0.5901
