# generated using pymatgen
data_YbH3C8NO6
_symmetry_space_group_name_H-M   'P 1'
_cell_length_a   7.60260000
_cell_length_b   9.77980000
_cell_length_c   14.64230000
_cell_angle_alpha   90.00000000
_cell_angle_beta   98.07500000
_cell_angle_gamma   90.00000000
_symmetry_Int_Tables_number   1
_chemical_formula_structural   YbH3C8NO6
_chemical_formula_sum   'Yb4 H12 C32 N4 O24'
_cell_volume   1077.88869066
_cell_formula_units_Z   4
loop_
 _symmetry_equiv_pos_site_id
 _symmetry_equiv_pos_as_xyz
  1  'x, y, z'
loop_
 _atom_site_type_symbol
 _atom_site_label
 _atom_site_symmetry_multiplicity
 _atom_site_fract_x
 _atom_site_fract_y
 _atom_site_fract_z
 _atom_site_occupancy
 _atom_site_charge
  Yb  Yb1  1  0.848020  0.954380  0.638350  1.0  1.5397
  Yb  Yb2  1  0.651980  0.454380  0.861650  1.0  1.5395
  Yb  Yb3  1  0.151980  0.045620  0.361650  1.0  1.5394
  Yb  Yb4  1  0.348020  0.545620  0.138350  1.0  1.5397
  H  H5  1  0.828700  0.385000  0.637300  1.0  0.115
  H  H6  1  0.614200  0.698200  0.484900  1.0  0.0768
  H  H7  1  0.801000  0.388400  0.361300  1.0  0.0981
  H  H8  1  0.671300  0.885000  0.862700  1.0  0.1149
  H  H9  1  0.885800  0.198200  0.015100  1.0  0.0762
  H  H10  1  0.699000  0.888400  0.138700  1.0  0.0979
  H  H11  1  0.171300  0.615000  0.362700  1.0  0.1149
  H  H12  1  0.385800  0.301800  0.515100  1.0  0.0762
  H  H13  1  0.199000  0.611600  0.638700  1.0  0.0977
  H  H14  1  0.328700  0.115000  0.137300  1.0  0.1149
  H  H15  1  0.114200  0.801800  0.984900  1.0  0.0761
  H  H16  1  0.301000  0.111600  0.861300  1.0  0.098
  C  C17  1  0.693500  0.638100  0.658800  1.0  0.7755
  C  C18  1  0.721700  0.557600  0.575600  1.0  -0.2529
  C  C19  1  0.543500  0.968100  0.460200  1.0  0.5356
  C  C20  1  0.798200  0.428000  0.580700  1.0  0.0854
  C  C21  1  0.668900  0.612900  0.488300  1.0  0.2372
  C  C22  1  0.913200  0.224900  0.500900  1.0  0.8009
  C  C23  1  0.828200  0.363700  0.499100  1.0  -0.2244
  C  C24  1  0.776200  0.429800  0.415200  1.0  0.2223
  C  C25  1  0.806500  0.138100  0.841200  1.0  0.7808
  C  C26  1  0.778300  0.057600  0.924400  1.0  -0.2512
  C  C27  1  0.956500  0.468100  0.039800  1.0  0.5352
  C  C28  1  0.701800  0.928000  0.919300  1.0  0.0848
  C  C29  1  0.831100  0.112900  0.011700  1.0  0.2382
  C  C30  1  0.586800  0.724900  0.999100  1.0  0.8005
  C  C31  1  0.671800  0.863700  0.000900  1.0  -0.2234
  C  C32  1  0.723800  0.929800  0.084800  1.0  0.2216
  C  C33  1  0.306500  0.361900  0.341200  1.0  0.7821
  C  C34  1  0.278300  0.442400  0.424400  1.0  -0.2523
  C  C35  1  0.456500  0.031900  0.539800  1.0  0.5352
  C  C36  1  0.201800  0.572000  0.419300  1.0  0.0845
  C  C37  1  0.331100  0.387100  0.511700  1.0  0.2384
  C  C38  1  0.086800  0.775100  0.499100  1.0  0.804
  C  C39  1  0.171800  0.636300  0.500900  1.0  -0.2245
  C  C40  1  0.223800  0.570200  0.584800  1.0  0.2214
  C  C41  1  0.193500  0.861900  0.158800  1.0  0.7764
  C  C42  1  0.221700  0.942400  0.075600  1.0  -0.2527
  C  C43  1  0.043500  0.531900  0.960200  1.0  0.5354
  C  C44  1  0.298200  0.072000  0.080700  1.0  0.0846
  C  C45  1  0.168900  0.887100  0.988300  1.0  0.2377
  C  C46  1  0.413200  0.275100  0.000900  1.0  0.8048
  C  C47  1  0.328200  0.136300  0.999100  1.0  -0.2256
  C  C48  1  0.276200  0.070200  0.915200  1.0  0.2222
  N  N49  1  0.691400  0.551600  0.409000  1.0  -0.3569
  N  N50  1  0.808600  0.051600  0.091000  1.0  -0.3595
  N  N51  1  0.308600  0.448400  0.591000  1.0  -0.3587
  N  N52  1  0.191400  0.948400  0.909000  1.0  -0.3571
  O  O53  1  0.669000  0.766400  0.647790  1.0  -0.6588
  O  O54  1  0.703900  0.935100  0.479100  1.0  -0.4919
  O  O55  1  0.695900  0.578700  0.734500  1.0  -0.6558
  O  O56  1  0.904100  0.152000  0.570700  1.0  -0.6581
  O  O57  1  0.985600  0.190700  0.432500  1.0  -0.7045
  O  O58  1  0.447000  0.955600  0.384000  1.0  -0.4876
  O  O59  1  0.831000  0.266400  0.852210  1.0  -0.6576
  O  O60  1  0.796100  0.435100  0.020900  1.0  -0.4935
  O  O61  1  0.804100  0.078700  0.765500  1.0  -0.654
  O  O62  1  0.595900  0.652000  0.929300  1.0  -0.6585
  O  O63  1  0.514400  0.690700  0.067500  1.0  -0.7036
  O  O64  1  0.053000  0.455600  0.116000  1.0  -0.4884
  O  O65  1  0.331000  0.233600  0.352210  1.0  -0.658
  O  O66  1  0.296100  0.064900  0.520900  1.0  -0.4943
  O  O67  1  0.304100  0.421300  0.265500  1.0  -0.6524
  O  O68  1  0.095900  0.848000  0.429300  1.0  -0.6581
  O  O69  1  0.014400  0.809300  0.567500  1.0  -0.7044
  O  O70  1  0.553000  0.044400  0.616000  1.0  -0.4877
  O  O71  1  0.169000  0.733600  0.147790  1.0  -0.657
  O  O72  1  0.203900  0.564900  0.979100  1.0  -0.4932
  O  O73  1  0.195900  0.921300  0.234500  1.0  -0.6537
  O  O74  1  0.404100  0.348000  0.070700  1.0  -0.6582
  O  O75  1  0.485600  0.309300  0.932500  1.0  -0.7043
  O  O76  1  0.947000  0.544400  0.884000  1.0  -0.487
