# generated using pymatgen
data_GdH3C8NO6
_symmetry_space_group_name_H-M   'P 1'
_cell_length_a   7.64350000
_cell_length_b   9.84000000
_cell_length_c   14.78500000
_cell_angle_alpha   90.00000000
_cell_angle_beta   98.27000000
_cell_angle_gamma   90.00000000
_symmetry_Int_Tables_number   1
_chemical_formula_structural   GdH3C8NO6
_chemical_formula_sum   'Gd4 H12 C32 N4 O24'
_cell_volume   1100.44648412
_cell_formula_units_Z   4
loop_
 _symmetry_equiv_pos_site_id
 _symmetry_equiv_pos_as_xyz
  1  'x, y, z'
loop_
 _atom_site_type_symbol
 _atom_site_label
 _atom_site_symmetry_multiplicity
 _atom_site_fract_x
 _atom_site_fract_y
 _atom_site_fract_z
 _atom_site_occupancy
 _atom_site_charge
  Gd  Gd1  1  0.852000  0.045040  0.639220  1.0  2.2174
  Gd  Gd2  1  0.648000  0.545040  0.860780  1.0  2.2171
  Gd  Gd3  1  0.148000  0.954960  0.360790  1.0  2.2165
  Gd  Gd4  1  0.352000  0.454960  0.139220  1.0  2.2174
  H  H5  1  0.615200  0.301700  0.484700  1.0  0.0732
  H  H6  1  0.826000  0.613700  0.635500  1.0  0.1111
  H  H7  1  0.796800  0.610200  0.363100  1.0  0.077
  H  H8  1  0.884800  0.801700  0.015300  1.0  0.0733
  H  H9  1  0.674000  0.113700  0.864500  1.0  0.1114
  H  H10  1  0.703200  0.110200  0.136900  1.0  0.0767
  H  H11  1  0.384800  0.698300  0.515300  1.0  0.0731
  H  H12  1  0.174000  0.386300  0.364500  1.0  0.1113
  H  H13  1  0.203200  0.389800  0.636900  1.0  0.0767
  H  H14  1  0.115200  0.198300  0.984700  1.0  0.0734
  H  H15  1  0.326000  0.886300  0.135500  1.0  0.1111
  H  H16  1  0.296800  0.889800  0.863100  1.0  0.077
  C  C17  1  0.669200  0.386600  0.488130  1.0  0.2701
  C  C18  1  0.721100  0.442100  0.573890  1.0  -0.2902
  C  C19  1  0.796300  0.570700  0.579360  1.0  0.0998
  C  C20  1  0.826200  0.633500  0.499040  1.0  -0.2699
  C  C21  1  0.774000  0.568300  0.416560  1.0  0.2442
  C  C22  1  0.692000  0.362700  0.656930  1.0  0.8319
  C  C23  1  0.911300  0.771500  0.500670  1.0  0.8756
  C  C24  1  0.456800  0.968400  0.539020  1.0  0.5639
  C  C25  1  0.830800  0.886600  0.011870  1.0  0.2709
  C  C26  1  0.778900  0.942100  0.926110  1.0  -0.2915
  C  C27  1  0.703700  0.070700  0.920640  1.0  0.099
  C  C28  1  0.673800  0.133500  0.000960  1.0  -0.2685
  C  C29  1  0.726000  0.068300  0.083440  1.0  0.2451
  C  C30  1  0.808000  0.862700  0.843070  1.0  0.838
  C  C31  1  0.588700  0.271500  0.999330  1.0  0.8738
  C  C32  1  0.043200  0.468400  0.960980  1.0  0.5643
  C  C33  1  0.330800  0.613400  0.511870  1.0  0.2707
  C  C34  1  0.278900  0.557900  0.426110  1.0  -0.2906
  C  C35  1  0.203700  0.429300  0.420640  1.0  0.099
  C  C36  1  0.173800  0.366500  0.500960  1.0  -0.267
  C  C37  1  0.226000  0.431700  0.583440  1.0  0.2455
  C  C38  1  0.308000  0.637300  0.343070  1.0  0.8359
  C  C39  1  0.088700  0.228500  0.499330  1.0  0.8728
  C  C40  1  0.543200  0.031600  0.460980  1.0  0.5643
  C  C41  1  0.169200  0.113400  0.988130  1.0  0.2695
  C  C42  1  0.221100  0.057900  0.073890  1.0  -0.2908
  C  C43  1  0.296300  0.929300  0.079360  1.0  0.1005
  C  C44  1  0.326200  0.866500  0.999040  1.0  -0.2686
  C  C45  1  0.274000  0.931700  0.916560  1.0  0.2446
  C  C46  1  0.192000  0.137300  0.156930  1.0  0.8304
  C  C47  1  0.411300  0.728500  0.000670  1.0  0.8744
  C  C48  1  0.956800  0.531600  0.039020  1.0  0.564
  N  N49  1  0.692100  0.447460  0.410370  1.0  -0.4647
  N  N50  1  0.807900  0.947460  0.089630  1.0  -0.4635
  N  N51  1  0.307900  0.552540  0.589630  1.0  -0.4648
  N  N52  1  0.192100  0.052540  0.910370  1.0  -0.4646
  O  O53  1  0.666190  0.235980  0.646870  1.0  -0.7516
  O  O54  1  0.695200  0.423320  0.730850  1.0  -0.7739
  O  O55  1  0.908800  0.841900  0.570800  1.0  -0.7633
  O  O56  1  0.978700  0.805870  0.432430  1.0  -0.7948
  O  O57  1  0.552700  0.951980  0.614230  1.0  -0.6165
  O  O58  1  0.296530  0.936870  0.520670  1.0  -0.6423
  O  O59  1  0.833810  0.735980  0.853130  1.0  -0.7523
  O  O60  1  0.804800  0.923320  0.769150  1.0  -0.776
  O  O61  1  0.591200  0.341900  0.929200  1.0  -0.7618
  O  O62  1  0.521300  0.305870  0.067570  1.0  -0.7947
  O  O63  1  0.947300  0.451980  0.885770  1.0  -0.6148
  O  O64  1  0.203470  0.436870  0.979330  1.0  -0.6413
  O  O65  1  0.333810  0.764020  0.353130  1.0  -0.753
  O  O66  1  0.304800  0.576680  0.269150  1.0  -0.7748
  O  O67  1  0.091200  0.158100  0.429200  1.0  -0.7622
  O  O68  1  0.021300  0.194130  0.567570  1.0  -0.7929
  O  O69  1  0.447300  0.048020  0.385770  1.0  -0.6145
  O  O70  1  0.703470  0.063130  0.479330  1.0  -0.642
  O  O71  1  0.166190  0.264020  0.146870  1.0  -0.7533
  O  O72  1  0.195200  0.076680  0.230850  1.0  -0.775
  O  O73  1  0.408800  0.658100  0.070800  1.0  -0.7634
  O  O74  1  0.478700  0.694130  0.932430  1.0  -0.7936
  O  O75  1  0.052700  0.548020  0.114230  1.0  -0.6166
  O  O76  1  0.796530  0.563130  0.020670  1.0  -0.6426
