# generated using pymatgen
data_CuH24C36(NO2)4
_symmetry_space_group_name_H-M   'P 1'
_cell_length_a   16.83500000
_cell_length_b   9.70700000
_cell_length_c   39.76700000
_cell_angle_alpha   90.00000000
_cell_angle_beta   90.52200000
_cell_angle_gamma   90.00000000
_symmetry_Int_Tables_number   1
_chemical_formula_structural   CuH24C36(NO2)4
_chemical_formula_sum   'Cu6 H144 C216 N24 O48'
_cell_volume   6498.34785689
_cell_formula_units_Z   6
loop_
 _symmetry_equiv_pos_site_id
 _symmetry_equiv_pos_as_xyz
  1  'x, y, z'
loop_
 _atom_site_type_symbol
 _atom_site_label
 _atom_site_symmetry_multiplicity
 _atom_site_fract_x
 _atom_site_fract_y
 _atom_site_fract_z
 _atom_site_occupancy
 _atom_site_charge
  Cu  Cu1  1  0.550230  0.714870  0.666667  1.0  0.5224
  Cu  Cu2  1  0.449770  0.714870  0.333333  1.0  0.5242
  Cu  Cu3  1  0.000000  0.064780  0.000000  1.0  0.5348
  Cu  Cu4  1  0.050230  0.214870  0.666667  1.0  0.5224
  Cu  Cu5  1  0.949770  0.214870  0.333333  1.0  0.5242
  Cu  Cu6  1  0.500000  0.564780  0.000000  1.0  0.5348
  H  H7  1  0.592800  0.041300  0.527900  1.0  0.1219
  H  H8  1  0.759400  0.949400  0.595700  1.0  0.0833
  H  H9  1  0.806400  0.770900  0.562800  1.0  0.1206
  H  H10  1  0.737500  0.719000  0.513900  1.0  0.1126
  H  H11  1  0.541800  0.610800  0.389600  1.0  0.0656
  H  H12  1  0.601800  0.676700  0.437800  1.0  0.1244
  H  H13  1  0.530600  0.061300  0.418100  1.0  0.1213
  H  H14  1  0.473600  0.976300  0.369900  1.0  0.0623
  H  H15  1  0.669300  0.676600  0.613700  1.0  0.0732
  H  H16  1  0.725100  0.502600  0.582700  1.0  0.1106
  H  H17  1  0.577800  0.240200  0.625800  1.0  0.1075
  H  H18  1  0.539800  0.414700  0.661900  1.0  0.0718
  H  H19  1  0.644700  0.336300  0.861000  1.0  0.1095
  H  H20  1  0.408800  0.278700  0.846100  1.0  0.0999
  H  H21  1  0.399100  0.171300  0.897000  1.0  0.1061
  H  H22  1  0.513100  0.125600  0.928000  1.0  0.1142
  H  H23  1  0.854800  0.235200  0.994200  1.0  0.0715
  H  H24  1  0.748800  0.258100  0.959900  1.0  0.1161
  H  H25  1  0.811400  0.912100  0.915000  1.0  0.1029
  H  H26  1  0.916200  0.900200  0.948000  1.0  0.0709
  H  H27  1  0.453100  0.628300  0.722700  1.0  0.0598
  H  H28  1  0.457900  0.515100  0.772800  1.0  0.1105
  H  H29  1  0.682600  0.424200  0.750900  1.0  0.1166
  H  H30  1  0.671100  0.553500  0.704700  1.0  0.0643
  H  H31  1  0.234100  0.115300  0.804500  1.0  0.1213
  H  H32  1  0.145000  0.488400  0.821100  1.0  0.1033
  H  H33  1  0.201000  0.566500  0.768300  1.0  0.1241
  H  H34  1  0.283600  0.414100  0.740900  1.0  0.0821
  H  H35  1  0.137000  0.963100  0.962800  1.0  0.0668
  H  H36  1  0.210800  0.010700  0.915000  1.0  0.1018
  H  H37  1  0.058000  0.316100  0.895900  1.0  0.1252
  H  H38  1  0.992800  0.252700  0.943900  1.0  0.064
  H  H39  1  0.591700  0.914700  0.718600  1.0  0.0757
  H  H40  1  0.531700  0.074800  0.753400  1.0  0.1106
  H  H41  1  0.331400  0.000600  0.706200  1.0  0.0548
  H  H42  1  0.388800  0.847300  0.672000  1.0  0.1177
  H  H43  1  0.407200  0.041300  0.472100  1.0  0.1218
  H  H44  1  0.240600  0.949400  0.404300  1.0  0.084
  H  H45  1  0.193600  0.770900  0.437200  1.0  0.1208
  H  H46  1  0.262500  0.719000  0.486100  1.0  0.112
  H  H47  1  0.458200  0.610800  0.610400  1.0  0.0654
  H  H48  1  0.398200  0.676700  0.562200  1.0  0.124
  H  H49  1  0.469400  0.061300  0.581900  1.0  0.1216
  H  H50  1  0.526400  0.976300  0.630100  1.0  0.0622
  H  H51  1  0.330700  0.676600  0.386300  1.0  0.0734
  H  H52  1  0.274900  0.502600  0.417300  1.0  0.1108
  H  H53  1  0.422200  0.240200  0.374200  1.0  0.1082
  H  H54  1  0.460200  0.414700  0.338100  1.0  0.0722
  H  H55  1  0.355300  0.336300  0.139000  1.0  0.1099
  H  H56  1  0.591200  0.278700  0.153900  1.0  0.0996
  H  H57  1  0.600900  0.171300  0.103000  1.0  0.1063
  H  H58  1  0.486900  0.125600  0.072000  1.0  0.1134
  H  H59  1  0.145200  0.235200  0.005800  1.0  0.0716
  H  H60  1  0.251200  0.258100  0.040100  1.0  0.1171
  H  H61  1  0.188600  0.912100  0.085000  1.0  0.1025
  H  H62  1  0.083800  0.900200  0.052000  1.0  0.0706
  H  H63  1  0.546900  0.628300  0.277300  1.0  0.0582
  H  H64  1  0.542100  0.515100  0.227200  1.0  0.1108
  H  H65  1  0.317400  0.424200  0.249100  1.0  0.117
  H  H66  1  0.328900  0.553500  0.295300  1.0  0.0637
  H  H67  1  0.765900  0.115300  0.195500  1.0  0.1214
  H  H68  1  0.855000  0.488400  0.178900  1.0  0.1041
  H  H69  1  0.799000  0.566500  0.231700  1.0  0.1248
  H  H70  1  0.716400  0.414100  0.259100  1.0  0.0822
  H  H71  1  0.863000  0.963100  0.037200  1.0  0.0668
  H  H72  1  0.789200  0.010700  0.085000  1.0  0.1006
  H  H73  1  0.942000  0.316100  0.104100  1.0  0.1248
  H  H74  1  0.007200  0.252700  0.056100  1.0  0.0641
  H  H75  1  0.408300  0.914700  0.281400  1.0  0.0759
  H  H76  1  0.468300  0.074800  0.246600  1.0  0.1108
  H  H77  1  0.668600  0.000600  0.293800  1.0  0.0547
  H  H78  1  0.611200  0.847300  0.328000  1.0  0.1179
  H  H79  1  0.092800  0.541300  0.527900  1.0  0.1219
  H  H80  1  0.259400  0.449400  0.595700  1.0  0.0833
  H  H81  1  0.306400  0.270900  0.562800  1.0  0.1206
  H  H82  1  0.237500  0.219000  0.513900  1.0  0.1125
  H  H83  1  0.041800  0.110800  0.389600  1.0  0.0656
  H  H84  1  0.101800  0.176700  0.437800  1.0  0.1244
  H  H85  1  0.030600  0.561300  0.418100  1.0  0.1213
  H  H86  1  0.973600  0.476300  0.369900  1.0  0.0623
  H  H87  1  0.169300  0.176600  0.613700  1.0  0.0732
  H  H88  1  0.225100  0.002600  0.582700  1.0  0.1106
  H  H89  1  0.077800  0.740200  0.625800  1.0  0.1075
  H  H90  1  0.039800  0.914700  0.661900  1.0  0.0718
  H  H91  1  0.144700  0.836300  0.861000  1.0  0.1095
  H  H92  1  0.908800  0.778700  0.846100  1.0  0.0999
  H  H93  1  0.899100  0.671300  0.897000  1.0  0.1061
  H  H94  1  0.013100  0.625600  0.928000  1.0  0.1142
  H  H95  1  0.354800  0.735200  0.994200  1.0  0.0715
  H  H96  1  0.248800  0.758100  0.959900  1.0  0.1154
  H  H97  1  0.311400  0.412100  0.915000  1.0  0.1029
  H  H98  1  0.416200  0.400200  0.948000  1.0  0.0709
  H  H99  1  0.953100  0.128300  0.722700  1.0  0.0598
  H  H100  1  0.957900  0.015100  0.772800  1.0  0.1105
  H  H101  1  0.182600  0.924200  0.750900  1.0  0.1166
  H  H102  1  0.171100  0.053500  0.704700  1.0  0.0643
  H  H103  1  0.734100  0.615300  0.804500  1.0  0.1213
  H  H104  1  0.645000  0.988400  0.821100  1.0  0.1029
  H  H105  1  0.701000  0.066500  0.768300  1.0  0.1236
  H  H106  1  0.783600  0.914100  0.740900  1.0  0.0821
  H  H107  1  0.637000  0.463100  0.962800  1.0  0.0669
  H  H108  1  0.710800  0.510700  0.915000  1.0  0.1018
  H  H109  1  0.558000  0.816100  0.895900  1.0  0.1252
  H  H110  1  0.492800  0.752700  0.943900  1.0  0.064
  H  H111  1  0.091700  0.414700  0.718600  1.0  0.0754
  H  H112  1  0.031700  0.574800  0.753400  1.0  0.1106
  H  H113  1  0.831400  0.500600  0.706200  1.0  0.0548
  H  H114  1  0.888800  0.347300  0.672000  1.0  0.1177
  H  H115  1  0.907200  0.541300  0.472100  1.0  0.1218
  H  H116  1  0.740600  0.449400  0.404300  1.0  0.084
  H  H117  1  0.693600  0.270900  0.437200  1.0  0.1208
  H  H118  1  0.762500  0.219000  0.486100  1.0  0.1119
  H  H119  1  0.958200  0.110800  0.610400  1.0  0.0654
  H  H120  1  0.898200  0.176700  0.562200  1.0  0.124
  H  H121  1  0.969400  0.561300  0.581900  1.0  0.1216
  H  H122  1  0.026400  0.476300  0.630100  1.0  0.0622
  H  H123  1  0.830700  0.176600  0.386300  1.0  0.0734
  H  H124  1  0.774900  0.002600  0.417300  1.0  0.1107
  H  H125  1  0.922200  0.740200  0.374200  1.0  0.1082
  H  H126  1  0.960200  0.914700  0.338100  1.0  0.0722
  H  H127  1  0.855300  0.836300  0.139000  1.0  0.1099
  H  H128  1  0.091200  0.778700  0.153900  1.0  0.0996
  H  H129  1  0.100900  0.671300  0.103000  1.0  0.1063
  H  H130  1  0.986900  0.625600  0.072000  1.0  0.1134
  H  H131  1  0.645200  0.735200  0.005800  1.0  0.0716
  H  H132  1  0.751200  0.758100  0.040100  1.0  0.1164
  H  H133  1  0.688600  0.412100  0.085000  1.0  0.1025
  H  H134  1  0.583800  0.400200  0.052000  1.0  0.0706
  H  H135  1  0.046900  0.128300  0.277300  1.0  0.0582
  H  H136  1  0.042100  0.015100  0.227200  1.0  0.1108
  H  H137  1  0.817400  0.924200  0.249100  1.0  0.117
  H  H138  1  0.828900  0.053500  0.295300  1.0  0.0637
  H  H139  1  0.265900  0.615300  0.195500  1.0  0.1214
  H  H140  1  0.355000  0.988400  0.178900  1.0  0.1038
  H  H141  1  0.299000  0.066500  0.231700  1.0  0.1243
  H  H142  1  0.216400  0.914100  0.259100  1.0  0.0822
  H  H143  1  0.363000  0.463100  0.037200  1.0  0.0667
  H  H144  1  0.289200  0.510700  0.085000  1.0  0.1006
  H  H145  1  0.442000  0.816100  0.104100  1.0  0.1248
  H  H146  1  0.507200  0.752700  0.056100  1.0  0.0641
  H  H147  1  0.908300  0.414700  0.281400  1.0  0.0757
  H  H148  1  0.968300  0.574800  0.246600  1.0  0.1108
  H  H149  1  0.168600  0.500600  0.293800  1.0  0.0547
  H  H150  1  0.111200  0.347300  0.328000  1.0  0.1179
  C  C151  1  0.663500  0.879400  0.515800  1.0  0.2853
  C  C152  1  0.636200  0.988400  0.534600  1.0  -0.2285
  C  C153  1  0.678200  0.014300  0.564600  1.0  0.2814
  C  C154  1  0.735900  0.932800  0.574900  1.0  -0.1779
  C  C155  1  0.763000  0.823300  0.555800  1.0  -0.1464
  C  C156  1  0.723500  0.795500  0.526600  1.0  -0.2054
  C  C157  1  0.538100  0.702600  0.396100  1.0  0.1597
  C  C158  1  0.574700  0.740600  0.424600  1.0  -0.2109
  C  C159  1  0.571100  0.876100  0.433800  1.0  -0.0569
  C  C160  1  0.532900  0.967800  0.413100  1.0  -0.192
  C  C161  1  0.498200  0.914900  0.384610  1.0  0.1663
  C  C162  1  0.613200  0.935700  0.463700  1.0  0.6517
  C  C163  1  0.652300  0.586500  0.617000  1.0  0.1362
  C  C164  1  0.683800  0.484500  0.597400  1.0  -0.1619
  C  C165  1  0.652800  0.355600  0.600350  1.0  -0.1375
  C  C166  1  0.598800  0.328300  0.623600  1.0  -0.1139
  C  C167  1  0.574400  0.435100  0.644500  1.0  0.1047
  C  C168  1  0.685500  0.245700  0.578100  1.0  0.6603
  C  C169  1  0.586500  0.219500  0.897280  1.0  0.2963
  C  C170  1  0.596600  0.299200  0.867800  1.0  -0.1049
  C  C171  1  0.521800  0.315700  0.849600  1.0  0.2458
  C  C172  1  0.453800  0.267100  0.859500  1.0  -0.2037
  C  C173  1  0.448300  0.200000  0.889200  1.0  -0.1401
  C  C174  1  0.516400  0.174400  0.908000  1.0  -0.1754
  C  C175  1  0.846600  0.170600  0.977300  1.0  0.1377
  C  C176  1  0.783100  0.183700  0.957500  1.0  -0.1515
  C  C177  1  0.769400  0.085800  0.933780  1.0  -0.1155
  C  C178  1  0.820400  0.980500  0.931000  1.0  -0.187
  C  C179  1  0.881800  0.974400  0.950400  1.0  0.1578
  C  C180  1  0.696200  0.093900  0.911950  1.0  0.6396
  C  C181  1  0.500900  0.588400  0.729400  1.0  0.1712
  C  C182  1  0.501600  0.518000  0.758700  1.0  -0.184
  C  C183  1  0.571200  0.451100  0.766200  1.0  -0.071
  C  C184  1  0.634500  0.466700  0.745800  1.0  -0.2019
  C  C185  1  0.627000  0.543400  0.718500  1.0  0.1598
  C  C186  1  0.579900  0.360400  0.796400  1.0  0.6216
  C  C187  1  0.264400  0.255600  0.769300  1.0  0.2932
  C  C188  1  0.229800  0.207200  0.798200  1.0  -0.2234
  C  C189  1  0.188600  0.300900  0.817240  1.0  0.2834
  C  C190  1  0.175500  0.429800  0.807900  1.0  -0.1046
  C  C191  1  0.210000  0.478000  0.776500  1.0  -0.1826
  C  C192  1  0.256400  0.384600  0.759900  1.0  -0.1614
  C  C193  1  0.120800  0.034700  0.948800  1.0  0.1422
  C  C194  1  0.166000  0.062700  0.919900  1.0  -0.1328
  C  C195  1  0.143500  0.163000  0.900290  1.0  -0.0796
  C  C196  1  0.075500  0.242400  0.908900  1.0  -0.1815
  C  C197  1  0.037600  0.203000  0.937600  1.0  0.1758
  C  C198  1  0.191200  0.201200  0.869900  1.0  0.659
  C  C199  1  0.537600  0.932000  0.716200  1.0  0.1551
  C  C200  1  0.502200  0.028200  0.737100  1.0  -0.1353
  C  C201  1  0.421600  0.052800  0.733000  1.0  -0.0898
  C  C202  1  0.385400  0.983800  0.709180  1.0  -0.0676
  C  C203  1  0.418500  0.891300  0.688600  1.0  0.0496
  C  C204  1  0.385100  0.153800  0.754900  1.0  0.6451
  C  C205  1  0.336500  0.879400  0.484200  1.0  0.2859
  C  C206  1  0.363800  0.988400  0.465400  1.0  -0.2279
  C  C207  1  0.321800  0.014300  0.435400  1.0  0.2816
  C  C208  1  0.264100  0.932800  0.425100  1.0  -0.1776
  C  C209  1  0.237000  0.823300  0.444200  1.0  -0.1465
  C  C210  1  0.276500  0.795500  0.473400  1.0  -0.2063
  C  C211  1  0.461900  0.702600  0.603900  1.0  0.1594
  C  C212  1  0.425300  0.740600  0.575400  1.0  -0.2099
  C  C213  1  0.428900  0.876100  0.566200  1.0  -0.0573
  C  C214  1  0.467100  0.967800  0.586900  1.0  -0.1918
  C  C215  1  0.501800  0.914900  0.615390  1.0  0.1668
  C  C216  1  0.386800  0.935700  0.536300  1.0  0.651
  C  C217  1  0.347700  0.586500  0.383000  1.0  0.1366
  C  C218  1  0.316200  0.484500  0.402600  1.0  -0.1637
  C  C219  1  0.347200  0.355600  0.399650  1.0  -0.1367
  C  C220  1  0.401200  0.328300  0.376400  1.0  -0.1153
  C  C221  1  0.425600  0.435100  0.355500  1.0  0.1029
  C  C222  1  0.314500  0.245700  0.421900  1.0  0.6595
  C  C223  1  0.413500  0.219500  0.102720  1.0  0.297
  C  C224  1  0.403400  0.299200  0.132200  1.0  -0.1045
  C  C225  1  0.478200  0.315700  0.150400  1.0  0.2438
  C  C226  1  0.546200  0.267100  0.140500  1.0  -0.2018
  C  C227  1  0.551700  0.200000  0.110800  1.0  -0.1382
  C  C228  1  0.483600  0.174400  0.092000  1.0  -0.1754
  C  C229  1  0.153400  0.170600  0.022700  1.0  0.1375
  C  C230  1  0.216900  0.183700  0.042500  1.0  -0.1517
  C  C231  1  0.230600  0.085800  0.066220  1.0  -0.1157
  C  C232  1  0.179600  0.980500  0.069000  1.0  -0.1866
  C  C233  1  0.118200  0.974400  0.049600  1.0  0.1586
  C  C234  1  0.303800  0.093900  0.088050  1.0  0.6407
  C  C235  1  0.499100  0.588400  0.270600  1.0  0.1699
  C  C236  1  0.498400  0.518000  0.241300  1.0  -0.1843
  C  C237  1  0.428800  0.451100  0.233800  1.0  -0.0717
  C  C238  1  0.365500  0.466700  0.254200  1.0  -0.2016
  C  C239  1  0.373000  0.543400  0.281500  1.0  0.1594
  C  C240  1  0.420100  0.360400  0.203600  1.0  0.6216
  C  C241  1  0.735600  0.255600  0.230700  1.0  0.2921
  C  C242  1  0.770200  0.207200  0.201800  1.0  -0.2232
  C  C243  1  0.811400  0.300900  0.182760  1.0  0.2835
  C  C244  1  0.824500  0.429800  0.192100  1.0  -0.1046
  C  C245  1  0.790000  0.478000  0.223500  1.0  -0.1821
  C  C246  1  0.743600  0.384600  0.240100  1.0  -0.1628
  C  C247  1  0.879200  0.034700  0.051200  1.0  0.1414
  C  C248  1  0.834000  0.062700  0.080100  1.0  -0.134
  C  C249  1  0.856500  0.163000  0.099710  1.0  -0.0799
  C  C250  1  0.924500  0.242400  0.091100  1.0  -0.1832
  C  C251  1  0.962400  0.203000  0.062400  1.0  0.1769
  C  C252  1  0.808800  0.201200  0.130100  1.0  0.6591
  C  C253  1  0.462400  0.932000  0.283800  1.0  0.1547
  C  C254  1  0.497800  0.028200  0.262900  1.0  -0.1352
  C  C255  1  0.578400  0.052800  0.267000  1.0  -0.0924
  C  C256  1  0.614600  0.983800  0.290820  1.0  -0.0629
  C  C257  1  0.581500  0.891300  0.311400  1.0  0.0501
  C  C258  1  0.614900  0.153800  0.245100  1.0  0.6453
  C  C259  1  0.163500  0.379400  0.515800  1.0  0.2853
  C  C260  1  0.136200  0.488400  0.534600  1.0  -0.2285
  C  C261  1  0.178200  0.514300  0.564600  1.0  0.2814
  C  C262  1  0.235900  0.432800  0.574900  1.0  -0.1779
  C  C263  1  0.263000  0.323300  0.555800  1.0  -0.1464
  C  C264  1  0.223500  0.295500  0.526600  1.0  -0.2054
  C  C265  1  0.038100  0.202600  0.396100  1.0  0.1597
  C  C266  1  0.074700  0.240600  0.424600  1.0  -0.2109
  C  C267  1  0.071100  0.376100  0.433800  1.0  -0.0569
  C  C268  1  0.032900  0.467800  0.413100  1.0  -0.192
  C  C269  1  0.998200  0.414900  0.384610  1.0  0.1663
  C  C270  1  0.113200  0.435700  0.463700  1.0  0.6517
  C  C271  1  0.152300  0.086500  0.617000  1.0  0.1362
  C  C272  1  0.183800  0.984500  0.597400  1.0  -0.1619
  C  C273  1  0.152800  0.855600  0.600350  1.0  -0.1375
  C  C274  1  0.098800  0.828300  0.623600  1.0  -0.1139
  C  C275  1  0.074400  0.935100  0.644500  1.0  0.1047
  C  C276  1  0.185500  0.745700  0.578100  1.0  0.6603
  C  C277  1  0.086500  0.719500  0.897280  1.0  0.2963
  C  C278  1  0.096600  0.799200  0.867800  1.0  -0.1049
  C  C279  1  0.021800  0.815700  0.849600  1.0  0.2458
  C  C280  1  0.953800  0.767100  0.859500  1.0  -0.2037
  C  C281  1  0.948300  0.700000  0.889200  1.0  -0.1401
  C  C282  1  0.016400  0.674400  0.908000  1.0  -0.1754
  C  C283  1  0.346600  0.670600  0.977300  1.0  0.1377
  C  C284  1  0.283100  0.683700  0.957500  1.0  -0.1515
  C  C285  1  0.269400  0.585800  0.933780  1.0  -0.1155
  C  C286  1  0.320400  0.480500  0.931000  1.0  -0.187
  C  C287  1  0.381800  0.474400  0.950400  1.0  0.1578
  C  C288  1  0.196200  0.593900  0.911950  1.0  0.6396
  C  C289  1  0.000900  0.088400  0.729400  1.0  0.1712
  C  C290  1  0.001600  0.018000  0.758700  1.0  -0.184
  C  C291  1  0.071200  0.951100  0.766200  1.0  -0.071
  C  C292  1  0.134500  0.966700  0.745800  1.0  -0.2019
  C  C293  1  0.127000  0.043400  0.718500  1.0  0.1598
  C  C294  1  0.079900  0.860400  0.796400  1.0  0.6216
  C  C295  1  0.764400  0.755600  0.769300  1.0  0.2932
  C  C296  1  0.729800  0.707200  0.798200  1.0  -0.2234
  C  C297  1  0.688600  0.800900  0.817240  1.0  0.2834
  C  C298  1  0.675500  0.929800  0.807900  1.0  -0.1046
  C  C299  1  0.710000  0.978000  0.776500  1.0  -0.1826
  C  C300  1  0.756400  0.884600  0.759900  1.0  -0.1614
  C  C301  1  0.620800  0.534700  0.948800  1.0  0.1422
  C  C302  1  0.666000  0.562700  0.919900  1.0  -0.1328
  C  C303  1  0.643500  0.663000  0.900290  1.0  -0.0796
  C  C304  1  0.575500  0.742400  0.908900  1.0  -0.1815
  C  C305  1  0.537600  0.703000  0.937600  1.0  0.1758
  C  C306  1  0.691200  0.701200  0.869900  1.0  0.659
  C  C307  1  0.037600  0.432000  0.716200  1.0  0.1551
  C  C308  1  0.002200  0.528200  0.737100  1.0  -0.1353
  C  C309  1  0.921600  0.552800  0.733000  1.0  -0.0898
  C  C310  1  0.885400  0.483800  0.709180  1.0  -0.0676
  C  C311  1  0.918500  0.391300  0.688600  1.0  0.0496
  C  C312  1  0.885100  0.653800  0.754900  1.0  0.6451
  C  C313  1  0.836500  0.379400  0.484200  1.0  0.2859
  C  C314  1  0.863800  0.488400  0.465400  1.0  -0.2279
  C  C315  1  0.821800  0.514300  0.435400  1.0  0.2816
  C  C316  1  0.764100  0.432800  0.425100  1.0  -0.1776
  C  C317  1  0.737000  0.323300  0.444200  1.0  -0.1465
  C  C318  1  0.776500  0.295500  0.473400  1.0  -0.2063
  C  C319  1  0.961900  0.202600  0.603900  1.0  0.1594
  C  C320  1  0.925300  0.240600  0.575400  1.0  -0.2099
  C  C321  1  0.928900  0.376100  0.566200  1.0  -0.0573
  C  C322  1  0.967100  0.467800  0.586900  1.0  -0.1918
  C  C323  1  0.001800  0.414900  0.615390  1.0  0.1668
  C  C324  1  0.886800  0.435700  0.536300  1.0  0.651
  C  C325  1  0.847700  0.086500  0.383000  1.0  0.1366
  C  C326  1  0.816200  0.984500  0.402600  1.0  -0.1637
  C  C327  1  0.847200  0.855600  0.399650  1.0  -0.1367
  C  C328  1  0.901200  0.828300  0.376400  1.0  -0.1153
  C  C329  1  0.925600  0.935100  0.355500  1.0  0.1029
  C  C330  1  0.814500  0.745700  0.421900  1.0  0.6595
  C  C331  1  0.913500  0.719500  0.102720  1.0  0.297
  C  C332  1  0.903400  0.799200  0.132200  1.0  -0.1045
  C  C333  1  0.978200  0.815700  0.150400  1.0  0.2438
  C  C334  1  0.046200  0.767100  0.140500  1.0  -0.2018
  C  C335  1  0.051700  0.700000  0.110800  1.0  -0.1382
  C  C336  1  0.983600  0.674400  0.092000  1.0  -0.1754
  C  C337  1  0.653400  0.670600  0.022700  1.0  0.1375
  C  C338  1  0.716900  0.683700  0.042500  1.0  -0.1517
  C  C339  1  0.730600  0.585800  0.066220  1.0  -0.1157
  C  C340  1  0.679600  0.480500  0.069000  1.0  -0.1866
  C  C341  1  0.618200  0.474400  0.049600  1.0  0.1586
  C  C342  1  0.803800  0.593900  0.088050  1.0  0.6407
  C  C343  1  0.999100  0.088400  0.270600  1.0  0.1699
  C  C344  1  0.998400  0.018000  0.241300  1.0  -0.1843
  C  C345  1  0.928800  0.951100  0.233800  1.0  -0.0717
  C  C346  1  0.865500  0.966700  0.254200  1.0  -0.2016
  C  C347  1  0.873000  0.043400  0.281500  1.0  0.1594
  C  C348  1  0.920100  0.860400  0.203600  1.0  0.6216
  C  C349  1  0.235600  0.755600  0.230700  1.0  0.2921
  C  C350  1  0.270200  0.707200  0.201800  1.0  -0.2232
  C  C351  1  0.311400  0.800900  0.182760  1.0  0.2835
  C  C352  1  0.324500  0.929800  0.192100  1.0  -0.1046
  C  C353  1  0.290000  0.978000  0.223500  1.0  -0.1821
  C  C354  1  0.243600  0.884600  0.240100  1.0  -0.1628
  C  C355  1  0.379200  0.534700  0.051200  1.0  0.1414
  C  C356  1  0.334000  0.562700  0.080100  1.0  -0.134
  C  C357  1  0.356500  0.663000  0.099710  1.0  -0.0799
  C  C358  1  0.424500  0.742400  0.091100  1.0  -0.1832
  C  C359  1  0.462400  0.703000  0.062400  1.0  0.1769
  C  C360  1  0.308800  0.701200  0.130100  1.0  0.6591
  C  C361  1  0.962400  0.432000  0.283800  1.0  0.1547
  C  C362  1  0.997800  0.528200  0.262900  1.0  -0.1352
  C  C363  1  0.078400  0.552800  0.267000  1.0  -0.0924
  C  C364  1  0.114600  0.483800  0.290820  1.0  -0.0629
  C  C365  1  0.081500  0.391300  0.311400  1.0  0.0501
  C  C366  1  0.114900  0.653800  0.245100  1.0  0.6453
  N  N367  1  0.497300  0.786300  0.376670  1.0  -0.28
  N  N368  1  0.597700  0.562100  0.640870  1.0  -0.2983
  N  N369  1  0.898900  0.069900  0.973980  1.0  -0.2983
  N  N370  1  0.561800  0.605100  0.709770  1.0  -0.2737
  N  N371  1  0.059300  0.102300  0.956670  1.0  -0.2362
  N  N372  1  0.496600  0.864200  0.692970  1.0  -0.3046
  N  N373  1  0.502700  0.786300  0.623330  1.0  -0.2761
  N  N374  1  0.402300  0.562100  0.359130  1.0  -0.298
  N  N375  1  0.101100  0.069900  0.026020  1.0  -0.2985
  N  N376  1  0.438200  0.605100  0.290230  1.0  -0.2707
  N  N377  1  0.940700  0.102300  0.043330  1.0  -0.2394
  N  N378  1  0.503400  0.864200  0.307030  1.0  -0.3057
  N  N379  1  0.997300  0.286300  0.376670  1.0  -0.28
  N  N380  1  0.097700  0.062100  0.640870  1.0  -0.2983
  N  N381  1  0.398900  0.569900  0.973980  1.0  -0.2983
  N  N382  1  0.061800  0.105100  0.709770  1.0  -0.2737
  N  N383  1  0.559300  0.602300  0.956670  1.0  -0.2362
  N  N384  1  0.996600  0.364200  0.692970  1.0  -0.3046
  N  N385  1  0.002700  0.286300  0.623330  1.0  -0.2761
  N  N386  1  0.902300  0.062100  0.359130  1.0  -0.298
  N  N387  1  0.601100  0.569900  0.026020  1.0  -0.2985
  N  N388  1  0.938200  0.105100  0.290230  1.0  -0.2707
  N  N389  1  0.440700  0.602300  0.043330  1.0  -0.2394
  N  N390  1  0.003400  0.364200  0.307030  1.0  -0.3057
  O  O391  1  0.622700  0.844400  0.486680  1.0  -0.3731
  O  O392  1  0.638200  0.049000  0.464200  1.0  -0.531
  O  O393  1  0.651900  0.128200  0.582430  1.0  -0.3637
  O  O394  1  0.739000  0.264400  0.558300  1.0  -0.5362
  O  O395  1  0.654800  0.205200  0.916560  1.0  -0.3523
  O  O396  1  0.680400  0.010700  0.891700  1.0  -0.5204
  O  O397  1  0.626100  0.267000  0.797600  1.0  -0.5227
  O  O398  1  0.526900  0.390300  0.820250  1.0  -0.2896
  O  O399  1  0.150100  0.258300  0.846680  1.0  -0.3734
  O  O400  1  0.262700  0.177600  0.868700  1.0  -0.5656
  O  O401  1  0.307100  0.162800  0.749430  1.0  -0.3785
  O  O402  1  0.418200  0.221300  0.775300  1.0  -0.5096
  O  O403  1  0.377300  0.844400  0.513320  1.0  -0.3726
  O  O404  1  0.361800  0.049000  0.535800  1.0  -0.5304
  O  O405  1  0.348100  0.128200  0.417570  1.0  -0.3636
  O  O406  1  0.261000  0.264400  0.441700  1.0  -0.5354
  O  O407  1  0.345200  0.205200  0.083440  1.0  -0.3536
  O  O408  1  0.319600  0.010700  0.108300  1.0  -0.521
  O  O409  1  0.373900  0.267000  0.202400  1.0  -0.5229
  O  O410  1  0.473100  0.390300  0.179750  1.0  -0.291
  O  O411  1  0.849900  0.258300  0.153320  1.0  -0.3744
  O  O412  1  0.737300  0.177600  0.131300  1.0  -0.5664
  O  O413  1  0.692900  0.162800  0.250570  1.0  -0.3771
  O  O414  1  0.581800  0.221300  0.224700  1.0  -0.5095
  O  O415  1  0.122700  0.344400  0.486680  1.0  -0.3731
  O  O416  1  0.138200  0.549000  0.464200  1.0  -0.531
  O  O417  1  0.151900  0.628200  0.582430  1.0  -0.3637
  O  O418  1  0.239000  0.764400  0.558300  1.0  -0.5362
  O  O419  1  0.154800  0.705200  0.916560  1.0  -0.3523
  O  O420  1  0.180400  0.510700  0.891700  1.0  -0.5204
  O  O421  1  0.126100  0.767000  0.797600  1.0  -0.5227
  O  O422  1  0.026900  0.890300  0.820250  1.0  -0.2896
  O  O423  1  0.650100  0.758300  0.846680  1.0  -0.3734
  O  O424  1  0.762700  0.677600  0.868700  1.0  -0.5656
  O  O425  1  0.807100  0.662800  0.749430  1.0  -0.3785
  O  O426  1  0.918200  0.721300  0.775300  1.0  -0.5096
  O  O427  1  0.877300  0.344400  0.513320  1.0  -0.3726
  O  O428  1  0.861800  0.549000  0.535800  1.0  -0.5304
  O  O429  1  0.848100  0.628200  0.417570  1.0  -0.3636
  O  O430  1  0.761000  0.764400  0.441700  1.0  -0.5354
  O  O431  1  0.845200  0.705200  0.083440  1.0  -0.3536
  O  O432  1  0.819600  0.510700  0.108300  1.0  -0.521
  O  O433  1  0.873900  0.767000  0.202400  1.0  -0.5229
  O  O434  1  0.973100  0.890300  0.179750  1.0  -0.291
  O  O435  1  0.349900  0.758300  0.153320  1.0  -0.3744
  O  O436  1  0.237300  0.677600  0.131300  1.0  -0.5664
  O  O437  1  0.192900  0.662800  0.250570  1.0  -0.3771
  O  O438  1  0.081800  0.721300  0.224700  1.0  -0.5095
