# generated using pymatgen
data_CuH6C13N3O4
_symmetry_space_group_name_H-M   'P 1'
_cell_length_a   18.14020000
_cell_length_b   18.14020000
_cell_length_c   18.11400000
_cell_angle_alpha   90.00000000
_cell_angle_beta   90.00000000
_cell_angle_gamma   120.00000000
_symmetry_Int_Tables_number   1
_chemical_formula_structural   CuH6C13N3O4
_chemical_formula_sum   'Cu6 H36 C78 N18 O24'
_cell_volume   5162.13237302
_cell_formula_units_Z   6
loop_
 _symmetry_equiv_pos_site_id
 _symmetry_equiv_pos_as_xyz
  1  'x, y, z'
loop_
 _atom_site_type_symbol
 _atom_site_label
 _atom_site_symmetry_multiplicity
 _atom_site_fract_x
 _atom_site_fract_y
 _atom_site_fract_z
 _atom_site_occupancy
 _atom_site_charge
  Cu  Cu1  1  0.473240  0.525520  0.058330  1.0  0.9498
  Cu  Cu2  1  0.474480  0.947720  0.058330  1.0  0.9483
  Cu  Cu3  1  0.052280  0.526760  0.058330  1.0  0.9502
  Cu  Cu4  1  0.525520  0.473240  0.941670  1.0  0.9491
  Cu  Cu5  1  0.947720  0.474480  0.941670  1.0  0.9503
  Cu  Cu6  1  0.526760  0.052280  0.941670  1.0  0.949
  H  H7  1  0.362200  0.285900  0.191700  1.0  0.1373
  H  H8  1  0.353000  0.060200  0.182600  1.0  0.1334
  H  H9  1  0.473000  0.236400  0.021700  1.0  0.1274
  H  H10  1  0.114300  0.052200  0.451900  1.0  0.1183
  H  H11  1  0.334200  0.044000  0.447700  1.0  0.1352
  H  H12  1  0.261600  0.012500  0.277400  1.0  0.151
  H  H13  1  0.714100  0.076300  0.191700  1.0  0.1381
  H  H14  1  0.939800  0.292800  0.182600  1.0  0.1324
  H  H15  1  0.763600  0.236600  0.021700  1.0  0.1273
  H  H16  1  0.947800  0.062100  0.451900  1.0  0.1205
  H  H17  1  0.956000  0.290200  0.447700  1.0  0.1359
  H  H18  1  0.987500  0.249100  0.277400  1.0  0.1501
  H  H19  1  0.923700  0.637800  0.191700  1.0  0.138
  H  H20  1  0.707200  0.647000  0.182600  1.0  0.1323
  H  H21  1  0.763400  0.527000  0.021700  1.0  0.128
  H  H22  1  0.937900  0.885700  0.451900  1.0  0.1181
  H  H23  1  0.709800  0.665800  0.447700  1.0  0.1358
  H  H24  1  0.750900  0.738400  0.277400  1.0  0.1473
  H  H25  1  0.285900  0.362200  0.808300  1.0  0.1379
  H  H26  1  0.060200  0.353000  0.817400  1.0  0.132
  H  H27  1  0.236400  0.473000  0.978300  1.0  0.1277
  H  H28  1  0.052200  0.114300  0.548100  1.0  0.1182
  H  H29  1  0.044000  0.334200  0.552300  1.0  0.1362
  H  H30  1  0.012500  0.261600  0.722600  1.0  0.1472
  H  H31  1  0.076300  0.714100  0.808300  1.0  0.1366
  H  H32  1  0.292800  0.939800  0.817400  1.0  0.1331
  H  H33  1  0.236600  0.763600  0.978300  1.0  0.1277
  H  H34  1  0.062100  0.947800  0.548100  1.0  0.1185
  H  H35  1  0.290200  0.956000  0.552300  1.0  0.1353
  H  H36  1  0.249100  0.987500  0.722600  1.0  0.1508
  H  H37  1  0.637800  0.923700  0.808300  1.0  0.1376
  H  H38  1  0.647000  0.707200  0.817400  1.0  0.1323
  H  H39  1  0.527000  0.763400  0.978300  1.0  0.1275
  H  H40  1  0.885700  0.937900  0.548100  1.0  0.1193
  H  H41  1  0.665800  0.709800  0.552300  1.0  0.135
  H  H42  1  0.738400  0.750900  0.722600  1.0  0.1497
  C  C43  1  0.444200  0.355300  0.062500  1.0  0.7126
  C  C44  1  0.417600  0.273000  0.096300  1.0  -0.0885
  C  C45  1  0.374100  0.248700  0.166000  1.0  -0.0441
  C  C46  1  0.350500  0.169900  0.193900  1.0  0.1818
  C  C47  1  0.371000  0.113800  0.162600  1.0  -0.0721
  C  C48  1  0.419900  0.141900  0.099800  1.0  -0.132
  C  C49  1  0.441900  0.220800  0.065400  1.0  -0.0127
  C  C50  1  0.450200  0.084100  0.066100  1.0  0.6402
  C  C51  1  0.216400  0.046800  0.436300  1.0  0.0539
  C  C52  1  0.146500  0.028700  0.468600  1.0  -0.0873
  C  C53  1  0.281000  0.024700  0.469000  1.0  -0.102
  C  C54  1  0.216600  0.066100  0.356100  1.0  0.0304
  C  C55  1  0.260000  0.060500  0.292900  1.0  0.0389
  C  C56  1  0.644700  0.088900  0.062500  1.0  0.7109
  C  C57  1  0.727000  0.144600  0.096300  1.0  -0.0874
  C  C58  1  0.751300  0.125400  0.166000  1.0  -0.0417
  C  C59  1  0.830100  0.180600  0.193900  1.0  0.1821
  C  C60  1  0.886200  0.257200  0.162600  1.0  -0.0729
  C  C61  1  0.858100  0.278000  0.099800  1.0  -0.1315
  C  C62  1  0.779200  0.221100  0.065400  1.0  -0.0111
  C  C63  1  0.915900  0.366100  0.066100  1.0  0.6404
  C  C64  1  0.953200  0.169600  0.436300  1.0  0.0545
  C  C65  1  0.971300  0.117800  0.468600  1.0  -0.0872
  C  C66  1  0.975300  0.256300  0.469000  1.0  -0.104
  C  C67  1  0.933900  0.150500  0.356100  1.0  0.0339
  C  C68  1  0.939500  0.199500  0.292900  1.0  0.0427
  C  C69  1  0.911100  0.555800  0.062500  1.0  0.7119
  C  C70  1  0.855400  0.582400  0.096300  1.0  -0.0886
  C  C71  1  0.874600  0.625900  0.166000  1.0  -0.0426
  C  C72  1  0.819400  0.649500  0.193900  1.0  0.1808
  C  C73  1  0.742800  0.629000  0.162600  1.0  -0.0729
  C  C74  1  0.722000  0.580100  0.099800  1.0  -0.1322
  C  C75  1  0.778900  0.558100  0.065400  1.0  -0.0106
  C  C76  1  0.633900  0.549800  0.066100  1.0  0.6393
  C  C77  1  0.830400  0.783600  0.436300  1.0  0.0552
  C  C78  1  0.882200  0.853500  0.468600  1.0  -0.0868
  C  C79  1  0.743700  0.719000  0.469000  1.0  -0.1005
  C  C80  1  0.849500  0.783400  0.356100  1.0  0.0304
  C  C81  1  0.800500  0.740000  0.292900  1.0  0.0373
  C  C82  1  0.355300  0.444200  0.937500  1.0  0.7124
  C  C83  1  0.273000  0.417600  0.903700  1.0  -0.0883
  C  C84  1  0.248700  0.374100  0.834000  1.0  -0.0433
  C  C85  1  0.169900  0.350500  0.806100  1.0  0.1815
  C  C86  1  0.113800  0.371000  0.837400  1.0  -0.0721
  C  C87  1  0.141900  0.419900  0.900200  1.0  -0.1324
  C  C88  1  0.220800  0.441900  0.934600  1.0  -0.0109
  C  C89  1  0.084100  0.450200  0.933900  1.0  0.6392
  C  C90  1  0.046800  0.216400  0.563700  1.0  0.0559
  C  C91  1  0.028700  0.146500  0.531400  1.0  -0.0868
  C  C92  1  0.024700  0.281000  0.531000  1.0  -0.1029
  C  C93  1  0.066100  0.216600  0.643900  1.0  0.0314
  C  C94  1  0.060500  0.260000  0.707100  1.0  0.0376
  C  C95  1  0.088900  0.644700  0.937500  1.0  0.7129
  C  C96  1  0.144600  0.727000  0.903700  1.0  -0.0885
  C  C97  1  0.125400  0.751300  0.834000  1.0  -0.0434
  C  C98  1  0.180600  0.830100  0.806100  1.0  0.1811
  C  C99  1  0.257200  0.886200  0.837400  1.0  -0.0728
  C  C100  1  0.278000  0.858100  0.900200  1.0  -0.1323
  C  C101  1  0.221100  0.779200  0.934600  1.0  -0.0115
  C  C102  1  0.366100  0.915900  0.933900  1.0  0.6404
  C  C103  1  0.169600  0.953200  0.563700  1.0  0.0536
  C  C104  1  0.117800  0.971300  0.531400  1.0  -0.0873
  C  C105  1  0.256300  0.975300  0.531000  1.0  -0.1052
  C  C106  1  0.150500  0.933900  0.643900  1.0  0.0327
  C  C107  1  0.199500  0.939500  0.707100  1.0  0.0403
  C  C108  1  0.555800  0.911100  0.937500  1.0  0.7114
  C  C109  1  0.582400  0.855400  0.903700  1.0  -0.0873
  C  C110  1  0.625900  0.874600  0.834000  1.0  -0.0422
  C  C111  1  0.649500  0.819400  0.806100  1.0  0.1813
  C  C112  1  0.629000  0.742800  0.837400  1.0  -0.072
  C  C113  1  0.580100  0.722000  0.900200  1.0  -0.1318
  C  C114  1  0.558100  0.778900  0.934600  1.0  -0.0107
  C  C115  1  0.549800  0.633900  0.933900  1.0  0.6396
  C  C116  1  0.783600  0.830400  0.563700  1.0  0.0535
  C  C117  1  0.853500  0.882200  0.531400  1.0  -0.0871
  C  C118  1  0.719000  0.743700  0.531000  1.0  -0.1072
  C  C119  1  0.783400  0.849500  0.643900  1.0  0.0343
  C  C120  1  0.740000  0.800500  0.707100  1.0  0.0422
  N  N121  1  0.300700  0.141300  0.257700  1.0  -0.1293
  N  N122  1  0.282400  0.196700  0.299100  1.0  -0.2658
  N  N123  1  0.230400  0.150200  0.359800  1.0  -0.2151
  N  N124  1  0.858700  0.159400  0.257700  1.0  -0.1295
  N  N125  1  0.803300  0.085700  0.299100  1.0  -0.2662
  N  N126  1  0.849800  0.080200  0.359800  1.0  -0.2146
  N  N127  1  0.840600  0.699300  0.257700  1.0  -0.1297
  N  N128  1  0.914300  0.717600  0.299100  1.0  -0.2686
  N  N129  1  0.919800  0.769600  0.359800  1.0  -0.2149
  N  N130  1  0.141300  0.300700  0.742300  1.0  -0.1288
  N  N131  1  0.196700  0.282400  0.700900  1.0  -0.2691
  N  N132  1  0.150200  0.230400  0.640200  1.0  -0.2151
  N  N133  1  0.159400  0.858700  0.742300  1.0  -0.1297
  N  N134  1  0.085700  0.803300  0.700900  1.0  -0.2658
  N  N135  1  0.080200  0.849800  0.640200  1.0  -0.2155
  N  N136  1  0.699300  0.840600  0.742300  1.0  -0.128
  N  N137  1  0.717600  0.914300  0.700900  1.0  -0.2671
  N  N138  1  0.769600  0.919800  0.640200  1.0  -0.2171
  O  O139  1  0.436100  0.413700  0.096200  1.0  -0.5727
  O  O140  1  0.477100  0.369700  0.001600  1.0  -0.5805
  O  O141  1  0.479300  0.110300  0.000000  1.0  -0.5855
  O  O142  1  0.434800  0.021900  0.101000  1.0  -0.5239
  O  O143  1  0.586300  0.022400  0.096200  1.0  -0.5747
  O  O144  1  0.630300  0.107400  0.001600  1.0  -0.5821
  O  O145  1  0.889700  0.369000  0.000000  1.0  -0.5849
  O  O146  1  0.978100  0.412900  0.101000  1.0  -0.5241
  O  O147  1  0.977600  0.563900  0.096200  1.0  -0.5731
  O  O148  1  0.892600  0.522900  0.001600  1.0  -0.5799
  O  O149  1  0.631000  0.520700  0.000000  1.0  -0.5836
  O  O150  1  0.587100  0.565200  0.101000  1.0  -0.5241
  O  O151  1  0.413700  0.436100  0.903800  1.0  -0.5733
  O  O152  1  0.369700  0.477100  0.998400  1.0  -0.5793
  O  O153  1  0.110300  0.479300  0.000000  1.0  -0.5826
  O  O154  1  0.021900  0.434800  0.899000  1.0  -0.5248
  O  O155  1  0.022400  0.586300  0.903800  1.0  -0.5734
  O  O156  1  0.107400  0.630300  0.998400  1.0  -0.5778
  O  O157  1  0.369000  0.889700  0.000000  1.0  -0.5838
  O  O158  1  0.412900  0.978100  0.899000  1.0  -0.5238
  O  O159  1  0.563900  0.977600  0.903800  1.0  -0.5743
  O  O160  1  0.522900  0.892600  0.998400  1.0  -0.5797
  O  O161  1  0.520700  0.631000  0.000000  1.0  -0.5829
  O  O162  1  0.565200  0.587100  0.899000  1.0  -0.5245
