# generated using pymatgen
data_Cu2H7C18N3O8
_symmetry_space_group_name_H-M   'P 1'
_cell_length_a   18.49660000
_cell_length_b   18.46600000
_cell_length_c   35.38590000
_cell_angle_alpha   89.58950000
_cell_angle_beta   90.27400000
_cell_angle_gamma   120.09710000
_symmetry_Int_Tables_number   1
_chemical_formula_structural   Cu2H7C18N3O8
_chemical_formula_sum   'Cu18 H63 C162 N27 O72'
_cell_volume   10456.54694837
_cell_formula_units_Z   9
loop_
 _symmetry_equiv_pos_site_id
 _symmetry_equiv_pos_as_xyz
  1  'x, y, z'
loop_
 _atom_site_type_symbol
 _atom_site_label
 _atom_site_symmetry_multiplicity
 _atom_site_fract_x
 _atom_site_fract_y
 _atom_site_fract_z
 _atom_site_occupancy
 _atom_site_charge
  Cu  Cu1  1  0.015370  0.505480  0.005660  1.0  0.8655
  Cu  Cu2  1  0.921150  0.459550  0.944170  1.0  0.8511
  Cu  Cu3  1  0.685300  0.841040  0.338080  1.0  0.8385
  Cu  Cu4  1  0.589320  0.791950  0.277080  1.0  0.8552
  Cu  Cu5  1  0.349060  0.170240  0.673290  1.0  0.8461
  Cu  Cu6  1  0.256090  0.125170  0.611340  1.0  0.8479
  Cu  Cu7  1  0.441720  0.499200  0.004120  1.0  0.8437
  Cu  Cu8  1  0.488090  0.452340  0.942680  1.0  0.8496
  Cu  Cu9  1  0.159670  0.788700  0.274500  1.0  0.8508
  Cu  Cu10  1  0.111100  0.832210  0.336400  1.0  0.8538
  Cu  Cu11  1  0.779360  0.166520  0.669480  1.0  0.8434
  Cu  Cu12  1  0.823960  0.116530  0.608610  1.0  0.8507
  Cu  Cu13  1  0.494600  0.027730  0.941180  1.0  0.852
  Cu  Cu14  1  0.448160  0.933090  0.002780  1.0  0.8457
  Cu  Cu15  1  0.166020  0.360680  0.277660  1.0  0.8527
  Cu  Cu16  1  0.115730  0.264650  0.338850  1.0  0.8585
  Cu  Cu17  1  0.827190  0.691670  0.608610  1.0  0.8441
  Cu  Cu18  1  0.784280  0.597660  0.670490  1.0  0.8628
  H  H19  1  0.287250  0.253000  0.215680  1.0  0.1174
  H  H20  1  0.159870  0.074440  0.305400  1.0  0.1232
  H  H21  1  0.285550  0.019740  0.218150  1.0  0.1156
  H  H22  1  0.869930  0.544000  0.534270  1.0  0.1136
  H  H23  1  0.842390  0.411020  0.638140  1.0  0.1259
  H  H24  1  0.879030  0.316560  0.533060  1.0  0.1088
  H  H25  1  0.614350  0.683130  0.885010  1.0  0.117
  H  H26  1  0.480870  0.736500  0.968850  1.0  0.1329
  H  H27  1  0.614070  0.915420  0.880050  1.0  0.1148
  H  H28  1  0.731810  0.994480  0.202280  1.0  0.1102
  H  H29  1  0.866650  0.083820  0.307340  1.0  0.1257
  H  H30  1  0.971910  0.217950  0.203940  1.0  0.1143
  H  H31  1  0.363040  0.358630  0.551630  1.0  0.1148
  H  H32  1  0.542260  0.405790  0.640200  1.0  0.1287
  H  H33  1  0.592780  0.593670  0.555950  1.0  0.1177
  H  H34  1  0.058710  0.653430  0.872740  1.0  0.1152
  H  H35  1  0.199360  0.752990  0.975440  1.0  0.1291
  H  H36  1  0.291470  0.883040  0.869210  1.0  0.1084
  H  H37  1  0.955970  0.731560  0.201540  1.0  0.109
  H  H38  1  0.866810  0.770670  0.307750  1.0  0.1199
  H  H39  1  0.726320  0.734830  0.205780  1.0  0.1194
  H  H40  1  0.618020  0.053720  0.537200  1.0  0.1103
  H  H41  1  0.532460  0.101390  0.642540  1.0  0.1192
  H  H42  1  0.396200  0.071720  0.539780  1.0  0.1139
  H  H43  1  0.056750  0.398690  0.873200  1.0  0.1134
  H  H44  1  0.196560  0.435210  0.975440  1.0  0.1201
  H  H45  1  0.282720  0.388190  0.870170  1.0  0.1104
  H  H46  1  0.230920  0.282670  0.735270  1.0  0.1115
  H  H47  1  0.061230  0.162120  0.642330  1.0  0.1242
  H  H48  1  0.002080  0.287380  0.728450  1.0  0.1149
  H  H49  1  0.902890  0.625610  0.066700  1.0  0.1154
  H  H50  1  0.726300  0.493990  0.977310  1.0  0.1279
  H  H51  1  0.671020  0.625370  0.061440  1.0  0.1143
  H  H52  1  0.336830  0.952040  0.396720  1.0  0.116
  H  H53  1  0.396090  0.828170  0.310380  1.0  0.1271
  H  H54  1  0.571900  0.958670  0.400210  1.0  0.1163
  H  H55  1  0.239520  0.937470  0.733370  1.0  0.1124
  H  H56  1  0.066710  0.885640  0.641280  1.0  0.1274
  H  H57  1  0.016060  0.697650  0.725450  1.0  0.1209
  H  H58  1  0.908550  0.278710  0.063550  1.0  0.1178
  H  H59  1  0.727460  0.222680  0.975190  1.0  0.1279
  H  H60  1  0.679260  0.044010  0.064510  1.0  0.1206
  H  H61  1  0.542320  0.647200  0.411750  1.0  0.1127
  H  H62  1  0.409070  0.541150  0.308500  1.0  0.1213
  H  H63  1  0.313650  0.412200  0.414750  1.0  0.1115
  H  H64  1  0.735780  0.743360  0.743460  1.0  0.1129
  H  H65  1  0.768250  0.877870  0.639750  1.0  0.1204
  H  H66  1  0.722300  0.967960  0.744400  1.0  0.1123
  H  H67  1  0.391520  0.072090  0.074460  1.0  0.1155
  H  H68  1  0.426350  0.209940  0.971500  1.0  0.1202
  H  H69  1  0.382190  0.298560  0.077050  1.0  0.1179
  H  H70  1  0.980490  0.598880  0.391520  1.0  0.1168
  H  H71  1  0.119150  0.550650  0.308390  1.0  0.1289
  H  H72  1  0.987070  0.370160  0.396870  1.0  0.1137
  H  H73  1  0.179920  0.282000  0.808840  1.0  0.1207
  H  H74  1  0.518390  0.952610  0.475450  1.0  0.1187
  H  H75  1  0.853360  0.624630  0.140490  1.0  0.1282
  H  H76  1  0.188760  0.885760  0.809120  1.0  0.1175
  H  H77  1  0.414710  0.410410  0.474280  1.0  0.1217
  H  H78  1  0.729540  0.098170  0.140830  1.0  0.1151
  H  H79  1  0.616940  0.864770  0.802090  1.0  0.1167
  H  H80  1  0.986390  0.421420  0.471140  1.0  0.1185
  H  H81  1  0.280520  0.197620  0.136470  1.0  0.1193
  C  C82  1  0.292390  0.139150  0.213450  1.0  -0.0399
  C  C83  1  0.268260  0.193320  0.229240  1.0  -0.0888
  C  C84  1  0.221750  0.171140  0.263090  1.0  -0.1099
  C  C85  1  0.197530  0.093030  0.279990  1.0  -0.0555
  C  C86  1  0.218950  0.037390  0.263590  1.0  -0.0951
  C  C87  1  0.267680  0.061780  0.230780  1.0  -0.0801
  C  C88  1  0.877450  0.432090  0.529500  1.0  -0.0478
  C  C89  1  0.869440  0.492720  0.549600  1.0  -0.0848
  C  C90  1  0.857860  0.486430  0.588820  1.0  -0.1081
  C  C91  1  0.854090  0.417740  0.608000  1.0  -0.0268
  C  C92  1  0.861710  0.355840  0.588280  1.0  -0.1234
  C  C93  1  0.875490  0.364650  0.548930  1.0  -0.0676
  C  C94  1  0.620020  0.801910  0.879070  1.0  -0.0497
  C  C95  1  0.594560  0.724550  0.896650  1.0  -0.0774
  C  C96  1  0.543430  0.699850  0.928720  1.0  -0.0704
  C  C97  1  0.519960  0.755040  0.943890  1.0  -0.0211
  C  C98  1  0.545000  0.833120  0.926660  1.0  -0.1011
  C  C99  1  0.593940  0.855530  0.893640  1.0  -0.0948
  C  C100  1  0.850580  0.108290  0.198980  1.0  -0.0538
  C  C101  1  0.784500  0.041390  0.218230  1.0  -0.0665
  C  C102  1  0.790160  0.031370  0.257480  1.0  -0.1197
  C  C103  1  0.861030  0.091560  0.277290  1.0  -0.0393
  C  C104  1  0.926690  0.159520  0.258280  1.0  -0.1054
  C  C105  1  0.920620  0.167140  0.219160  1.0  -0.0849
  C  C106  1  0.474830  0.479640  0.550530  1.0  -0.0405
  C  C107  1  0.422260  0.399300  0.565320  1.0  -0.0991
  C  C108  1  0.445350  0.372790  0.598370  1.0  -0.1033
  C  C109  1  0.522870  0.426600  0.615450  1.0  -0.0553
  C  C110  1  0.577080  0.505760  0.599920  1.0  -0.099
  C  C111  1  0.551670  0.532300  0.567970  1.0  -0.0757
  C  C112  1  0.173260  0.769110  0.867140  1.0  0.1406
  C  C113  1  0.111340  0.702400  0.887970  1.0  -0.1126
  C  C114  1  0.119600  0.695020  0.927080  1.0  -0.0435
  C  C115  1  0.190730  0.758600  0.945480  1.0  -0.031
  C  C116  1  0.252790  0.827670  0.925050  1.0  -0.1315
  C  C117  1  0.242760  0.832880  0.885770  1.0  -0.075
  C  C118  1  0.839090  0.730080  0.199610  1.0  -0.051
  C  C119  1  0.908350  0.734500  0.218070  1.0  -0.0733
  C  C120  1  0.919400  0.749900  0.257230  1.0  -0.1049
  C  C121  1  0.858110  0.757000  0.277820  1.0  -0.0242
  C  C122  1  0.787620  0.750740  0.259580  1.0  -0.1164
  C  C123  1  0.778870  0.736970  0.220520  1.0  -0.0508
  C  C124  1  0.505020  0.059600  0.534400  1.0  -0.0519
  C  C125  1  0.571810  0.059830  0.553390  1.0  -0.0623
  C  C126  1  0.582900  0.075710  0.592570  1.0  -0.1161
  C  C127  1  0.523730  0.087370  0.612640  1.0  -0.0612
  C  C128  1  0.455600  0.085280  0.593870  1.0  -0.1114
  C  C129  1  0.447070  0.071120  0.554840  1.0  -0.0791
  C  C130  1  0.167500  0.389930  0.867630  1.0  -0.0523
  C  C131  1  0.108620  0.399860  0.888150  1.0  -0.0778
  C  C132  1  0.117890  0.415370  0.927060  1.0  -0.1094
  C  C133  1  0.187430  0.420200  0.945630  1.0  -0.0325
  C  C134  1  0.247460  0.410220  0.925500  1.0  -0.123
  C  C135  1  0.235890  0.393120  0.886430  1.0  -0.0671
  C  C136  1  0.118910  0.290880  0.735090  1.0  0.1423
  C  C137  1  0.172760  0.264940  0.720740  1.0  -0.0908
  C  C138  1  0.152760  0.219150  0.686870  1.0  -0.0982
  C  C139  1  0.077360  0.198330  0.668110  1.0  -0.0498
  C  C140  1  0.021190  0.220880  0.683130  1.0  -0.0381
  C  C141  1  0.043510  0.268020  0.716480  1.0  -0.1267
  C  C142  1  0.789500  0.631430  0.067440  1.0  0.1459
  C  C143  1  0.843520  0.605810  0.052900  1.0  -0.0903
  C  C144  1  0.821840  0.557390  0.019800  1.0  -0.1056
  C  C145  1  0.744340  0.532750  0.002320  1.0  -0.0294
  C  C146  1  0.688890  0.555830  0.017440  1.0  -0.087
  C  C147  1  0.712730  0.606190  0.049660  1.0  -0.0981
  C  C148  1  0.456720  0.960920  0.401940  1.0  0.1377
  C  C149  1  0.379410  0.934550  0.384440  1.0  -0.0997
  C  C150  1  0.356590  0.885940  0.351660  1.0  -0.0883
  C  C151  1  0.413380  0.865540  0.335820  1.0  -0.0337
  C  C152  1  0.491340  0.891210  0.353010  1.0  -0.0906
  C  C153  1  0.512170  0.938050  0.386600  1.0  -0.0965
  C  C154  1  0.130790  0.814180  0.732770  1.0  -0.0429
  C  C155  1  0.182190  0.895410  0.718640  1.0  -0.0957
  C  C156  1  0.160460  0.921160  0.684960  1.0  -0.0985
  C  C157  1  0.085290  0.865520  0.666510  1.0  -0.054
  C  C158  1  0.032170  0.785290  0.681280  1.0  -0.0977
  C  C159  1  0.056470  0.759690  0.713910  1.0  -0.078
  C  C160  1  0.797280  0.158760  0.067140  1.0  0.1404
  C  C161  1  0.848750  0.237110  0.050500  1.0  -0.1302
  C  C162  1  0.824500  0.261550  0.017420  1.0  -0.0316
  C  C163  1  0.747220  0.204920  0.000780  1.0  -0.0515
  C  C164  1  0.693530  0.126700  0.017710  1.0  -0.101
  C  C165  1  0.718910  0.104300  0.051280  1.0  -0.0642
  C  C166  1  0.429920  0.528570  0.417340  1.0  0.1353
  C  C167  1  0.491100  0.596390  0.396670  1.0  -0.086
  C  C168  1  0.484690  0.601350  0.357390  1.0  -0.1083
  C  C169  1  0.415840  0.536360  0.338690  1.0  -0.0351
  C  C170  1  0.353600  0.467360  0.358980  1.0  -0.1218
  C  C171  1  0.362110  0.463110  0.398420  1.0  -0.0765
  C  C172  1  0.726260  0.853930  0.747900  1.0  0.1389
  C  C173  1  0.736630  0.794630  0.728000  1.0  -0.0864
  C  C174  1  0.750950  0.802210  0.689030  1.0  -0.0946
  C  C175  1  0.754800  0.870830  0.669760  1.0  -0.0588
  C  C176  1  0.744830  0.931890  0.689170  1.0  -0.0361
  C  C177  1  0.728170  0.921330  0.728420  1.0  -0.0804
  C  C178  1  0.383820  0.183420  0.079690  1.0  0.1367
  C  C179  1  0.392590  0.123740  0.059250  1.0  -0.0856
  C  C180  1  0.407040  0.132130  0.020210  1.0  -0.1008
  C  C181  1  0.412250  0.201890  0.001440  1.0  -0.051
  C  C182  1  0.403380  0.263040  0.021430  1.0  -0.0531
  C  C183  1  0.386590  0.251590  0.060660  1.0  -0.0608
  C  C184  1  0.977430  0.481560  0.397450  1.0  0.1484
  C  C185  1  0.001500  0.558510  0.379840  1.0  -0.0948
  C  C186  1  0.053320  0.584400  0.348020  1.0  -0.0955
  C  C187  1  0.079010  0.530830  0.333020  1.0  -0.0266
  C  C188  1  0.055780  0.453310  0.350350  1.0  -0.0993
  C  C189  1  0.005700  0.429520  0.383080  1.0  -0.0916
  C  C190  1  0.059880  0.436000  0.946570  1.0  0.7029
  C  C191  1  0.878570  0.531420  0.003210  1.0  0.7031
  C  C192  1  0.876370  0.341220  0.001580  1.0  0.7367
  C  C193  1  0.062120  0.620830  0.945870  1.0  0.7097
  C  C194  1  0.728540  0.769340  0.279470  1.0  0.7025
  C  C195  1  0.548840  0.866750  0.335970  1.0  0.7069
  C  C196  1  0.544360  0.679170  0.337270  1.0  0.6853
  C  C197  1  0.728840  0.953070  0.276840  1.0  0.6953
  C  C198  1  0.209690  0.192910  0.670600  1.0  0.7002
  C  C199  1  0.397190  0.105480  0.613390  1.0  0.7121
  C  C200  1  0.390380  0.288720  0.614760  1.0  0.7079
  C  C201  1  0.214600  0.006010  0.669120  1.0  0.6916
  C  C202  1  0.326970  0.429000  0.944080  1.0  0.7071
  C  C203  1  0.605560  0.526230  0.000360  1.0  0.6737
  C  C204  1  0.514120  0.616330  0.945900  1.0  0.6837
  C  C205  1  0.420150  0.338150  0.003430  1.0  0.7191
  C  C206  1  0.188430  0.952910  0.279770  1.0  0.6785
  C  C207  1  0.082840  0.668450  0.331560  1.0  0.6741
  C  C208  1  0.998810  0.768430  0.275760  1.0  0.7011
  C  C209  1  0.273670  0.856860  0.334230  1.0  0.6848
  C  C210  1  0.661990  0.092960  0.611160  1.0  0.6866
  C  C211  1  0.942870  0.194480  0.666250  1.0  0.7424
  C  C212  1  0.844640  0.277680  0.607990  1.0  0.6997
  C  C213  1  0.759790  0.005700  0.670400  1.0  0.7274
  C  C214  1  0.519370  0.890010  0.943460  1.0  0.7075
  C  C215  1  0.426330  0.073040  0.000650  1.0  0.6901
  C  C216  1  0.610820  0.070090  0.000520  1.0  0.7074
  C  C217  1  0.332540  0.887940  0.943610  1.0  0.6844
  C  C218  1  0.195030  0.226980  0.280180  1.0  0.7035
  C  C219  1  0.085770  0.399140  0.334450  1.0  0.7058
  C  C220  1  0.275550  0.406180  0.339640  1.0  0.7017
  C  C221  1  0.005040  0.218160  0.278100  1.0  0.6897
  C  C222  1  0.768800  0.742160  0.669560  1.0  0.6817
  C  C223  1  0.841950  0.547430  0.608680  1.0  0.6859
  C  C224  1  0.661830  0.558810  0.615580  1.0  0.6786
  C  C225  1  0.948670  0.730650  0.664650  1.0  0.6884
  C  C226  1  0.160350  0.386250  0.826130  1.0  0.0983
  C  C227  1  0.166150  0.330980  0.801830  1.0  0.2045
  C  C228  1  0.498190  0.056370  0.492860  1.0  0.0889
  C  C229  1  0.504420  0.001470  0.468490  1.0  0.2103
  C  C230  1  0.831870  0.727330  0.158160  1.0  0.1006
  C  C231  1  0.838580  0.672990  0.133670  1.0  0.1993
  C  C232  1  0.151970  0.783910  0.767320  1.0  0.0957
  C  C233  1  0.175990  0.823530  0.801970  1.0  0.2162
  C  C234  1  0.452120  0.510870  0.516800  1.0  0.0957
  C  C235  1  0.427360  0.472330  0.481970  1.0  0.2237
  C  C236  1  0.852590  0.114310  0.157470  1.0  0.0917
  C  C237  1  0.791260  0.109910  0.133480  1.0  0.1991
  C  C238  1  0.676110  0.825580  0.846300  1.0  0.1075
  C  C239  1  0.665630  0.852190  0.811080  1.0  0.202
  C  C240  1  0.879730  0.437200  0.487950  1.0  0.1041
  C  C241  1  0.936030  0.432810  0.463840  1.0  0.206
  C  C242  1  0.344830  0.161340  0.179370  1.0  0.0945
  C  C243  1  0.329890  0.185130  0.144300  1.0  0.2114
  N  N244  1  0.120640  0.402370  0.771240  1.0  -0.1239
  N  N245  1  0.132400  0.429960  0.806320  1.0  -0.223
  N  N246  1  0.140200  0.342920  0.767870  1.0  0.157
  N  N247  1  0.458160  0.072320  0.437990  1.0  -0.1277
  N  N248  1  0.469820  0.099790  0.473110  1.0  -0.2227
  N  N249  1  0.478330  0.013340  0.434560  1.0  0.1632
  N  N250  1  0.790270  0.742480  0.103570  1.0  -0.123
  N  N251  1  0.802190  0.769940  0.138690  1.0  -0.237
  N  N252  1  0.811470  0.684280  0.099910  1.0  0.1553
  N  N253  1  0.143600  0.693820  0.808210  1.0  -0.1072
  N  N254  1  0.132430  0.703630  0.772050  1.0  -0.238
  N  N255  1  0.169260  0.764660  0.826710  1.0  0.1641
  N  N256  1  0.460080  0.602290  0.476790  1.0  -0.1223
  N  N257  1  0.471920  0.591370  0.512740  1.0  -0.2364
  N  N258  1  0.433780  0.531940  0.457790  1.0  0.1745
  N  N259  1  0.906500  0.152900  0.102330  1.0  -0.1251
  N  N260  1  0.923220  0.140720  0.137360  1.0  -0.2373
  N  N261  1  0.827890  0.134940  0.099350  1.0  0.1697
  N  N262  1  0.764280  0.821530  0.808590  1.0  -0.1337
  N  N263  1  0.737800  0.807190  0.843930  1.0  -0.2388
  N  N264  1  0.721750  0.848190  0.788350  1.0  0.168
  N  N265  1  0.862880  0.475460  0.432810  1.0  -0.1237
  N  N266  1  0.834940  0.463440  0.467900  1.0  -0.2346
  N  N267  1  0.923540  0.457640  0.429700  1.0  0.1586
  N  N268  1  0.427470  0.153330  0.139500  1.0  -0.1299
  N  N269  1  0.405660  0.142060  0.175490  1.0  -0.2327
  N  N270  1  0.382650  0.178680  0.120210  1.0  0.1579
  O  O271  1  0.076590  0.467200  0.979540  1.0  -0.5817
  O  O272  1  0.940300  0.537950  0.021990  1.0  -0.5828
  O  O273  1  0.940210  0.395420  0.019680  1.0  -0.5954
  O  O274  1  0.075720  0.606560  0.979620  1.0  -0.5839
  O  O275  1  0.998370  0.565980  0.928080  1.0  -0.5921
  O  O276  1  0.859100  0.359190  0.969370  1.0  -0.5884
  O  O277  1  0.863920  0.501380  0.970080  1.0  -0.5887
  O  O278  1  0.995370  0.426090  0.929110  1.0  -0.5929
  O  O279  1  0.744760  0.799810  0.312570  1.0  -0.5835
  O  O280  1  0.612240  0.875970  0.354200  1.0  -0.5826
  O  O281  1  0.608780  0.734210  0.354560  1.0  -0.5954
  O  O282  1  0.743890  0.938950  0.310330  1.0  -0.5921
  O  O283  1  0.664540  0.898500  0.259310  1.0  -0.5841
  O  O284  1  0.528690  0.692630  0.303800  1.0  -0.5827
  O  O285  1  0.532690  0.834410  0.303260  1.0  -0.5884
  O  O286  1  0.664040  0.759340  0.262010  1.0  -0.5773
  O  O287  1  0.272130  0.200860  0.689340  1.0  -0.5782
  O  O288  1  0.411620  0.133430  0.646960  1.0  -0.5801
  O  O289  1  0.406530  0.271210  0.647420  1.0  -0.599
  O  O290  1  0.275830  0.060710  0.688190  1.0  -0.5978
  O  O291  1  0.198860  0.023640  0.636450  1.0  -0.5962
  O  O292  1  0.328260  0.234370  0.596050  1.0  -0.5799
  O  O293  1  0.333930  0.097430  0.595460  1.0  -0.601
  O  O294  1  0.195020  0.162020  0.637640  1.0  -0.5967
  O  O295  1  0.341880  0.457130  0.977610  1.0  -0.5977
  O  O296  1  0.551070  0.534770  0.018430  1.0  -0.5965
  O  O297  1  0.480070  0.599430  0.978290  1.0  -0.5893
  O  O298  1  0.412350  0.393070  0.021500  1.0  -0.5916
  O  O299  1  0.447040  0.352670  0.969610  1.0  -0.5966
  O  O300  1  0.522660  0.561720  0.927900  1.0  -0.5978
  O  O301  1  0.588590  0.491750  0.968110  1.0  -0.591
  O  O302  1  0.381590  0.421300  0.925780  1.0  -0.5857
  O  O303  1  0.195910  0.898730  0.260880  1.0  -0.5948
  O  O304  1  0.116010  0.686220  0.298990  1.0  -0.5965
  O  O305  1  0.053450  0.760400  0.257560  1.0  -0.5948
  O  O306  1  0.258370  0.825660  0.301290  1.0  -0.5959
  O  O307  1  0.218230  0.863440  0.352450  1.0  -0.5949
  O  O308  1  0.013160  0.795740  0.309390  1.0  -0.5857
  O  O309  1  0.075920  0.722810  0.350520  1.0  -0.6011
  O  O310  1  0.153980  0.934640  0.312070  1.0  -0.5807
  O  O311  1  0.677740  0.122120  0.644490  1.0  -0.584
  O  O312  1  0.888880  0.204900  0.683690  1.0  -0.5954
  O  O313  1  0.814900  0.263460  0.641270  1.0  -0.5873
  O  O314  1  0.752260  0.061400  0.687950  1.0  -0.5916
  O  O315  1  0.784920  0.018330  0.636310  1.0  -0.5947
  O  O316  1  0.855410  0.223440  0.590950  1.0  -0.5853
  O  O317  1  0.925160  0.158490  0.634270  1.0  -0.5794
  O  O318  1  0.715980  0.084080  0.592860  1.0  -0.5816
  O  O319  1  0.528400  0.953490  0.925130  1.0  -0.5789
  O  O320  1  0.454630  0.087880  0.967110  1.0  -0.592
  O  O321  1  0.594120  0.086550  0.967760  1.0  -0.5939
  O  O322  1  0.387070  0.951220  0.925310  1.0  -0.5994
  O  O323  1  0.347690  0.873690  0.977050  1.0  -0.5871
  O  O324  1  0.556540  0.006570  0.018760  1.0  -0.5779
  O  O325  1  0.418190  0.009540  0.018570  1.0  -0.5949
  O  O326  1  0.487340  0.873950  0.976270  1.0  -0.5898
  O  O327  1  0.203720  0.290170  0.261880  1.0  -0.5823
  O  O328  1  0.120740  0.416720  0.302230  1.0  -0.5885
  O  O329  1  0.262400  0.420810  0.305930  1.0  -0.6007
  O  O330  1  0.060430  0.282520  0.260700  1.0  -0.59
  O  O331  1  0.017910  0.202430  0.311650  1.0  -0.5921
  O  O332  1  0.220680  0.341850  0.357220  1.0  -0.5949
  O  O333  1  0.077750  0.336530  0.353140  1.0  -0.5865
  O  O334  1  0.161430  0.209890  0.312770  1.0  -0.5946
  O  O335  1  0.795380  0.756290  0.635790  1.0  -0.5917
  O  O336  1  0.851520  0.611950  0.591110  1.0  -0.6021
  O  O337  1  0.716090  0.620330  0.596290  1.0  -0.5981
  O  O338  1  0.930510  0.747800  0.632400  1.0  -0.5991
  O  O339  1  0.894560  0.668400  0.683570  1.0  -0.5983
  O  O340  1  0.680490  0.541360  0.647610  1.0  -0.5952
  O  O341  1  0.815920  0.533510  0.642570  1.0  -0.5938
  O  O342  1  0.759920  0.678060  0.687320  1.0  -0.5928
