# generated using pymatgen
data_Zn2H14C16N4O7
_symmetry_space_group_name_H-M   'P 1'
_cell_length_a   8.57070000
_cell_length_b   9.89850000
_cell_length_c   14.28120000
_cell_angle_alpha   104.98600000
_cell_angle_beta   102.29100000
_cell_angle_gamma   91.28600000
_symmetry_Int_Tables_number   1
_chemical_formula_structural   Zn2H14C16N4O7
_chemical_formula_sum   'Zn4 H28 C32 N8 O14'
_cell_volume   1139.68195844
_cell_formula_units_Z   2
loop_
 _symmetry_equiv_pos_site_id
 _symmetry_equiv_pos_as_xyz
  1  'x, y, z'
loop_
 _atom_site_type_symbol
 _atom_site_label
 _atom_site_symmetry_multiplicity
 _atom_site_fract_x
 _atom_site_fract_y
 _atom_site_fract_z
 _atom_site_occupancy
 _atom_site_charge
  Zn  Zn1  1  0.336950  0.639360  0.661210  1.0  0.9643
  Zn  Zn2  1  0.663050  0.360640  0.338790  1.0  0.9616
  Zn  Zn3  1  0.332200  0.416130  0.461720  1.0  1.0197
  Zn  Zn4  1  0.667800  0.583870  0.538280  1.0  1.0208
  H  H5  1  0.888200  0.764700  0.314200  1.0  0.1252
  H  H6  1  0.981000  0.341800  0.701900  1.0  0.1223
  H  H7  1  0.019000  0.658200  0.298100  1.0  0.1205
  H  H8  1  0.801700  0.564300  0.752300  1.0  0.0887
  H  H9  1  0.108600  0.151600  0.377900  1.0  0.0913
  H  H10  1  0.317600  0.937600  0.121800  1.0  0.1358
  H  H11  1  0.198300  0.435700  0.247700  1.0  0.0878
  H  H12  1  0.986000  0.146200  0.518400  1.0  0.1068
  H  H13  1  0.014000  0.853800  0.481600  1.0  0.1083
  H  H14  1  0.633500  0.770100  0.013700  1.0  0.1252
  H  H15  1  0.140900  0.861000  0.418000  1.0  0.1141
  H  H16  1  0.587700  0.038900  0.599000  1.0  0.1218
  H  H17  1  0.503200  0.928300  0.738600  1.0  0.0816
  H  H18  1  0.859100  0.139000  0.582000  1.0  0.1148
  H  H19  1  0.682400  0.062400  0.878200  1.0  0.1362
  H  H20  1  0.412300  0.961100  0.401000  1.0  0.1227
  H  H21  1  0.975000  0.681900  0.897700  1.0  0.1341
  H  H22  1  0.496800  0.071700  0.261400  1.0  0.0813
  H  H23  1  0.454100  0.641600  0.872800  1.0  0.0943
  H  H24  1  0.923900  0.029200  0.233100  1.0  0.1252
  H  H25  1  0.545900  0.358400  0.127200  1.0  0.0945
  H  H26  1  0.025000  0.318100  0.102300  1.0  0.1342
  H  H27  1  0.076100  0.970800  0.766900  1.0  0.1259
  H  H28  1  0.597700  0.998800  0.432600  1.0  0.1328
  H  H29  1  0.891400  0.848400  0.622100  1.0  0.0911
  H  H30  1  0.366500  0.229900  0.986300  1.0  0.125
  H  H31  1  0.402300  0.001200  0.567400  1.0  0.1326
  H  H32  1  0.111800  0.235300  0.685800  1.0  0.1238
  C  C33  1  0.074500  0.797600  0.437800  1.0  -0.2911
  C  C34  1  0.143800  0.351900  0.244800  1.0  0.1702
  C  C35  1  0.980500  0.111200  0.234600  1.0  -0.0845
  C  C36  1  0.529900  0.894600  0.794500  1.0  0.1857
  C  C37  1  0.637100  0.976200  0.878400  1.0  -0.1399
  C  C38  1  0.957700  0.160400  0.152800  1.0  0.1521
  C  C39  1  0.391800  0.195400  0.041900  1.0  -0.1633
  C  C40  1  0.925500  0.202400  0.562200  1.0  -0.29
  C  C41  1  0.608200  0.804600  0.958100  1.0  -0.1608
  C  C42  1  0.820300  0.289500  0.507100  1.0  0.7543
  C  C43  1  0.019500  0.888800  0.765400  1.0  -0.0837
  C  C44  1  0.508300  0.957000  0.450100  1.0  -0.3318
  C  C45  1  0.674500  0.928800  0.960400  1.0  0.1426
  C  C46  1  0.958600  0.705600  0.345400  1.0  -0.317
  C  C47  1  0.534700  0.804200  0.443800  1.0  0.7474
  C  C48  1  0.042300  0.839600  0.847200  1.0  0.1538
  C  C49  1  0.908700  0.813800  0.677800  1.0  0.1803
  C  C50  1  0.362900  0.023800  0.121600  1.0  -0.1412
  C  C51  1  0.465300  0.195800  0.556200  1.0  0.7479
  C  C52  1  0.856200  0.648100  0.755200  1.0  0.1724
  C  C53  1  0.141000  0.401900  0.630000  1.0  0.7186
  C  C54  1  0.501400  0.727100  0.872800  1.0  0.1542
  C  C55  1  0.039600  0.282400  0.157500  1.0  -0.2069
  C  C56  1  0.960400  0.717600  0.842500  1.0  -0.2052
  C  C57  1  0.498600  0.272900  0.127200  1.0  0.1542
  C  C58  1  0.041400  0.294400  0.654600  1.0  -0.3159
  C  C59  1  0.325500  0.071200  0.039600  1.0  0.1439
  C  C60  1  0.091300  0.186200  0.322200  1.0  0.181
  C  C61  1  0.859000  0.598100  0.370000  1.0  0.7173
  C  C62  1  0.491700  0.043000  0.549900  1.0  -0.3322
  C  C63  1  0.179700  0.710500  0.492900  1.0  0.7526
  C  C64  1  0.470100  0.105400  0.205500  1.0  0.1865
  N  N65  1  0.170900  0.304600  0.326400  1.0  -0.3124
  N  N66  1  0.847700  0.096000  0.054200  1.0  -0.1951
  N  N67  1  0.211900  0.003100  0.940400  1.0  -0.2102
  N  N68  1  0.464700  0.771000  0.791200  1.0  -0.3199
  N  N69  1  0.535300  0.229000  0.208800  1.0  -0.3186
  N  N70  1  0.829100  0.695400  0.673600  1.0  -0.3142
  N  N71  1  0.788100  0.996900  0.059600  1.0  -0.207
  N  N72  1  0.152300  0.904000  0.945800  1.0  -0.1894
  O  O73  1  0.505800  0.719100  0.359300  1.0  -0.5889
  O  O74  1  0.494200  0.280900  0.640700  1.0  -0.5895
  O  O75  1  0.845500  0.615500  0.456000  1.0  -0.594
  O  O76  1  0.154500  0.384500  0.544000  1.0  -0.5941
  O  O77  1  0.776700  0.241300  0.413200  1.0  -0.5947
  O  O78  1  0.584900  0.772800  0.524300  1.0  -0.5753
  O  O79  1  0.511700  0.470900  0.400600  1.0  -0.6767
  O  O80  1  0.793200  0.491900  0.297700  1.0  -0.608
  O  O81  1  0.218100  0.598700  0.443600  1.0  -0.587
  O  O82  1  0.781900  0.401300  0.556400  1.0  -0.5871
  O  O83  1  0.415100  0.227200  0.475700  1.0  -0.5745
  O  O84  1  0.488300  0.529100  0.599400  1.0  -0.6783
  O  O85  1  0.206800  0.508100  0.702300  1.0  -0.6049
  O  O86  1  0.223300  0.758700  0.586800  1.0  -0.5959
