# generated using pymatgen
data_Zn5H21C32(N3O4)5
_symmetry_space_group_name_H-M   'P 1'
_cell_length_a   10.00890000
_cell_length_b   22.02590000
_cell_length_c   11.73110000
_cell_angle_alpha   90.00000000
_cell_angle_beta   104.96100000
_cell_angle_gamma   90.00000000
_symmetry_Int_Tables_number   1
_chemical_formula_structural   Zn5H21C32(N3O4)5
_chemical_formula_sum   'Zn10 H42 C64 N30 O40'
_cell_volume   2498.51309671
_cell_formula_units_Z   2
loop_
 _symmetry_equiv_pos_site_id
 _symmetry_equiv_pos_as_xyz
  1  'x, y, z'
loop_
 _atom_site_type_symbol
 _atom_site_label
 _atom_site_symmetry_multiplicity
 _atom_site_fract_x
 _atom_site_fract_y
 _atom_site_fract_z
 _atom_site_occupancy
 _atom_site_charge
  Zn  Zn1  1  0.672620  0.700460  0.059650  1.0  0.885
  Zn  Zn2  1  0.263470  0.674440  0.379110  1.0  0.8885
  Zn  Zn3  1  0.083360  0.675770  0.749630  1.0  0.9212
  Zn  Zn4  1  0.706480  0.551940  0.199460  1.0  0.8807
  Zn  Zn5  1  0.609520  0.824860  0.846260  1.0  1.0469
  Zn  Zn6  1  0.327380  0.200460  0.940350  1.0  0.8852
  Zn  Zn7  1  0.736530  0.174440  0.620890  1.0  0.8888
  Zn  Zn8  1  0.916640  0.175770  0.250370  1.0  0.9309
  Zn  Zn9  1  0.293520  0.051940  0.800540  1.0  0.8814
  Zn  Zn10  1  0.390480  0.324860  0.153740  1.0  1.0445
  H  H11  1  0.915700  0.643500  0.946400  1.0  0.1072
  H  H12  1  0.994400  0.731600  0.211100  1.0  0.0979
  H  H13  1  0.438800  0.739500  0.216500  1.0  0.1058
  H  H14  1  0.205300  0.031700  0.339200  1.0  0.1326
  H  H15  1  0.267700  0.894400  0.567900  1.0  0.0979
  H  H16  1  0.557100  0.441400  0.881600  1.0  0.1248
  H  H17  1  0.073200  0.503800  0.573700  1.0  0.1345
  H  H18  1  0.346700  0.659300  0.967200  1.0  0.0986
  H  H19  1  0.380600  0.470400  0.539500  1.0  0.1324
  H  H20  1  0.224900  0.456700  0.913000  1.0  0.1185
  H  H21  1  0.176700  0.858200  0.223800  1.0  0.1331
  H  H22  1  0.165500  0.329500  0.662300  1.0  0.135
  H  H23  1  0.481700  0.612400  0.761200  1.0  0.1206
  H  H24  1  0.028600  0.569200  0.336200  1.0  0.0841
  H  H25  1  0.446400  0.570700  0.307400  1.0  0.0953
  H  H26  1  0.871100  0.780000  0.734200  1.0  0.0905
  H  H27  1  0.287300  0.784300  0.726800  1.0  0.1153
  H  H28  1  0.046000  0.680000  0.625000  1.0  0.3402
  H  H29  1  0.090900  0.736700  0.572100  1.0  0.4187
  H  H30  1  0.529800  0.891500  0.882700  1.0  0.3884
  H  H31  1  0.461000  0.928200  0.777300  1.0  0.4307
  H  H32  1  0.084300  0.143500  0.053600  1.0  0.1096
  H  H33  1  0.005600  0.231600  0.788900  1.0  0.1
  H  H34  1  0.561200  0.239500  0.783500  1.0  0.1032
  H  H35  1  0.794700  0.531700  0.660800  1.0  0.1356
  H  H36  1  0.732300  0.394400  0.432100  1.0  0.0985
  H  H37  1  0.442900  0.941400  0.118400  1.0  0.1212
  H  H38  1  0.926800  0.003800  0.426300  1.0  0.1347
  H  H39  1  0.653300  0.159300  0.032800  1.0  0.0985
  H  H40  1  0.619400  0.970400  0.460500  1.0  0.1315
  H  H41  1  0.775100  0.956700  0.087000  1.0  0.1183
  H  H42  1  0.823300  0.358200  0.776200  1.0  0.1336
  H  H43  1  0.834500  0.829500  0.337700  1.0  0.1337
  H  H44  1  0.518300  0.112400  0.238800  1.0  0.1181
  H  H45  1  0.971400  0.069200  0.663800  1.0  0.0865
  H  H46  1  0.553600  0.070700  0.692600  1.0  0.0916
  H  H47  1  0.128900  0.280000  0.265800  1.0  0.0898
  H  H48  1  0.712700  0.284300  0.273200  1.0  0.1152
  H  H49  1  0.954000  0.180000  0.375000  1.0  0.34
  H  H50  1  0.909100  0.236700  0.427900  1.0  0.4151
  H  H51  1  0.470200  0.391500  0.117300  1.0  0.3875
  H  H52  1  0.539000  0.428200  0.222700  1.0  0.4313
  C  C53  1  0.883400  0.679400  0.907100  1.0  0.2394
  C  C54  1  0.228700  0.798700  0.425600  1.0  0.7259
  C  C55  1  0.976100  0.691500  0.226800  1.0  0.2538
  C  C56  1  0.461000  0.698400  0.225800  1.0  0.2711
  C  C57  1  0.603300  0.554000  0.965400  1.0  0.6859
  C  C58  1  0.211600  0.990300  0.355300  1.0  -0.0688
  C  C59  1  0.249500  0.908100  0.490400  1.0  -0.0074
  C  C60  1  0.207500  0.386000  0.801500  1.0  -0.1225
  C  C61  1  0.476000  0.447400  0.709400  1.0  0.0117
  C  C62  1  0.115500  0.414700  0.603900  1.0  -0.0298
  C  C63  1  0.533500  0.529800  0.840200  1.0  -0.1524
  C  C64  1  0.138100  0.555900  0.787200  1.0  0.6718
  C  C65  1  0.526600  0.468400  0.819400  1.0  -0.0363
  C  C66  1  0.146000  0.490900  0.751100  1.0  -0.1618
  C  C67  1  0.105600  0.474900  0.632000  1.0  -0.0838
  C  C68  1  0.362000  0.691300  0.920300  1.0  0.2393
  C  C69  1  0.267800  0.338800  0.895400  1.0  0.6924
  C  C70  1  0.418600  0.486000  0.614500  1.0  -0.0534
  C  C71  1  0.196900  0.446200  0.833600  1.0  1e-04
  C  C72  1  0.193900  0.885600  0.286300  1.0  -0.1161
  C  C73  1  0.226800  0.865700  0.400000  1.0  -0.1184
  C  C74  1  0.163300  0.369800  0.685500  1.0  -0.0178
  C  C75  1  0.246300  0.968100  0.470500  1.0  -0.1655
  C  C76  1  0.186800  0.947200  0.266200  1.0  -0.0266
  C  C77  1  0.478700  0.570800  0.747400  1.0  0.0025
  C  C78  1  0.263400  0.015400  0.568300  1.0  0.6855
  C  C79  1  0.994000  0.603900  0.293500  1.0  0.2615
  C  C80  1  0.419700  0.547800  0.634600  1.0  -0.1249
  C  C81  1  0.464500  0.607000  0.273700  1.0  0.2554
  C  C82  1  0.352200  0.589000  0.535200  1.0  0.6852
  C  C83  1  0.859100  0.753100  0.792000  1.0  0.2555
  C  C84  1  0.330300  0.759500  0.789700  1.0  0.2813
  C  C85  1  0.116600  0.179400  0.092900  1.0  0.2407
  C  C86  1  0.771300  0.298700  0.574400  1.0  0.7255
  C  C87  1  0.023900  0.191500  0.773200  1.0  0.2542
  C  C88  1  0.539000  0.198400  0.774200  1.0  0.272
  C  C89  1  0.396700  0.054000  0.034600  1.0  0.6867
  C  C90  1  0.788400  0.490300  0.644700  1.0  -0.0691
  C  C91  1  0.750500  0.408100  0.509600  1.0  -0.0068
  C  C92  1  0.792500  0.886000  0.198500  1.0  -0.1223
  C  C93  1  0.524000  0.947400  0.290600  1.0  0.0121
  C  C94  1  0.884500  0.914700  0.396100  1.0  -0.0288
  C  C95  1  0.466500  0.029800  0.159800  1.0  -0.1524
  C  C96  1  0.861900  0.055900  0.212800  1.0  0.6734
  C  C97  1  0.473400  0.968400  0.180600  1.0  -0.0359
  C  C98  1  0.854000  0.990900  0.248900  1.0  -0.1613
  C  C99  1  0.894400  0.974900  0.368000  1.0  -0.0849
  C  C100  1  0.638000  0.191300  0.079700  1.0  0.2402
  C  C101  1  0.732200  0.838800  0.104600  1.0  0.6929
  C  C102  1  0.581400  0.986000  0.385500  1.0  -0.0534
  C  C103  1  0.803100  0.946200  0.166400  1.0  0.0019
  C  C104  1  0.806100  0.385600  0.713700  1.0  -0.1192
  C  C105  1  0.773200  0.365700  0.600000  1.0  -0.1182
  C  C106  1  0.836700  0.869800  0.314500  1.0  -0.0178
  C  C107  1  0.753700  0.468100  0.529500  1.0  -0.1656
  C  C108  1  0.813200  0.447200  0.733800  1.0  -0.026
  C  C109  1  0.521300  0.070800  0.252600  1.0  0.0035
  C  C110  1  0.736600  0.515400  0.431700  1.0  0.6863
  C  C111  1  0.006000  0.103900  0.706500  1.0  0.2623
  C  C112  1  0.580300  0.047800  0.365400  1.0  -0.125
  C  C113  1  0.535500  0.107000  0.726300  1.0  0.2573
  C  C114  1  0.647800  0.089000  0.464800  1.0  0.6854
  C  C115  1  0.140900  0.253100  0.208000  1.0  0.2512
  C  C116  1  0.669700  0.259500  0.210300  1.0  0.2817
  N  N117  1  0.931200  0.703700  0.819500  1.0  -0.396
  N  N118  1  0.065200  0.655300  0.298800  1.0  -0.4086
  N  N119  1  0.558100  0.671900  0.183100  1.0  -0.298
  N  N120  1  0.472200  0.381800  0.683800  1.0  0.5591
  N  N121  1  0.871300  0.607200  0.222600  1.0  -0.2451
  N  N122  1  0.074800  0.399200  0.474600  1.0  0.6222
  N  N123  1  0.270600  0.711200  0.826600  1.0  -0.3938
  N  N124  1  0.458300  0.766800  0.855000  1.0  -0.2855
  N  N125  1  0.858200  0.663600  0.180500  1.0  -0.1912
  N  N126  1  0.766300  0.761900  0.854100  1.0  -0.3516
  N  N127  1  0.478200  0.722100  0.939900  1.0  -0.2085
  N  N128  1  0.399500  0.659700  0.283100  1.0  -0.4201
  N  N129  1  0.784600  0.713600  0.929200  1.0  -0.194
  N  N130  1  0.555000  0.612500  0.212500  1.0  -0.2242
  N  N131  1  0.144200  0.969800  0.142700  1.0  0.6385
  N  N132  1  0.068800  0.203700  0.180500  1.0  -0.3951
  N  N133  1  0.934800  0.155300  0.701200  1.0  -0.4059
  N  N134  1  0.441900  0.171900  0.816900  1.0  -0.2963
  N  N135  1  0.527800  0.881800  0.316200  1.0  0.5601
  N  N136  1  0.128700  0.107200  0.777400  1.0  -0.2436
  N  N137  1  0.925200  0.899200  0.525400  1.0  0.6235
  N  N138  1  0.729400  0.211200  0.173400  1.0  -0.393
  N  N139  1  0.541700  0.266800  0.145000  1.0  -0.2855
  N  N140  1  0.141800  0.163600  0.819500  1.0  -0.1914
  N  N141  1  0.233700  0.261900  0.145900  1.0  -0.3501
  N  N142  1  0.521800  0.222100  0.060100  1.0  -0.2082
  N  N143  1  0.600500  0.159700  0.716900  1.0  -0.4207
  N  N144  1  0.215400  0.213600  0.070800  1.0  -0.1958
  N  N145  1  0.445000  0.112500  0.787500  1.0  -0.2246
  N  N146  1  0.855800  0.469800  0.857300  1.0  0.6373
  O  O147  1  0.627500  0.607300  0.977100  1.0  -0.6245
  O  O148  1  0.319400  0.359400  0.996100  1.0  -0.6137
  O  O149  1  0.176200  0.571500  0.890800  1.0  -0.5592
  O  O150  1  0.029100  0.715600  0.593800  1.0  -0.7538
  O  O151  1  0.270200  0.284900  0.863700  1.0  -0.5961
  O  O152  1  0.251900  0.763100  0.350500  1.0  -0.5665
  O  O153  1  0.357600  0.646400  0.543700  1.0  -0.5854
  O  O154  1  0.623500  0.514400  0.045200  1.0  -0.5735
  O  O155  1  0.519900  0.348500  0.769600  1.0  -0.5374
  O  O156  1  0.085800  0.591500  0.702600  1.0  -0.5636
  O  O157  1  0.284000  0.564600  0.441300  1.0  -0.6222
  O  O158  1  0.094700  0.347300  0.448100  1.0  -0.4382
  O  O159  1  0.296900  0.993200  0.672700  1.0  -0.5842
  O  O160  1  0.430700  0.363700  0.584300  1.0  -0.4706
  O  O161  1  0.237600  0.067400  0.543800  1.0  -0.4983
  O  O162  1  0.217000  0.782000  0.525800  1.0  -0.6054
  O  O163  1  0.133200  0.022700  0.123400  1.0  -0.44
  O  O164  1  0.124500  0.931700  0.065600  1.0  -0.3981
  O  O165  1  0.024100  0.437200  0.406600  1.0  -0.4417
  O  O166  1  0.461000  0.905400  0.828700  1.0  -0.8013
  O  O167  1  0.372500  0.107300  0.022900  1.0  -0.6244
  O  O168  1  0.680600  0.859400  0.003900  1.0  -0.6149
  O  O169  1  0.823800  0.071500  0.109200  1.0  -0.5597
  O  O170  1  0.970900  0.215600  0.406200  1.0  -0.7531
  O  O171  1  0.729800  0.784900  0.136300  1.0  -0.5948
  O  O172  1  0.748100  0.263100  0.649500  1.0  -0.5653
  O  O173  1  0.642400  0.146400  0.456300  1.0  -0.5868
  O  O174  1  0.376500  0.014400  0.954800  1.0  -0.5742
  O  O175  1  0.480100  0.848500  0.230400  1.0  -0.5392
  O  O176  1  0.914200  0.091500  0.297400  1.0  -0.562
  O  O177  1  0.716000  0.064600  0.558700  1.0  -0.6207
  O  O178  1  0.905300  0.847300  0.551900  1.0  -0.4398
  O  O179  1  0.703100  0.493200  0.327300  1.0  -0.5854
  O  O180  1  0.569300  0.863700  0.415700  1.0  -0.47
  O  O181  1  0.762400  0.567400  0.456200  1.0  -0.4978
  O  O182  1  0.783000  0.282000  0.474200  1.0  -0.6034
  O  O183  1  0.866800  0.522700  0.876600  1.0  -0.4406
  O  O184  1  0.875500  0.431700  0.934400  1.0  -0.394
  O  O185  1  0.975900  0.937200  0.593400  1.0  -0.4391
  O  O186  1  0.539000  0.405400  0.171300  1.0  -0.7978
