# generated using pymatgen
data_NiH13C17(NO3)2
_symmetry_space_group_name_H-M   'P 1'
_cell_length_a   16.63400000
_cell_length_b   16.63400000
_cell_length_c   18.19400000
_cell_angle_alpha   90.00000000
_cell_angle_beta   90.00000000
_cell_angle_gamma   120.00000000
_symmetry_Int_Tables_number   1
_chemical_formula_structural   NiH13C17(NO3)2
_chemical_formula_sum   'Ni6 H78 C102 N12 O36'
_cell_volume   4359.65593861
_cell_formula_units_Z   6
loop_
 _symmetry_equiv_pos_site_id
 _symmetry_equiv_pos_as_xyz
  1  'x, y, z'
loop_
 _atom_site_type_symbol
 _atom_site_label
 _atom_site_symmetry_multiplicity
 _atom_site_fract_x
 _atom_site_fract_y
 _atom_site_fract_z
 _atom_site_occupancy
 _atom_site_charge
  Ni  Ni1  1  0.000080  0.320660  0.149510  1.0  0.7928
  Ni  Ni2  1  0.320580  0.999920  0.149510  1.0  0.7933
  Ni  Ni3  1  0.679050  0.679100  0.768300  1.0  0.7631
  Ni  Ni4  1  0.320900  0.999950  0.768300  1.0  0.7633
  Ni  Ni5  1  0.679340  0.679420  0.149510  1.0  0.7928
  Ni  Ni6  1  0.000050  0.320950  0.768300  1.0  0.7633
  H  H7  1  0.452300  0.107900  0.645700  1.0  0.114
  H  H8  1  0.459600  0.056500  0.015100  1.0  0.0922
  H  H9  1  0.194800  0.888500  0.646300  1.0  0.1257
  H  H10  1  0.366400  0.136800  0.405600  1.0  0.1265
  H  H11  1  0.140900  0.138200  0.763200  1.0  0.1124
  H  H12  1  0.761700  0.622700  0.016500  1.0  0.1096
  H  H13  1  0.491200  0.776800  0.755500  1.0  0.1234
  H  H14  1  0.655600  0.547700  0.645700  1.0  0.1147
  H  H15  1  0.544500  0.600900  0.902100  1.0  0.093
  H  H16  1  0.886400  0.345300  0.517100  1.0  0.1336
  H  H17  1  0.133100  0.425800  0.405600  1.0  0.1229
  H  H18  1  0.266500  0.084500  0.901000  1.0  0.0895
  H  H19  1  0.864400  0.227800  0.278100  1.0  0.1271
  H  H20  1  0.195400  0.888000  0.515400  1.0  0.1464
  H  H21  1  0.399100  0.943600  0.902100  1.0  0.0939
  H  H22  1  0.181200  0.908800  0.901500  1.0  0.1131
  H  H23  1  0.111500  0.306300  0.646300  1.0  0.1253
  H  H24  1  0.540200  0.594700  0.016000  1.0  0.0894
  H  H25  1  0.577200  0.709800  0.280400  1.0  0.1138
  H  H26  1  0.817000  0.733700  0.016800  1.0  0.1005
  H  H27  1  0.616700  0.757600  0.901900  1.0  0.1148
  H  H28  1  0.861800  0.002700  0.763200  1.0  0.1106
  H  H29  1  0.242400  0.859100  0.901900  1.0  0.1133
  H  H30  1  0.693700  0.805200  0.646300  1.0  0.1261
  H  H31  1  0.132600  0.422800  0.280400  1.0  0.1129
  H  H32  1  0.599700  0.545400  0.901200  1.0  0.0888
  H  H33  1  0.692600  0.804600  0.515400  1.0  0.1475
  H  H34  1  0.945700  0.400300  0.901200  1.0  0.0902
  H  H35  1  0.377300  0.139000  0.016500  1.0  0.1113
  H  H36  1  0.729400  0.816900  0.017800  1.0  0.1035
  H  H37  1  0.377700  0.138000  0.900700  1.0  0.0917
  H  H38  1  0.091200  0.272400  0.901500  1.0  0.1135
  H  H39  1  0.223200  0.714400  0.755500  1.0  0.1214
  H  H40  1  0.770400  0.633600  0.405600  1.0  0.1257
  H  H41  1  0.774800  0.489500  0.156600  1.0  0.1114
  H  H42  1  0.862000  0.239700  0.900700  1.0  0.0872
  H  H43  1  0.490200  0.776900  0.158800  1.0  0.1125
  H  H44  1  0.996800  0.858400  0.155800  1.0  0.1115
  H  H45  1  0.266300  0.083300  0.016800  1.0  0.1005
  H  H46  1  0.112000  0.307400  0.515400  1.0  0.1463
  H  H47  1  0.596900  0.540400  0.015100  1.0  0.0909
  H  H48  1  0.241100  0.859700  0.018200  1.0  0.1036
  H  H49  1  0.286700  0.509800  0.158800  1.0  0.1114
  H  H50  1  0.714700  0.225200  0.156600  1.0  0.1117
  H  H51  1  0.714700  0.224800  0.759600  1.0  0.1215
  H  H52  1  0.574200  0.707300  0.405600  1.0  0.1234
  H  H53  1  0.292700  0.866900  0.405600  1.0  0.1227
  H  H54  1  0.772200  0.636600  0.278100  1.0  0.129
  H  H55  1  0.054500  0.459800  0.016000  1.0  0.093
  H  H56  1  0.943500  0.403100  0.015100  1.0  0.0932
  H  H57  1  0.775200  0.489900  0.759600  1.0  0.1206
  H  H58  1  0.223100  0.713300  0.158800  1.0  0.1109
  H  H59  1  0.654700  0.541100  0.517100  1.0  0.1347
  H  H60  1  0.618600  0.758900  0.018200  1.0  0.1048
  H  H61  1  0.405300  0.945500  0.016000  1.0  0.091
  H  H62  1  0.363400  0.135600  0.278100  1.0  0.1291
  H  H63  1  0.140900  0.383300  0.901900  1.0  0.1142
  H  H64  1  0.290200  0.867400  0.280400  1.0  0.1149
  H  H65  1  0.861600  0.003200  0.155800  1.0  0.1116
  H  H66  1  0.760300  0.622300  0.900700  1.0  0.0907
  H  H67  1  0.141600  0.138400  0.155800  1.0  0.1116
  H  H68  1  0.892100  0.344400  0.645700  1.0  0.1142
  H  H69  1  0.510500  0.285300  0.156600  1.0  0.1101
  H  H70  1  0.458900  0.113600  0.517100  1.0  0.1345
  H  H71  1  0.510100  0.285300  0.759600  1.0  0.1205
  H  H72  1  0.861000  0.238300  0.016500  1.0  0.1075
  H  H73  1  0.916700  0.183000  0.016800  1.0  0.1002
  H  H74  1  0.997300  0.859100  0.763200  1.0  0.1121
  H  H75  1  0.727600  0.818800  0.901500  1.0  0.1118
  H  H76  1  0.285600  0.508800  0.755500  1.0  0.123
  H  H77  1  0.140300  0.381400  0.018200  1.0  0.1057
  H  H78  1  0.454600  0.054300  0.901200  1.0  0.0909
  H  H79  1  0.863200  0.229600  0.405600  1.0  0.1263
  H  H80  1  0.818000  0.733500  0.901000  1.0  0.0913
  H  H81  1  0.087500  0.270600  0.017800  1.0  0.1047
  H  H82  1  0.056400  0.455500  0.902100  1.0  0.1005
  H  H83  1  0.915500  0.182000  0.901000  1.0  0.091
  H  H84  1  0.183100  0.912500  0.017800  1.0  0.105
  C  C85  1  0.306200  0.574200  0.158500  1.0  -0.0141
  C  C86  1  0.084100  0.081600  0.156500  1.0  0.0301
  C  C87  1  0.468200  0.605700  0.762300  1.0  0.7457
  C  C88  1  0.321800  0.081600  0.999200  1.0  -0.001
  C  C89  1  0.238700  0.601700  0.759600  1.0  -0.1363
  C  C90  1  0.000200  0.328800  0.423100  1.0  -0.0156
  C  C91  1  0.731100  0.425500  0.762100  1.0  -0.0344
  C  C92  1  0.392400  0.861100  0.151900  1.0  0.703
  C  C93  1  0.267800  0.694700  0.757900  1.0  0.0316
  C  C94  1  0.598300  0.598000  0.999000  1.0  0.0576
  C  C95  1  0.731800  0.651200  0.304400  1.0  0.1362
  C  C96  1  0.468700  0.607600  0.151900  1.0  0.7004
  C  C97  1  0.241000  0.915800  0.000300  1.0  -0.0045
  C  C98  1  0.240100  0.914300  0.919200  1.0  -0.0308
  C  C99  1  0.605500  0.465100  0.764800  1.0  0.6478
  C  C100  1  0.997500  0.915900  0.156500  1.0  0.0298
  C  C101  1  0.398800  0.636900  0.158300  1.0  -0.1595
  C  C102  1  0.601600  0.238500  0.154700  1.0  -0.1259
  C  C103  1  0.636900  0.398400  0.154700  1.0  -0.1221
  C  C104  1  0.305300  0.573100  0.757900  1.0  0.0323
  C  C105  1  0.363100  0.761900  0.158300  1.0  -0.1616
  C  C106  1  0.915800  0.915800  0.762000  1.0  -0.1504
  C  C107  1  0.918400  0.240200  0.999200  1.0  -0.0014
  C  C108  1  0.919400  0.269700  0.380500  1.0  -0.1016
  C  C109  1  0.138900  0.531300  0.151900  1.0  0.7001
  C  C110  1  0.083500  0.081500  0.762500  1.0  -0.0043
  C  C111  1  0.398300  0.637000  0.759600  1.0  -0.1362
  C  C112  1  0.350300  0.080600  0.380500  1.0  -0.1027
  C  C113  1  0.172800  0.999600  0.763900  1.0  0.585
  C  C114  1  0.615800  0.692800  0.381100  1.0  -0.1357
  C  C115  1  0.826400  0.826500  0.155800  1.0  0.6671
  C  C116  1  0.397700  0.999200  0.919700  1.0  0.0657
  C  C117  1  0.759700  0.364000  0.763800  1.0  -0.0899
  C  C118  1  0.067100  0.314300  0.542600  1.0  -0.1038
  C  C119  1  0.000100  0.173600  0.155800  1.0  0.6664
  C  C120  1  0.918400  0.002500  0.156500  1.0  0.0292
  C  C121  1  0.931500  0.337300  0.543000  1.0  -0.1028
  C  C122  1  0.998000  0.916500  0.762500  1.0  -0.0055
  C  C123  1  0.574500  0.305600  0.762100  1.0  -0.0342
  C  C124  1  0.238100  0.601200  0.158300  1.0  -0.1598
  C  C125  1  0.066800  0.314200  0.619800  1.0  0.1789
  C  C126  1  0.605700  0.466300  0.153100  1.0  0.6772
  C  C127  1  0.084200  0.000000  0.762000  1.0  -0.1506
  C  C128  1  0.685800  0.752600  0.619800  1.0  0.1749
  C  C129  1  0.173500  0.999900  0.155800  1.0  0.6677
  C  C130  1  0.247400  0.933200  0.619800  1.0  0.1771
  C  C131  1  0.402000  0.000300  0.999000  1.0  0.0601
  C  C132  1  0.675200  0.674700  0.508500  1.0  0.0183
  C  C133  1  0.076900  0.382800  0.306100  1.0  0.1609
  C  C134  1  0.574900  0.305300  0.155400  1.0  -0.0254
  C  C135  1  0.999600  0.084800  0.156900  1.0  -0.1174
  C  C136  1  0.674200  0.759900  0.919200  1.0  -0.0311
  C  C137  1  0.534900  0.140400  0.764800  1.0  0.6471
  C  C138  1  0.533700  0.139400  0.153100  1.0  0.6777
  C  C139  1  0.363000  0.761300  0.759600  1.0  -0.1388
  C  C140  1  0.694700  0.269600  0.155400  1.0  -0.0259
  C  C141  1  0.671200  0.671400  0.423100  1.0  -0.0159
  C  C142  1  0.999500  0.324800  0.508500  1.0  0.0181
  C  C143  1  0.405800  0.068500  0.543000  1.0  -0.1051
  C  C144  1  0.000400  0.173200  0.763900  1.0  0.5869
  C  C145  1  0.860600  0.394300  0.153100  1.0  0.6732
  C  C146  1  0.348800  0.080600  0.304400  1.0  0.1338
  C  C147  1  0.325300  0.000500  0.508500  1.0  0.0182
  C  C148  1  0.759800  0.678200  0.999200  1.0  0.0011
  C  C149  1  0.084200  0.325200  0.000300  1.0  -0.0037
  C  C150  1  0.305900  0.923100  0.306100  1.0  0.1602
  C  C151  1  0.601500  0.602300  0.919700  1.0  0.063
  C  C152  1  0.663300  0.599700  0.618400  1.0  0.1901
  C  C153  1  0.137500  0.531800  0.762300  1.0  0.7451
  C  C154  1  0.085700  0.325800  0.919200  1.0  -0.0309
  C  C155  1  0.674800  0.759000  0.000300  1.0  -0.0051
  C  C156  1  0.915200  0.914800  0.156900  1.0  -0.1186
  C  C157  1  0.307200  0.923000  0.381100  1.0  -0.1392
  C  C158  1  0.919400  0.268200  0.304400  1.0  0.1357
  C  C159  1  0.918500  0.002000  0.762500  1.0  -0.0066
  C  C160  1  0.617200  0.694100  0.306100  1.0  0.1615
  C  C161  1  0.999700  0.401700  0.999000  1.0  0.0554
  C  C162  1  0.000800  0.398500  0.919700  1.0  0.0641
  C  C163  1  0.826800  0.827200  0.763900  1.0  0.587
  C  C164  1  0.730300  0.649700  0.380500  1.0  -0.0993
  C  C165  1  0.685700  0.752800  0.542600  1.0  -0.1099
  C  C166  1  0.247200  0.932900  0.542600  1.0  -0.1085
  C  C167  1  0.328600  0.999800  0.423100  1.0  -0.016
  C  C168  1  0.936400  0.336700  0.618400  1.0  0.1941
  C  C169  1  0.268000  0.693800  0.158500  1.0  -0.0141
  C  C170  1  0.400300  0.063600  0.618400  1.0  0.1912
  C  C171  1  0.730400  0.425100  0.155400  1.0  -0.0259
  C  C172  1  0.077000  0.384200  0.381100  1.0  -0.1367
  C  C173  1  0.918300  0.239700  0.918500  1.0  -0.0083
  C  C174  1  0.000000  0.084200  0.762000  1.0  -0.1491
  C  C175  1  0.085200  0.000400  0.156900  1.0  -0.1178
  C  C176  1  0.859600  0.394500  0.764800  1.0  0.646
  C  C177  1  0.321400  0.081700  0.918500  1.0  -0.0097
  C  C178  1  0.662700  0.594200  0.543000  1.0  -0.1058
  C  C179  1  0.694400  0.268900  0.762100  1.0  -0.0276
  C  C180  1  0.636000  0.395700  0.763800  1.0  -0.0897
  C  C181  1  0.761500  0.363100  0.154700  1.0  -0.1248
  C  C182  1  0.426900  0.732200  0.757900  1.0  0.033
  C  C183  1  0.604300  0.240300  0.763800  1.0  -0.0903
  C  C184  1  0.760300  0.678600  0.918500  1.0  -0.0104
  C  C185  1  0.425800  0.732000  0.158500  1.0  -0.0135
  C  C186  1  0.394300  0.862500  0.762300  1.0  0.7496
  N  N187  1  0.674000  0.673800  0.267600  1.0  -0.3326
  N  N188  1  0.677600  0.677900  0.033700  1.0  -0.224
  N  N189  1  0.326200  0.000200  0.267600  1.0  -0.3334
  N  N190  1  0.674300  0.675300  0.656400  1.0  -0.3208
  N  N191  1  0.679700  0.680700  0.887200  1.0  -0.2505
  N  N192  1  0.001000  0.320300  0.887200  1.0  -0.251
  N  N193  1  0.000300  0.322400  0.033700  1.0  -0.224
  N  N194  1  0.001000  0.325700  0.656400  1.0  -0.3208
  N  N195  1  0.999800  0.326000  0.267600  1.0  -0.3336
  N  N196  1  0.324700  0.999000  0.656400  1.0  -0.3214
  N  N197  1  0.319300  0.999000  0.887200  1.0  -0.2511
  N  N198  1  0.322100  0.999700  0.033700  1.0  -0.224
  O  O199  1  0.081700  0.562600  0.160900  1.0  -0.5265
  O  O200  1  0.748900  0.827100  0.154700  1.0  -0.576
  O  O201  1  0.921900  0.172000  0.764900  1.0  -0.5744
  O  O202  1  0.550900  0.665900  0.768900  1.0  -0.6012
  O  O203  1  0.749300  0.828600  0.762600  1.0  -0.5618
  O  O204  1  0.666100  0.551100  0.769900  1.0  -0.6229
  O  O205  1  0.334100  0.885000  0.768900  1.0  -0.5996
  O  O206  1  0.919200  0.481200  0.759900  1.0  -0.5373
  O  O207  1  0.333700  0.885500  0.149000  1.0  -0.5834
  O  O208  1  0.082400  0.562700  0.756800  1.0  -0.5552
  O  O209  1  0.437400  0.519100  0.160900  1.0  -0.5184
  O  O210  1  0.665700  0.551200  0.147400  1.0  -0.6132
  O  O211  1  0.480300  0.917600  0.756800  1.0  -0.5519
  O  O212  1  0.114500  0.448200  0.149000  1.0  -0.5818
  O  O213  1  0.480900  0.918300  0.160900  1.0  -0.5201
  O  O214  1  0.826100  0.748600  0.155400  1.0  -0.5664
  O  O215  1  0.885000  0.333900  0.769900  1.0  -0.6232
  O  O216  1  0.551800  0.666300  0.149000  1.0  -0.5821
  O  O217  1  0.922500  0.173900  0.155400  1.0  -0.5657
  O  O218  1  0.885500  0.334300  0.147400  1.0  -0.6152
  O  O219  1  0.115000  0.449100  0.768900  1.0  -0.5993
  O  O220  1  0.079300  0.250700  0.762600  1.0  -0.5606
  O  O221  1  0.437300  0.519700  0.756800  1.0  -0.5506
  O  O222  1  0.562000  0.080800  0.759900  1.0  -0.5377
  O  O223  1  0.172900  0.921800  0.154700  1.0  -0.5716
  O  O224  1  0.448800  0.114500  0.147400  1.0  -0.6148
  O  O225  1  0.560300  0.078600  0.158000  1.0  -0.5427
  O  O226  1  0.518300  0.439700  0.158000  1.0  -0.5419
  O  O227  1  0.448900  0.115000  0.769900  1.0  -0.6226
  O  O228  1  0.171400  0.920700  0.762600  1.0  -0.5645
  O  O229  1  0.518800  0.438000  0.759900  1.0  -0.5383
  O  O230  1  0.078200  0.251100  0.154700  1.0  -0.5694
  O  O231  1  0.250100  0.078100  0.764900  1.0  -0.5753
  O  O232  1  0.828000  0.749900  0.764900  1.0  -0.568
  O  O233  1  0.921400  0.481700  0.158000  1.0  -0.5392
  O  O234  1  0.251400  0.077500  0.155400  1.0  -0.5698
