# generated using pymatgen
data_Ni3H36C66O13
_symmetry_space_group_name_H-M   'P 1'
_cell_length_a   19.17860000
_cell_length_b   19.17860000
_cell_length_c   27.92600000
_cell_angle_alpha   90.00000000
_cell_angle_beta   90.00000000
_cell_angle_gamma   120.00000000
_symmetry_Int_Tables_number   1
_chemical_formula_structural   Ni3H36C66O13
_chemical_formula_sum   'Ni6 H72 C132 O26'
_cell_volume   8895.55743487
_cell_formula_units_Z   2
loop_
 _symmetry_equiv_pos_site_id
 _symmetry_equiv_pos_as_xyz
  1  'x, y, z'
loop_
 _atom_site_type_symbol
 _atom_site_label
 _atom_site_symmetry_multiplicity
 _atom_site_fract_x
 _atom_site_fract_y
 _atom_site_fract_z
 _atom_site_occupancy
 _atom_site_charge
  Ni  Ni1  1  0.419290  0.781020  0.750000  1.0  0.9277
  Ni  Ni2  1  0.218980  0.638270  0.750000  1.0  0.9266
  Ni  Ni3  1  0.361730  0.580710  0.750000  1.0  0.9251
  Ni  Ni4  1  0.781020  0.419290  0.250000  1.0  0.9287
  Ni  Ni5  1  0.638270  0.218980  0.250000  1.0  0.9244
  Ni  Ni6  1  0.580710  0.361730  0.250000  1.0  0.9263
  H  H7  1  0.370700  0.984600  0.577300  1.0  0.1186
  H  H8  1  0.164400  0.749200  0.636400  1.0  0.1011
  H  H9  1  0.138400  0.817300  0.578900  1.0  0.1207
  H  H10  1  0.393900  0.917100  0.638100  1.0  0.1139
  H  H11  1  0.124200  0.922400  0.554900  1.0  0.1174
  H  H12  1  0.015400  0.386100  0.577300  1.0  0.1179
  H  H13  1  0.250800  0.415200  0.636400  1.0  0.1012
  H  H14  1  0.182700  0.321100  0.578900  1.0  0.1205
  H  H15  1  0.082900  0.476800  0.638100  1.0  0.1124
  H  H16  1  0.077600  0.201800  0.554900  1.0  0.1173
  H  H17  1  0.613900  0.629300  0.577300  1.0  0.1181
  H  H18  1  0.584800  0.835600  0.636400  1.0  0.1009
  H  H19  1  0.678900  0.861600  0.578900  1.0  0.1203
  H  H20  1  0.523200  0.606100  0.638100  1.0  0.1141
  H  H21  1  0.798200  0.875800  0.554900  1.0  0.1173
  H  H22  1  0.370700  0.984600  0.922700  1.0  0.1184
  H  H23  1  0.164400  0.749200  0.863600  1.0  0.1012
  H  H24  1  0.138400  0.817300  0.921100  1.0  0.1209
  H  H25  1  0.393900  0.917100  0.861900  1.0  0.1144
  H  H26  1  0.124200  0.922400  0.945100  1.0  0.1167
  H  H27  1  0.015400  0.386100  0.922700  1.0  0.1178
  H  H28  1  0.250800  0.415200  0.863600  1.0  0.1015
  H  H29  1  0.182700  0.321100  0.921100  1.0  0.1208
  H  H30  1  0.082900  0.476800  0.861900  1.0  0.1129
  H  H31  1  0.077600  0.201800  0.945100  1.0  0.1168
  H  H32  1  0.613900  0.629300  0.922700  1.0  0.1186
  H  H33  1  0.584800  0.835600  0.863600  1.0  0.1011
  H  H34  1  0.678900  0.861600  0.921100  1.0  0.1203
  H  H35  1  0.523200  0.606100  0.861900  1.0  0.1132
  H  H36  1  0.798200  0.875800  0.945100  1.0  0.1171
  H  H37  1  0.984600  0.370700  0.422700  1.0  0.1184
  H  H38  1  0.749200  0.164400  0.363600  1.0  0.1008
  H  H39  1  0.817300  0.138400  0.421100  1.0  0.1204
  H  H40  1  0.917100  0.393900  0.361900  1.0  0.1131
  H  H41  1  0.922400  0.124200  0.445100  1.0  0.117
  H  H42  1  0.386100  0.015400  0.422700  1.0  0.1185
  H  H43  1  0.415200  0.250800  0.363600  1.0  0.1015
  H  H44  1  0.321100  0.182700  0.421100  1.0  0.1212
  H  H45  1  0.476800  0.082900  0.361900  1.0  0.1129
  H  H46  1  0.201800  0.077600  0.445100  1.0  0.117
  H  H47  1  0.629300  0.613900  0.422700  1.0  0.1178
  H  H48  1  0.835600  0.584800  0.363600  1.0  0.1013
  H  H49  1  0.861600  0.678900  0.421100  1.0  0.1213
  H  H50  1  0.606100  0.523200  0.361900  1.0  0.1144
  H  H51  1  0.875800  0.798200  0.445100  1.0  0.1169
  H  H52  1  0.984600  0.370700  0.077300  1.0  0.1185
  H  H53  1  0.749200  0.164400  0.136400  1.0  0.1007
  H  H54  1  0.817300  0.138400  0.078900  1.0  0.1201
  H  H55  1  0.917100  0.393900  0.138100  1.0  0.1128
  H  H56  1  0.922400  0.124200  0.054900  1.0  0.1174
  H  H57  1  0.386100  0.015400  0.077300  1.0  0.1186
  H  H58  1  0.415200  0.250800  0.136400  1.0  0.1013
  H  H59  1  0.321100  0.182700  0.078900  1.0  0.1214
  H  H60  1  0.476800  0.082900  0.138100  1.0  0.1127
  H  H61  1  0.201800  0.077600  0.054900  1.0  0.1173
  H  H62  1  0.629300  0.613900  0.077300  1.0  0.1178
  H  H63  1  0.835600  0.584800  0.136400  1.0  0.1009
  H  H64  1  0.861600  0.678900  0.078900  1.0  0.1213
  H  H65  1  0.606100  0.523200  0.138100  1.0  0.1142
  H  H66  1  0.875800  0.798200  0.054900  1.0  0.117
  H  H67  1  0.341700  0.000000  0.500000  1.0  0.1104
  H  H68  1  0.000000  0.341700  0.500000  1.0  0.11
  H  H69  1  0.658300  0.658300  0.500000  1.0  0.1098
  H  H70  1  0.341700  0.000000  0.000000  1.0  0.1104
  H  H71  1  0.000000  0.341700  0.000000  1.0  0.11
  H  H72  1  0.658300  0.658300  0.000000  1.0  0.1098
  H  H73  1  0.000000  0.879100  0.500000  1.0  0.1271
  H  H74  1  0.120900  0.120900  0.500000  1.0  0.1272
  H  H75  1  0.879100  0.000000  0.500000  1.0  0.1258
  H  H76  1  0.000000  0.879100  0.000000  1.0  0.1271
  H  H77  1  0.120900  0.120900  0.000000  1.0  0.1272
  H  H78  1  0.879100  0.000000  0.000000  1.0  0.1258
  C  C79  1  0.295100  0.781800  0.683900  1.0  0.7525
  C  C80  1  0.280200  0.826500  0.644200  1.0  -0.119
  C  C81  1  0.251800  0.909000  0.571300  1.0  0.0873
  C  C82  1  0.328000  0.937400  0.589500  1.0  -0.1254
  C  C83  1  0.206300  0.797900  0.625300  1.0  -0.0281
  C  C84  1  0.190700  0.838000  0.590200  1.0  -0.1756
  C  C85  1  0.342100  0.896600  0.626000  1.0  -0.0363
  C  C86  1  0.236600  0.955000  0.534200  1.0  0.048
  C  C87  1  0.164300  0.954100  0.533100  1.0  -0.0953
  C  C88  1  0.218200  0.513300  0.683900  1.0  0.753
  C  C89  1  0.173500  0.453700  0.644200  1.0  -0.1185
  C  C90  1  0.091000  0.342800  0.571300  1.0  0.0877
  C  C91  1  0.062600  0.390600  0.589500  1.0  -0.1248
  C  C92  1  0.202100  0.408400  0.625300  1.0  -0.0235
  C  C93  1  0.162000  0.352700  0.590200  1.0  -0.1742
  C  C94  1  0.103400  0.445500  0.626000  1.0  -0.0366
  C  C95  1  0.045000  0.281600  0.534200  1.0  0.0484
  C  C96  1  0.045900  0.210200  0.533100  1.0  -0.0956
  C  C97  1  0.486700  0.704900  0.683900  1.0  0.7531
  C  C98  1  0.546300  0.719800  0.644200  1.0  -0.1186
  C  C99  1  0.657200  0.748200  0.571300  1.0  0.0865
  C  C100  1  0.609400  0.672000  0.589500  1.0  -0.1256
  C  C101  1  0.591600  0.793700  0.625300  1.0  -0.0325
  C  C102  1  0.647300  0.809300  0.590200  1.0  -0.1756
  C  C103  1  0.554500  0.657900  0.626000  1.0  -0.0391
  C  C104  1  0.718400  0.763400  0.534200  1.0  0.0463
  C  C105  1  0.789800  0.835700  0.533100  1.0  -0.0946
  C  C106  1  0.295100  0.781800  0.816100  1.0  0.7525
  C  C107  1  0.280200  0.826500  0.855800  1.0  -0.1202
  C  C108  1  0.251800  0.909000  0.928700  1.0  0.0874
  C  C109  1  0.328000  0.937400  0.910500  1.0  -0.1249
  C  C110  1  0.206300  0.797900  0.874700  1.0  -0.0278
  C  C111  1  0.190700  0.838000  0.909800  1.0  -0.1753
  C  C112  1  0.342100  0.896600  0.874000  1.0  -0.0362
  C  C113  1  0.236600  0.955000  0.965800  1.0  0.0482
  C  C114  1  0.164300  0.954100  0.966900  1.0  -0.0959
  C  C115  1  0.218200  0.513300  0.816100  1.0  0.7532
  C  C116  1  0.173500  0.453700  0.855800  1.0  -0.1193
  C  C117  1  0.091000  0.342800  0.928700  1.0  0.0877
  C  C118  1  0.062600  0.390600  0.910500  1.0  -0.1248
  C  C119  1  0.202100  0.408400  0.874700  1.0  -0.0237
  C  C120  1  0.162000  0.352700  0.909800  1.0  -0.1734
  C  C121  1  0.103400  0.445500  0.874000  1.0  -0.0365
  C  C122  1  0.045000  0.281600  0.965800  1.0  0.0486
  C  C123  1  0.045900  0.210200  0.966900  1.0  -0.0966
  C  C124  1  0.486700  0.704900  0.816100  1.0  0.7531
  C  C125  1  0.546300  0.719800  0.855800  1.0  -0.1199
  C  C126  1  0.657200  0.748200  0.928700  1.0  0.0865
  C  C127  1  0.609400  0.672000  0.910500  1.0  -0.1256
  C  C128  1  0.591600  0.793700  0.874700  1.0  -0.0323
  C  C129  1  0.647300  0.809300  0.909800  1.0  -0.1745
  C  C130  1  0.554500  0.657900  0.874000  1.0  -0.039
  C  C131  1  0.718400  0.763400  0.965800  1.0  0.0468
  C  C132  1  0.789800  0.835700  0.966900  1.0  -0.0953
  C  C133  1  0.781800  0.295100  0.316100  1.0  0.7533
  C  C134  1  0.826500  0.280200  0.355800  1.0  -0.1195
  C  C135  1  0.909000  0.251800  0.428700  1.0  0.0865
  C  C136  1  0.937400  0.328000  0.410500  1.0  -0.1261
  C  C137  1  0.797900  0.206300  0.374700  1.0  -0.0289
  C  C138  1  0.838000  0.190700  0.409800  1.0  -0.1745
  C  C139  1  0.896600  0.342100  0.374000  1.0  -0.04
  C  C140  1  0.955000  0.236600  0.465800  1.0  0.0468
  C  C141  1  0.954100  0.164300  0.466900  1.0  -0.0952
  C  C142  1  0.513300  0.218200  0.316100  1.0  0.7532
  C  C143  1  0.453700  0.173500  0.355800  1.0  -0.12
  C  C144  1  0.342800  0.091000  0.428700  1.0  0.0871
  C  C145  1  0.390600  0.062600  0.410500  1.0  -0.1244
  C  C146  1  0.408400  0.202100  0.374700  1.0  -0.0302
  C  C147  1  0.352700  0.162000  0.409800  1.0  -0.1759
  C  C148  1  0.445500  0.103400  0.374000  1.0  -0.0361
  C  C149  1  0.281600  0.045000  0.465800  1.0  0.0483
  C  C150  1  0.210200  0.045900  0.466900  1.0  -0.0958
  C  C151  1  0.704900  0.486700  0.316100  1.0  0.7525
  C  C152  1  0.719800  0.546300  0.355800  1.0  -0.1195
  C  C153  1  0.748200  0.657200  0.428700  1.0  0.0883
  C  C154  1  0.672000  0.609400  0.410500  1.0  -0.125
  C  C155  1  0.793700  0.591600  0.374700  1.0  -0.0238
  C  C156  1  0.809300  0.647300  0.409800  1.0  -0.1732
  C  C157  1  0.657900  0.554500  0.374000  1.0  -0.0367
  C  C158  1  0.763400  0.718400  0.465800  1.0  0.048
  C  C159  1  0.835700  0.789800  0.466900  1.0  -0.0964
  C  C160  1  0.781800  0.295100  0.183900  1.0  0.7533
  C  C161  1  0.826500  0.280200  0.144200  1.0  -0.1185
  C  C162  1  0.909000  0.251800  0.071300  1.0  0.0865
  C  C163  1  0.937400  0.328000  0.089500  1.0  -0.1261
  C  C164  1  0.797900  0.206300  0.125300  1.0  -0.0289
  C  C165  1  0.838000  0.190700  0.090200  1.0  -0.1747
  C  C166  1  0.896600  0.342100  0.126000  1.0  -0.0398
  C  C167  1  0.955000  0.236600  0.034200  1.0  0.0463
  C  C168  1  0.954100  0.164300  0.033100  1.0  -0.0944
  C  C169  1  0.513300  0.218200  0.183900  1.0  0.7531
  C  C170  1  0.453700  0.173500  0.144200  1.0  -0.119
  C  C171  1  0.342800  0.091000  0.071300  1.0  0.0871
  C  C172  1  0.390600  0.062600  0.089500  1.0  -0.1247
  C  C173  1  0.408400  0.202100  0.125300  1.0  -0.0304
  C  C174  1  0.352700  0.162000  0.090200  1.0  -0.1764
  C  C175  1  0.445500  0.103400  0.126000  1.0  -0.036
  C  C176  1  0.281600  0.045000  0.034200  1.0  0.0481
  C  C177  1  0.210200  0.045900  0.033100  1.0  -0.0954
  C  C178  1  0.704900  0.486700  0.183900  1.0  0.7524
  C  C179  1  0.719800  0.546300  0.144200  1.0  -0.1181
  C  C180  1  0.748200  0.657200  0.071300  1.0  0.0881
  C  C181  1  0.672000  0.609400  0.089500  1.0  -0.1249
  C  C182  1  0.793700  0.591600  0.125300  1.0  -0.0236
  C  C183  1  0.809300  0.647300  0.090200  1.0  -0.174
  C  C184  1  0.657900  0.554500  0.126000  1.0  -0.0364
  C  C185  1  0.763400  0.718400  0.034200  1.0  0.0478
  C  C186  1  0.835700  0.789800  0.033100  1.0  -0.0959
  C  C187  1  0.070800  0.000000  0.500000  1.0  0.0455
  C  C188  1  0.150600  0.000000  0.500000  1.0  0.0687
  C  C189  1  0.293200  0.000000  0.500000  1.0  -0.1221
  C  C190  1  0.000000  0.070800  0.500000  1.0  0.0454
  C  C191  1  0.000000  0.150600  0.500000  1.0  0.0696
  C  C192  1  0.000000  0.293200  0.500000  1.0  -0.1185
  C  C193  1  0.929200  0.929200  0.500000  1.0  0.0454
  C  C194  1  0.849400  0.849400  0.500000  1.0  0.07
  C  C195  1  0.706800  0.706800  0.500000  1.0  -0.1213
  C  C196  1  0.070800  0.000000  0.000000  1.0  0.0455
  C  C197  1  0.150600  0.000000  0.000000  1.0  0.0687
  C  C198  1  0.293200  0.000000  0.000000  1.0  -0.1221
  C  C199  1  0.000000  0.070800  0.000000  1.0  0.0454
  C  C200  1  0.000000  0.150600  0.000000  1.0  0.0696
  C  C201  1  0.000000  0.293200  0.000000  1.0  -0.1185
  C  C202  1  0.929200  0.929200  0.000000  1.0  0.0454
  C  C203  1  0.849400  0.849400  0.000000  1.0  0.07
  C  C204  1  0.706800  0.706800  0.000000  1.0  -0.1213
  C  C205  1  0.000000  0.927600  0.500000  1.0  -0.1147
  C  C206  1  0.072400  0.072400  0.500000  1.0  -0.117
  C  C207  1  0.927600  0.000000  0.500000  1.0  -0.118
  C  C208  1  0.000000  0.927600  0.000000  1.0  -0.1147
  C  C209  1  0.072400  0.072400  0.000000  1.0  -0.117
  C  C210  1  0.927600  0.000000  0.000000  1.0  -0.118
  O  O211  1  0.365900  0.812600  0.698290  1.0  -0.6163
  O  O212  1  0.235600  0.719600  0.698660  1.0  -0.6212
  O  O213  1  0.187400  0.553300  0.698290  1.0  -0.6161
  O  O214  1  0.280400  0.516000  0.698660  1.0  -0.6185
  O  O215  1  0.446700  0.634100  0.698290  1.0  -0.6153
  O  O216  1  0.484000  0.764400  0.698660  1.0  -0.6188
  O  O217  1  0.365900  0.812600  0.801710  1.0  -0.6157
  O  O218  1  0.235600  0.719600  0.801340  1.0  -0.6213
  O  O219  1  0.187400  0.553300  0.801710  1.0  -0.6158
  O  O220  1  0.280400  0.516000  0.801340  1.0  -0.618
  O  O221  1  0.446700  0.634100  0.801710  1.0  -0.6149
  O  O222  1  0.484000  0.764400  0.801340  1.0  -0.6185
  O  O223  1  0.812600  0.365900  0.301710  1.0  -0.6151
  O  O224  1  0.719600  0.235600  0.301340  1.0  -0.6182
  O  O225  1  0.553300  0.187400  0.301710  1.0  -0.6152
  O  O226  1  0.516000  0.280400  0.301340  1.0  -0.6215
  O  O227  1  0.634100  0.446700  0.301710  1.0  -0.6163
  O  O228  1  0.764400  0.484000  0.301340  1.0  -0.6182
  O  O229  1  0.812600  0.365900  0.198290  1.0  -0.6155
  O  O230  1  0.719600  0.235600  0.198660  1.0  -0.6186
  O  O231  1  0.553300  0.187400  0.198290  1.0  -0.6155
  O  O232  1  0.516000  0.280400  0.198660  1.0  -0.6213
  O  O233  1  0.634100  0.446700  0.198290  1.0  -0.6164
  O  O234  1  0.764400  0.484000  0.198660  1.0  -0.6189
  O  O235  1  0.333333  0.666667  0.750000  1.0  -0.9837
  O  O236  1  0.666667  0.333333  0.250000  1.0  -0.9837
