# generated using pymatgen
data_Th(CO2)4
_symmetry_space_group_name_H-M   'P 1'
_cell_length_a   7.87190000
_cell_length_b   7.96570000
_cell_length_c   10.47540000
_cell_angle_alpha   70.16350000
_cell_angle_beta   67.93040000
_cell_angle_gamma   60.38870000
_symmetry_Int_Tables_number   1
_chemical_formula_structural   Th(CO2)4
_chemical_formula_sum   'Th2 C8 O16'
_cell_volume   519.51356121
_cell_formula_units_Z   2
loop_
 _symmetry_equiv_pos_site_id
 _symmetry_equiv_pos_as_xyz
  1  'x, y, z'
loop_
 _atom_site_type_symbol
 _atom_site_label
 _atom_site_symmetry_multiplicity
 _atom_site_fract_x
 _atom_site_fract_y
 _atom_site_fract_z
 _atom_site_occupancy
 _atom_site_charge
  Th  Th1  1  0.237580  0.250000  0.750000  1.0  2.502
  Th  Th2  1  0.762420  0.750000  0.250000  1.0  2.4894
  C  C3  1  0.075000  0.420700  0.043700  1.0  0.5627
  C  C4  1  0.101300  0.916900  0.012100  1.0  0.5649
  C  C5  1  0.539400  0.079300  0.456300  1.0  0.5631
  C  C6  1  0.030300  0.583100  0.487900  1.0  0.5647
  C  C7  1  0.925000  0.579300  0.956300  1.0  0.5629
  C  C8  1  0.898700  0.083100  0.987900  1.0  0.5641
  C  C9  1  0.460600  0.920700  0.543700  1.0  0.5622
  C  C10  1  0.969700  0.416900  0.512100  1.0  0.5643
  O  O11  1  0.256900  0.938600  0.938200  1.0  -0.5862
  O  O12  1  0.220460  0.283880  0.984200  1.0  -0.6268
  O  O13  1  0.089010  0.771780  0.106000  1.0  -0.5937
  O  O14  1  0.040670  0.441860  0.164400  1.0  -0.5679
  O  O15  1  0.133700  0.561400  0.561800  1.0  -0.5872
  O  O16  1  0.488540  0.216120  0.515800  1.0  -0.6282
  O  O17  1  0.966790  0.728220  0.394000  1.0  -0.5915
  O  O18  1  0.646930  0.058140  0.335600  1.0  -0.5677
  O  O19  1  0.743100  0.061400  0.061800  1.0  -0.5867
  O  O20  1  0.779540  0.716120  0.015800  1.0  -0.6267
  O  O21  1  0.910990  0.228220  0.894000  1.0  -0.5933
  O  O22  1  0.959330  0.558140  0.835600  1.0  -0.5671
  O  O23  1  0.866300  0.438600  0.438200  1.0  -0.5894
  O  O24  1  0.511460  0.783880  0.484200  1.0  -0.6279
  O  O25  1  0.033210  0.271780  0.606000  1.0  -0.5917
  O  O26  1  0.353070  0.941860  0.664400  1.0  -0.5682
