# generated using pymatgen
data_Ag14H6C24N2(O2F3)3
_symmetry_space_group_name_H-M   'P 1'
_cell_length_a   10.80010000
_cell_length_b   11.62880000
_cell_length_c   25.31830000
_cell_angle_alpha   89.09400000
_cell_angle_beta   87.42500000
_cell_angle_gamma   78.44000000
_symmetry_Int_Tables_number   1
_chemical_formula_structural   Ag14H6C24N2(O2F3)3
_chemical_formula_sum   'Ag28 H12 C48 N4 O12 F18'
_cell_volume   3112.05953997
_cell_formula_units_Z   2
loop_
 _symmetry_equiv_pos_site_id
 _symmetry_equiv_pos_as_xyz
  1  'x, y, z'
loop_
 _atom_site_type_symbol
 _atom_site_label
 _atom_site_symmetry_multiplicity
 _atom_site_fract_x
 _atom_site_fract_y
 _atom_site_fract_z
 _atom_site_occupancy
 _atom_site_charge
  Ag  Ag1  1  0.740950  0.060950  0.006390  1.0  0.2079
  Ag  Ag2  1  0.497760  0.050570  0.109540  1.0  0.0301
  Ag  Ag3  1  0.487600  0.028510  0.010780  1.0  0.8994
  Ag  Ag4  1  0.527540  0.192910  0.931390  1.0  0.3018
  Ag  Ag5  1  0.581170  0.284130  0.032600  1.0  0.186
  Ag  Ag6  1  0.623100  0.429340  0.934380  1.0  0.2437
  Ag  Ag7  1  0.594210  0.424860  0.573890  1.0  0.3145
  Ag  Ag8  1  0.500410  0.191890  0.565570  1.0  0.2376
  Ag  Ag9  1  0.595700  0.291610  0.470840  1.0  0.3067
  Ag  Ag10  1  0.738280  0.064180  0.498520  1.0  0.1888
  Ag  Ag11  1  0.480820  0.047170  0.478100  1.0  1.1368
  Ag  Ag12  1  0.478220  0.930930  0.576580  1.0  1.2267
  Ag  Ag13  1  0.447600  0.953900  0.633930  1.0  0.3122
  Ag  Ag14  1  0.022780  0.330820  0.749560  1.0  0.1822
  Ag  Ag15  1  0.259050  0.939050  0.993610  1.0  0.2071
  Ag  Ag16  1  0.502240  0.949430  0.890460  1.0  0.0329
  Ag  Ag17  1  0.512400  0.971490  0.989220  1.0  0.9034
  Ag  Ag18  1  0.472460  0.807090  0.068610  1.0  0.3032
  Ag  Ag19  1  0.418830  0.715870  0.967400  1.0  0.184
  Ag  Ag20  1  0.376900  0.570660  0.065620  1.0  0.2436
  Ag  Ag21  1  0.405790  0.575140  0.426110  1.0  0.3091
  Ag  Ag22  1  0.499590  0.808110  0.434430  1.0  0.2358
  Ag  Ag23  1  0.404300  0.708390  0.529160  1.0  0.307
  Ag  Ag24  1  0.261720  0.935820  0.501480  1.0  0.1867
  Ag  Ag25  1  0.519180  0.952830  0.521900  1.0  1.1367
  Ag  Ag26  1  0.521780  0.069070  0.423420  1.0  1.2216
  Ag  Ag27  1  0.552400  0.046100  0.366070  1.0  0.3163
  Ag  Ag28  1  0.977220  0.669180  0.250440  1.0  0.1839
  H  H29  1  0.857200  0.320100  0.846800  1.0  0.0279
  H  H30  1  0.035600  0.163400  0.971400  1.0  0.0586
  H  H31  1  0.223800  0.220800  0.836300  1.0  0.0346
  H  H32  1  0.199600  0.214800  0.658900  1.0  0.0203
  H  H33  1  0.014100  0.157100  0.532100  1.0  0.0543
  H  H34  1  0.833000  0.315100  0.661100  1.0  0.028
  H  H35  1  0.142800  0.679900  0.153200  1.0  0.0279
  H  H36  1  0.964400  0.836600  0.028600  1.0  0.0579
  H  H37  1  0.776200  0.779200  0.163700  1.0  0.0371
  H  H38  1  0.800400  0.785200  0.341100  1.0  0.0195
  H  H39  1  0.985900  0.842900  0.467900  1.0  0.0544
  H  H40  1  0.167000  0.684900  0.338900  1.0  0.0272
  C  C41  1  0.932500  0.285600  0.862100  1.0  0.1372
  C  C42  1  0.926400  0.243700  0.913500  1.0  -0.0625
  C  C43  1  0.036600  0.190800  0.936700  1.0  -0.1574
  C  C44  1  0.150400  0.179400  0.906400  1.0  -0.1176
  C  C45  1  0.147700  0.226300  0.855700  1.0  0.1085
  C  C46  1  0.804800  0.251000  0.940900  1.0  0.0314
  C  C47  1  0.705300  0.241200  0.963500  1.0  -0.5374
  C  C48  1  0.730100  0.878000  0.072300  1.0  0.0395
  C  C49  1  0.629000  0.925600  0.057200  1.0  -0.2169
  C  C50  1  0.123900  0.220500  0.642000  1.0  0.0784
  C  C51  1  0.127400  0.174900  0.591900  1.0  -0.0791
  C  C52  1  0.014700  0.184700  0.566400  1.0  -0.1454
  C  C53  1  0.902600  0.236900  0.593200  1.0  -0.0653
  C  C54  1  0.907900  0.279800  0.643400  1.0  0.109
  C  C55  1  0.784200  0.243400  0.568800  1.0  0.0545
  C  C56  1  0.688000  0.239300  0.545700  1.0  -0.2872
  C  C57  1  0.247100  0.116800  0.568900  1.0  0.0525
  C  C58  1  0.353200  0.068500  0.553800  1.0  -0.2983
  C  C59  1  0.308200  0.451300  0.564700  1.0  0.6229
  C  C60  1  0.169100  0.515800  0.566000  1.0  0.3073
  C  C61  1  0.662600  0.548300  0.075500  1.0  0.6179
  C  C62  1  0.797100  0.485000  0.080400  1.0  0.3409
  C  C63  1  0.333700  0.303700  0.420700  1.0  0.5953
  C  C64  1  0.202800  0.370300  0.404600  1.0  0.3325
  C  C65  1  0.067500  0.714400  0.137900  1.0  0.138
  C  C66  1  0.073600  0.756300  0.086500  1.0  -0.06
  C  C67  1  0.963400  0.809200  0.063300  1.0  -0.1582
  C  C68  1  0.849600  0.820600  0.093600  1.0  -0.1174
  C  C69  1  0.852300  0.773700  0.144300  1.0  0.1081
  C  C70  1  0.195200  0.749000  0.059100  1.0  0.0303
  C  C71  1  0.294700  0.758800  0.036500  1.0  -0.5288
  C  C72  1  0.269900  0.122000  0.927700  1.0  0.0415
  C  C73  1  0.371000  0.074400  0.942800  1.0  -0.2145
  C  C74  1  0.876100  0.779500  0.358000  1.0  0.0799
  C  C75  1  0.872600  0.825100  0.408100  1.0  -0.0768
  C  C76  1  0.985300  0.815300  0.433600  1.0  -0.1478
  C  C77  1  0.097400  0.763100  0.406800  1.0  -0.0637
  C  C78  1  0.092100  0.720200  0.356600  1.0  0.1084
  C  C79  1  0.215800  0.756600  0.431200  1.0  0.054
  C  C80  1  0.312000  0.760700  0.454300  1.0  -0.2899
  C  C81  1  0.752900  0.883200  0.431100  1.0  0.053
  C  C82  1  0.646800  0.931500  0.446200  1.0  -0.2875
  C  C83  1  0.691800  0.548700  0.435300  1.0  0.6228
  C  C84  1  0.830900  0.484200  0.434000  1.0  0.3074
  C  C85  1  0.337400  0.451700  0.924500  1.0  0.6187
  C  C86  1  0.202900  0.515000  0.919600  1.0  0.3412
  C  C87  1  0.666300  0.696300  0.579300  1.0  0.5938
  C  C88  1  0.797200  0.629700  0.595400  1.0  0.3342
  N  N89  1  0.040200  0.279400  0.833200  1.0  -0.4163
  N  N90  1  0.017200  0.272400  0.667300  1.0  -0.4052
  N  N91  1  0.959800  0.720600  0.166800  1.0  -0.4093
  N  N92  1  0.982800  0.727600  0.332700  1.0  -0.4083
  O  O93  1  0.324800  0.349900  0.575500  1.0  -0.7262
  O  O94  1  0.388800  0.509500  0.552900  1.0  -0.7098
  O  O95  1  0.592100  0.490200  0.056100  1.0  -0.6759
  O  O96  1  0.363700  0.351200  0.907900  1.0  -0.7239
  O  O97  1  0.342800  0.194900  0.422500  1.0  -0.7225
  O  O98  1  0.589300  0.636400  0.568900  1.0  -0.6649
  O  O99  1  0.675200  0.650100  0.424500  1.0  -0.7276
  O  O100  1  0.611200  0.490500  0.447100  1.0  -0.7089
  O  O101  1  0.407900  0.509800  0.943900  1.0  -0.6751
  O  O102  1  0.636300  0.648800  0.092100  1.0  -0.7249
  O  O103  1  0.657200  0.805100  0.577500  1.0  -0.7179
  O  O104  1  0.410700  0.363600  0.431100  1.0  -0.6653
  F  F105  1  0.138600  0.542600  0.616500  1.0  -0.3044
  F  F106  1  0.091300  0.453500  0.559400  1.0  -0.3134
  F  F107  1  0.145000  0.611500  0.542600  1.0  -0.2563
  F  F108  1  0.878100  0.546100  0.072200  1.0  -0.2495
  F  F109  1  0.832200  0.389100  0.055900  1.0  -0.2475
  F  F110  1  0.817700  0.455800  0.131700  1.0  -0.3044
  F  F111  1  0.202400  0.369000  0.353300  1.0  -0.2393
  F  F112  1  0.111800  0.322400  0.420900  1.0  -0.2517
  F  F113  1  0.177200  0.475500  0.418200  1.0  -0.2581
  F  F114  1  0.861400  0.457400  0.383500  1.0  -0.3057
  F  F115  1  0.908700  0.546500  0.440600  1.0  -0.3148
  F  F116  1  0.855000  0.388500  0.457400  1.0  -0.257
  F  F117  1  0.121900  0.453900  0.927800  1.0  -0.2522
  F  F118  1  0.167800  0.610900  0.944100  1.0  -0.2477
  F  F119  1  0.182300  0.544200  0.868300  1.0  -0.3079
  F  F120  1  0.797600  0.631000  0.646700  1.0  -0.24
  F  F121  1  0.888200  0.677600  0.579100  1.0  -0.2494
  F  F122  1  0.822800  0.524500  0.581800  1.0  -0.2597
