# generated using pymatgen
data_LaCuH8C14(NO4)2
_symmetry_space_group_name_H-M   'P 1'
_cell_length_a   9.38250000
_cell_length_b   9.67730000
_cell_length_c   21.69390000
_cell_angle_alpha   90.00000000
_cell_angle_beta   90.00000000
_cell_angle_gamma   115.31200000
_symmetry_Int_Tables_number   1
_chemical_formula_structural   LaCuH8C14(NO4)2
_chemical_formula_sum   'La4 Cu4 H32 C56 N8 O32'
_cell_volume   1780.63739920
_cell_formula_units_Z   4
loop_
 _symmetry_equiv_pos_site_id
 _symmetry_equiv_pos_as_xyz
  1  'x, y, z'
loop_
 _atom_site_type_symbol
 _atom_site_label
 _atom_site_symmetry_multiplicity
 _atom_site_fract_x
 _atom_site_fract_y
 _atom_site_fract_z
 _atom_site_occupancy
 _atom_site_charge
  La  La1  1  0.122050  0.361680  0.991430  1.0  2.1363
  La  La2  1  0.377950  0.638320  0.491430  1.0  2.1363
  La  La3  1  0.877950  0.638320  0.008570  1.0  2.1332
  La  La4  1  0.622050  0.361680  0.508570  1.0  2.1331
  Cu  Cu5  1  0.456420  0.308740  0.856100  1.0  0.389
  Cu  Cu6  1  0.043580  0.691260  0.356100  1.0  0.389
  Cu  Cu7  1  0.543580  0.691260  0.143900  1.0  0.3888
  Cu  Cu8  1  0.956420  0.308740  0.643900  1.0  0.389
  H  H9  1  0.703000  0.206800  0.846500  1.0  0.0661
  H  H10  1  0.755900  0.007300  0.876200  1.0  0.1318
  H  H11  1  0.563400  0.802900  0.929200  1.0  0.1034
  H  H12  1  0.292400  0.027700  0.927400  1.0  0.0862
  H  H13  1  0.878000  0.574400  0.655100  1.0  0.0779
  H  H14  1  0.848700  0.721300  0.732200  1.0  0.135
  H  H15  1  0.896100  0.676600  0.834100  1.0  0.1164
  H  H16  1  0.002300  0.342400  0.772800  1.0  0.0873
  H  H17  1  0.797000  0.793200  0.346500  1.0  0.0666
  H  H18  1  0.744100  0.992700  0.376200  1.0  0.1355
  H  H19  1  0.936600  0.197100  0.429200  1.0  0.1034
  H  H20  1  0.207600  0.972300  0.427400  1.0  0.0863
  H  H21  1  0.622000  0.425600  0.155100  1.0  0.0776
  H  H22  1  0.651300  0.278700  0.232200  1.0  0.1346
  H  H23  1  0.603900  0.323400  0.334100  1.0  0.1167
  H  H24  1  0.497700  0.657600  0.272800  1.0  0.0877
  H  H25  1  0.297000  0.793200  0.153500  1.0  0.0666
  H  H26  1  0.244100  0.992700  0.123800  1.0  0.1339
  H  H27  1  0.436600  0.197100  0.070800  1.0  0.1037
  H  H28  1  0.707600  0.972300  0.072600  1.0  0.0868
  H  H29  1  0.122000  0.425600  0.344900  1.0  0.0775
  H  H30  1  0.151300  0.278700  0.267800  1.0  0.1347
  H  H31  1  0.103900  0.323400  0.165900  1.0  0.1169
  H  H32  1  0.997700  0.657600  0.227200  1.0  0.0874
  H  H33  1  0.203000  0.206800  0.653500  1.0  0.066
  H  H34  1  0.255900  0.007300  0.623800  1.0  0.1314
  H  H35  1  0.063400  0.802900  0.570800  1.0  0.1039
  H  H36  1  0.792400  0.027700  0.572600  1.0  0.0867
  H  H37  1  0.378000  0.574400  0.844900  1.0  0.0776
  H  H38  1  0.348700  0.721300  0.767800  1.0  0.1349
  H  H39  1  0.396100  0.676600  0.665900  1.0  0.1169
  H  H40  1  0.502300  0.342400  0.727200  1.0  0.0873
  C  C41  1  0.627600  0.127900  0.869230  1.0  0.1633
  C  C42  1  0.659700  0.007900  0.886000  1.0  -0.1679
  C  C43  1  0.545900  0.887100  0.918060  1.0  0.0388
  C  C44  1  0.405400  0.893800  0.933140  1.0  -0.2212
  C  C45  1  0.385200  0.021700  0.916040  1.0  0.1904
  C  C46  1  0.275900  0.763500  0.966480  1.0  0.7514
  C  C47  1  0.896900  0.555300  0.695610  1.0  0.1776
  C  C48  1  0.879400  0.644200  0.741600  1.0  -0.1839
  C  C49  1  0.908000  0.618200  0.802240  1.0  0.0459
  C  C50  1  0.954600  0.503100  0.814130  1.0  -0.2129
  C  C51  1  0.969800  0.418900  0.764810  1.0  0.1623
  C  C52  1  0.992500  0.464700  0.876970  1.0  0.731
  C  C53  1  0.503700  0.476800  0.966050  1.0  0.5356
  C  C54  1  0.987300  0.992000  0.964260  1.0  0.5451
  C  C55  1  0.872400  0.872100  0.369230  1.0  0.1633
  C  C56  1  0.840300  0.992100  0.386000  1.0  -0.1679
  C  C57  1  0.954100  0.112900  0.418060  1.0  0.0389
  C  C58  1  0.094600  0.106200  0.433140  1.0  -0.2212
  C  C59  1  0.114800  0.978300  0.416040  1.0  0.1911
  C  C60  1  0.224100  0.236500  0.466480  1.0  0.7511
  C  C61  1  0.603100  0.444700  0.195610  1.0  0.1779
  C  C62  1  0.620600  0.355800  0.241600  1.0  -0.1834
  C  C63  1  0.592000  0.381800  0.302240  1.0  0.045
  C  C64  1  0.545400  0.496900  0.314130  1.0  -0.2131
  C  C65  1  0.530200  0.581100  0.264810  1.0  0.1611
  C  C66  1  0.507500  0.535300  0.376970  1.0  0.7308
  C  C67  1  0.996300  0.523200  0.466050  1.0  0.5361
  C  C68  1  0.512700  0.008000  0.464260  1.0  0.545
  C  C69  1  0.372400  0.872100  0.130770  1.0  0.1632
  C  C70  1  0.340300  0.992100  0.114000  1.0  -0.1673
  C  C71  1  0.454100  0.112900  0.081940  1.0  0.0395
  C  C72  1  0.594600  0.106200  0.066860  1.0  -0.2212
  C  C73  1  0.614800  0.978300  0.083960  1.0  0.1918
  C  C74  1  0.724100  0.236500  0.033520  1.0  0.7514
  C  C75  1  0.103100  0.444700  0.304390  1.0  0.1792
  C  C76  1  0.120600  0.355800  0.258400  1.0  -0.1838
  C  C77  1  0.092000  0.381800  0.197760  1.0  0.045
  C  C78  1  0.045400  0.496900  0.185870  1.0  -0.213
  C  C79  1  0.030200  0.581100  0.235190  1.0  0.1617
  C  C80  1  0.007500  0.535300  0.123030  1.0  0.7295
  C  C81  1  0.496300  0.523200  0.033950  1.0  0.5365
  C  C82  1  0.012700  0.008000  0.035740  1.0  0.5443
  C  C83  1  0.127600  0.127900  0.630770  1.0  0.1637
  C  C84  1  0.159700  0.007900  0.614000  1.0  -0.1682
  C  C85  1  0.045900  0.887100  0.581940  1.0  0.0391
  C  C86  1  0.905400  0.893800  0.566860  1.0  -0.2212
  C  C87  1  0.885200  0.021700  0.583960  1.0  0.191
  C  C88  1  0.775900  0.763500  0.533520  1.0  0.7516
  C  C89  1  0.396900  0.555300  0.804390  1.0  0.1785
  C  C90  1  0.379400  0.644200  0.758400  1.0  -0.1841
  C  C91  1  0.408000  0.618200  0.697760  1.0  0.0466
  C  C92  1  0.454600  0.503100  0.685870  1.0  -0.2127
  C  C93  1  0.469800  0.418900  0.735190  1.0  0.1626
  C  C94  1  0.492500  0.464700  0.623030  1.0  0.7297
  C  C95  1  0.003700  0.476800  0.533950  1.0  0.5364
  C  C96  1  0.487300  0.992000  0.535740  1.0  0.5446
  N  N97  1  0.493300  0.138100  0.883710  1.0  -0.3093
  N  N98  1  0.939900  0.442400  0.706440  1.0  -0.2965
  N  N99  1  0.006700  0.861900  0.383710  1.0  -0.3097
  N  N100  1  0.560100  0.557600  0.206440  1.0  -0.2948
  N  N101  1  0.506700  0.861900  0.116290  1.0  -0.3082
  N  N102  1  0.060100  0.557600  0.293560  1.0  -0.2954
  N  N103  1  0.993300  0.138100  0.616290  1.0  -0.3099
  N  N104  1  0.439900  0.442400  0.793560  1.0  -0.2955
  O  O105  1  0.286700  0.638900  0.967190  1.0  -0.7018
  O  O106  1  0.167500  0.788500  0.989850  1.0  -0.7022
  O  O107  1  0.062600  0.380800  0.880140  1.0  -0.6316
  O  O108  1  0.954100  0.517900  0.923650  1.0  -0.7742
  O  O109  1  0.376100  0.381800  0.942880  1.0  -0.592
  O  O110  1  0.634100  0.535500  0.939610  1.0  -0.6089
  O  O111  1  0.050900  0.112700  0.933860  1.0  -0.6238
  O  O112  1  0.906700  0.860800  0.943380  1.0  -0.6478
  O  O113  1  0.213300  0.361100  0.467190  1.0  -0.7
  O  O114  1  0.332500  0.211500  0.489850  1.0  -0.7023
  O  O115  1  0.437400  0.619200  0.380140  1.0  -0.6319
  O  O116  1  0.545900  0.482100  0.423650  1.0  -0.774
  O  O117  1  0.123900  0.618200  0.442880  1.0  -0.592
  O  O118  1  0.865900  0.464500  0.439610  1.0  -0.6089
  O  O119  1  0.449100  0.887300  0.433860  1.0  -0.624
  O  O120  1  0.593300  0.139200  0.443380  1.0  -0.6489
  O  O121  1  0.713300  0.361100  0.032810  1.0  -0.6999
  O  O122  1  0.832500  0.211500  0.010150  1.0  -0.7023
  O  O123  1  0.937400  0.619200  0.119860  1.0  -0.6321
  O  O124  1  0.045900  0.482100  0.076350  1.0  -0.7733
  O  O125  1  0.623900  0.618200  0.057120  1.0  -0.5921
  O  O126  1  0.365900  0.464500  0.060390  1.0  -0.6074
  O  O127  1  0.949100  0.887300  0.066140  1.0  -0.6243
  O  O128  1  0.093300  0.139200  0.056620  1.0  -0.6487
  O  O129  1  0.786700  0.638900  0.532810  1.0  -0.7018
  O  O130  1  0.667500  0.788500  0.510150  1.0  -0.7021
  O  O131  1  0.562600  0.380800  0.619860  1.0  -0.6319
  O  O132  1  0.454100  0.517900  0.576350  1.0  -0.7728
  O  O133  1  0.876100  0.381800  0.557120  1.0  -0.5916
  O  O134  1  0.134100  0.535500  0.560390  1.0  -0.6086
  O  O135  1  0.550900  0.112700  0.566140  1.0  -0.6238
  O  O136  1  0.406700  0.860800  0.556620  1.0  -0.6476
