# generated using pymatgen
data_ThC12(ClO2)4
_symmetry_space_group_name_H-M   'P 1'
_cell_length_a   9.02110000
_cell_length_b   9.02110000
_cell_length_c   12.72000000
_cell_angle_alpha   85.20890000
_cell_angle_beta   85.20890000
_cell_angle_gamma   79.37690000
_symmetry_Int_Tables_number   1
_chemical_formula_structural   ThC12(ClO2)4
_chemical_formula_sum   'Th2 C24 Cl8 O16'
_cell_volume   1011.40469529
_cell_formula_units_Z   2
loop_
 _symmetry_equiv_pos_site_id
 _symmetry_equiv_pos_as_xyz
  1  'x, y, z'
loop_
 _atom_site_type_symbol
 _atom_site_label
 _atom_site_symmetry_multiplicity
 _atom_site_fract_x
 _atom_site_fract_y
 _atom_site_fract_z
 _atom_site_occupancy
 _atom_site_charge
  Th  Th1  1  0.265150  0.734850  0.250000  1.0  2.3143
  Th  Th2  1  0.734850  0.265150  0.750000  1.0  2.3148
  C  C3  1  0.054200  0.508200  0.390600  1.0  0.3586
  C  C4  1  0.879100  0.419900  0.525600  1.0  0.3112
  C  C5  1  0.937000  0.426600  0.421200  1.0  -0.1537
  C  C6  1  0.084000  0.003600  0.089900  1.0  0.3313
  C  C7  1  0.965100  0.139900  0.938800  1.0  0.3166
  C  C8  1  0.045500  0.139100  0.022900  1.0  -0.1517
  C  C9  1  0.491800  0.945800  0.109400  1.0  0.3584
  C  C10  1  0.580100  0.120900  0.974400  1.0  0.3123
  C  C11  1  0.573400  0.063000  0.078800  1.0  -0.1586
  C  C12  1  0.996400  0.916000  0.410100  1.0  0.3313
  C  C13  1  0.860100  0.034900  0.561200  1.0  0.3142
  C  C14  1  0.860900  0.954500  0.477100  1.0  -0.1532
  C  C15  1  0.945800  0.491800  0.609400  1.0  0.3582
  C  C16  1  0.120900  0.580100  0.474400  1.0  0.3124
  C  C17  1  0.063000  0.573400  0.578800  1.0  -0.1567
  C  C18  1  0.916000  0.996400  0.910100  1.0  0.3313
  C  C19  1  0.034900  0.860100  0.061200  1.0  0.318
  C  C20  1  0.954500  0.860900  0.977100  1.0  -0.1358
  C  C21  1  0.508200  0.054200  0.890600  1.0  0.3587
  C  C22  1  0.419900  0.879100  0.025600  1.0  0.313
  C  C23  1  0.426600  0.937000  0.921200  1.0  -0.156
  C  C24  1  0.003600  0.084000  0.589900  1.0  0.33
  C  C25  1  0.139900  0.965100  0.438800  1.0  0.3155
  C  C26  1  0.139100  0.045500  0.522900  1.0  -0.1508
  Cl  Cl27  1  0.868630  0.336030  0.326600  1.0  -0.0257
  Cl  Cl28  1  0.098300  0.302100  0.058600  1.0  -0.0257
  Cl  Cl29  1  0.663970  0.131370  0.173400  1.0  -0.0271
  Cl  Cl30  1  0.697900  0.901700  0.441400  1.0  -0.027
  Cl  Cl31  1  0.131370  0.663970  0.673400  1.0  -0.0258
  Cl  Cl32  1  0.901700  0.697900  0.941400  1.0  -0.0254
  Cl  Cl33  1  0.336030  0.868630  0.826600  1.0  -0.0269
  Cl  Cl34  1  0.302100  0.098300  0.558600  1.0  -0.0264
  O  O35  1  0.107200  0.531400  0.298600  1.0  -0.5252
  O  O36  1  0.765400  0.360600  0.558700  1.0  -0.573
  O  O37  1  0.161700  0.992100  0.168400  1.0  -0.4963
  O  O38  1  0.927300  0.255300  0.875800  1.0  -0.5208
  O  O39  1  0.468600  0.892800  0.201400  1.0  -0.5313
  O  O40  1  0.639400  0.234600  0.941300  1.0  -0.5744
  O  O41  1  0.007900  0.838300  0.331600  1.0  -0.4946
  O  O42  1  0.744700  0.072700  0.624200  1.0  -0.5223
  O  O43  1  0.892800  0.468600  0.701400  1.0  -0.5283
  O  O44  1  0.234600  0.639400  0.441300  1.0  -0.5724
  O  O45  1  0.838300  0.007900  0.831600  1.0  -0.4939
  O  O46  1  0.072700  0.744700  0.124200  1.0  -0.5239
  O  O47  1  0.531400  0.107200  0.798600  1.0  -0.5283
  O  O48  1  0.360600  0.765400  0.058700  1.0  -0.5739
  O  O49  1  0.992100  0.161700  0.668400  1.0  -0.4953
  O  O50  1  0.255300  0.927300  0.375800  1.0  -0.5196
