# generated using pymatgen
data_YC12(ClO2)4
_symmetry_space_group_name_H-M   'P 1'
_cell_length_a   11.57800000
_cell_length_b   11.57800000
_cell_length_c   15.10630000
_cell_angle_alpha   112.53300000
_cell_angle_beta   112.53300000
_cell_angle_gamma   90.00000000
_symmetry_Int_Tables_number   1
_chemical_formula_structural   YC12(ClO2)4
_chemical_formula_sum   'Y2 C24 Cl8 O16'
_cell_volume   1701.83430096
_cell_formula_units_Z   2
loop_
 _symmetry_equiv_pos_site_id
 _symmetry_equiv_pos_as_xyz
  1  'x, y, z'
loop_
 _atom_site_type_symbol
 _atom_site_label
 _atom_site_symmetry_multiplicity
 _atom_site_fract_x
 _atom_site_fract_y
 _atom_site_fract_z
 _atom_site_occupancy
 _atom_site_charge
  Y  Y1  1  0.375000  0.125000  0.250000  1.0  1.957
  Y  Y2  1  0.625000  0.875000  0.750000  1.0  1.9568
  C  C3  1  0.575000  0.528800  0.452000  1.0  0.0412
  C  C4  1  0.501300  0.414500  0.403000  1.0  0.3104
  C  C5  1  0.580300  0.620100  0.547200  1.0  0.3377
  C  C6  1  0.377000  0.923200  0.452000  1.0  0.0401
  C  C7  1  0.401700  0.988500  0.403000  1.0  0.3108
  C  C8  1  0.466900  0.927100  0.547200  1.0  0.3383
  C  C9  1  0.028800  0.877000  0.952000  1.0  0.0497
  C  C10  1  0.914500  0.901700  0.903000  1.0  0.3083
  C  C11  1  0.120100  0.966900  0.047200  1.0  0.3369
  C  C12  1  0.423200  0.075000  0.952000  1.0  0.04
  C  C13  1  0.488500  0.001300  0.903000  1.0  0.3124
  C  C14  1  0.427100  0.080300  0.047200  1.0  0.3366
  C  C15  1  0.425000  0.471200  0.548000  1.0  0.0552
  C  C16  1  0.498700  0.585500  0.597000  1.0  0.3116
  C  C17  1  0.419700  0.379900  0.452800  1.0  0.3343
  C  C18  1  0.623000  0.076800  0.548000  1.0  0.0461
  C  C19  1  0.598300  0.011500  0.597000  1.0  0.3105
  C  C20  1  0.533100  0.072900  0.452800  1.0  0.3348
  C  C21  1  0.971200  0.123000  0.048000  1.0  0.0536
  C  C22  1  0.085500  0.098300  0.097000  1.0  0.3088
  C  C23  1  0.879900  0.033100  0.952800  1.0  0.3344
  C  C24  1  0.576800  0.925000  0.048000  1.0  0.0494
  C  C25  1  0.511500  0.998700  0.097000  1.0  0.3115
  C  C26  1  0.572900  0.919700  0.952800  1.0  0.3339
  Cl  Cl27  1  0.664440  0.568240  0.395080  1.0  -0.0925
  Cl  Cl28  1  0.230640  0.826840  0.395080  1.0  -0.09
  Cl  Cl29  1  0.068240  0.730640  0.895080  1.0  -0.0899
  Cl  Cl30  1  0.326840  0.164440  0.895080  1.0  -0.0903
  Cl  Cl31  1  0.335560  0.431760  0.604920  1.0  -0.0883
  Cl  Cl32  1  0.769360  0.173160  0.604920  1.0  -0.0866
  Cl  Cl33  1  0.931760  0.269360  0.104920  1.0  -0.087
  Cl  Cl34  1  0.673160  0.835560  0.104920  1.0  -0.0884
  O  O35  1  0.487000  0.325600  0.314800  1.0  -0.5893
  O  O36  1  0.648800  0.727000  0.598200  1.0  -0.5055
  O  O37  1  0.327800  0.989200  0.314800  1.0  -0.5895
  O  O38  1  0.449400  0.871200  0.598200  1.0  -0.503
  O  O39  1  0.825600  0.827800  0.814800  1.0  -0.5905
  O  O40  1  0.227000  0.949400  0.098200  1.0  -0.5024
  O  O41  1  0.489200  0.987000  0.814800  1.0  -0.5895
  O  O42  1  0.371200  0.148800  0.098200  1.0  -0.5019
  O  O43  1  0.513000  0.674400  0.685200  1.0  -0.5881
  O  O44  1  0.351200  0.273000  0.401800  1.0  -0.5052
  O  O45  1  0.672200  0.010800  0.685200  1.0  -0.5923
  O  O46  1  0.550600  0.128800  0.401800  1.0  -0.5029
  O  O47  1  0.174400  0.172200  0.185200  1.0  -0.5919
  O  O48  1  0.773000  0.050600  0.901800  1.0  -0.5025
  O  O49  1  0.510800  0.013000  0.185200  1.0  -0.5913
  O  O50  1  0.628800  0.851200  0.901800  1.0  -0.5015
