# generated using pymatgen
data_CuH3C8NO4
_symmetry_space_group_name_H-M   'P 1'
_cell_length_a   14.89660000
_cell_length_b   14.89660000
_cell_length_c   14.89660000
_cell_angle_alpha   78.24530000
_cell_angle_beta   78.24530000
_cell_angle_gamma   78.24530000
_symmetry_Int_Tables_number   1
_chemical_formula_structural   CuH3C8NO4
_chemical_formula_sum   'Cu6 H18 C48 N6 O24'
_cell_volume   3122.78247404
_cell_formula_units_Z   6
loop_
 _symmetry_equiv_pos_site_id
 _symmetry_equiv_pos_as_xyz
  1  'x, y, z'
loop_
 _atom_site_type_symbol
 _atom_site_label
 _atom_site_symmetry_multiplicity
 _atom_site_fract_x
 _atom_site_fract_y
 _atom_site_fract_z
 _atom_site_occupancy
 _atom_site_charge
  Cu  Cu1  1  0.486110  0.918730  0.486080  1.0  0.848
  Cu  Cu2  1  0.486080  0.486110  0.918730  1.0  0.8465
  Cu  Cu3  1  0.918730  0.486080  0.486110  1.0  0.8512
  Cu  Cu4  1  0.513890  0.081270  0.513920  1.0  0.8452
  Cu  Cu5  1  0.513920  0.513890  0.081270  1.0  0.8445
  Cu  Cu6  1  0.081270  0.513920  0.513890  1.0  0.8478
  H  H7  1  0.771300  0.765100  0.478100  1.0  0.1199
  H  H8  1  0.191500  0.979700  0.503300  1.0  0.1127
  H  H9  1  0.970800  0.188000  0.515100  1.0  0.1296
  H  H10  1  0.478100  0.771300  0.765100  1.0  0.1202
  H  H11  1  0.503300  0.191500  0.979700  1.0  0.1135
  H  H12  1  0.515100  0.970800  0.188000  1.0  0.1308
  H  H13  1  0.765100  0.478100  0.771300  1.0  0.1197
  H  H14  1  0.979700  0.503300  0.191500  1.0  0.115
  H  H15  1  0.188000  0.515100  0.970800  1.0  0.1291
  H  H16  1  0.228700  0.234900  0.521900  1.0  0.1202
  H  H17  1  0.808500  0.020300  0.496700  1.0  0.1123
  H  H18  1  0.029200  0.812000  0.484900  1.0  0.1292
  H  H19  1  0.521900  0.228700  0.234900  1.0  0.1206
  H  H20  1  0.496700  0.808500  0.020300  1.0  0.1131
  H  H21  1  0.484900  0.029200  0.812000  1.0  0.1302
  H  H22  1  0.234900  0.521900  0.228700  1.0  0.1203
  H  H23  1  0.020300  0.496700  0.808500  1.0  0.1133
  H  H24  1  0.812000  0.484900  0.029200  1.0  0.1292
  C  C25  1  0.229400  0.094100  0.519300  1.0  -0.0711
  C  C26  1  0.094200  0.230000  0.513200  1.0  -0.0588
  C  C27  1  0.189600  0.194000  0.518600  1.0  -0.0791
  C  C28  1  0.169400  0.042600  0.508100  1.0  -0.0926
  C  C29  1  0.327100  0.067800  0.519000  1.0  0.6443
  C  C30  1  0.035500  0.168800  0.511300  1.0  -0.1335
  C  C31  1  0.078300  0.076600  0.503100  1.0  -0.0358
  C  C32  1  0.939000  0.665600  0.484300  1.0  0.6249
  C  C33  1  0.519300  0.229400  0.094100  1.0  -0.0719
  C  C34  1  0.513200  0.094200  0.230000  1.0  -0.0592
  C  C35  1  0.518600  0.189600  0.194000  1.0  -0.0805
  C  C36  1  0.508100  0.169400  0.042600  1.0  -0.0923
  C  C37  1  0.519000  0.327100  0.067800  1.0  0.6442
  C  C38  1  0.511300  0.035500  0.168800  1.0  -0.1348
  C  C39  1  0.503100  0.078300  0.076600  1.0  -0.0356
  C  C40  1  0.484300  0.939000  0.665600  1.0  0.6251
  C  C41  1  0.094100  0.519300  0.229400  1.0  -0.0719
  C  C42  1  0.230000  0.513200  0.094200  1.0  -0.0589
  C  C43  1  0.194000  0.518600  0.189600  1.0  -0.0805
  C  C44  1  0.042600  0.508100  0.169400  1.0  -0.0916
  C  C45  1  0.067800  0.519000  0.327100  1.0  0.6449
  C  C46  1  0.168800  0.511300  0.035500  1.0  -0.134
  C  C47  1  0.076600  0.503100  0.078300  1.0  -0.0356
  C  C48  1  0.665600  0.484300  0.939000  1.0  0.624
  C  C49  1  0.770600  0.905900  0.480700  1.0  -0.0721
  C  C50  1  0.905800  0.770000  0.486800  1.0  -0.0592
  C  C51  1  0.810400  0.806000  0.481400  1.0  -0.0809
  C  C52  1  0.830600  0.957400  0.491900  1.0  -0.0942
  C  C53  1  0.672900  0.932200  0.481000  1.0  0.6442
  C  C54  1  0.964500  0.831200  0.488700  1.0  -0.1313
  C  C55  1  0.921700  0.923400  0.496900  1.0  -0.0341
  C  C56  1  0.061000  0.334400  0.515700  1.0  0.6249
  C  C57  1  0.480700  0.770600  0.905900  1.0  -0.0719
  C  C58  1  0.486800  0.905800  0.770000  1.0  -0.0597
  C  C59  1  0.481400  0.810400  0.806000  1.0  -0.0811
  C  C60  1  0.491900  0.830600  0.957400  1.0  -0.0918
  C  C61  1  0.481000  0.672900  0.932200  1.0  0.645
  C  C62  1  0.488700  0.964500  0.831200  1.0  -0.1347
  C  C63  1  0.496900  0.921700  0.923400  1.0  -0.034
  C  C64  1  0.515700  0.061000  0.334400  1.0  0.6244
  C  C65  1  0.905900  0.480700  0.770600  1.0  -0.0726
  C  C66  1  0.770000  0.486800  0.905800  1.0  -0.059
  C  C67  1  0.806000  0.481400  0.810400  1.0  -0.0818
  C  C68  1  0.957400  0.491900  0.830600  1.0  -0.0919
  C  C69  1  0.932200  0.481000  0.672900  1.0  0.6454
  C  C70  1  0.831200  0.488700  0.964500  1.0  -0.1347
  C  C71  1  0.923400  0.496900  0.921700  1.0  -0.0344
  C  C72  1  0.334400  0.515700  0.061000  1.0  0.6236
  N  N73  1  0.020000  0.017000  0.504000  1.0  0.2317
  N  N74  1  0.504000  0.020000  0.017000  1.0  0.2355
  N  N75  1  0.017000  0.504000  0.020000  1.0  0.2327
  N  N76  1  0.980000  0.983000  0.496000  1.0  0.2322
  N  N77  1  0.496000  0.980000  0.983000  1.0  0.2344
  N  N78  1  0.983000  0.496000  0.980000  1.0  0.2319
  O  O79  1  0.383100  0.120300  0.521500  1.0  -0.5458
  O  O80  1  0.877700  0.619800  0.476800  1.0  -0.5198
  O  O81  1  0.022000  0.643000  0.500400  1.0  -0.5606
  O  O82  1  0.355300  0.978100  0.505500  1.0  -0.6131
  O  O83  1  0.521500  0.383100  0.120300  1.0  -0.5462
  O  O84  1  0.476800  0.877700  0.619800  1.0  -0.5224
  O  O85  1  0.500400  0.022000  0.643000  1.0  -0.5621
  O  O86  1  0.505500  0.355300  0.978100  1.0  -0.6138
  O  O87  1  0.120300  0.521500  0.383100  1.0  -0.5459
  O  O88  1  0.619800  0.476800  0.877700  1.0  -0.5202
  O  O89  1  0.643000  0.500400  0.022000  1.0  -0.5605
  O  O90  1  0.978100  0.505500  0.355300  1.0  -0.6124
  O  O91  1  0.616900  0.879700  0.478500  1.0  -0.5465
  O  O92  1  0.122300  0.380200  0.523200  1.0  -0.5207
  O  O93  1  0.978000  0.357000  0.499600  1.0  -0.5615
  O  O94  1  0.644700  0.021900  0.494500  1.0  -0.6108
  O  O95  1  0.478500  0.616900  0.879700  1.0  -0.5462
  O  O96  1  0.523200  0.122300  0.380200  1.0  -0.5211
  O  O97  1  0.499600  0.978000  0.357000  1.0  -0.5606
  O  O98  1  0.494500  0.644700  0.021900  1.0  -0.6123
  O  O99  1  0.879700  0.478500  0.616900  1.0  -0.5462
  O  O100  1  0.380200  0.523200  0.122300  1.0  -0.5179
  O  O101  1  0.357000  0.499600  0.978000  1.0  -0.5615
  O  O102  1  0.021900  0.494500  0.644700  1.0  -0.6099
