# generated using pymatgen
data_CuH4C9O4
_symmetry_space_group_name_H-M   'P 1'
_cell_length_a   15.04880000
_cell_length_b   15.04880000
_cell_length_c   15.04880000
_cell_angle_alpha   77.28640000
_cell_angle_beta   77.28640000
_cell_angle_gamma   77.28640000
_symmetry_Int_Tables_number   1
_chemical_formula_structural   CuH4C9O4
_chemical_formula_sum   'Cu6 H24 C54 O24'
_cell_volume   3189.78648591
_cell_formula_units_Z   6
loop_
 _symmetry_equiv_pos_site_id
 _symmetry_equiv_pos_as_xyz
  1  'x, y, z'
loop_
 _atom_site_type_symbol
 _atom_site_label
 _atom_site_symmetry_multiplicity
 _atom_site_fract_x
 _atom_site_fract_y
 _atom_site_fract_z
 _atom_site_occupancy
 _atom_site_charge
  Cu  Cu1  1  0.580500  0.012940  0.012840  1.0  0.8971
  Cu  Cu2  1  0.012840  0.580500  0.012940  1.0  0.8987
  Cu  Cu3  1  0.012940  0.012840  0.580500  1.0  0.896
  Cu  Cu4  1  0.419500  0.987060  0.987160  1.0  0.8967
  Cu  Cu5  1  0.987160  0.419500  0.987060  1.0  0.8985
  Cu  Cu6  1  0.987060  0.987160  0.419500  1.0  0.8964
  H  H7  1  0.289200  0.976200  0.252800  1.0  0.1188
  H  H8  1  0.297400  0.987900  0.510700  1.0  0.0958
  H  H9  1  0.518500  0.992300  0.325700  1.0  0.0674
  H  H10  1  0.460700  0.985300  0.571700  1.0  0.0547
  H  H11  1  0.252800  0.289200  0.976200  1.0  0.1188
  H  H12  1  0.510700  0.297400  0.987900  1.0  0.0959
  H  H13  1  0.325700  0.518500  0.992300  1.0  0.0684
  H  H14  1  0.571700  0.460700  0.985300  1.0  0.0507
  H  H15  1  0.976200  0.252800  0.289200  1.0  0.1188
  H  H16  1  0.987900  0.510700  0.297400  1.0  0.0943
  H  H17  1  0.992300  0.325700  0.518500  1.0  0.068
  H  H18  1  0.985300  0.571700  0.460700  1.0  0.0528
  H  H19  1  0.710800  0.023800  0.747200  1.0  0.1191
  H  H20  1  0.702600  0.012100  0.489300  1.0  0.0956
  H  H21  1  0.481500  0.007700  0.674300  1.0  0.0662
  H  H22  1  0.539300  0.014700  0.428300  1.0  0.0534
  H  H23  1  0.747200  0.710800  0.023800  1.0  0.1186
  H  H24  1  0.489300  0.702600  0.012100  1.0  0.0949
  H  H25  1  0.674300  0.481500  0.007700  1.0  0.0664
  H  H26  1  0.428300  0.539300  0.014700  1.0  0.0526
  H  H27  1  0.023800  0.747200  0.710800  1.0  0.1183
  H  H28  1  0.012100  0.489300  0.702600  1.0  0.0948
  H  H29  1  0.007700  0.674300  0.481500  1.0  0.0673
  H  H30  1  0.014700  0.428300  0.539300  1.0  0.0528
  C  C31  1  0.439300  0.982200  0.169300  1.0  0.659
  C  C32  1  0.321700  0.980200  0.297300  1.0  -0.0075
  C  C33  1  0.413200  0.984300  0.274600  1.0  -0.111
  C  C34  1  0.329200  0.987100  0.450300  1.0  -0.0649
  C  C35  1  0.455800  0.989600  0.344000  1.0  -0.0672
  C  C36  1  0.422500  0.991500  0.435100  1.0  0.0385
  C  C37  1  0.490900  0.000700  0.476300  1.0  0.0099
  C  C38  1  0.278000  0.981800  0.387100  1.0  -0.1305
  C  C39  1  0.824400  0.016000  0.567600  1.0  0.7109
  C  C40  1  0.169300  0.439300  0.982200  1.0  0.6569
  C  C41  1  0.297300  0.321700  0.980200  1.0  -0.0067
  C  C42  1  0.274600  0.413200  0.984300  1.0  -0.1114
  C  C43  1  0.450300  0.329200  0.987100  1.0  -0.0637
  C  C44  1  0.344000  0.455800  0.989600  1.0  -0.0655
  C  C45  1  0.435100  0.422500  0.991500  1.0  0.0373
  C  C46  1  0.476300  0.490900  0.000700  1.0  0.0103
  C  C47  1  0.387100  0.278000  0.981800  1.0  -0.1324
  C  C48  1  0.567600  0.824400  0.016000  1.0  0.7136
  C  C49  1  0.982200  0.169300  0.439300  1.0  0.6574
  C  C50  1  0.980200  0.297300  0.321700  1.0  -0.0071
  C  C51  1  0.984300  0.274600  0.413200  1.0  -0.1133
  C  C52  1  0.987100  0.450300  0.329200  1.0  -0.0657
  C  C53  1  0.989600  0.344000  0.455800  1.0  -0.0662
  C  C54  1  0.991500  0.435100  0.422500  1.0  0.0372
  C  C55  1  0.000700  0.476300  0.490900  1.0  0.0089
  C  C56  1  0.981800  0.387100  0.278000  1.0  -0.1319
  C  C57  1  0.016000  0.567600  0.824400  1.0  0.7138
  C  C58  1  0.560700  0.017800  0.830700  1.0  0.659
  C  C59  1  0.678300  0.019800  0.702700  1.0  -0.0064
  C  C60  1  0.586800  0.015700  0.725400  1.0  -0.112
  C  C61  1  0.670800  0.012900  0.549700  1.0  -0.0658
  C  C62  1  0.544200  0.010400  0.656000  1.0  -0.0694
  C  C63  1  0.577500  0.008500  0.564900  1.0  0.0411
  C  C64  1  0.509100  0.999300  0.523700  1.0  0.0103
  C  C65  1  0.722000  0.018200  0.612900  1.0  -0.1298
  C  C66  1  0.175600  0.984000  0.432400  1.0  0.7124
  C  C67  1  0.830700  0.560700  0.017800  1.0  0.657
  C  C68  1  0.702700  0.678300  0.019800  1.0  -0.0075
  C  C69  1  0.725400  0.586800  0.015700  1.0  -0.1101
  C  C70  1  0.549700  0.670800  0.012900  1.0  -0.063
  C  C71  1  0.656000  0.544200  0.010400  1.0  -0.0628
  C  C72  1  0.564900  0.577500  0.008500  1.0  0.0393
  C  C73  1  0.523700  0.509100  0.999300  1.0  0.0096
  C  C74  1  0.612900  0.722000  0.018200  1.0  -0.133
  C  C75  1  0.432400  0.175600  0.984000  1.0  0.7132
  C  C76  1  0.017800  0.830700  0.560700  1.0  0.6576
  C  C77  1  0.019800  0.702700  0.678300  1.0  -0.0069
  C  C78  1  0.015700  0.725400  0.586800  1.0  -0.112
  C  C79  1  0.012900  0.549700  0.670800  1.0  -0.0651
  C  C80  1  0.010400  0.656000  0.544200  1.0  -0.0698
  C  C81  1  0.008500  0.564900  0.577500  1.0  0.0392
  C  C82  1  0.999300  0.523700  0.509100  1.0  0.008
  C  C83  1  0.018200  0.612900  0.722000  1.0  -0.1334
  C  C84  1  0.984000  0.432400  0.175600  1.0  0.7138
  O  O85  1  0.382000  0.977500  0.123000  1.0  -0.5349
  O  O86  1  0.520700  0.997800  0.142200  1.0  -0.5515
  O  O87  1  0.877600  0.024100  0.614600  1.0  -0.576
  O  O88  1  0.853400  0.004300  0.485800  1.0  -0.6069
  O  O89  1  0.123000  0.382000  0.977500  1.0  -0.5349
  O  O90  1  0.142200  0.520700  0.997800  1.0  -0.5544
  O  O91  1  0.614600  0.877600  0.024100  1.0  -0.5765
  O  O92  1  0.485800  0.853400  0.004300  1.0  -0.6057
  O  O93  1  0.977500  0.123000  0.382000  1.0  -0.5322
  O  O94  1  0.997800  0.142200  0.520700  1.0  -0.5528
  O  O95  1  0.024100  0.614600  0.877600  1.0  -0.5779
  O  O96  1  0.004300  0.485800  0.853400  1.0  -0.6054
  O  O97  1  0.618000  0.022500  0.877000  1.0  -0.5342
  O  O98  1  0.479300  0.002200  0.857800  1.0  -0.5514
  O  O99  1  0.122400  0.975900  0.385400  1.0  -0.5752
  O  O100  1  0.146600  0.995700  0.514200  1.0  -0.6072
  O  O101  1  0.877000  0.618000  0.022500  1.0  -0.5349
  O  O102  1  0.857800  0.479300  0.002200  1.0  -0.5525
  O  O103  1  0.385400  0.122400  0.975900  1.0  -0.5755
  O  O104  1  0.514200  0.146600  0.995700  1.0  -0.6066
  O  O105  1  0.022500  0.877000  0.618000  1.0  -0.5326
  O  O106  1  0.002200  0.857800  0.479300  1.0  -0.549
  O  O107  1  0.975900  0.385400  0.122400  1.0  -0.5772
  O  O108  1  0.995700  0.514200  0.146600  1.0  -0.605
