# generated using pymatgen
data_DyH12(C5O3)3
_symmetry_space_group_name_H-M   'P 1'
_cell_length_a   8.88020000
_cell_length_b   12.08000000
_cell_length_c   16.61500000
_cell_angle_alpha   90.00000000
_cell_angle_beta   90.00000000
_cell_angle_gamma   109.32000000
_symmetry_Int_Tables_number   1
_chemical_formula_structural   DyH12(C5O3)3
_chemical_formula_sum   'Dy4 H48 C60 O36'
_cell_volume   1681.96641431
_cell_formula_units_Z   4
loop_
 _symmetry_equiv_pos_site_id
 _symmetry_equiv_pos_as_xyz
  1  'x, y, z'
loop_
 _atom_site_type_symbol
 _atom_site_label
 _atom_site_symmetry_multiplicity
 _atom_site_fract_x
 _atom_site_fract_y
 _atom_site_fract_z
 _atom_site_occupancy
 _atom_site_charge
  Dy  Dy1  1  0.933150  0.952590  0.882210  1.0  2.305
  Dy  Dy2  1  0.566850  0.047410  0.382210  1.0  2.3031
  Dy  Dy3  1  0.066850  0.047410  0.117790  1.0  2.3031
  Dy  Dy4  1  0.433150  0.952590  0.617790  1.0  2.3044
  H  H5  1  0.470100  0.280300  0.933600  1.0  0.0942
  H  H6  1  0.377800  0.361100  0.966900  1.0  0.0864
  H  H7  1  0.628600  0.465000  0.934000  1.0  0.1057
  H  H8  1  0.403300  0.474200  0.726100  1.0  0.1144
  H  H9  1  0.822200  0.641800  0.900900  1.0  0.1063
  H  H10  1  0.596700  0.653000  0.694200  1.0  0.1247
  H  H11  1  0.909200  0.725500  0.677100  1.0  0.1011
  H  H12  1  0.827200  0.822200  0.668300  1.0  0.1112
  H  H13  1  0.251000  0.794600  0.070200  1.0  0.1018
  H  H14  1  0.381200  0.861100  0.007500  1.0  0.1279
  H  H15  1  0.201400  0.504000  0.911300  1.0  0.1087
  H  H16  1  0.013500  0.665800  0.073100  1.0  0.1178
  H  H17  1  0.029900  0.719700  0.433600  1.0  0.0944
  H  H18  1  0.122200  0.638900  0.466900  1.0  0.0864
  H  H19  1  0.871400  0.535000  0.434000  1.0  0.1053
  H  H20  1  0.096700  0.525800  0.226100  1.0  0.1151
  H  H21  1  0.677800  0.358200  0.400900  1.0  0.1062
  H  H22  1  0.903300  0.347000  0.194200  1.0  0.125
  H  H23  1  0.590800  0.274500  0.177100  1.0  0.1009
  H  H24  1  0.672800  0.177800  0.168300  1.0  0.1107
  H  H25  1  0.249000  0.205400  0.570200  1.0  0.1013
  H  H26  1  0.118800  0.138900  0.507500  1.0  0.1276
  H  H27  1  0.298600  0.496000  0.411300  1.0  0.1091
  H  H28  1  0.486500  0.334200  0.573100  1.0  0.1188
  H  H29  1  0.529900  0.719700  0.066400  1.0  0.0943
  H  H30  1  0.622200  0.638900  0.033100  1.0  0.0867
  H  H31  1  0.371400  0.535000  0.066000  1.0  0.1058
  H  H32  1  0.596700  0.525800  0.273900  1.0  0.1153
  H  H33  1  0.177800  0.358200  0.099100  1.0  0.106
  H  H34  1  0.403300  0.347000  0.305800  1.0  0.125
  H  H35  1  0.090800  0.274500  0.322900  1.0  0.1005
  H  H36  1  0.172800  0.177800  0.331700  1.0  0.1116
  H  H37  1  0.749000  0.205400  0.929800  1.0  0.1003
  H  H38  1  0.618800  0.138900  0.992500  1.0  0.1271
  H  H39  1  0.798600  0.496000  0.088700  1.0  0.1092
  H  H40  1  0.986500  0.334200  0.926900  1.0  0.1176
  H  H41  1  0.970100  0.280300  0.566400  1.0  0.0937
  H  H42  1  0.877800  0.361100  0.533100  1.0  0.086
  H  H43  1  0.128600  0.465000  0.566000  1.0  0.1053
  H  H44  1  0.903300  0.474200  0.773900  1.0  0.1147
  H  H45  1  0.322200  0.641800  0.599100  1.0  0.1066
  H  H46  1  0.096700  0.653000  0.805800  1.0  0.1245
  H  H47  1  0.409200  0.725500  0.822900  1.0  0.1009
  H  H48  1  0.327200  0.822200  0.831700  1.0  0.1109
  H  H49  1  0.751000  0.794600  0.429800  1.0  0.1014
  H  H50  1  0.881200  0.861100  0.492500  1.0  0.1277
  H  H51  1  0.701400  0.504000  0.588700  1.0  0.1093
  H  H52  1  0.513500  0.665800  0.426900  1.0  0.1176
  C  C53  1  0.229800  0.194000  0.943500  1.0  0.752
  C  C54  1  0.374300  0.301200  0.927300  1.0  -0.0656
  C  C55  1  0.495000  0.452200  0.833400  1.0  0.2505
  C  C56  1  0.621400  0.502300  0.886000  1.0  -0.2179
  C  C57  1  0.486600  0.508200  0.761700  1.0  -0.1756
  C  C58  1  0.736900  0.608700  0.866200  1.0  -0.1321
  C  C59  1  0.602300  0.615400  0.742400  1.0  -0.179
  C  C60  1  0.725600  0.664800  0.796300  1.0  0.2358
  C  C61  1  0.900200  0.796500  0.700800  1.0  -0.0808
  C  C62  1  0.062000  0.890900  0.703800  1.0  0.7697
  C  C63  1  0.158100  0.859900  0.976100  1.0  0.7394
  C  C64  1  0.273700  0.806300  0.013100  1.0  -0.0907
  C  C65  1  0.130000  0.602000  0.990800  1.0  0.2184
  C  C66  1  0.120400  0.502500  0.947100  1.0  -0.1426
  C  C67  1  0.008500  0.599200  0.043700  1.0  -0.1928
  C  C68  1  0.270200  0.806000  0.443500  1.0  0.7511
  C  C69  1  0.125700  0.698800  0.427300  1.0  -0.0638
  C  C70  1  0.005000  0.547800  0.333400  1.0  0.2503
  C  C71  1  0.878600  0.497700  0.386000  1.0  -0.2185
  C  C72  1  0.013400  0.491800  0.261700  1.0  -0.1759
  C  C73  1  0.763100  0.391300  0.366200  1.0  -0.1323
  C  C74  1  0.897700  0.384600  0.242400  1.0  -0.1793
  C  C75  1  0.774400  0.335200  0.296300  1.0  0.2353
  C  C76  1  0.599800  0.203500  0.200800  1.0  -0.0799
  C  C77  1  0.438000  0.109100  0.203800  1.0  0.7693
  C  C78  1  0.341900  0.140100  0.476100  1.0  0.7409
  C  C79  1  0.226300  0.193700  0.513100  1.0  -0.0907
  C  C80  1  0.370000  0.398000  0.490800  1.0  0.2184
  C  C81  1  0.379600  0.497500  0.447100  1.0  -0.1428
  C  C82  1  0.491500  0.400800  0.543700  1.0  -0.1926
  C  C83  1  0.770200  0.806000  0.056500  1.0  0.7517
  C  C84  1  0.625700  0.698800  0.072700  1.0  -0.0659
  C  C85  1  0.505000  0.547800  0.166600  1.0  0.2501
  C  C86  1  0.378600  0.497700  0.114000  1.0  -0.219
  C  C87  1  0.513400  0.491800  0.238300  1.0  -0.1758
  C  C88  1  0.263100  0.391300  0.133800  1.0  -0.1331
  C  C89  1  0.397700  0.384600  0.257600  1.0  -0.1794
  C  C90  1  0.274400  0.335200  0.203700  1.0  0.2353
  C  C91  1  0.099800  0.203500  0.299200  1.0  -0.0818
  C  C92  1  0.938000  0.109100  0.296200  1.0  0.7693
  C  C93  1  0.841900  0.140100  0.023900  1.0  0.7414
  C  C94  1  0.726300  0.193700  0.986900  1.0  -0.0898
  C  C95  1  0.870000  0.398000  0.009200  1.0  0.2185
  C  C96  1  0.879600  0.497500  0.052900  1.0  -0.1419
  C  C97  1  0.991500  0.400800  0.956300  1.0  -0.1935
  C  C98  1  0.729800  0.194000  0.556500  1.0  0.7556
  C  C99  1  0.874300  0.301200  0.572700  1.0  -0.0661
  C  C100  1  0.995000  0.452200  0.666667  1.0  0.2522
  C  C101  1  0.121400  0.502300  0.614000  1.0  -0.2191
  C  C102  1  0.986600  0.508200  0.738300  1.0  -0.1748
  C  C103  1  0.236900  0.608700  0.633800  1.0  -0.1326
  C  C104  1  0.102300  0.615400  0.757600  1.0  -0.1792
  C  C105  1  0.225600  0.664800  0.703700  1.0  0.2358
  C  C106  1  0.400200  0.796500  0.799200  1.0  -0.0826
  C  C107  1  0.562000  0.890900  0.796200  1.0  0.7694
  C  C108  1  0.658100  0.859900  0.523900  1.0  0.7394
  C  C109  1  0.773700  0.806300  0.486900  1.0  -0.0896
  C  C110  1  0.630000  0.602000  0.509200  1.0  0.2184
  C  C111  1  0.620400  0.502500  0.552900  1.0  -0.1416
  C  C112  1  0.508500  0.599200  0.456300  1.0  -0.1947
  O  O113  1  0.159300  0.129200  0.886530  1.0  -0.7259
  O  O114  1  0.197600  0.180200  0.017210  1.0  -0.7148
  O  O115  1  0.373500  0.348300  0.848980  1.0  -0.2573
  O  O116  1  0.841900  0.774200  0.782590  1.0  -0.3801
  O  O117  1  0.150000  0.899800  0.644060  1.0  -0.7396
  O  O118  1  0.095500  0.955100  0.765000  1.0  -0.7334
  O  O119  1  0.099100  0.827900  0.908910  1.0  -0.6446
  O  O120  1  0.131300  0.942000  0.013300  1.0  -0.85
  O  O121  1  0.266900  0.698100  0.978300  1.0  -0.2485
  O  O122  1  0.340700  0.870800  0.386530  1.0  -0.726
  O  O123  1  0.302400  0.819800  0.517210  1.0  -0.7145
  O  O124  1  0.126500  0.651700  0.348980  1.0  -0.2569
  O  O125  1  0.658100  0.225800  0.282590  1.0  -0.3811
  O  O126  1  0.350000  0.100200  0.144060  1.0  -0.7428
  O  O127  1  0.404500  0.044900  0.265000  1.0  -0.7312
  O  O128  1  0.400900  0.172100  0.408910  1.0  -0.6444
  O  O129  1  0.368700  0.058000  0.513300  1.0  -0.8484
  O  O130  1  0.233100  0.301900  0.478300  1.0  -0.2482
  O  O131  1  0.840700  0.870800  0.113470  1.0  -0.7253
  O  O132  1  0.802400  0.819800  0.982790  1.0  -0.7136
  O  O133  1  0.626500  0.651700  0.151020  1.0  -0.2574
  O  O134  1  0.158100  0.225800  0.217410  1.0  -0.3813
  O  O135  1  0.850000  0.100200  0.355940  1.0  -0.7428
  O  O136  1  0.904500  0.044900  0.235000  1.0  -0.7313
  O  O137  1  0.900900  0.172100  0.091090  1.0  -0.6438
  O  O138  1  0.868700  0.058000  0.986700  1.0  -0.8473
  O  O139  1  0.733100  0.301900  0.021700  1.0  -0.2486
  O  O140  1  0.659300  0.129200  0.613470  1.0  -0.7255
  O  O141  1  0.697600  0.180200  0.482790  1.0  -0.7143
  O  O142  1  0.873500  0.348300  0.651020  1.0  -0.2584
  O  O143  1  0.341900  0.774200  0.717410  1.0  -0.3799
  O  O144  1  0.650000  0.899800  0.855940  1.0  -0.7388
  O  O145  1  0.595500  0.955100  0.735000  1.0  -0.7336
  O  O146  1  0.599100  0.827900  0.591090  1.0  -0.6444
  O  O147  1  0.631300  0.942000  0.486700  1.0  -0.8476
  O  O148  1  0.766900  0.698100  0.521700  1.0  -0.2481
