# generated using pymatgen
data_UHC5O4
_symmetry_space_group_name_H-M   'P 1'
_cell_length_a   10.78640000
_cell_length_b   12.20530000
_cell_length_c   19.00000000
_cell_angle_alpha   90.00000000
_cell_angle_beta   92.23900000
_cell_angle_gamma   90.00000000
_symmetry_Int_Tables_number   1
_chemical_formula_structural   UHC5O4
_chemical_formula_sum   'U8 H8 C40 O32'
_cell_volume   2499.46404965
_cell_formula_units_Z   8
loop_
 _symmetry_equiv_pos_site_id
 _symmetry_equiv_pos_as_xyz
  1  'x, y, z'
loop_
 _atom_site_type_symbol
 _atom_site_label
 _atom_site_symmetry_multiplicity
 _atom_site_fract_x
 _atom_site_fract_y
 _atom_site_fract_z
 _atom_site_occupancy
 _atom_site_charge
  U  U1  1  0.407740  0.040860  0.123880  1.0  1.7137
  U  U2  1  0.033270  0.316010  0.187610  1.0  1.5073
  U  U3  1  0.592260  0.540860  0.376120  1.0  1.7133
  U  U4  1  0.966730  0.816010  0.312390  1.0  1.5085
  U  U5  1  0.592260  0.959140  0.876120  1.0  1.7321
  U  U6  1  0.966730  0.683990  0.812390  1.0  1.5078
  U  U7  1  0.407740  0.459140  0.623880  1.0  1.7284
  U  U8  1  0.033270  0.183990  0.687610  1.0  1.5065
  H  H9  1  0.373600  0.283800  0.334400  1.0  0.0869
  H  H10  1  0.126900  0.090200  0.483600  1.0  0.079
  H  H11  1  0.626400  0.783800  0.165600  1.0  0.0876
  H  H12  1  0.873100  0.590200  0.016400  1.0  0.079
  H  H13  1  0.626400  0.716200  0.665600  1.0  0.0876
  H  H14  1  0.873100  0.909800  0.516400  1.0  0.0792
  H  H15  1  0.373600  0.216200  0.834400  1.0  0.0869
  H  H16  1  0.126900  0.409800  0.983600  1.0  0.0792
  C  C17  1  0.249500  0.161200  0.338000  1.0  -0.0976
  C  C18  1  0.323300  0.245600  0.364600  1.0  -0.0526
  C  C19  1  0.323800  0.274800  0.435900  1.0  -0.1301
  C  C20  1  0.245700  0.217600  0.481400  1.0  -0.1282
  C  C21  1  0.176500  0.130000  0.453900  1.0  0.0043
  C  C22  1  0.179500  0.100300  0.383500  1.0  -0.1059
  C  C23  1  0.106300  0.001800  0.359300  1.0  0.6313
  C  C24  1  0.249800  0.146000  0.258300  1.0  0.6813
  C  C25  1  0.401800  0.373400  0.457400  1.0  0.6831
  C  C26  1  0.239000  0.242400  0.559000  1.0  0.7207
  C  C27  1  0.750500  0.661200  0.162000  1.0  -0.0971
  C  C28  1  0.676700  0.745600  0.135400  1.0  -0.0536
  C  C29  1  0.676200  0.774800  0.064100  1.0  -0.1299
  C  C30  1  0.754300  0.717600  0.018600  1.0  -0.1278
  C  C31  1  0.823500  0.630000  0.046100  1.0  0.0044
  C  C32  1  0.820500  0.600300  0.116500  1.0  -0.1061
  C  C33  1  0.893700  0.501800  0.140700  1.0  0.6307
  C  C34  1  0.750200  0.646000  0.241700  1.0  0.6841
  C  C35  1  0.598200  0.873400  0.042600  1.0  0.6829
  C  C36  1  0.761000  0.742400  0.941000  1.0  0.7186
  C  C37  1  0.750500  0.838800  0.662000  1.0  -0.097
  C  C38  1  0.676700  0.754400  0.635400  1.0  -0.0534
  C  C39  1  0.676200  0.725200  0.564100  1.0  -0.1302
  C  C40  1  0.754300  0.782400  0.518600  1.0  -0.1282
  C  C41  1  0.823500  0.870000  0.546100  1.0  0.0041
  C  C42  1  0.820500  0.899700  0.616500  1.0  -0.1054
  C  C43  1  0.893700  0.998200  0.640700  1.0  0.6296
  C  C44  1  0.750200  0.854000  0.741700  1.0  0.6828
  C  C45  1  0.598200  0.626600  0.542600  1.0  0.6846
  C  C46  1  0.761000  0.757600  0.441000  1.0  0.7187
  C  C47  1  0.249500  0.338800  0.838000  1.0  -0.0969
  C  C48  1  0.323300  0.254400  0.864600  1.0  -0.0525
  C  C49  1  0.323800  0.225200  0.935900  1.0  -0.1297
  C  C50  1  0.245700  0.282400  0.981400  1.0  -0.1283
  C  C51  1  0.176500  0.370000  0.953900  1.0  0.0038
  C  C52  1  0.179500  0.399700  0.883500  1.0  -0.1052
  C  C53  1  0.106300  0.498200  0.859300  1.0  0.6302
  C  C54  1  0.249800  0.354000  0.758300  1.0  0.6803
  C  C55  1  0.401800  0.126600  0.957400  1.0  0.6842
  C  C56  1  0.239000  0.257600  0.059000  1.0  0.7207
  O  O57  1  0.352400  0.119900  0.233800  1.0  -0.7144
  O  O58  1  0.153000  0.166000  0.223100  1.0  -0.635
  O  O59  1  0.122600  0.962700  0.298300  1.0  -0.7015
  O  O60  1  0.032200  0.956600  0.399500  1.0  -0.6502
  O  O61  1  0.136000  0.220000  0.584100  1.0  -0.7368
  O  O62  1  0.330300  0.279100  0.593500  1.0  -0.7115
  O  O63  1  0.361000  0.439000  0.500600  1.0  -0.7033
  O  O64  1  0.502900  0.383000  0.426500  1.0  -0.7495
  O  O65  1  0.647600  0.619900  0.266200  1.0  -0.7113
  O  O66  1  0.847000  0.666000  0.276900  1.0  -0.6348
  O  O67  1  0.877400  0.462700  0.201700  1.0  -0.7035
  O  O68  1  0.967800  0.456600  0.100500  1.0  -0.6492
  O  O69  1  0.864000  0.720000  0.915900  1.0  -0.7376
  O  O70  1  0.669700  0.779100  0.906500  1.0  -0.7135
  O  O71  1  0.639000  0.939000  0.999400  1.0  -0.7023
  O  O72  1  0.497100  0.883000  0.073500  1.0  -0.7495
  O  O73  1  0.647600  0.880100  0.766200  1.0  -0.7129
  O  O74  1  0.847000  0.834000  0.776900  1.0  -0.6345
  O  O75  1  0.877400  0.037300  0.701700  1.0  -0.703
  O  O76  1  0.967800  0.043400  0.600500  1.0  -0.6484
  O  O77  1  0.864000  0.780000  0.415900  1.0  -0.7383
  O  O78  1  0.669700  0.720900  0.406500  1.0  -0.7129
  O  O79  1  0.639000  0.561000  0.499400  1.0  -0.7014
  O  O80  1  0.497100  0.617000  0.573500  1.0  -0.7495
  O  O81  1  0.352400  0.380100  0.733800  1.0  -0.7155
  O  O82  1  0.153000  0.334000  0.723100  1.0  -0.6351
  O  O83  1  0.122600  0.537300  0.798300  1.0  -0.7029
  O  O84  1  0.032200  0.543400  0.899500  1.0  -0.6495
  O  O85  1  0.136000  0.280000  0.084100  1.0  -0.7371
  O  O86  1  0.330300  0.220900  0.093500  1.0  -0.7113
  O  O87  1  0.361000  0.061000  0.000600  1.0  -0.7016
  O  O88  1  0.502900  0.117000  0.926500  1.0  -0.7496
