# generated using pymatgen
data_Cd5(C7N5)2
_symmetry_space_group_name_H-M   'P 1'
_cell_length_a   10.97000000
_cell_length_b   23.74400000
_cell_length_c   15.90600000
_cell_angle_alpha   90.00000000
_cell_angle_beta   90.00000000
_cell_angle_gamma   90.00000000
_symmetry_Int_Tables_number   1
_chemical_formula_structural   Cd5(C7N5)2
_chemical_formula_sum   'Cd20 C56 N40'
_cell_volume   4143.06254208
_cell_formula_units_Z   4
loop_
 _symmetry_equiv_pos_site_id
 _symmetry_equiv_pos_as_xyz
  1  'x, y, z'
loop_
 _atom_site_type_symbol
 _atom_site_label
 _atom_site_symmetry_multiplicity
 _atom_site_fract_x
 _atom_site_fract_y
 _atom_site_fract_z
 _atom_site_occupancy
 _atom_site_charge
  Cd  Cd1  1  0.250000  0.250000  0.500000  1.0  0.9668
  Cd  Cd2  1  0.750000  0.750000  0.500000  1.0  0.9668
  Cd  Cd3  1  0.750000  0.250000  0.000000  1.0  0.9668
  Cd  Cd4  1  0.250000  0.750000  0.000000  1.0  0.9668
  Cd  Cd5  1  0.000000  0.381800  0.250000  1.0  0.8321
  Cd  Cd6  1  0.500000  0.881800  0.250000  1.0  0.8321
  Cd  Cd7  1  0.000000  0.618200  0.250000  1.0  0.832
  Cd  Cd8  1  0.500000  0.118200  0.250000  1.0  0.832
  Cd  Cd9  1  0.000000  0.618200  0.750000  1.0  0.832
  Cd  Cd10  1  0.500000  0.118200  0.750000  1.0  0.832
  Cd  Cd11  1  0.000000  0.381800  0.750000  1.0  0.8321
  Cd  Cd12  1  0.500000  0.881800  0.750000  1.0  0.8321
  Cd  Cd13  1  0.860200  0.098510  0.500000  1.0  0.5993
  Cd  Cd14  1  0.360200  0.598510  0.500000  1.0  0.5993
  Cd  Cd15  1  0.139800  0.901490  0.500000  1.0  0.5997
  Cd  Cd16  1  0.639800  0.401490  0.500000  1.0  0.5997
  Cd  Cd17  1  0.139800  0.098510  0.000000  1.0  0.5996
  Cd  Cd18  1  0.639800  0.598510  0.000000  1.0  0.5996
  Cd  Cd19  1  0.860200  0.901490  0.000000  1.0  0.5995
  Cd  Cd20  1  0.360200  0.401490  0.000000  1.0  0.5995
  C  C21  1  0.101700  0.333100  0.348100  1.0  -0.0129
  C  C22  1  0.749100  0.106400  0.614800  1.0  -0.0218
  C  C23  1  0.601700  0.833100  0.348100  1.0  -0.0129
  C  C24  1  0.249100  0.606400  0.614800  1.0  -0.0218
  C  C25  1  0.898300  0.666900  0.348100  1.0  -0.0117
  C  C26  1  0.250900  0.893600  0.614800  1.0  -0.0232
  C  C27  1  0.398300  0.166900  0.348100  1.0  -0.0117
  C  C28  1  0.750900  0.393600  0.614800  1.0  -0.0232
  C  C29  1  0.898300  0.333100  0.151900  1.0  -0.0132
  C  C30  1  0.250900  0.106400  0.885200  1.0  -0.0243
  C  C31  1  0.398300  0.833100  0.151900  1.0  -0.0132
  C  C32  1  0.750900  0.606400  0.885200  1.0  -0.0243
  C  C33  1  0.101700  0.666900  0.151900  1.0  -0.0133
  C  C34  1  0.749100  0.893600  0.885200  1.0  -0.0227
  C  C35  1  0.601700  0.166900  0.151900  1.0  -0.0133
  C  C36  1  0.249100  0.393600  0.885200  1.0  -0.0227
  C  C37  1  0.898300  0.666900  0.651900  1.0  -0.0127
  C  C38  1  0.250900  0.893600  0.385200  1.0  -0.0247
  C  C39  1  0.398300  0.166900  0.651900  1.0  -0.0127
  C  C40  1  0.750900  0.393600  0.385200  1.0  -0.0247
  C  C41  1  0.101700  0.333100  0.651900  1.0  -0.0139
  C  C42  1  0.749100  0.106400  0.385200  1.0  -0.0227
  C  C43  1  0.601700  0.833100  0.651900  1.0  -0.0139
  C  C44  1  0.249100  0.606400  0.385200  1.0  -0.0227
  C  C45  1  0.101700  0.666900  0.848100  1.0  -0.0124
  C  C46  1  0.749100  0.893600  0.114800  1.0  -0.022
  C  C47  1  0.601700  0.166900  0.848100  1.0  -0.0124
  C  C48  1  0.249100  0.393600  0.114800  1.0  -0.022
  C  C49  1  0.898300  0.333100  0.848100  1.0  -0.0123
  C  C50  1  0.250900  0.106400  0.114800  1.0  -0.0229
  C  C51  1  0.398300  0.833100  0.848100  1.0  -0.0123
  C  C52  1  0.750900  0.606400  0.114800  1.0  -0.0229
  C  C53  1  0.000000  0.476600  0.250000  1.0  -0.0471
  C  C54  1  0.500000  0.976600  0.250000  1.0  -0.0471
  C  C55  1  0.000000  0.523400  0.250000  1.0  -0.0464
  C  C56  1  0.500000  0.023400  0.250000  1.0  -0.0464
  C  C57  1  0.000000  0.523400  0.750000  1.0  -0.0464
  C  C58  1  0.500000  0.023400  0.750000  1.0  -0.0464
  C  C59  1  0.000000  0.476600  0.750000  1.0  -0.0471
  C  C60  1  0.500000  0.976600  0.750000  1.0  -0.0471
  C  C61  1  0.011400  0.161500  0.500000  1.0  -0.0251
  C  C62  1  0.969500  0.020400  0.500000  1.0  -0.078
  C  C63  1  0.511400  0.661500  0.500000  1.0  -0.0251
  C  C64  1  0.469500  0.520400  0.500000  1.0  -0.078
  C  C65  1  0.988600  0.838500  0.500000  1.0  -0.0254
  C  C66  1  0.030500  0.979600  0.500000  1.0  -0.0775
  C  C67  1  0.488600  0.338500  0.500000  1.0  -0.0254
  C  C68  1  0.530500  0.479600  0.500000  1.0  -0.0775
  C  C69  1  0.988600  0.161500  0.000000  1.0  -0.0248
  C  C70  1  0.030500  0.020400  0.000000  1.0  -0.0806
  C  C71  1  0.488600  0.661500  0.000000  1.0  -0.0248
  C  C72  1  0.530500  0.520400  0.000000  1.0  -0.0806
  C  C73  1  0.011400  0.838500  0.000000  1.0  -0.0259
  C  C74  1  0.969500  0.979600  0.000000  1.0  -0.0753
  C  C75  1  0.511400  0.338500  0.000000  1.0  -0.0259
  C  C76  1  0.469500  0.479600  0.000000  1.0  -0.0753
  N  N77  1  0.155900  0.307000  0.393900  1.0  -0.3447
  N  N78  1  0.184400  0.387200  0.167300  1.0  -0.3559
  N  N79  1  0.655900  0.807000  0.393900  1.0  -0.3447
  N  N80  1  0.684400  0.887200  0.167300  1.0  -0.3559
  N  N81  1  0.844100  0.693000  0.393900  1.0  -0.3463
  N  N82  1  0.815600  0.612800  0.167300  1.0  -0.3537
  N  N83  1  0.344100  0.193000  0.393900  1.0  -0.3463
  N  N84  1  0.315600  0.112800  0.167300  1.0  -0.3537
  N  N85  1  0.844100  0.307000  0.106100  1.0  -0.3446
  N  N86  1  0.815600  0.387200  0.332700  1.0  -0.3526
  N  N87  1  0.344100  0.807000  0.106100  1.0  -0.3446
  N  N88  1  0.315600  0.887200  0.332700  1.0  -0.3526
  N  N89  1  0.155900  0.693000  0.106100  1.0  -0.3453
  N  N90  1  0.184400  0.612800  0.332700  1.0  -0.354
  N  N91  1  0.655900  0.193000  0.106100  1.0  -0.3453
  N  N92  1  0.684400  0.112800  0.332700  1.0  -0.354
  N  N93  1  0.844100  0.693000  0.606100  1.0  -0.3456
  N  N94  1  0.815600  0.612800  0.832700  1.0  -0.3531
  N  N95  1  0.344100  0.193000  0.606100  1.0  -0.3456
  N  N96  1  0.315600  0.112800  0.832700  1.0  -0.3531
  N  N97  1  0.155900  0.307000  0.606100  1.0  -0.3441
  N  N98  1  0.184400  0.387200  0.832700  1.0  -0.3536
  N  N99  1  0.655900  0.807000  0.606100  1.0  -0.3441
  N  N100  1  0.684400  0.887200  0.832700  1.0  -0.3536
  N  N101  1  0.155900  0.693000  0.893900  1.0  -0.3459
  N  N102  1  0.184400  0.612800  0.667300  1.0  -0.3548
  N  N103  1  0.655900  0.193000  0.893900  1.0  -0.3459
  N  N104  1  0.684400  0.112800  0.667300  1.0  -0.3548
  N  N105  1  0.844100  0.307000  0.893900  1.0  -0.3452
  N  N106  1  0.815600  0.387200  0.667300  1.0  -0.3531
  N  N107  1  0.344100  0.807000  0.893900  1.0  -0.3452
  N  N108  1  0.315600  0.887200  0.667300  1.0  -0.3531
  N  N109  1  0.087100  0.192900  0.500000  1.0  -0.2961
  N  N110  1  0.587100  0.692900  0.500000  1.0  -0.2961
  N  N111  1  0.912900  0.807100  0.500000  1.0  -0.2946
  N  N112  1  0.412900  0.307100  0.500000  1.0  -0.2946
  N  N113  1  0.912900  0.192900  0.000000  1.0  -0.2958
  N  N114  1  0.412900  0.692900  0.000000  1.0  -0.2958
  N  N115  1  0.087100  0.807100  0.000000  1.0  -0.2943
  N  N116  1  0.587100  0.307100  0.000000  1.0  -0.2943
