# generated using pymatgen
data_Cd5H8(C13N6)2
_symmetry_space_group_name_H-M   'P 1'
_cell_length_a   11.06550000
_cell_length_b   13.19210000
_cell_length_c   15.78380000
_cell_angle_alpha   90.00000000
_cell_angle_beta   90.00000000
_cell_angle_gamma   114.79700000
_symmetry_Int_Tables_number   1
_chemical_formula_structural   Cd5H8(C13N6)2
_chemical_formula_sum   'Cd10 H16 C52 N24'
_cell_volume   2091.63767998
_cell_formula_units_Z   2
loop_
 _symmetry_equiv_pos_site_id
 _symmetry_equiv_pos_as_xyz
  1  'x, y, z'
loop_
 _atom_site_type_symbol
 _atom_site_label
 _atom_site_symmetry_multiplicity
 _atom_site_fract_x
 _atom_site_fract_y
 _atom_site_fract_z
 _atom_site_occupancy
 _atom_site_charge
  Cd  Cd1  1  0.500000  0.500000  0.500000  1.0  0.9082
  Cd  Cd2  1  0.000000  0.500000  0.000000  1.0  0.9082
  Cd  Cd3  1  0.617580  0.235160  0.750000  1.0  0.7461
  Cd  Cd4  1  0.382420  0.764840  0.750000  1.0  0.7461
  Cd  Cd5  1  0.382420  0.764840  0.250000  1.0  0.7459
  Cd  Cd6  1  0.617580  0.235160  0.250000  1.0  0.7459
  Cd  Cd7  1  0.037520  0.805580  0.500000  1.0  0.7111
  Cd  Cd8  1  0.962480  0.194420  0.500000  1.0  0.7098
  Cd  Cd9  1  0.768060  0.805580  0.000000  1.0  0.7097
  Cd  Cd10  1  0.231940  0.194420  0.000000  1.0  0.7111
  H  H11  1  0.278800  0.274200  0.677000  1.0  0.0853
  H  H12  1  0.189000  0.083800  0.676100  1.0  0.1163
  H  H13  1  0.721200  0.725800  0.677000  1.0  0.0843
  H  H14  1  0.811000  0.916200  0.676100  1.0  0.1161
  H  H15  1  0.995400  0.274200  0.823000  1.0  0.0847
  H  H16  1  0.894800  0.083800  0.823900  1.0  0.1156
  H  H17  1  0.004600  0.725800  0.823000  1.0  0.0852
  H  H18  1  0.105200  0.916200  0.823900  1.0  0.1161
  H  H19  1  0.721200  0.725800  0.323000  1.0  0.0847
  H  H20  1  0.811000  0.916200  0.323900  1.0  0.1157
  H  H21  1  0.278800  0.274200  0.323000  1.0  0.0851
  H  H22  1  0.189000  0.083800  0.323900  1.0  0.1161
  H  H23  1  0.004600  0.725800  0.177000  1.0  0.0851
  H  H24  1  0.105200  0.916200  0.176100  1.0  0.1165
  H  H25  1  0.995400  0.274200  0.177000  1.0  0.0844
  H  H26  1  0.894800  0.083800  0.176100  1.0  0.1157
  C  C27  1  0.565390  0.336180  0.653900  1.0  -0.0103
  C  C28  1  0.145800  0.790200  0.387700  1.0  -0.0738
  C  C29  1  0.434610  0.663820  0.653900  1.0  -0.0109
  C  C30  1  0.854200  0.209800  0.387700  1.0  -0.0734
  C  C31  1  0.770790  0.336180  0.846100  1.0  -0.0106
  C  C32  1  0.644400  0.790200  0.112300  1.0  -0.0728
  C  C33  1  0.229210  0.663820  0.846100  1.0  -0.009
  C  C34  1  0.355600  0.209800  0.112300  1.0  -0.0737
  C  C35  1  0.434610  0.663820  0.346100  1.0  -0.01
  C  C36  1  0.854200  0.209800  0.612300  1.0  -0.0729
  C  C37  1  0.565390  0.336180  0.346100  1.0  -0.0096
  C  C38  1  0.145800  0.790200  0.612300  1.0  -0.0737
  C  C39  1  0.229210  0.663820  0.153900  1.0  -0.0099
  C  C40  1  0.355600  0.209800  0.887700  1.0  -0.0742
  C  C41  1  0.770790  0.336180  0.153900  1.0  -0.0114
  C  C42  1  0.644400  0.790200  0.887700  1.0  -0.0731
  C  C43  1  0.524000  0.048000  0.750000  1.0  -0.0468
  C  C44  1  0.476000  0.952000  0.750000  1.0  -0.0469
  C  C45  1  0.476000  0.952000  0.250000  1.0  -0.0469
  C  C46  1  0.524000  0.048000  0.250000  1.0  -0.0468
  C  C47  1  0.828300  0.680200  0.500000  1.0  -0.021
  C  C48  1  0.011100  0.960200  0.500000  1.0  0.0293
  C  C49  1  0.171700  0.319800  0.500000  1.0  -0.0205
  C  C50  1  0.988900  0.039800  0.500000  1.0  0.0303
  C  C51  1  0.851900  0.680200  0.000000  1.0  -0.02
  C  C52  1  0.949100  0.960200  0.000000  1.0  0.0288
  C  C53  1  0.148100  0.319800  0.000000  1.0  -0.021
  C  C54  1  0.050900  0.039800  0.000000  1.0  0.0303
  C  C55  1  0.201000  0.234600  0.707100  1.0  0.0286
  C  C56  1  0.147600  0.121200  0.706000  1.0  -0.207
  C  C57  1  0.799000  0.765400  0.707100  1.0  0.0295
  C  C58  1  0.852400  0.878800  0.706000  1.0  -0.206
  C  C59  1  0.033600  0.234600  0.792900  1.0  0.0292
  C  C60  1  0.973600  0.121200  0.794000  1.0  -0.2066
  C  C61  1  0.966400  0.765400  0.792900  1.0  0.0284
  C  C62  1  0.026400  0.878800  0.794000  1.0  -0.207
  C  C63  1  0.031000  0.062000  0.750000  1.0  0.0802
  C  C64  1  0.206200  0.412400  0.750000  1.0  -0.0471
  C  C65  1  0.969000  0.938000  0.750000  1.0  0.0804
  C  C66  1  0.793800  0.587600  0.750000  1.0  -0.0473
  C  C67  1  0.799000  0.765400  0.292900  1.0  0.0311
  C  C68  1  0.852400  0.878800  0.294000  1.0  -0.2063
  C  C69  1  0.201000  0.234600  0.292900  1.0  0.0285
  C  C70  1  0.147600  0.121200  0.294000  1.0  -0.2069
  C  C71  1  0.966400  0.765400  0.207100  1.0  0.0273
  C  C72  1  0.026400  0.878800  0.206000  1.0  -0.2074
  C  C73  1  0.033600  0.234600  0.207100  1.0  0.029
  C  C74  1  0.973600  0.121200  0.206000  1.0  -0.2063
  C  C75  1  0.969000  0.938000  0.250000  1.0  0.0804
  C  C76  1  0.793800  0.587600  0.250000  1.0  -0.0473
  C  C77  1  0.031000  0.062000  0.250000  1.0  0.0802
  C  C78  1  0.206200  0.412400  0.250000  1.0  -0.0471
  N  N79  1  0.539520  0.389240  0.607100  1.0  -0.3726
  N  N80  1  0.431800  0.222000  0.838000  1.0  -0.3894
  N  N81  1  0.460480  0.610760  0.607100  1.0  -0.3724
  N  N82  1  0.568200  0.778000  0.838000  1.0  -0.3896
  N  N83  1  0.849720  0.389240  0.892900  1.0  -0.3735
  N  N84  1  0.790200  0.222000  0.662000  1.0  -0.3927
  N  N85  1  0.150280  0.610760  0.892900  1.0  -0.3736
  N  N86  1  0.209800  0.778000  0.662000  1.0  -0.3913
  N  N87  1  0.460480  0.610760  0.392900  1.0  -0.3731
  N  N88  1  0.568200  0.778000  0.162000  1.0  -0.3895
  N  N89  1  0.539520  0.389240  0.392900  1.0  -0.3735
  N  N90  1  0.431800  0.222000  0.162000  1.0  -0.3895
  N  N91  1  0.150280  0.610760  0.107100  1.0  -0.3727
  N  N92  1  0.209800  0.778000  0.338000  1.0  -0.3913
  N  N93  1  0.849720  0.389240  0.107100  1.0  -0.3729
  N  N94  1  0.790200  0.222000  0.338000  1.0  -0.3926
  N  N95  1  0.720100  0.618400  0.500000  1.0  -0.3917
  N  N96  1  0.279900  0.381600  0.500000  1.0  -0.3928
  N  N97  1  0.898300  0.618400  0.000000  1.0  -0.3908
  N  N98  1  0.101700  0.381600  0.000000  1.0  -0.3932
  N  N99  1  0.145000  0.290000  0.750000  1.0  0.1347
  N  N100  1  0.855000  0.710000  0.750000  1.0  0.1351
  N  N101  1  0.855000  0.710000  0.250000  1.0  0.135
  N  N102  1  0.145000  0.290000  0.250000  1.0  0.1346
