# generated using pymatgen
data_Cd3H7C13N8
_symmetry_space_group_name_H-M   'P 1'
_cell_length_a   13.71800000
_cell_length_b   27.23200000
_cell_length_c   13.63900000
_cell_angle_alpha   90.00000000
_cell_angle_beta   90.00000000
_cell_angle_gamma   90.00000000
_symmetry_Int_Tables_number   1
_chemical_formula_structural   Cd3H7C13N8
_chemical_formula_sum   'Cd24 H56 C104 N64'
_cell_volume   5095.10180806
_cell_formula_units_Z   8
loop_
 _symmetry_equiv_pos_site_id
 _symmetry_equiv_pos_as_xyz
  1  'x, y, z'
loop_
 _atom_site_type_symbol
 _atom_site_label
 _atom_site_symmetry_multiplicity
 _atom_site_fract_x
 _atom_site_fract_y
 _atom_site_fract_z
 _atom_site_occupancy
 _atom_site_charge
  Cd  Cd1  1  0.833740  0.873670  0.995990  1.0  0.922
  Cd  Cd2  1  0.470480  0.807520  0.137430  1.0  0.6482
  Cd  Cd3  1  0.222450  0.925300  0.891990  1.0  0.4772
  Cd  Cd4  1  0.666260  0.126330  0.495990  1.0  0.9221
  Cd  Cd5  1  0.029520  0.192480  0.637430  1.0  0.6477
  Cd  Cd6  1  0.277550  0.074700  0.391990  1.0  0.477
  Cd  Cd7  1  0.166260  0.373670  0.504010  1.0  0.9215
  Cd  Cd8  1  0.529520  0.307520  0.362570  1.0  0.6477
  Cd  Cd9  1  0.777550  0.425300  0.608010  1.0  0.4772
  Cd  Cd10  1  0.333740  0.626330  0.004010  1.0  0.9222
  Cd  Cd11  1  0.970480  0.692480  0.862570  1.0  0.6476
  Cd  Cd12  1  0.722450  0.574700  0.108010  1.0  0.4762
  Cd  Cd13  1  0.166260  0.126330  0.004010  1.0  0.9222
  Cd  Cd14  1  0.529520  0.192480  0.862570  1.0  0.6476
  Cd  Cd15  1  0.777550  0.074700  0.108010  1.0  0.4767
  Cd  Cd16  1  0.333740  0.873670  0.504010  1.0  0.9219
  Cd  Cd17  1  0.970480  0.807520  0.362570  1.0  0.6483
  Cd  Cd18  1  0.722450  0.925300  0.608010  1.0  0.4768
  Cd  Cd19  1  0.833740  0.626330  0.495990  1.0  0.9221
  Cd  Cd20  1  0.470480  0.692480  0.637430  1.0  0.6478
  Cd  Cd21  1  0.222450  0.574700  0.391990  1.0  0.4764
  Cd  Cd22  1  0.666260  0.373670  0.995990  1.0  0.9215
  Cd  Cd23  1  0.029520  0.307520  0.137430  1.0  0.6477
  Cd  Cd24  1  0.277550  0.425300  0.891990  1.0  0.4775
  H  H25  1  0.592500  0.919400  0.208700  1.0  0.1159
  H  H26  1  0.568200  0.929400  0.043000  1.0  0.1268
  H  H27  1  0.459900  0.062500  0.097700  1.0  0.1511
  H  H28  1  0.496600  0.053100  0.259800  1.0  0.1176
  H  H29  1  0.517900  0.954300  0.383600  1.0  0.1419
  H  H30  1  0.558800  0.008000  0.390300  1.0  0.1396
  H  H31  1  0.629200  0.964200  0.366500  1.0  0.14
  H  H32  1  0.907500  0.080600  0.708700  1.0  0.1157
  H  H33  1  0.931800  0.070600  0.543000  1.0  0.1271
  H  H34  1  0.040100  0.937500  0.597700  1.0  0.1504
  H  H35  1  0.003400  0.946900  0.759800  1.0  0.1176
  H  H36  1  0.982100  0.045700  0.883600  1.0  0.141
  H  H37  1  0.941200  0.992000  0.890300  1.0  0.1393
  H  H38  1  0.870800  0.035800  0.866500  1.0  0.1399
  H  H39  1  0.407500  0.419400  0.291300  1.0  0.1154
  H  H40  1  0.431800  0.429400  0.457000  1.0  0.1267
  H  H41  1  0.540100  0.562500  0.402300  1.0  0.1513
  H  H42  1  0.503400  0.553100  0.240200  1.0  0.1177
  H  H43  1  0.482100  0.454300  0.116400  1.0  0.1417
  H  H44  1  0.441200  0.508000  0.109700  1.0  0.1398
  H  H45  1  0.370800  0.464200  0.133500  1.0  0.1401
  H  H46  1  0.092500  0.580600  0.791300  1.0  0.1154
  H  H47  1  0.068200  0.570600  0.957000  1.0  0.1275
  H  H48  1  0.959900  0.437500  0.902300  1.0  0.1499
  H  H49  1  0.996600  0.446900  0.740200  1.0  0.1171
  H  H50  1  0.017900  0.545700  0.616400  1.0  0.1417
  H  H51  1  0.058800  0.492000  0.609700  1.0  0.1399
  H  H52  1  0.129200  0.535800  0.633500  1.0  0.1407
  H  H53  1  0.407500  0.080600  0.791300  1.0  0.1155
  H  H54  1  0.431800  0.070600  0.957000  1.0  0.1271
  H  H55  1  0.540100  0.937500  0.902300  1.0  0.1502
  H  H56  1  0.503400  0.946900  0.740200  1.0  0.1175
  H  H57  1  0.482100  0.045700  0.616400  1.0  0.1415
  H  H58  1  0.441200  0.992000  0.609700  1.0  0.1391
  H  H59  1  0.370800  0.035800  0.633500  1.0  0.1406
  H  H60  1  0.092500  0.919400  0.291300  1.0  0.1158
  H  H61  1  0.068200  0.929400  0.457000  1.0  0.1272
  H  H62  1  0.959900  0.062500  0.402300  1.0  0.1511
  H  H63  1  0.996600  0.053100  0.240200  1.0  0.1174
  H  H64  1  0.017900  0.954300  0.116400  1.0  0.142
  H  H65  1  0.058800  0.008000  0.109700  1.0  0.1407
  H  H66  1  0.129200  0.964200  0.133500  1.0  0.1405
  H  H67  1  0.592500  0.580600  0.708700  1.0  0.1156
  H  H68  1  0.568200  0.570600  0.543000  1.0  0.1271
  H  H69  1  0.459900  0.437500  0.597700  1.0  0.1501
  H  H70  1  0.496600  0.446900  0.759800  1.0  0.1175
  H  H71  1  0.517900  0.545700  0.883600  1.0  0.1409
  H  H72  1  0.558800  0.492000  0.890300  1.0  0.14
  H  H73  1  0.629200  0.535800  0.866500  1.0  0.1397
  H  H74  1  0.907500  0.419400  0.208700  1.0  0.1157
  H  H75  1  0.931800  0.429400  0.043000  1.0  0.1262
  H  H76  1  0.040100  0.562500  0.097700  1.0  0.1511
  H  H77  1  0.003400  0.553100  0.259800  1.0  0.1176
  H  H78  1  0.982100  0.454300  0.383600  1.0  0.1419
  H  H79  1  0.941200  0.508000  0.390300  1.0  0.139
  H  H80  1  0.870800  0.464200  0.366500  1.0  0.1397
  C  C81  1  0.610300  0.834900  0.075100  1.0  -0.092
  C  C82  1  0.920100  0.841700  0.224500  1.0  -0.0939
  C  C83  1  0.069800  0.904500  0.927500  1.0  -0.0694
  C  C84  1  0.757100  0.910700  0.765400  1.0  -0.0863
  C  C85  1  0.327700  0.887600  0.990000  1.0  -0.0649
  C  C86  1  0.788100  0.994000  0.073600  1.0  -0.1129
  C  C87  1  0.902400  0.760700  0.917100  1.0  -0.069
  C  C88  1  0.566400  0.948700  0.185600  1.0  0.0728
  C  C89  1  0.550300  0.954100  0.086400  1.0  -0.1096
  C  C90  1  0.508200  0.995900  0.052900  1.0  0.0855
  C  C91  1  0.488000  0.033400  0.119600  1.0  -0.1249
  C  C92  1  0.508000  0.027600  0.216000  1.0  0.0461
  C  C93  1  0.564600  0.977000  0.357200  1.0  -0.22
  C  C94  1  0.889700  0.165100  0.575100  1.0  -0.0933
  C  C95  1  0.579900  0.158300  0.724500  1.0  -0.0945
  C  C96  1  0.430200  0.095500  0.427500  1.0  -0.0707
  C  C97  1  0.742900  0.089300  0.265400  1.0  -0.0855
  C  C98  1  0.172300  0.112400  0.490000  1.0  -0.0654
  C  C99  1  0.711900  0.006000  0.573600  1.0  -0.1118
  C  C100  1  0.597600  0.239300  0.417100  1.0  -0.0708
  C  C101  1  0.933600  0.051300  0.685600  1.0  0.0727
  C  C102  1  0.949700  0.045900  0.586400  1.0  -0.1092
  C  C103  1  0.991800  0.004100  0.552900  1.0  0.0862
  C  C104  1  0.012000  0.966600  0.619600  1.0  -0.1252
  C  C105  1  0.992000  0.972400  0.716000  1.0  0.0476
  C  C106  1  0.935400  0.023000  0.857200  1.0  -0.221
  C  C107  1  0.389700  0.334900  0.424900  1.0  -0.091
  C  C108  1  0.079900  0.341700  0.275500  1.0  -0.0932
  C  C109  1  0.930200  0.404500  0.572500  1.0  -0.0687
  C  C110  1  0.242900  0.410700  0.734600  1.0  -0.0854
  C  C111  1  0.672300  0.387600  0.510000  1.0  -0.0647
  C  C112  1  0.211900  0.494000  0.426400  1.0  -0.1123
  C  C113  1  0.097600  0.260700  0.582900  1.0  -0.0706
  C  C114  1  0.433600  0.448700  0.314400  1.0  0.0729
  C  C115  1  0.449700  0.454100  0.413600  1.0  -0.1092
  C  C116  1  0.491800  0.495900  0.447100  1.0  0.086
  C  C117  1  0.512000  0.533400  0.380400  1.0  -0.1256
  C  C118  1  0.492000  0.527600  0.284000  1.0  0.046
  C  C119  1  0.435400  0.477000  0.142800  1.0  -0.2213
  C  C120  1  0.110300  0.665100  0.924900  1.0  -0.0908
  C  C121  1  0.420100  0.658300  0.775500  1.0  -0.0933
  C  C122  1  0.569800  0.595500  0.072500  1.0  -0.0724
  C  C123  1  0.257100  0.589300  0.234600  1.0  -0.0841
  C  C124  1  0.827700  0.612400  0.010000  1.0  -0.0671
  C  C125  1  0.288100  0.506000  0.926400  1.0  -0.1112
  C  C126  1  0.402400  0.739300  0.082900  1.0  -0.0712
  C  C127  1  0.066400  0.551300  0.814400  1.0  0.074
  C  C128  1  0.050300  0.545900  0.913600  1.0  -0.1108
  C  C129  1  0.008200  0.504100  0.947100  1.0  0.0856
  C  C130  1  0.988000  0.466600  0.880400  1.0  -0.1247
  C  C131  1  0.008000  0.472400  0.784000  1.0  0.0479
  C  C132  1  0.064600  0.523000  0.642800  1.0  -0.2213
  C  C133  1  0.389700  0.165100  0.924900  1.0  -0.0917
  C  C134  1  0.079900  0.158300  0.775500  1.0  -0.0931
  C  C135  1  0.930200  0.095500  0.072500  1.0  -0.0712
  C  C136  1  0.242900  0.089300  0.234600  1.0  -0.0844
  C  C137  1  0.672300  0.112400  0.010000  1.0  -0.0665
  C  C138  1  0.211900  0.006000  0.926400  1.0  -0.1112
  C  C139  1  0.097600  0.239300  0.082900  1.0  -0.0716
  C  C140  1  0.433600  0.051300  0.814400  1.0  0.0733
  C  C141  1  0.449700  0.045900  0.913600  1.0  -0.1115
  C  C142  1  0.491800  0.004100  0.947100  1.0  0.0861
  C  C143  1  0.512000  0.966600  0.880400  1.0  -0.1188
  C  C144  1  0.492000  0.972400  0.784000  1.0  0.0472
  C  C145  1  0.435400  0.023000  0.642800  1.0  -0.2214
  C  C146  1  0.110300  0.834900  0.424900  1.0  -0.0909
  C  C147  1  0.420100  0.841700  0.275500  1.0  -0.0931
  C  C148  1  0.569800  0.904500  0.572500  1.0  -0.0698
  C  C149  1  0.257100  0.910700  0.734600  1.0  -0.085
  C  C150  1  0.827700  0.887600  0.510000  1.0  -0.0657
  C  C151  1  0.288100  0.994000  0.426400  1.0  -0.1123
  C  C152  1  0.402400  0.760700  0.582900  1.0  -0.0701
  C  C153  1  0.066400  0.948700  0.314400  1.0  0.0734
  C  C154  1  0.050300  0.954100  0.413600  1.0  -0.1121
  C  C155  1  0.008200  0.995900  0.447100  1.0  0.0855
  C  C156  1  0.988000  0.033400  0.380400  1.0  -0.1181
  C  C157  1  0.008000  0.027600  0.284000  1.0  0.0467
  C  C158  1  0.064600  0.977000  0.142800  1.0  -0.221
  C  C159  1  0.610300  0.665100  0.575100  1.0  -0.0926
  C  C160  1  0.920100  0.658300  0.724500  1.0  -0.0943
  C  C161  1  0.069800  0.595500  0.427500  1.0  -0.072
  C  C162  1  0.757100  0.589300  0.265400  1.0  -0.0853
  C  C163  1  0.327700  0.612400  0.490000  1.0  -0.066
  C  C164  1  0.788100  0.506000  0.573600  1.0  -0.1117
  C  C165  1  0.902400  0.739300  0.417100  1.0  -0.0704
  C  C166  1  0.566400  0.551300  0.685600  1.0  0.0734
  C  C167  1  0.550300  0.545900  0.586400  1.0  -0.112
  C  C168  1  0.508200  0.504100  0.552900  1.0  0.0856
  C  C169  1  0.488000  0.466600  0.619600  1.0  -0.1175
  C  C170  1  0.508000  0.472400  0.716000  1.0  0.0481
  C  C171  1  0.564600  0.523000  0.857200  1.0  -0.2203
  C  C172  1  0.889700  0.334900  0.075100  1.0  -0.092
  C  C173  1  0.579900  0.341700  0.224500  1.0  -0.0942
  C  C174  1  0.430200  0.404500  0.927500  1.0  -0.0681
  C  C175  1  0.742900  0.410700  0.765400  1.0  -0.0865
  C  C176  1  0.172300  0.387600  0.990000  1.0  -0.0642
  C  C177  1  0.711900  0.494000  0.073600  1.0  -0.1128
  C  C178  1  0.597600  0.260700  0.917100  1.0  -0.0695
  C  C179  1  0.933600  0.448700  0.185600  1.0  0.0724
  C  C180  1  0.949700  0.454100  0.086400  1.0  -0.1103
  C  C181  1  0.991800  0.495900  0.052900  1.0  0.0861
  C  C182  1  0.012000  0.533400  0.119600  1.0  -0.1191
  C  C183  1  0.992000  0.527600  0.216000  1.0  0.0455
  C  C184  1  0.935400  0.477000  0.357200  1.0  -0.2209
  N  N185  1  0.680300  0.849800  0.042900  1.0  -0.3147
  N  N186  1  0.894200  0.858100  0.153800  1.0  -0.3184
  N  N187  1  0.990800  0.898200  0.948200  1.0  -0.3343
  N  N188  1  0.779200  0.901400  0.841000  1.0  -0.336
  N  N189  1  0.377100  0.866900  0.037400  1.0  -0.3261
  N  N190  1  0.800100  0.955300  0.050000  1.0  -0.3279
  N  N191  1  0.871100  0.794900  0.944700  1.0  -0.3028
  N  N192  1  0.545700  0.984100  0.248900  1.0  0.1221
  N  N193  1  0.819700  0.150200  0.542900  1.0  -0.3169
  N  N194  1  0.605800  0.141900  0.653800  1.0  -0.3198
  N  N195  1  0.509200  0.101800  0.448200  1.0  -0.3394
  N  N196  1  0.720800  0.098600  0.341000  1.0  -0.3369
  N  N197  1  0.122900  0.133100  0.537400  1.0  -0.3275
  N  N198  1  0.699900  0.044700  0.550000  1.0  -0.3303
  N  N199  1  0.628900  0.205100  0.444700  1.0  -0.2992
  N  N200  1  0.954300  0.015900  0.748900  1.0  0.1224
  N  N201  1  0.319700  0.349800  0.457100  1.0  -0.3154
  N  N202  1  0.105800  0.358100  0.346200  1.0  -0.3184
  N  N203  1  0.009200  0.398200  0.551800  1.0  -0.3343
  N  N204  1  0.220800  0.401400  0.659000  1.0  -0.3368
  N  N205  1  0.622900  0.366900  0.462600  1.0  -0.3237
  N  N206  1  0.199900  0.455300  0.450000  1.0  -0.3272
  N  N207  1  0.128900  0.294900  0.555300  1.0  -0.3014
  N  N208  1  0.454300  0.484100  0.251100  1.0  0.1215
  N  N209  1  0.180300  0.650200  0.957100  1.0  -0.3163
  N  N210  1  0.394200  0.641900  0.846200  1.0  -0.3195
  N  N211  1  0.490800  0.601800  0.051800  1.0  -0.339
  N  N212  1  0.279200  0.598600  0.159000  1.0  -0.3368
  N  N213  1  0.877100  0.633100  0.962600  1.0  -0.3282
  N  N214  1  0.300100  0.544700  0.950000  1.0  -0.3301
  N  N215  1  0.371100  0.705100  0.055300  1.0  -0.2991
  N  N216  1  0.045700  0.515900  0.751100  1.0  0.1211
  N  N217  1  0.319700  0.150200  0.957100  1.0  -0.3173
  N  N218  1  0.105800  0.141900  0.846200  1.0  -0.3195
  N  N219  1  0.009200  0.101800  0.051800  1.0  -0.3394
  N  N220  1  0.220800  0.098600  0.159000  1.0  -0.3365
  N  N221  1  0.622900  0.133100  0.962600  1.0  -0.3262
  N  N222  1  0.199900  0.044700  0.950000  1.0  -0.3299
  N  N223  1  0.128900  0.205100  0.055300  1.0  -0.2985
  N  N224  1  0.454300  0.015900  0.751100  1.0  0.1214
  N  N225  1  0.180300  0.849800  0.457100  1.0  -0.3154
  N  N226  1  0.394200  0.858100  0.346200  1.0  -0.3185
  N  N227  1  0.490800  0.898200  0.551800  1.0  -0.3348
  N  N228  1  0.279200  0.901400  0.659000  1.0  -0.3367
  N  N229  1  0.877100  0.866900  0.462600  1.0  -0.3252
  N  N230  1  0.300100  0.955300  0.450000  1.0  -0.3274
  N  N231  1  0.371100  0.794900  0.555300  1.0  -0.3021
  N  N232  1  0.045700  0.984100  0.251100  1.0  0.1211
  N  N233  1  0.680300  0.650200  0.542900  1.0  -0.3159
  N  N234  1  0.894200  0.641900  0.653800  1.0  -0.3194
  N  N235  1  0.990800  0.601800  0.448200  1.0  -0.3388
  N  N236  1  0.779200  0.598600  0.341000  1.0  -0.3369
  N  N237  1  0.377100  0.633100  0.537400  1.0  -0.329
  N  N238  1  0.800100  0.544700  0.550000  1.0  -0.3306
  N  N239  1  0.871100  0.705100  0.444700  1.0  -0.2999
  N  N240  1  0.545700  0.515900  0.748900  1.0  0.1221
  N  N241  1  0.819700  0.349800  0.042900  1.0  -0.3147
  N  N242  1  0.605800  0.358100  0.153800  1.0  -0.3189
  N  N243  1  0.509200  0.398200  0.948200  1.0  -0.3342
  N  N244  1  0.720800  0.401400  0.841000  1.0  -0.3362
  N  N245  1  0.122900  0.366900  0.037400  1.0  -0.325
  N  N246  1  0.699900  0.455300  0.050000  1.0  -0.3276
  N  N247  1  0.628900  0.294900  0.944700  1.0  -0.302
  N  N248  1  0.954300  0.484100  0.248900  1.0  0.1225
