# generated using pymatgen
data_Cd3H7C13N8
_symmetry_space_group_name_H-M   'P 1'
_cell_length_a   13.54970000
_cell_length_b   13.64540000
_cell_length_c   27.20370000
_cell_angle_alpha   90.00000000
_cell_angle_beta   90.00000000
_cell_angle_gamma   90.00000000
_symmetry_Int_Tables_number   1
_chemical_formula_structural   Cd3H7C13N8
_chemical_formula_sum   'Cd24 H56 C104 N64'
_cell_volume   5029.72137452
_cell_formula_units_Z   8
loop_
 _symmetry_equiv_pos_site_id
 _symmetry_equiv_pos_as_xyz
  1  'x, y, z'
loop_
 _atom_site_type_symbol
 _atom_site_label
 _atom_site_symmetry_multiplicity
 _atom_site_fract_x
 _atom_site_fract_y
 _atom_site_fract_z
 _atom_site_occupancy
 _atom_site_charge
  Cd  Cd1  1  0.986580  0.174330  0.124280  1.0  0.9343
  Cd  Cd2  1  0.883260  0.552310  0.191930  1.0  0.7646
  Cd  Cd3  1  0.124800  0.794450  0.076870  1.0  0.573
  Cd  Cd4  1  0.486580  0.325670  0.875720  1.0  0.9347
  Cd  Cd5  1  0.383260  0.947690  0.808070  1.0  0.7646
  Cd  Cd6  1  0.624800  0.705550  0.923130  1.0  0.5717
  Cd  Cd7  1  0.513420  0.825670  0.624280  1.0  0.9344
  Cd  Cd8  1  0.616740  0.447690  0.691930  1.0  0.7643
  Cd  Cd9  1  0.375200  0.205550  0.576870  1.0  0.5731
  Cd  Cd10  1  0.013420  0.674330  0.375720  1.0  0.935
  Cd  Cd11  1  0.116740  0.052310  0.308070  1.0  0.7629
  Cd  Cd12  1  0.875200  0.294450  0.423130  1.0  0.5723
  Cd  Cd13  1  0.013420  0.825670  0.875720  1.0  0.935
  Cd  Cd14  1  0.116740  0.447690  0.808070  1.0  0.774
  Cd  Cd15  1  0.875200  0.205550  0.923130  1.0  0.5721
  Cd  Cd16  1  0.513420  0.674330  0.124280  1.0  0.9346
  Cd  Cd17  1  0.616740  0.052310  0.191930  1.0  0.7745
  Cd  Cd18  1  0.375200  0.294450  0.076870  1.0  0.5732
  Cd  Cd19  1  0.486580  0.174330  0.375720  1.0  0.9347
  Cd  Cd20  1  0.383260  0.552310  0.308070  1.0  0.7741
  Cd  Cd21  1  0.624800  0.794450  0.423130  1.0  0.5719
  Cd  Cd22  1  0.986580  0.325670  0.624280  1.0  0.934
  Cd  Cd23  1  0.883260  0.947690  0.691930  1.0  0.7755
  Cd  Cd24  1  0.124800  0.705550  0.576870  1.0  0.5729
  H  H25  1  0.793600  0.414000  0.084900  1.0  0.1056
  H  H26  1  0.954800  0.454500  0.074800  1.0  0.1082
  H  H27  1  0.900400  0.509700  0.934500  1.0  0.1239
  H  H28  1  0.740600  0.468400  0.946800  1.0  0.1049
  H  H29  1  0.611800  0.469100  0.038600  1.0  0.1511
  H  H30  1  0.617600  0.394000  0.995100  1.0  0.144
  H  H31  1  0.643300  0.360400  0.048700  1.0  0.1332
  H  H32  1  0.206400  0.586000  0.915100  1.0  0.105
  H  H33  1  0.045200  0.545500  0.925200  1.0  0.1083
  H  H34  1  0.099600  0.490300  0.065500  1.0  0.1238
  H  H35  1  0.259400  0.531600  0.053200  1.0  0.1056
  H  H36  1  0.388200  0.530900  0.961400  1.0  0.1516
  H  H37  1  0.382400  0.606000  0.004900  1.0  0.1433
  H  H38  1  0.356700  0.639600  0.951300  1.0  0.1336
  H  H39  1  0.293600  0.086000  0.915100  1.0  0.105
  H  H40  1  0.454800  0.045500  0.925200  1.0  0.1084
  H  H41  1  0.400400  0.990300  0.065500  1.0  0.124
  H  H42  1  0.240600  0.031600  0.053200  1.0  0.1052
  H  H43  1  0.111800  0.030900  0.961400  1.0  0.1514
  H  H44  1  0.117600  0.106000  0.004900  1.0  0.1431
  H  H45  1  0.143300  0.139600  0.951300  1.0  0.1332
  H  H46  1  0.706400  0.914000  0.084900  1.0  0.1052
  H  H47  1  0.545200  0.954500  0.074800  1.0  0.1076
  H  H48  1  0.599600  0.009700  0.934500  1.0  0.1242
  H  H49  1  0.759400  0.968400  0.946800  1.0  0.1052
  H  H50  1  0.888200  0.969100  0.038600  1.0  0.1507
  H  H51  1  0.882400  0.894000  0.995100  1.0  0.1435
  H  H52  1  0.856700  0.860400  0.048700  1.0  0.1333
  H  H53  1  0.706400  0.586000  0.584900  1.0  0.1051
  H  H54  1  0.545200  0.545500  0.574800  1.0  0.1075
  H  H55  1  0.599600  0.490300  0.434500  1.0  0.1238
  H  H56  1  0.759400  0.531600  0.446800  1.0  0.1049
  H  H57  1  0.888200  0.530900  0.538600  1.0  0.1511
  H  H58  1  0.882400  0.606000  0.495100  1.0  0.1435
  H  H59  1  0.856700  0.639600  0.548700  1.0  0.1326
  H  H60  1  0.293600  0.414000  0.415100  1.0  0.1049
  H  H61  1  0.454800  0.454500  0.425200  1.0  0.1084
  H  H62  1  0.400400  0.509700  0.565500  1.0  0.1241
  H  H63  1  0.240600  0.468400  0.553200  1.0  0.1052
  H  H64  1  0.111800  0.469100  0.461400  1.0  0.152
  H  H65  1  0.117600  0.394000  0.504900  1.0  0.144
  H  H66  1  0.143300  0.360400  0.451300  1.0  0.1326
  H  H67  1  0.206400  0.914000  0.415100  1.0  0.1049
  H  H68  1  0.045200  0.954500  0.425200  1.0  0.1083
  H  H69  1  0.099600  0.009700  0.565500  1.0  0.124
  H  H70  1  0.259400  0.968400  0.553200  1.0  0.1054
  H  H71  1  0.388200  0.969100  0.461400  1.0  0.1517
  H  H72  1  0.382400  0.894000  0.504900  1.0  0.1437
  H  H73  1  0.356700  0.860400  0.451300  1.0  0.1331
  H  H74  1  0.793600  0.086000  0.584900  1.0  0.1054
  H  H75  1  0.954800  0.045500  0.574800  1.0  0.108
  H  H76  1  0.900400  0.990300  0.434500  1.0  0.1236
  H  H77  1  0.740600  0.031600  0.446800  1.0  0.1044
  H  H78  1  0.611800  0.030900  0.538600  1.0  0.151
  H  H79  1  0.617600  0.106000  0.495100  1.0  0.1437
  H  H80  1  0.643300  0.139600  0.548700  1.0  0.1325
  C  C81  1  0.923800  0.402000  0.169200  1.0  -0.1087
  C  C82  1  0.760600  0.089700  0.159700  1.0  -0.0319
  C  C83  1  0.075700  0.944300  0.094000  1.0  -0.0648
  C  C84  1  0.218000  0.263700  0.088900  1.0  -0.0302
  C  C85  1  0.030800  0.688700  0.116200  1.0  -0.0109
  C  C86  1  0.906500  0.211800  0.004000  1.0  -0.0946
  C  C87  1  0.074700  0.107400  0.236700  1.0  -0.0311
  C  C88  1  0.423800  0.098000  0.830800  1.0  -0.1084
  C  C89  1  0.260600  0.410300  0.840300  1.0  -0.0297
  C  C90  1  0.575700  0.555700  0.906000  1.0  -0.0652
  C  C91  1  0.718000  0.236300  0.911100  1.0  -0.0277
  C  C92  1  0.530800  0.811300  0.883800  1.0  -0.0074
  C  C93  1  0.406500  0.288200  0.996000  1.0  -0.0954
  C  C94  1  0.574700  0.392600  0.763300  1.0  -0.0302
  C  C95  1  0.576200  0.598000  0.669200  1.0  -0.1089
  C  C96  1  0.739400  0.910300  0.659700  1.0  -0.031
  C  C97  1  0.424300  0.055700  0.594000  1.0  -0.0661
  C  C98  1  0.282000  0.736300  0.588900  1.0  -0.0299
  C  C99  1  0.469200  0.311300  0.616200  1.0  -0.011
  C  C100  1  0.593500  0.788200  0.504000  1.0  -0.0945
  C  C101  1  0.425300  0.892600  0.736700  1.0  -0.0312
  C  C102  1  0.076200  0.902000  0.330800  1.0  -0.1076
  C  C103  1  0.239400  0.589700  0.340300  1.0  -0.0301
  C  C104  1  0.924300  0.444300  0.406000  1.0  -0.0641
  C  C105  1  0.782000  0.763700  0.411100  1.0  -0.0286
  C  C106  1  0.969200  0.188700  0.383800  1.0  -0.0081
  C  C107  1  0.093500  0.711800  0.496000  1.0  -0.0952
  C  C108  1  0.925300  0.607400  0.263300  1.0  -0.0301
  C  C109  1  0.076200  0.598000  0.830800  1.0  -0.1083
  C  C110  1  0.239400  0.910300  0.840300  1.0  -0.0296
  C  C111  1  0.924300  0.055700  0.906000  1.0  -0.0635
  C  C112  1  0.782000  0.736300  0.911100  1.0  -0.0282
  C  C113  1  0.969200  0.311300  0.883800  1.0  -0.0086
  C  C114  1  0.093500  0.788200  0.996000  1.0  -0.095
  C  C115  1  0.925300  0.892600  0.763300  1.0  -0.0301
  C  C116  1  0.576200  0.902000  0.169200  1.0  -0.1087
  C  C117  1  0.739400  0.589700  0.159700  1.0  -0.0317
  C  C118  1  0.424300  0.444300  0.094000  1.0  -0.0634
  C  C119  1  0.282000  0.763700  0.088900  1.0  -0.0305
  C  C120  1  0.469200  0.188700  0.116200  1.0  -0.0116
  C  C121  1  0.593500  0.711800  0.004000  1.0  -0.0944
  C  C122  1  0.425300  0.607400  0.236700  1.0  -0.0309
  C  C123  1  0.423800  0.402000  0.330800  1.0  -0.1076
  C  C124  1  0.260600  0.089700  0.340300  1.0  -0.0305
  C  C125  1  0.575700  0.944300  0.406000  1.0  -0.0632
  C  C126  1  0.718000  0.263700  0.411100  1.0  -0.0284
  C  C127  1  0.530800  0.688700  0.383800  1.0  -0.0075
  C  C128  1  0.406500  0.211800  0.496000  1.0  -0.0956
  C  C129  1  0.574700  0.107400  0.263300  1.0  -0.0305
  C  C130  1  0.923800  0.098000  0.669200  1.0  -0.1091
  C  C131  1  0.760600  0.410300  0.659700  1.0  -0.0315
  C  C132  1  0.075700  0.555700  0.594000  1.0  -0.0647
  C  C133  1  0.218000  0.236300  0.588900  1.0  -0.0293
  C  C134  1  0.030800  0.811300  0.616200  1.0  -0.0101
  C  C135  1  0.906500  0.288200  0.504000  1.0  -0.0946
  C  C136  1  0.074700  0.392600  0.736700  1.0  -0.031
  C  C137  1  0.815500  0.434700  0.054200  1.0  0.0683
  C  C138  1  0.912000  0.458300  0.048100  1.0  -0.1543
  C  C139  1  0.947300  0.487400  0.003700  1.0  0.0786
  C  C140  1  0.879800  0.490700  0.965700  1.0  -0.1392
  C  C141  1  0.784500  0.466700  0.973100  1.0  0.057
  C  C142  1  0.646800  0.413600  0.025700  1.0  -0.2167
  C  C143  1  0.184500  0.565300  0.945800  1.0  0.0676
  C  C144  1  0.088000  0.541700  0.951900  1.0  -0.1539
  C  C145  1  0.052700  0.512600  0.996300  1.0  0.0789
  C  C146  1  0.120200  0.509300  0.034300  1.0  -0.1313
  C  C147  1  0.215500  0.533300  0.026900  1.0  0.0585
  C  C148  1  0.353200  0.586400  0.974300  1.0  -0.2176
  C  C149  1  0.315500  0.065300  0.945800  1.0  0.0686
  C  C150  1  0.412000  0.041700  0.951900  1.0  -0.1545
  C  C151  1  0.447300  0.012600  0.996300  1.0  0.0784
  C  C152  1  0.379800  0.009300  0.034300  1.0  -0.138
  C  C153  1  0.284500  0.033300  0.026900  1.0  0.0571
  C  C154  1  0.146800  0.086400  0.974300  1.0  -0.2168
  C  C155  1  0.684500  0.934700  0.054200  1.0  0.069
  C  C156  1  0.588000  0.958300  0.048100  1.0  -0.1535
  C  C157  1  0.552700  0.987400  0.003700  1.0  0.0791
  C  C158  1  0.620200  0.990700  0.965700  1.0  -0.1324
  C  C159  1  0.715500  0.966700  0.973100  1.0  0.057
  C  C160  1  0.853200  0.913600  0.025700  1.0  -0.2174
  C  C161  1  0.684500  0.565300  0.554200  1.0  0.0689
  C  C162  1  0.588000  0.541700  0.548100  1.0  -0.1536
  C  C163  1  0.552700  0.512600  0.503700  1.0  0.0791
  C  C164  1  0.620200  0.509300  0.465700  1.0  -0.1381
  C  C165  1  0.715500  0.533300  0.473100  1.0  0.0571
  C  C166  1  0.853200  0.586400  0.525700  1.0  -0.2175
  C  C167  1  0.315500  0.434700  0.445800  1.0  0.0686
  C  C168  1  0.412000  0.458300  0.451900  1.0  -0.1547
  C  C169  1  0.447300  0.487400  0.496300  1.0  0.0783
  C  C170  1  0.379800  0.490700  0.534300  1.0  -0.1326
  C  C171  1  0.284500  0.466700  0.526900  1.0  0.0571
  C  C172  1  0.146800  0.413600  0.474300  1.0  -0.2169
  C  C173  1  0.184500  0.934700  0.445800  1.0  0.0675
  C  C174  1  0.088000  0.958300  0.451900  1.0  -0.1543
  C  C175  1  0.052700  0.987400  0.496300  1.0  0.0788
  C  C176  1  0.120200  0.990700  0.534300  1.0  -0.1378
  C  C177  1  0.215500  0.966700  0.526900  1.0  0.0585
  C  C178  1  0.353200  0.913600  0.474300  1.0  -0.2177
  C  C179  1  0.815500  0.065300  0.554200  1.0  0.0681
  C  C180  1  0.912000  0.041700  0.548100  1.0  -0.154
  C  C181  1  0.947300  0.012600  0.503700  1.0  0.0786
  C  C182  1  0.879800  0.009300  0.465700  1.0  -0.1329
  C  C183  1  0.784500  0.033300  0.473100  1.0  0.057
  C  C184  1  0.646800  0.086400  0.525700  1.0  -0.2167
  N  N185  1  0.943900  0.328600  0.153240  1.0  -0.3645
  N  N186  1  0.833500  0.110600  0.142700  1.0  -0.3794
  N  N187  1  0.046400  0.021100  0.098090  1.0  -0.3607
  N  N188  1  0.138300  0.242500  0.096900  1.0  -0.3576
  N  N189  1  0.981300  0.636800  0.138200  1.0  -0.3921
  N  N190  1  0.926600  0.205600  0.044010  1.0  -0.376
  N  N191  1  0.051500  0.138200  0.199800  1.0  -0.3711
  N  N192  1  0.443900  0.171400  0.846760  1.0  -0.3653
  N  N193  1  0.333500  0.389400  0.857300  1.0  -0.3786
  N  N194  1  0.546400  0.478900  0.901910  1.0  -0.3616
  N  N195  1  0.638300  0.257500  0.903100  1.0  -0.3574
  N  N196  1  0.481300  0.863200  0.861800  1.0  -0.3901
  N  N197  1  0.426600  0.294400  0.955990  1.0  -0.3753
  N  N198  1  0.551500  0.361800  0.800200  1.0  -0.3729
  N  N199  1  0.556100  0.671400  0.653240  1.0  -0.3652
  N  N200  1  0.666500  0.889400  0.642700  1.0  -0.3803
  N  N201  1  0.453600  0.978900  0.598090  1.0  -0.3607
  N  N202  1  0.361700  0.757500  0.596900  1.0  -0.3572
  N  N203  1  0.518700  0.363200  0.638200  1.0  -0.3897
  N  N204  1  0.573400  0.794400  0.544010  1.0  -0.3757
  N  N205  1  0.448500  0.861800  0.699800  1.0  -0.3715
  N  N206  1  0.056100  0.828600  0.346760  1.0  -0.3661
  N  N207  1  0.166500  0.610600  0.357300  1.0  -0.3799
  N  N208  1  0.953600  0.521100  0.401910  1.0  -0.3609
  N  N209  1  0.861700  0.742500  0.403100  1.0  -0.3579
  N  N210  1  0.018700  0.136800  0.361800  1.0  -0.3911
  N  N211  1  0.073400  0.705600  0.455990  1.0  -0.3745
  N  N212  1  0.948500  0.638200  0.300200  1.0  -0.3728
  N  N213  1  0.056100  0.671400  0.846760  1.0  -0.3653
  N  N214  1  0.166500  0.889400  0.857300  1.0  -0.3798
  N  N215  1  0.953600  0.978900  0.901910  1.0  -0.3616
  N  N216  1  0.861700  0.757500  0.903100  1.0  -0.3577
  N  N217  1  0.018700  0.363200  0.861800  1.0  -0.3898
  N  N218  1  0.073400  0.794400  0.955990  1.0  -0.3746
  N  N219  1  0.948500  0.861800  0.800200  1.0  -0.3727
  N  N220  1  0.556100  0.828600  0.153240  1.0  -0.365
  N  N221  1  0.666500  0.610600  0.142700  1.0  -0.3807
  N  N222  1  0.453600  0.521100  0.098090  1.0  -0.3611
  N  N223  1  0.361700  0.742500  0.096900  1.0  -0.3576
  N  N224  1  0.518700  0.136800  0.138200  1.0  -0.3908
  N  N225  1  0.573400  0.705600  0.044010  1.0  -0.3756
  N  N226  1  0.448500  0.638200  0.199800  1.0  -0.3716
  N  N227  1  0.443900  0.328600  0.346760  1.0  -0.3658
  N  N228  1  0.333500  0.110600  0.357300  1.0  -0.3785
  N  N229  1  0.546400  0.021100  0.401910  1.0  -0.3608
  N  N230  1  0.638300  0.242500  0.403100  1.0  -0.3579
  N  N231  1  0.481300  0.636800  0.361800  1.0  -0.3918
  N  N232  1  0.426600  0.205600  0.455990  1.0  -0.3752
  N  N233  1  0.551500  0.138200  0.300200  1.0  -0.373
  N  N234  1  0.943900  0.171400  0.653240  1.0  -0.3648
  N  N235  1  0.833500  0.389400  0.642700  1.0  -0.3795
  N  N236  1  0.046400  0.478900  0.598090  1.0  -0.3606
  N  N237  1  0.138300  0.257500  0.596900  1.0  -0.3571
  N  N238  1  0.981300  0.863200  0.638200  1.0  -0.3901
  N  N239  1  0.926600  0.294400  0.544010  1.0  -0.3761
  N  N240  1  0.051500  0.361800  0.699800  1.0  -0.3711
  N  N241  1  0.751800  0.440600  0.017500  1.0  0.1242
  N  N242  1  0.248200  0.559400  0.982500  1.0  0.1249
  N  N243  1  0.251800  0.059400  0.982500  1.0  0.1246
  N  N244  1  0.748200  0.940600  0.017500  1.0  0.1245
  N  N245  1  0.748200  0.559400  0.517500  1.0  0.1246
  N  N246  1  0.251800  0.440600  0.482500  1.0  0.1245
  N  N247  1  0.248200  0.940600  0.482500  1.0  0.1248
  N  N248  1  0.751800  0.059400  0.517500  1.0  0.1242
