# generated using pymatgen
data_Cd3H7C13N8
_symmetry_space_group_name_H-M   'P 1'
_cell_length_a   13.74000000
_cell_length_b   27.03000000
_cell_length_c   13.64700000
_cell_angle_alpha   90.00000000
_cell_angle_beta   90.00000000
_cell_angle_gamma   90.00000000
_symmetry_Int_Tables_number   1
_chemical_formula_structural   Cd3H7C13N8
_chemical_formula_sum   'Cd24 H56 C104 N64'
_cell_volume   5068.38935340
_cell_formula_units_Z   8
loop_
 _symmetry_equiv_pos_site_id
 _symmetry_equiv_pos_as_xyz
  1  'x, y, z'
loop_
 _atom_site_type_symbol
 _atom_site_label
 _atom_site_symmetry_multiplicity
 _atom_site_fract_x
 _atom_site_fract_y
 _atom_site_fract_z
 _atom_site_occupancy
 _atom_site_charge
  Cd  Cd1  1  0.832080  0.874810  0.997670  1.0  0.9258
  Cd  Cd2  1  0.469770  0.807490  0.136800  1.0  0.6449
  Cd  Cd3  1  0.220780  0.923250  0.890890  1.0  0.4748
  Cd  Cd4  1  0.667920  0.125190  0.497670  1.0  0.9258
  Cd  Cd5  1  0.030230  0.192510  0.636800  1.0  0.6455
  Cd  Cd6  1  0.279220  0.076750  0.390890  1.0  0.4733
  Cd  Cd7  1  0.167920  0.374810  0.502330  1.0  0.9253
  Cd  Cd8  1  0.530230  0.307490  0.363200  1.0  0.645
  Cd  Cd9  1  0.779220  0.423250  0.609110  1.0  0.4751
  Cd  Cd10  1  0.332080  0.625190  0.002330  1.0  0.9252
  Cd  Cd11  1  0.969770  0.692510  0.863200  1.0  0.6449
  Cd  Cd12  1  0.720780  0.576750  0.109110  1.0  0.4731
  Cd  Cd13  1  0.167920  0.125190  0.002330  1.0  0.9252
  Cd  Cd14  1  0.530230  0.192510  0.863200  1.0  0.6454
  Cd  Cd15  1  0.779220  0.076750  0.109110  1.0  0.4733
  Cd  Cd16  1  0.332080  0.874810  0.502330  1.0  0.9253
  Cd  Cd17  1  0.969770  0.807490  0.363200  1.0  0.645
  Cd  Cd18  1  0.720780  0.923250  0.609110  1.0  0.4749
  Cd  Cd19  1  0.832080  0.625190  0.497670  1.0  0.9257
  Cd  Cd20  1  0.469770  0.692510  0.636800  1.0  0.6449
  Cd  Cd21  1  0.220780  0.576750  0.390890  1.0  0.4731
  Cd  Cd22  1  0.667920  0.374810  0.997670  1.0  0.9259
  Cd  Cd23  1  0.030230  0.307490  0.136800  1.0  0.6449
  Cd  Cd24  1  0.279220  0.423250  0.890890  1.0  0.475
  H  H25  1  0.595300  0.919800  0.211500  1.0  0.1212
  H  H26  1  0.566300  0.928900  0.045800  1.0  0.1223
  H  H27  1  0.463400  0.064300  0.099600  1.0  0.1424
  H  H28  1  0.492900  0.050800  0.262400  1.0  0.1109
  H  H29  1  0.587200  0.944100  0.370000  1.0  0.135
  H  H30  1  0.511700  0.985800  0.395000  1.0  0.1384
  H  H31  1  0.620800  0.999500  0.375500  1.0  0.1393
  H  H32  1  0.904700  0.080200  0.711500  1.0  0.1214
  H  H33  1  0.933700  0.071100  0.545800  1.0  0.1231
  H  H34  1  0.036600  0.935700  0.599600  1.0  0.1422
  H  H35  1  0.007100  0.949200  0.762400  1.0  0.1117
  H  H36  1  0.912800  0.055900  0.870000  1.0  0.1373
  H  H37  1  0.988300  0.014200  0.895000  1.0  0.1379
  H  H38  1  0.879200  0.000500  0.875500  1.0  0.1392
  H  H39  1  0.404700  0.419800  0.288500  1.0  0.1211
  H  H40  1  0.433700  0.428900  0.454200  1.0  0.1225
  H  H41  1  0.536600  0.564300  0.400400  1.0  0.1428
  H  H42  1  0.507100  0.550800  0.237600  1.0  0.1113
  H  H43  1  0.412800  0.444100  0.130000  1.0  0.1333
  H  H44  1  0.488300  0.485800  0.105000  1.0  0.1381
  H  H45  1  0.379200  0.499500  0.124500  1.0  0.1396
  H  H46  1  0.095300  0.580200  0.788500  1.0  0.1211
  H  H47  1  0.066300  0.571100  0.954200  1.0  0.1225
  H  H48  1  0.963400  0.435700  0.900400  1.0  0.1417
  H  H49  1  0.992900  0.449200  0.737600  1.0  0.1115
  H  H50  1  0.087200  0.555900  0.630000  1.0  0.136
  H  H51  1  0.011700  0.514200  0.605000  1.0  0.1387
  H  H52  1  0.120800  0.500500  0.624500  1.0  0.1394
  H  H53  1  0.404700  0.080200  0.788500  1.0  0.1216
  H  H54  1  0.433700  0.071100  0.954200  1.0  0.1227
  H  H55  1  0.536600  0.935700  0.900400  1.0  0.1423
  H  H56  1  0.507100  0.949200  0.737600  1.0  0.1117
  H  H57  1  0.412800  0.055900  0.630000  1.0  0.1365
  H  H58  1  0.488300  0.014200  0.605000  1.0  0.1381
  H  H59  1  0.379200  0.000500  0.624500  1.0  0.139
  H  H60  1  0.095300  0.919800  0.288500  1.0  0.1209
  H  H61  1  0.066300  0.928900  0.454200  1.0  0.1222
  H  H62  1  0.963400  0.064300  0.400400  1.0  0.1425
  H  H63  1  0.992900  0.050800  0.237600  1.0  0.1113
  H  H64  1  0.087200  0.944100  0.130000  1.0  0.1343
  H  H65  1  0.011700  0.985800  0.105000  1.0  0.1385
  H  H66  1  0.120800  0.999500  0.124500  1.0  0.1396
  H  H67  1  0.595300  0.580200  0.711500  1.0  0.1211
  H  H68  1  0.566300  0.571100  0.545800  1.0  0.1226
  H  H69  1  0.463400  0.435700  0.599600  1.0  0.1419
  H  H70  1  0.492900  0.449200  0.762400  1.0  0.1115
  H  H71  1  0.587200  0.555900  0.870000  1.0  0.1367
  H  H72  1  0.511700  0.514200  0.895000  1.0  0.1383
  H  H73  1  0.620800  0.500500  0.875500  1.0  0.1394
  H  H74  1  0.904700  0.419800  0.211500  1.0  0.1213
  H  H75  1  0.933700  0.428900  0.045800  1.0  0.1227
  H  H76  1  0.036600  0.564300  0.099600  1.0  0.1424
  H  H77  1  0.007100  0.550800  0.262400  1.0  0.111
  H  H78  1  0.912800  0.444100  0.370000  1.0  0.134
  H  H79  1  0.988300  0.485800  0.395000  1.0  0.1381
  H  H80  1  0.879200  0.499500  0.375500  1.0  0.1395
  C  C81  1  0.609800  0.832900  0.074600  1.0  -0.0878
  C  C82  1  0.921500  0.841300  0.223700  1.0  -0.0951
  C  C83  1  0.068000  0.903100  0.926800  1.0  -0.0762
  C  C84  1  0.756100  0.910800  0.765800  1.0  -0.0867
  C  C85  1  0.326200  0.886400  0.988900  1.0  -0.0642
  C  C86  1  0.787600  0.995500  0.076200  1.0  -0.1132
  C  C87  1  0.901000  0.761400  0.917000  1.0  -0.0667
  C  C88  1  0.567800  0.948900  0.188200  1.0  0.058
  C  C89  1  0.550000  0.954500  0.088100  1.0  -0.1058
  C  C90  1  0.509100  0.996800  0.050300  1.0  0.0906
  C  C91  1  0.489200  0.034200  0.120000  1.0  -0.1342
  C  C92  1  0.508000  0.026200  0.217300  1.0  0.0408
  C  C93  1  0.568600  0.977800  0.357400  1.0  -0.2218
  C  C94  1  0.890200  0.167100  0.574600  1.0  -0.0883
  C  C95  1  0.578500  0.158700  0.723700  1.0  -0.0971
  C  C96  1  0.432000  0.096900  0.426800  1.0  -0.0769
  C  C97  1  0.743900  0.089200  0.265800  1.0  -0.0861
  C  C98  1  0.173800  0.113600  0.488900  1.0  -0.0652
  C  C99  1  0.712400  0.004500  0.576200  1.0  -0.1112
  C  C100  1  0.599000  0.238600  0.417000  1.0  -0.0685
  C  C101  1  0.932200  0.051100  0.688200  1.0  0.0582
  C  C102  1  0.950000  0.045500  0.588100  1.0  -0.1068
  C  C103  1  0.990900  0.003200  0.550300  1.0  0.0907
  C  C104  1  0.010800  0.965800  0.620000  1.0  -0.1341
  C  C105  1  0.992000  0.973800  0.717300  1.0  0.0426
  C  C106  1  0.931400  0.022200  0.857400  1.0  -0.2225
  C  C107  1  0.390200  0.332900  0.425400  1.0  -0.0868
  C  C108  1  0.078500  0.341300  0.276300  1.0  -0.095
  C  C109  1  0.932000  0.403100  0.573200  1.0  -0.0768
  C  C110  1  0.243900  0.410800  0.734200  1.0  -0.0851
  C  C111  1  0.673800  0.386400  0.511100  1.0  -0.0645
  C  C112  1  0.212400  0.495500  0.423800  1.0  -0.112
  C  C113  1  0.099000  0.261400  0.583000  1.0  -0.0679
  C  C114  1  0.432200  0.448900  0.311800  1.0  0.0577
  C  C115  1  0.450000  0.454500  0.411900  1.0  -0.1063
  C  C116  1  0.490900  0.496800  0.449700  1.0  0.0906
  C  C117  1  0.510800  0.534200  0.380000  1.0  -0.1353
  C  C118  1  0.492000  0.526200  0.282700  1.0  0.0433
  C  C119  1  0.431400  0.477800  0.142600  1.0  -0.2231
  C  C120  1  0.109800  0.667100  0.925400  1.0  -0.0865
  C  C121  1  0.421500  0.658700  0.776300  1.0  -0.0958
  C  C122  1  0.568000  0.596900  0.073200  1.0  -0.0791
  C  C123  1  0.256100  0.589200  0.234200  1.0  -0.0838
  C  C124  1  0.826200  0.613600  0.011100  1.0  -0.0667
  C  C125  1  0.287600  0.504500  0.923800  1.0  -0.1104
  C  C126  1  0.401000  0.738600  0.083000  1.0  -0.069
  C  C127  1  0.067800  0.551100  0.811800  1.0  0.0598
  C  C128  1  0.050000  0.545500  0.911900  1.0  -0.1063
  C  C129  1  0.009100  0.503200  0.949700  1.0  0.0905
  C  C130  1  0.989200  0.465800  0.880000  1.0  -0.1339
  C  C131  1  0.008000  0.473800  0.782700  1.0  0.0415
  C  C132  1  0.068600  0.522200  0.642600  1.0  -0.2235
  C  C133  1  0.390200  0.167100  0.925400  1.0  -0.0872
  C  C134  1  0.078500  0.158700  0.776300  1.0  -0.0963
  C  C135  1  0.932000  0.096900  0.073200  1.0  -0.0776
  C  C136  1  0.243900  0.089200  0.234200  1.0  -0.0849
  C  C137  1  0.673800  0.113600  0.011100  1.0  -0.0664
  C  C138  1  0.212400  0.004500  0.923800  1.0  -0.1095
  C  C139  1  0.099000  0.238600  0.083000  1.0  -0.0692
  C  C140  1  0.432200  0.051100  0.811800  1.0  0.059
  C  C141  1  0.450000  0.045500  0.911900  1.0  -0.108
  C  C142  1  0.490900  0.003200  0.949700  1.0  0.0906
  C  C143  1  0.510800  0.965800  0.880000  1.0  -0.1354
  C  C144  1  0.492000  0.973800  0.782700  1.0  0.0428
  C  C145  1  0.431400  0.022200  0.642600  1.0  -0.2237
  C  C146  1  0.109800  0.832900  0.425400  1.0  -0.0869
  C  C147  1  0.421500  0.841300  0.276300  1.0  -0.0952
  C  C148  1  0.568000  0.903100  0.573200  1.0  -0.077
  C  C149  1  0.256100  0.910800  0.734200  1.0  -0.0845
  C  C150  1  0.826200  0.886400  0.511100  1.0  -0.0651
  C  C151  1  0.287600  0.995500  0.423800  1.0  -0.1113
  C  C152  1  0.401000  0.761400  0.583000  1.0  -0.0677
  C  C153  1  0.067800  0.948900  0.311800  1.0  0.0579
  C  C154  1  0.050000  0.954500  0.411900  1.0  -0.1079
  C  C155  1  0.009100  0.996800  0.449700  1.0  0.0905
  C  C156  1  0.989200  0.034200  0.380000  1.0  -0.1353
  C  C157  1  0.008000  0.026200  0.282700  1.0  0.0418
  C  C158  1  0.068600  0.977800  0.142600  1.0  -0.2231
  C  C159  1  0.609800  0.667100  0.574600  1.0  -0.0878
  C  C160  1  0.921500  0.658700  0.723700  1.0  -0.0972
  C  C161  1  0.068000  0.596900  0.426800  1.0  -0.078
  C  C162  1  0.756100  0.589200  0.265800  1.0  -0.0856
  C  C163  1  0.326200  0.613600  0.488900  1.0  -0.0658
  C  C164  1  0.787600  0.504500  0.576200  1.0  -0.1107
  C  C165  1  0.901000  0.738600  0.417000  1.0  -0.0683
  C  C166  1  0.567800  0.551100  0.688200  1.0  0.0591
  C  C167  1  0.550000  0.545500  0.588100  1.0  -0.1079
  C  C168  1  0.509100  0.503200  0.550300  1.0  0.0906
  C  C169  1  0.489200  0.465800  0.620000  1.0  -0.1335
  C  C170  1  0.508000  0.473800  0.717300  1.0  0.0413
  C  C171  1  0.568600  0.522200  0.857400  1.0  -0.2225
  C  C172  1  0.890200  0.332900  0.074600  1.0  -0.0874
  C  C173  1  0.578500  0.341300  0.223700  1.0  -0.0964
  C  C174  1  0.432000  0.403100  0.926800  1.0  -0.0757
  C  C175  1  0.743900  0.410800  0.765800  1.0  -0.087
  C  C176  1  0.173800  0.386400  0.988900  1.0  -0.0637
  C  C177  1  0.712400  0.495500  0.076200  1.0  -0.1127
  C  C178  1  0.599000  0.261400  0.917000  1.0  -0.0669
  C  C179  1  0.932200  0.448900  0.188200  1.0  0.0577
  C  C180  1  0.950000  0.454500  0.088100  1.0  -0.1074
  C  C181  1  0.990900  0.496800  0.050300  1.0  0.0907
  C  C182  1  0.010800  0.534200  0.120000  1.0  -0.1357
  C  C183  1  0.992000  0.526200  0.217300  1.0  0.0424
  C  C184  1  0.931400  0.477800  0.357400  1.0  -0.2218
  N  N185  1  0.680700  0.849000  0.043300  1.0  -0.3128
  N  N186  1  0.894400  0.856600  0.154000  1.0  -0.3088
  N  N187  1  0.988600  0.897300  0.948000  1.0  -0.3285
  N  N188  1  0.775900  0.902000  0.842700  1.0  -0.3239
  N  N189  1  0.377000  0.866700  0.037500  1.0  -0.3327
  N  N190  1  0.799700  0.955200  0.054600  1.0  -0.3303
  N  N191  1  0.868800  0.796200  0.943000  1.0  -0.2961
  N  N192  1  0.546400  0.984000  0.248800  1.0  0.1462
  N  N193  1  0.819300  0.151000  0.543300  1.0  -0.3161
  N  N194  1  0.605600  0.143400  0.654000  1.0  -0.3097
  N  N195  1  0.511400  0.102700  0.448000  1.0  -0.3305
  N  N196  1  0.724100  0.098000  0.342700  1.0  -0.326
  N  N197  1  0.123000  0.133300  0.537500  1.0  -0.333
  N  N198  1  0.700300  0.044800  0.554600  1.0  -0.3324
  N  N199  1  0.631200  0.203800  0.443000  1.0  -0.2958
  N  N200  1  0.953600  0.016000  0.748800  1.0  0.1463
  N  N201  1  0.319300  0.349000  0.456700  1.0  -0.315
  N  N202  1  0.105600  0.356600  0.346000  1.0  -0.3086
  N  N203  1  0.011400  0.397300  0.552000  1.0  -0.3283
  N  N204  1  0.224100  0.402000  0.657300  1.0  -0.3261
  N  N205  1  0.623000  0.366700  0.462500  1.0  -0.3297
  N  N206  1  0.200300  0.455200  0.445400  1.0  -0.3303
  N  N207  1  0.131200  0.296200  0.557000  1.0  -0.295
  N  N208  1  0.453600  0.484000  0.251200  1.0  0.1452
  N  N209  1  0.180700  0.651000  0.956700  1.0  -0.3143
  N  N210  1  0.394400  0.643400  0.846000  1.0  -0.3096
  N  N211  1  0.488600  0.602700  0.052000  1.0  -0.33
  N  N212  1  0.275900  0.598000  0.157300  1.0  -0.3275
  N  N213  1  0.877000  0.633300  0.962500  1.0  -0.334
  N  N214  1  0.299700  0.544800  0.945400  1.0  -0.3316
  N  N215  1  0.368800  0.703800  0.057000  1.0  -0.2954
  N  N216  1  0.046400  0.516000  0.751200  1.0  0.1456
  N  N217  1  0.319300  0.151000  0.956700  1.0  -0.3171
  N  N218  1  0.105600  0.143400  0.846000  1.0  -0.3096
  N  N219  1  0.011400  0.102700  0.052000  1.0  -0.3308
  N  N220  1  0.224100  0.098000  0.157300  1.0  -0.3268
  N  N221  1  0.623000  0.133300  0.962500  1.0  -0.3299
  N  N222  1  0.200300  0.044800  0.945400  1.0  -0.3318
  N  N223  1  0.131200  0.203800  0.057000  1.0  -0.2952
  N  N224  1  0.453600  0.016000  0.751200  1.0  0.1455
  N  N225  1  0.180700  0.849000  0.456700  1.0  -0.3135
  N  N226  1  0.394400  0.856600  0.346000  1.0  -0.3091
  N  N227  1  0.488600  0.897300  0.552000  1.0  -0.3285
  N  N228  1  0.275900  0.902000  0.657300  1.0  -0.3264
  N  N229  1  0.877000  0.866700  0.462500  1.0  -0.3294
  N  N230  1  0.299700  0.955200  0.445400  1.0  -0.3304
  N  N231  1  0.368800  0.796200  0.557000  1.0  -0.2953
  N  N232  1  0.046400  0.984000  0.251200  1.0  0.1453
  N  N233  1  0.680700  0.651000  0.543300  1.0  -0.3137
  N  N234  1  0.894400  0.643400  0.654000  1.0  -0.3093
  N  N235  1  0.988600  0.602700  0.448000  1.0  -0.3298
  N  N236  1  0.775900  0.598000  0.342700  1.0  -0.3264
  N  N237  1  0.377000  0.633300  0.537500  1.0  -0.3331
  N  N238  1  0.799700  0.544800  0.554600  1.0  -0.3318
  N  N239  1  0.868800  0.703800  0.443000  1.0  -0.296
  N  N240  1  0.546400  0.516000  0.748800  1.0  0.1464
  N  N241  1  0.819300  0.349000  0.043300  1.0  -0.314
  N  N242  1  0.605600  0.356600  0.154000  1.0  -0.3089
  N  N243  1  0.511400  0.397300  0.948000  1.0  -0.3284
  N  N244  1  0.724100  0.402000  0.842700  1.0  -0.3238
  N  N245  1  0.123000  0.366700  0.037500  1.0  -0.3287
  N  N246  1  0.700300  0.455200  0.054600  1.0  -0.3305
  N  N247  1  0.631200  0.296200  0.943000  1.0  -0.2957
  N  N248  1  0.953600  0.484000  0.248800  1.0  0.1461
