# generated using pymatgen
data_Cd5H8(C13N6)2
_symmetry_space_group_name_H-M   'P 1'
_cell_length_a   11.40020000
_cell_length_b   15.18630000
_cell_length_c   15.18630000
_cell_angle_alpha   62.01190000
_cell_angle_beta   67.95430000
_cell_angle_gamma   67.95420000
_symmetry_Int_Tables_number   1
_chemical_formula_structural   Cd5H8(C13N6)2
_chemical_formula_sum   'Cd10 H16 C52 N24'
_cell_volume   2087.20857636
_cell_formula_units_Z   2
loop_
 _symmetry_equiv_pos_site_id
 _symmetry_equiv_pos_as_xyz
  1  'x, y, z'
loop_
 _atom_site_type_symbol
 _atom_site_label
 _atom_site_symmetry_multiplicity
 _atom_site_fract_x
 _atom_site_fract_y
 _atom_site_fract_z
 _atom_site_occupancy
 _atom_site_charge
  Cd  Cd1  1  0.000000  0.000000  0.000000  1.0  0.9577
  Cd  Cd2  1  0.500000  0.500000  0.500000  1.0  0.9577
  Cd  Cd3  1  0.880900  0.619100  0.119100  1.0  0.7432
  Cd  Cd4  1  0.119100  0.880900  0.380900  1.0  0.7429
  Cd  Cd5  1  0.119100  0.380900  0.880900  1.0  0.7429
  Cd  Cd6  1  0.880900  0.119100  0.619100  1.0  0.7432
  Cd  Cd7  1  0.461470  0.134990  0.134990  1.0  0.7485
  Cd  Cd8  1  0.231450  0.365010  0.365010  1.0  0.7477
  Cd  Cd9  1  0.768550  0.634990  0.634990  1.0  0.7495
  Cd  Cd10  1  0.538530  0.865010  0.865010  1.0  0.7504
  H  H11  1  0.497700  0.572200  0.210600  1.0  0.0715
  H  H12  1  0.603200  0.473200  0.113400  1.0  0.1055
  H  H13  1  0.219500  0.710600  0.072200  1.0  0.0702
  H  H14  1  0.310200  0.613400  0.973200  1.0  0.1069
  H  H15  1  0.502300  0.427800  0.789400  1.0  0.0701
  H  H16  1  0.396800  0.526800  0.886600  1.0  0.1058
  H  H17  1  0.780500  0.289400  0.927800  1.0  0.0704
  H  H18  1  0.689800  0.386600  0.026800  1.0  0.1063
  H  H19  1  0.780500  0.927800  0.289400  1.0  0.0709
  H  H20  1  0.689800  0.026800  0.386600  1.0  0.1075
  H  H21  1  0.502300  0.789400  0.427800  1.0  0.0701
  H  H22  1  0.396800  0.886600  0.526800  1.0  0.1068
  H  H23  1  0.219500  0.072200  0.710600  1.0  0.0715
  H  H24  1  0.310200  0.973200  0.613400  1.0  0.106
  H  H25  1  0.497700  0.210600  0.572200  1.0  0.0704
  H  H26  1  0.603200  0.113400  0.473200  1.0  0.1085
  C  C27  1  0.934710  0.766520  0.068660  1.0  -0.0534
  C  C28  1  0.364240  0.240860  0.011460  1.0  -0.0012
  C  C29  1  0.269890  0.733480  0.431340  1.0  -0.0528
  C  C30  1  0.116560  0.259140  0.488540  1.0  -0.0169
  C  C31  1  0.730110  0.568660  0.266520  1.0  -0.0703
  C  C32  1  0.883440  0.511460  0.740860  1.0  -0.0018
  C  C33  1  0.065290  0.931340  0.233480  1.0  -0.0745
  C  C34  1  0.635760  0.988540  0.759140  1.0  -0.0164
  C  C35  1  0.065290  0.233480  0.931340  1.0  -0.0535
  C  C36  1  0.635760  0.759140  0.988540  1.0  -0.004
  C  C37  1  0.730110  0.266520  0.568660  1.0  -0.0532
  C  C38  1  0.883440  0.740860  0.511460  1.0  -0.0146
  C  C39  1  0.269890  0.431340  0.733480  1.0  -0.07
  C  C40  1  0.116560  0.488540  0.259140  1.0  -1e-04
  C  C41  1  0.934710  0.068660  0.766520  1.0  -0.0756
  C  C42  1  0.364240  0.011460  0.240860  1.0  -0.016
  C  C43  1  0.975870  0.524130  0.024130  1.0  -0.148
  C  C44  1  0.024130  0.975870  0.475870  1.0  -0.171
  C  C45  1  0.024130  0.475870  0.975870  1.0  -0.1469
  C  C46  1  0.975870  0.024130  0.524130  1.0  -0.1703
  C  C47  1  0.672780  0.086020  0.086020  1.0  -0.0033
  C  C48  1  0.422800  0.225900  0.225900  1.0  -0.1149
  C  C49  1  0.344820  0.413980  0.413980  1.0  -0.0052
  C  C50  1  0.374600  0.274100  0.274100  1.0  -0.1077
  C  C51  1  0.655180  0.586020  0.586020  1.0  -0.0063
  C  C52  1  0.625400  0.725900  0.725900  1.0  -0.1086
  C  C53  1  0.327220  0.913980  0.913980  1.0  -0.0045
  C  C54  1  0.577200  0.774100  0.774100  1.0  -0.1161
  C  C55  1  0.460850  0.580550  0.161150  1.0  0.0421
  C  C56  1  0.524160  0.520440  0.103640  1.0  -0.2057
  C  C57  1  0.297450  0.661150  0.080550  1.0  0.0413
  C  C58  1  0.351760  0.603640  0.020440  1.0  -0.2063
  C  C59  1  0.539150  0.419450  0.838850  1.0  0.0427
  C  C60  1  0.475840  0.479560  0.896360  1.0  -0.2059
  C  C61  1  0.702550  0.338850  0.919450  1.0  0.0404
  C  C62  1  0.648240  0.396360  0.979560  1.0  -0.2085
  C  C63  1  0.468820  0.531180  0.031180  1.0  0.0215
  C  C64  1  0.288400  0.711600  0.211600  1.0  -0.0502
  C  C65  1  0.531180  0.468820  0.968820  1.0  0.0212
  C  C66  1  0.711600  0.288400  0.788400  1.0  -0.0488
  C  C67  1  0.702550  0.919450  0.338850  1.0  0.0417
  C  C68  1  0.648240  0.979560  0.396360  1.0  -0.2061
  C  C69  1  0.539150  0.838850  0.419450  1.0  0.0414
  C  C70  1  0.475840  0.896360  0.479560  1.0  -0.2054
  C  C71  1  0.297450  0.080550  0.661150  1.0  0.043
  C  C72  1  0.351760  0.020440  0.603640  1.0  -0.2073
  C  C73  1  0.460850  0.161150  0.580550  1.0  0.039
  C  C74  1  0.524160  0.103640  0.520440  1.0  -0.208
  C  C75  1  0.531180  0.968820  0.468820  1.0  0.0187
  C  C76  1  0.711600  0.788400  0.288400  1.0  -0.0488
  C  C77  1  0.468820  0.031180  0.531180  1.0  0.0189
  C  C78  1  0.288400  0.211600  0.711600  1.0  -0.0502
  N  N79  1  0.963630  0.838320  0.049420  1.0  -0.3712
  N  N80  1  0.700650  0.707150  0.038950  1.0  -0.3184
  N  N81  1  0.351370  0.661680  0.450580  1.0  -0.3679
  N  N82  1  0.946750  0.792850  0.461050  1.0  -0.3284
  N  N83  1  0.648630  0.549420  0.338320  1.0  -0.3694
  N  N84  1  0.053250  0.538950  0.207150  1.0  -0.3217
  N  N85  1  0.036370  0.950580  0.161680  1.0  -0.3701
  N  N86  1  0.299350  0.961050  0.292850  1.0  -0.3224
  N  N87  1  0.036370  0.161680  0.950580  1.0  -0.369
  N  N88  1  0.299350  0.292850  0.961050  1.0  -0.3205
  N  N89  1  0.648630  0.338320  0.549420  1.0  -0.3687
  N  N90  1  0.053250  0.207150  0.538950  1.0  -0.3267
  N  N91  1  0.351370  0.450580  0.661680  1.0  -0.3697
  N  N92  1  0.946750  0.461050  0.792850  1.0  -0.3203
  N  N93  1  0.963630  0.049420  0.838320  1.0  -0.3696
  N  N94  1  0.700650  0.038950  0.707150  1.0  -0.3233
  N  N95  1  0.781320  0.060080  0.060080  1.0  -0.3903
  N  N96  1  0.401480  0.439920  0.439920  1.0  -0.3908
  N  N97  1  0.598520  0.560080  0.560080  1.0  -0.3928
  N  N98  1  0.218680  0.939920  0.939920  1.0  -0.3929
  N  N99  1  0.351660  0.648340  0.148340  1.0  0.2312
  N  N100  1  0.648340  0.351660  0.851660  1.0  0.228
  N  N101  1  0.648340  0.851660  0.351660  1.0  0.228
  N  N102  1  0.351660  0.148340  0.648340  1.0  0.2312
