# generated using pymatgen
data_CdH28C36(NO3)2
_symmetry_space_group_name_H-M   'P 1'
_cell_length_a   13.06420000
_cell_length_b   13.58840000
_cell_length_c   19.29670000
_cell_angle_alpha   90.00000000
_cell_angle_beta   90.00000000
_cell_angle_gamma   90.00000000
_symmetry_Int_Tables_number   1
_chemical_formula_structural   CdH28C36(NO3)2
_chemical_formula_sum   'Cd4 H112 C144 N8 O24'
_cell_volume   3425.58058171
_cell_formula_units_Z   4
loop_
 _symmetry_equiv_pos_site_id
 _symmetry_equiv_pos_as_xyz
  1  'x, y, z'
loop_
 _atom_site_type_symbol
 _atom_site_label
 _atom_site_symmetry_multiplicity
 _atom_site_fract_x
 _atom_site_fract_y
 _atom_site_fract_z
 _atom_site_occupancy
 _atom_site_charge
  Cd  Cd1  1  0.706200  0.375370  0.222190  1.0  0.9935
  Cd  Cd2  1  0.293800  0.875370  0.777810  1.0  0.9954
  Cd  Cd3  1  0.206200  0.375370  0.277810  1.0  0.9942
  Cd  Cd4  1  0.793800  0.875370  0.722190  1.0  0.9949
  H  H5  1  0.077500  0.760400  0.788600  1.0  0.0725
  H  H6  1  0.672900  0.441900  0.489200  1.0  0.1007
  H  H7  1  0.786400  0.150100  0.868400  1.0  0.091
  H  H8  1  0.639900  0.400900  0.909200  1.0  0.1114
  H  H9  1  0.505100  0.208600  0.551300  1.0  0.0904
  H  H10  1  0.994900  0.708600  0.051300  1.0  0.0902
  H  H11  1  0.439100  0.542500  0.378100  1.0  0.1104
  H  H12  1  0.040500  0.202200  0.133200  1.0  0.0995
  H  H13  1  0.543600  0.417200  0.789700  1.0  0.1086
  H  H14  1  0.605600  0.515400  0.687800  1.0  0.0893
  H  H15  1  0.184500  0.696200  0.372900  1.0  0.1026
  H  H16  1  0.461800  0.628300  0.777100  1.0  0.3906
  H  H17  1  0.060900  0.042500  0.878100  1.0  0.1105
  H  H18  1  0.043900  0.551600  0.953500  1.0  0.0895
  H  H19  1  0.922500  0.260400  0.211400  1.0  0.0719
  H  H20  1  0.956100  0.051600  0.046500  1.0  0.0892
  H  H21  1  0.577500  0.760400  0.711400  1.0  0.0719
  H  H22  1  0.652400  0.235500  0.921700  1.0  0.1205
  H  H23  1  0.538200  0.128300  0.222900  1.0  0.3903
  H  H24  1  0.961800  0.628300  0.722900  1.0  0.3903
  H  H25  1  0.701300  0.557400  0.855600  1.0  0.1021
  H  H26  1  0.543900  0.551600  0.546500  1.0  0.0893
  H  H27  1  0.139900  0.400900  0.590800  1.0  0.1115
  H  H28  1  0.142700  0.021800  0.430200  1.0  0.1135
  H  H29  1  0.815500  0.196200  0.627100  1.0  0.1027
  H  H30  1  0.520400  0.487900  0.281200  1.0  0.0809
  H  H31  1  0.094700  0.258700  0.989300  1.0  0.1186
  H  H32  1  0.479600  0.987900  0.718800  1.0  0.0815
  H  H33  1  0.347600  0.735500  0.078300  1.0  0.1199
  H  H34  1  0.422500  0.260400  0.288600  1.0  0.0725
  H  H35  1  0.041200  0.972900  0.033700  1.0  0.1054
  H  H36  1  0.245300  0.384800  0.109800  1.0  0.0881
  H  H37  1  0.152400  0.235500  0.578300  1.0  0.1193
  H  H38  1  0.223200  0.601700  0.873300  1.0  0.0893
  H  H39  1  0.276800  0.101700  0.373300  1.0  0.0909
  H  H40  1  0.362400  0.306900  0.518300  1.0  0.1033
  H  H41  1  0.327100  0.941900  0.510800  1.0  0.1016
  H  H42  1  0.018100  0.819100  0.286900  1.0  0.1201
  H  H43  1  0.894400  0.015400  0.187800  1.0  0.0887
  H  H44  1  0.090100  0.730700  0.190300  1.0  0.0941
  H  H45  1  0.866400  0.593600  0.028800  1.0  0.0795
  H  H46  1  0.684500  0.696200  0.127100  1.0  0.1026
  H  H47  1  0.070300  0.112900  0.731400  1.0  0.3944
  H  H48  1  0.981900  0.319100  0.713100  1.0  0.1188
  H  H49  1  0.958800  0.472900  0.966300  1.0  0.1052
  H  H50  1  0.459500  0.702200  0.633200  1.0  0.0991
  H  H51  1  0.745300  0.384800  0.390200  1.0  0.0878
  H  H52  1  0.979600  0.987900  0.781200  1.0  0.081
  H  H53  1  0.747500  0.862600  0.562900  1.0  0.0809
  H  H54  1  0.409900  0.230700  0.690300  1.0  0.0945
  H  H55  1  0.254700  0.884800  0.609800  1.0  0.0878
  H  H56  1  0.642700  0.021800  0.069800  1.0  0.113
  H  H57  1  0.570300  0.112900  0.768600  1.0  0.3934
  H  H58  1  0.456100  0.051600  0.453500  1.0  0.0901
  H  H59  1  0.723200  0.601700  0.626700  1.0  0.0893
  H  H60  1  0.020400  0.487900  0.218800  1.0  0.0814
  H  H61  1  0.394400  0.015400  0.312200  1.0  0.0894
  H  H62  1  0.360100  0.900900  0.090800  1.0  0.1127
  H  H63  1  0.798700  0.057400  0.355600  1.0  0.1017
  H  H64  1  0.627800  0.851900  0.078200  1.0  0.1124
  H  H65  1  0.776800  0.101700  0.126700  1.0  0.0896
  H  H66  1  0.137600  0.806900  0.018300  1.0  0.1034
  H  H67  1  0.560900  0.042500  0.621900  1.0  0.1108
  H  H68  1  0.872200  0.351900  0.578200  1.0  0.1127
  H  H69  1  0.252500  0.362600  0.437100  1.0  0.0798
  H  H70  1  0.637600  0.806900  0.481700  1.0  0.1031
  H  H71  1  0.929700  0.612900  0.268600  1.0  0.3915
  H  H72  1  0.939100  0.542500  0.121900  1.0  0.1106
  H  H73  1  0.862400  0.306900  0.981700  1.0  0.1036
  H  H74  1  0.624500  0.113500  0.449000  1.0  0.0782
  H  H75  1  0.875500  0.613500  0.949000  1.0  0.0795
  H  H76  1  0.286400  0.150100  0.631600  1.0  0.0906
  H  H77  1  0.590100  0.730700  0.309700  1.0  0.0942
  H  H78  1  0.541200  0.972900  0.466300  1.0  0.1054
  H  H79  1  0.909900  0.230700  0.809700  1.0  0.0945
  H  H80  1  0.540500  0.202200  0.366800  1.0  0.0999
  H  H81  1  0.038200  0.128300  0.277100  1.0  0.3904
  H  H82  1  0.366400  0.593600  0.471200  1.0  0.0798
  H  H83  1  0.481900  0.319100  0.786900  1.0  0.1196
  H  H84  1  0.105600  0.515400  0.812200  1.0  0.0891
  H  H85  1  0.456400  0.917200  0.210300  1.0  0.1086
  H  H86  1  0.633600  0.093600  0.528800  1.0  0.0787
  H  H87  1  0.494900  0.708600  0.448700  1.0  0.0897
  H  H88  1  0.201300  0.557400  0.644400  1.0  0.1016
  H  H89  1  0.213600  0.650100  0.131600  1.0  0.0911
  H  H90  1  0.458800  0.472900  0.533700  1.0  0.1052
  H  H91  1  0.005100  0.208600  0.948700  1.0  0.0901
  H  H92  1  0.315500  0.196200  0.872900  1.0  0.102
  H  H93  1  0.172900  0.441900  0.010800  1.0  0.1002
  H  H94  1  0.247500  0.862600  0.937100  1.0  0.0805
  H  H95  1  0.713600  0.650100  0.368400  1.0  0.0911
  H  H96  1  0.956400  0.917200  0.289700  1.0  0.1088
  H  H97  1  0.298700  0.057400  0.144400  1.0  0.1025
  H  H98  1  0.043600  0.417200  0.710300  1.0  0.1085
  H  H99  1  0.357300  0.521800  0.930200  1.0  0.1126
  H  H100  1  0.405300  0.758700  0.489300  1.0  0.1182
  H  H101  1  0.124500  0.113500  0.051000  1.0  0.0792
  H  H102  1  0.372200  0.351900  0.921800  1.0  0.1121
  H  H103  1  0.594700  0.258700  0.510700  1.0  0.1187
  H  H104  1  0.752500  0.362600  0.062900  1.0  0.0795
  H  H105  1  0.827100  0.941900  0.989200  1.0  0.1012
  H  H106  1  0.959500  0.702200  0.866800  1.0  0.0995
  H  H107  1  0.754700  0.884800  0.890200  1.0  0.0876
  H  H108  1  0.905300  0.758700  0.010700  1.0  0.118
  H  H109  1  0.133600  0.093600  0.971200  1.0  0.078
  H  H110  1  0.857300  0.521800  0.569800  1.0  0.1131
  H  H111  1  0.860100  0.900900  0.409200  1.0  0.1111
  H  H112  1  0.847600  0.735500  0.421700  1.0  0.1199
  H  H113  1  0.127800  0.851900  0.421800  1.0  0.1129
  H  H114  1  0.429700  0.612900  0.231400  1.0  0.3938
  H  H115  1  0.375500  0.613500  0.551000  1.0  0.0795
  H  H116  1  0.518100  0.819100  0.213100  1.0  0.1186
  C  C117  1  0.693900  0.367400  0.888400  1.0  -0.0909
  C  C118  1  0.834300  0.877200  0.174600  1.0  -0.0052
  C  C119  1  0.698800  0.175500  0.692700  1.0  -0.1627
  C  C120  1  0.403200  0.823400  0.283200  1.0  0.0048
  C  C121  1  0.737500  0.728300  0.150100  1.0  -0.0941
  C  C122  1  0.448900  0.977000  0.676000  1.0  0.1665
  C  C123  1  0.534900  0.746900  0.546600  1.0  0.1043
  C  C124  1  0.810200  0.485800  0.595600  1.0  -0.1132
  C  C125  1  0.018000  0.734300  0.882400  1.0  -0.1988
  C  C126  1  0.189800  0.985800  0.404400  1.0  -0.1126
  C  C127  1  0.767300  0.420800  0.849300  1.0  0.0042
  C  C128  1  0.908900  0.522000  0.765700  1.0  0.2473
  C  C129  1  0.317100  0.917500  0.612500  1.0  0.1746
  C  C130  1  0.217100  0.718200  0.135700  1.0  -0.0705
  C  C131  1  0.188900  0.829500  0.922600  1.0  0.1745
  C  C132  1  0.310200  0.485800  0.904400  1.0  -0.1103
  C  C133  1  0.498000  0.011000  0.617900  1.0  -0.196
  C  C134  1  0.982000  0.234300  0.117600  1.0  -0.1984
  C  C135  1  0.046200  0.498300  0.053700  1.0  0.1141
  C  C136  1  0.323100  0.572800  0.705800  1.0  -0.1602
  C  C137  1  0.193900  0.367400  0.611600  1.0  -0.089
  C  C138  1  0.755700  0.523400  0.835800  1.0  -0.0339
  C  C139  1  0.749100  0.330900  0.640600  1.0  0.0267
  C  C140  1  0.817100  0.917500  0.887500  1.0  0.1743
  C  C141  1  0.249100  0.330900  0.859400  1.0  0.0268
  C  C142  1  0.074900  0.923000  0.221500  1.0  0.0041
  C  C143  1  0.051100  0.477000  0.176000  1.0  0.167
  C  C144  1  0.159300  0.481900  0.833300  1.0  -0.1351
  C  C145  1  0.232700  0.920800  0.150700  1.0  0.0054
  C  C146  1  0.799000  0.769500  0.395900  1.0  -0.1396
  C  C147  1  0.676900  0.072800  0.294200  1.0  -0.1614
  C  C148  1  0.914000  0.610100  0.991900  1.0  -0.0692
  C  C149  1  0.840700  0.981900  0.166700  1.0  -0.1357
  C  C150  1  0.196500  0.179600  0.224200  1.0  0.6838
  C  C151  1  0.383600  0.723000  0.274300  1.0  0.26
  C  C152  1  0.482000  0.234300  0.382400  1.0  -0.1986
  C  C153  1  0.311100  0.329500  0.422600  1.0  0.1746
  C  C154  1  0.648300  0.870500  0.319100  1.0  -0.0263
  C  C155  1  0.806100  0.867400  0.388400  1.0  -0.0906
  C  C156  1  0.876900  0.296300  0.028300  1.0  -0.205
  C  C157  1  0.176900  0.072800  0.205800  1.0  -0.161
  C  C158  1  0.355800  0.266000  0.671400  1.0  -0.1461
  C  C159  1  0.623100  0.796300  0.528300  1.0  -0.2071
  C  C160  1  0.823100  0.572800  0.794200  1.0  -0.1606
  C  C161  1  0.250900  0.830900  0.359400  1.0  0.0241
  C  C162  1  0.883600  0.723000  0.225700  1.0  0.2613
  C  C163  1  0.182900  0.417500  0.112500  1.0  0.1746
  C  C164  1  0.008100  0.030300  0.013900  1.0  -0.234
  C  C165  1  0.811100  0.329500  0.077400  1.0  0.1748
  C  C166  1  0.546200  0.498300  0.446300  1.0  0.1134
  C  C167  1  0.998000  0.011000  0.882100  1.0  -0.196
  C  C168  1  0.319300  0.384300  0.899000  1.0  -0.123
  C  C169  1  0.096800  0.323400  0.783200  1.0  0.0048
  C  C170  1  0.270900  0.033600  0.370300  1.0  -0.0898
  C  C171  1  0.551100  0.477000  0.324000  1.0  0.1654
  C  C172  1  0.680700  0.884300  0.101000  1.0  -0.1214
  C  C173  1  0.002000  0.511000  0.117900  1.0  -0.1967
  C  C174  1  0.453800  0.998300  0.553700  1.0  0.1142
  C  C175  1  0.086000  0.110100  0.008100  1.0  -0.0668
  C  C176  1  0.696500  0.179600  0.275800  1.0  0.6839
  C  C177  1  0.596800  0.323400  0.716800  1.0  0.0053
  C  C178  1  0.034900  0.746900  0.953400  1.0  0.1044
  C  C179  1  0.334300  0.877200  0.325400  1.0  -0.0013
  C  C180  1  0.644200  0.766000  0.328600  1.0  -0.1457
  C  C181  1  0.408900  0.522000  0.734300  1.0  0.2489
  C  C182  1  0.376900  0.296300  0.471700  1.0  -0.2027
  C  C183  1  0.586000  0.110100  0.491900  1.0  -0.0661
  C  C184  1  0.012200  0.370200  0.741600  1.0  -0.1937
  C  C185  1  0.410500  0.270000  0.335600  1.0  0.1755
  C  C186  1  0.803500  0.679600  0.775800  1.0  0.684
  C  C187  1  0.688900  0.829500  0.577400  1.0  0.174
  C  C188  1  0.851700  0.370500  0.819100  1.0  -0.0276
  C  C189  1  0.512200  0.370200  0.758400  1.0  -0.1938
  C  C190  1  0.491900  0.530300  0.513900  1.0  -0.2351
  C  C191  1  0.144200  0.766000  0.171400  1.0  -0.1454
  C  C192  1  0.116400  0.223000  0.774300  1.0  0.2591
  C  C193  1  0.801200  0.675500  0.192700  1.0  -0.1638
  C  C194  1  0.255700  0.523400  0.664200  1.0  -0.0334
  C  C195  1  0.682900  0.417500  0.387500  1.0  0.175
  C  C196  1  0.518000  0.734300  0.617600  1.0  -0.1984
  C  C197  1  0.659300  0.481900  0.666667  1.0  -0.1366
  C  C198  1  0.267300  0.420800  0.650700  1.0  0.0049
  C  C199  1  0.689800  0.985800  0.095600  1.0  -0.1151
  C  C200  1  0.306100  0.867400  0.111600  1.0  -0.099
  C  C201  1  0.487800  0.870200  0.241600  1.0  -0.1952
  C  C202  1  0.770900  0.033600  0.129700  1.0  -0.0912
  C  C203  1  0.925100  0.423000  0.778500  1.0  0.0028
  C  C204  1  0.123100  0.796300  0.971700  1.0  -0.2062
  C  C205  1  0.229100  0.533600  0.870300  1.0  -0.0896
  C  C206  1  0.277900  0.568100  0.293700  1.0  0.6748
  C  C207  1  0.465100  0.246900  0.453400  1.0  0.1046
  C  C208  1  0.910500  0.270000  0.164400  1.0  0.1737
  C  C209  1  0.665700  0.377200  0.674600  1.0  0.0
  C  C210  1  0.222100  0.068100  0.793700  1.0  0.6754
  C  C211  1  0.165700  0.377200  0.825400  1.0  -0.0011
  C  C212  1  0.198800  0.175500  0.807300  1.0  -0.1625
  C  C213  1  0.414000  0.610100  0.508100  1.0  -0.0698
  C  C214  1  0.744300  0.023400  0.335800  1.0  -0.0304
  C  C215  1  0.965100  0.246900  0.046600  1.0  0.1044
  C  C216  1  0.460400  0.711200  0.493200  1.0  -0.2216
  C  C217  1  0.717100  0.718200  0.364300  1.0  -0.0688
  C  C218  1  0.762500  0.228300  0.650100  1.0  -0.0914
  C  C219  1  0.639200  0.451100  0.447200  1.0  -0.1908
  C  C220  1  0.201000  0.269500  0.604100  1.0  -0.1435
  C  C221  1  0.722100  0.068100  0.706300  1.0  0.6771
  C  C222  1  0.589500  0.770000  0.664400  1.0  0.1742
  C  C223  1  0.819300  0.384300  0.601000  1.0  -0.1175
  C  C224  1  0.340700  0.981900  0.333333  1.0  -0.1361
  C  C225  1  0.244300  0.023400  0.164200  1.0  -0.0315
  C  C226  1  0.860800  0.951100  0.947200  1.0  -0.1902
  C  C227  1  0.991900  0.530300  0.986100  1.0  -0.2368
  C  C228  1  0.180700  0.884300  0.399000  1.0  -0.1238
  C  C229  1  0.508100  0.030300  0.486100  1.0  -0.236
  C  C230  1  0.237500  0.728300  0.349900  1.0  -0.0934
  C  C231  1  0.360800  0.951100  0.552800  1.0  -0.1897
  C  C232  1  0.987800  0.870200  0.258400  1.0  -0.1936
  C  C233  1  0.782900  0.218200  0.864300  1.0  -0.0712
  C  C234  1  0.301200  0.675500  0.307300  1.0  -0.1629
  C  C235  1  0.262500  0.228300  0.849900  1.0  -0.0896
  C  C236  1  0.903200  0.823400  0.216800  1.0  0.0057
  C  C237  1  0.701000  0.269500  0.895900  1.0  -0.1405
  C  C238  1  0.303500  0.679600  0.724200  1.0  0.6839
  C  C239  1  0.591100  0.022000  0.265700  1.0  0.2475
  C  C240  1  0.574900  0.923000  0.278500  1.0  0.0032
  C  C241  1  0.351700  0.370500  0.680900  1.0  -0.0266
  C  C242  1  0.148300  0.870500  0.180900  1.0  -0.0264
  C  C243  1  0.139200  0.451100  0.052800  1.0  -0.1893
  C  C244  1  0.039600  0.211200  0.993200  1.0  -0.2235
  C  C245  1  0.750900  0.830900  0.140600  1.0  0.0217
  C  C246  1  0.089500  0.770000  0.835600  1.0  0.1757
  C  C247  1  0.960400  0.711200  0.006800  1.0  -0.2214
  C  C248  1  0.425100  0.423000  0.721500  1.0  0.0034
  C  C249  1  0.953800  0.998300  0.946300  1.0  0.1135
  C  C250  1  0.948900  0.977000  0.824000  1.0  0.1652
  C  C251  1  0.616400  0.223000  0.725700  1.0  0.2609
  C  C252  1  0.539600  0.211200  0.506800  1.0  -0.2212
  C  C253  1  0.732700  0.920800  0.349300  1.0  0.0038
  C  C254  1  0.091100  0.022000  0.234300  1.0  0.2492
  C  C255  1  0.282900  0.218200  0.635700  1.0  -0.0729
  C  C256  1  0.855800  0.266000  0.828600  1.0  -0.1458
  C  C257  1  0.729100  0.533600  0.629700  1.0  -0.0925
  C  C258  1  0.299000  0.769500  0.104100  1.0  -0.1413
  C  C259  1  0.777900  0.568100  0.206300  1.0  0.6749
  C  C260  1  0.502000  0.511000  0.382100  1.0  -0.1967
  N  N261  1  0.360400  0.929600  0.674700  1.0  -0.3371
  N  N262  1  0.674200  0.817300  0.645700  1.0  -0.358
  N  N263  1  0.139600  0.429600  0.174700  1.0  -0.3347
  N  N264  1  0.860400  0.929600  0.825300  1.0  -0.3431
  N  N265  1  0.825800  0.317300  0.145700  1.0  -0.3616
  N  N266  1  0.174200  0.817300  0.854300  1.0  -0.3592
  N  N267  1  0.325800  0.317300  0.354300  1.0  -0.3615
  N  N268  1  0.639600  0.429600  0.325300  1.0  -0.341
  O  O269  1  0.054200  0.171200  0.730600  1.0  -0.5194
  O  O270  1  0.707300  0.528700  0.172600  1.0  -0.5895
  O  O271  1  0.169100  0.021800  0.749600  1.0  -0.6419
  O  O272  1  0.135000  0.220000  0.266700  1.0  -0.664
  O  O273  1  0.445800  0.671200  0.230600  1.0  -0.5202
  O  O274  1  0.830900  0.521800  0.250400  1.0  -0.6412
  O  O275  1  0.229400  0.725000  0.698500  1.0  -0.6166
  O  O276  1  0.669100  0.021800  0.750400  1.0  -0.6411
  O  O277  1  0.292700  0.028700  0.827400  1.0  -0.5915
  O  O278  1  0.945800  0.671200  0.269400  1.0  -0.5198
  O  O279  1  0.023400  0.069700  0.275400  1.0  -0.5137
  O  O280  1  0.635000  0.220000  0.233300  1.0  -0.6651
  O  O281  1  0.476600  0.569700  0.775400  1.0  -0.5129
  O  O282  1  0.330900  0.521800  0.249600  1.0  -0.642
  O  O283  1  0.770600  0.225000  0.301500  1.0  -0.6185
  O  O284  1  0.554200  0.171200  0.769400  1.0  -0.5192
  O  O285  1  0.865000  0.720000  0.733300  1.0  -0.6673
  O  O286  1  0.207300  0.528700  0.327400  1.0  -0.5905
  O  O287  1  0.365000  0.720000  0.766700  1.0  -0.6639
  O  O288  1  0.523400  0.069700  0.224600  1.0  -0.5111
  O  O289  1  0.976600  0.569700  0.724600  1.0  -0.5124
  O  O290  1  0.729400  0.725000  0.801500  1.0  -0.6158
  O  O291  1  0.792700  0.028700  0.672600  1.0  -0.5907
  O  O292  1  0.270600  0.225000  0.198500  1.0  -0.6185
