# generated using pymatgen
data_CuH24(C4N3)4
_symmetry_space_group_name_H-M   'P 1'
_cell_length_a   14.64900000
_cell_length_b   15.07940000
_cell_length_c   29.96000000
_cell_angle_alpha   87.27890000
_cell_angle_beta   84.39110000
_cell_angle_gamma   60.93970000
_symmetry_Int_Tables_number   1
_chemical_formula_structural   CuH24(C4N3)4
_chemical_formula_sum   'Cu6 H144 C96 N72'
_cell_volume   5757.25071376
_cell_formula_units_Z   6
loop_
 _symmetry_equiv_pos_site_id
 _symmetry_equiv_pos_as_xyz
  1  'x, y, z'
loop_
 _atom_site_type_symbol
 _atom_site_label
 _atom_site_symmetry_multiplicity
 _atom_site_fract_x
 _atom_site_fract_y
 _atom_site_fract_z
 _atom_site_occupancy
 _atom_site_charge
  Cu  Cu1  1  0.225060  0.082380  0.677790  1.0  0.5352
  Cu  Cu2  1  0.692560  0.082380  0.822210  1.0  0.535
  Cu  Cu3  1  0.774940  0.917620  0.322210  1.0  0.5346
  Cu  Cu4  1  0.307440  0.917620  0.177790  1.0  0.5348
  Cu  Cu5  1  0.000000  0.500000  0.500000  1.0  0.3373
  Cu  Cu6  1  0.500000  0.500000  0.000000  1.0  0.3373
  H  H7  1  0.031500  0.382400  0.596000  1.0  0.0693
  H  H8  1  0.803900  0.461000  0.519800  1.0  0.0784
  H  H9  1  0.695400  0.418400  0.616800  1.0  0.0668
  H  H10  1  0.694400  0.395800  0.566300  1.0  0.0652
  H  H11  1  0.822800  0.244600  0.626700  1.0  0.0651
  H  H12  1  0.716800  0.255200  0.613700  1.0  0.0807
  H  H13  1  0.787400  0.178600  0.547700  1.0  0.0598
  H  H14  1  0.862600  0.225800  0.540400  1.0  0.0621
  H  H15  1  0.954700  0.042400  0.552700  1.0  0.083
  H  H16  1  0.902700  0.063000  0.602200  1.0  0.0712
  H  H17  1  0.019700  0.079600  0.657000  1.0  0.0856
  H  H18  1  0.188800  0.154600  0.572100  1.0  0.0718
  H  H19  1  0.035300  0.270800  0.497900  1.0  0.072
  H  H20  1  0.179000  0.383600  0.418600  1.0  0.0708
  H  H21  1  0.095800  0.103600  0.453300  1.0  0.0575
  H  H22  1  0.167900  0.089600  0.409000  1.0  0.0607
  H  H23  1  0.261500  0.961000  0.457300  1.0  0.0728
  H  H24  1  0.235800  0.038000  0.495800  1.0  0.0806
  H  H25  1  0.410800  0.968400  0.467300  1.0  0.0676
  H  H26  1  0.352700  0.086800  0.462200  1.0  0.0526
  H  H27  1  0.393300  0.951600  0.392300  1.0  0.069
  H  H28  1  0.335000  0.070200  0.387200  1.0  0.0616
  H  H29  1  0.584700  0.878600  0.358900  1.0  0.1074
  H  H30  1  0.634900  0.095000  0.393400  1.0  0.0516
  H  H31  1  0.302000  0.141400  0.764800  1.0  0.0669
  H  H32  1  0.395900  0.873800  0.717100  1.0  0.1078
  H  H33  1  0.557500  0.838800  0.811100  1.0  0.0894
  H  H34  1  0.475300  0.800200  0.815000  1.0  0.0881
  H  H35  1  0.540200  0.735000  0.741800  1.0  0.0692
  H  H36  1  0.609600  0.677200  0.780700  1.0  0.0698
  H  H37  1  0.103300  0.039200  0.763600  1.0  0.0702
  H  H38  1  0.040700  0.296800  0.709200  1.0  0.0884
  H  H39  1  0.927900  0.395000  0.798800  1.0  0.0565
  H  H40  1  0.844600  0.357200  0.804800  1.0  0.0774
  H  H41  1  0.873700  0.410400  0.718700  1.0  0.0685
  H  H42  1  0.826400  0.502400  0.752500  1.0  0.0628
  H  H43  1  0.586100  0.382400  0.904000  1.0  0.0683
  H  H44  1  0.735100  0.461000  0.980200  1.0  0.0793
  H  H45  1  0.886200  0.418400  0.883200  1.0  0.0661
  H  H46  1  0.909800  0.395800  0.933700  1.0  0.0641
  H  H47  1  0.932600  0.244600  0.873300  1.0  0.0667
  H  H48  1  0.028000  0.255200  0.886300  1.0  0.0785
  H  H49  1  0.034000  0.178600  0.952300  1.0  0.0592
  H  H50  1  0.911600  0.225800  0.959600  1.0  0.0635
  H  H51  1  0.002900  0.042400  0.947300  1.0  0.0832
  H  H52  1  0.034300  0.063000  0.897800  1.0  0.0705
  H  H53  1  0.900700  0.079600  0.843000  1.0  0.0849
  H  H54  1  0.656600  0.154600  0.927900  1.0  0.0707
  H  H55  1  0.693900  0.270800  0.002100  1.0  0.0728
  H  H56  1  0.437400  0.383600  0.081400  1.0  0.07
  H  H57  1  0.800600  0.103600  0.046700  1.0  0.0588
  H  H58  1  0.742500  0.089600  0.091000  1.0  0.0598
  H  H59  1  0.777500  0.961000  0.042700  1.0  0.0713
  H  H60  1  0.726200  0.038000  0.004200  1.0  0.0813
  H  H61  1  0.620800  0.968400  0.032700  1.0  0.0661
  H  H62  1  0.560500  0.086800  0.037800  1.0  0.0546
  H  H63  1  0.655100  0.951600  0.107700  1.0  0.0684
  H  H64  1  0.594800  0.070200  0.112800  1.0  0.0609
  H  H65  1  0.536700  0.878600  0.141100  1.0  0.1074
  H  H66  1  0.270100  0.095000  0.106600  1.0  0.0524
  H  H67  1  0.556600  0.141400  0.735200  1.0  0.0672
  H  H68  1  0.730300  0.873800  0.782900  1.0  0.1083
  H  H69  1  0.603700  0.838800  0.688900  1.0  0.0894
  H  H70  1  0.724500  0.800200  0.685000  1.0  0.0873
  H  H71  1  0.724800  0.735000  0.758200  1.0  0.0691
  H  H72  1  0.713200  0.677200  0.719300  1.0  0.0697
  H  H73  1  0.857500  0.039200  0.736400  1.0  0.0699
  H  H74  1  0.662500  0.296800  0.790800  1.0  0.0884
  H  H75  1  0.677100  0.395000  0.701200  1.0  0.0538
  H  H76  1  0.798200  0.357200  0.695200  1.0  0.0779
  H  H77  1  0.715900  0.410400  0.781300  1.0  0.0682
  H  H78  1  0.671200  0.502400  0.747500  1.0  0.061
  H  H79  1  0.968500  0.617600  0.404000  1.0  0.0688
  H  H80  1  0.196100  0.539000  0.480200  1.0  0.0793
  H  H81  1  0.304600  0.581600  0.383200  1.0  0.0656
  H  H82  1  0.305600  0.604200  0.433700  1.0  0.0642
  H  H83  1  0.177200  0.755400  0.373300  1.0  0.0667
  H  H84  1  0.283200  0.744800  0.386300  1.0  0.0788
  H  H85  1  0.212600  0.821400  0.452300  1.0  0.0595
  H  H86  1  0.137400  0.774200  0.459600  1.0  0.064
  H  H87  1  0.045300  0.957600  0.447300  1.0  0.0831
  H  H88  1  0.097300  0.937000  0.397800  1.0  0.0698
  H  H89  1  0.980300  0.920400  0.343000  1.0  0.0849
  H  H90  1  0.811200  0.845400  0.427900  1.0  0.071
  H  H91  1  0.964700  0.729200  0.502100  1.0  0.0727
  H  H92  1  0.821000  0.616400  0.581400  1.0  0.067
  H  H93  1  0.904200  0.896400  0.546700  1.0  0.0591
  H  H94  1  0.832100  0.910400  0.591000  1.0  0.0604
  H  H95  1  0.738500  0.039000  0.542700  1.0  0.0729
  H  H96  1  0.764200  0.962000  0.504200  1.0  0.0825
  H  H97  1  0.589200  0.031600  0.532700  1.0  0.0671
  H  H98  1  0.647300  0.913200  0.537800  1.0  0.0533
  H  H99  1  0.606700  0.048400  0.607700  1.0  0.0669
  H  H100  1  0.665000  0.929800  0.612800  1.0  0.0612
  H  H101  1  0.415300  0.121400  0.641100  1.0  0.1063
  H  H102  1  0.365100  0.905000  0.606600  1.0  0.0513
  H  H103  1  0.698000  0.858600  0.235200  1.0  0.0682
  H  H104  1  0.604100  0.126200  0.282900  1.0  0.1066
  H  H105  1  0.442500  0.161200  0.188900  1.0  0.0898
  H  H106  1  0.524700  0.199800  0.185000  1.0  0.0881
  H  H107  1  0.459800  0.265000  0.258200  1.0  0.0697
  H  H108  1  0.390400  0.322800  0.219300  1.0  0.0717
  H  H109  1  0.896700  0.960800  0.236400  1.0  0.0687
  H  H110  1  0.959300  0.703200  0.290800  1.0  0.0886
  H  H111  1  0.072100  0.605000  0.201200  1.0  0.0567
  H  H112  1  0.155400  0.642800  0.195200  1.0  0.0775
  H  H113  1  0.126300  0.589600  0.281300  1.0  0.0679
  H  H114  1  0.173600  0.497600  0.247500  1.0  0.0584
  H  H115  1  0.413900  0.617600  0.096000  1.0  0.0698
  H  H116  1  0.264900  0.539000  0.019800  1.0  0.0785
  H  H117  1  0.113800  0.581600  0.116800  1.0  0.0674
  H  H118  1  0.090200  0.604200  0.066300  1.0  0.0653
  H  H119  1  0.067400  0.755400  0.126700  1.0  0.0653
  H  H120  1  0.972000  0.744800  0.113700  1.0  0.0809
  H  H121  1  0.966000  0.821400  0.047700  1.0  0.0596
  H  H122  1  0.088400  0.774200  0.040400  1.0  0.0626
  H  H123  1  0.997100  0.957600  0.052700  1.0  0.083
  H  H124  1  0.965700  0.937000  0.102200  1.0  0.0704
  H  H125  1  0.099300  0.920400  0.157000  1.0  0.0848
  H  H126  1  0.343400  0.845400  0.072100  1.0  0.0719
  H  H127  1  0.306100  0.729200  0.997900  1.0  0.0722
  H  H128  1  0.562600  0.616400  0.918600  1.0  0.068
  H  H129  1  0.199400  0.896400  0.953300  1.0  0.058
  H  H130  1  0.257500  0.910400  0.909000  1.0  0.0605
  H  H131  1  0.222500  0.039000  0.957300  1.0  0.0731
  H  H132  1  0.273800  0.962000  0.995800  1.0  0.0808
  H  H133  1  0.379200  0.031600  0.967300  1.0  0.0657
  H  H134  1  0.439500  0.913200  0.962200  1.0  0.0536
  H  H135  1  0.344900  0.048400  0.892300  1.0  0.0679
  H  H136  1  0.405200  0.929800  0.887200  1.0  0.0608
  H  H137  1  0.463300  0.121400  0.858900  1.0  0.1071
  H  H138  1  0.729900  0.905000  0.893400  1.0  0.0517
  H  H139  1  0.443400  0.858600  0.264800  1.0  0.0681
  H  H140  1  0.269700  0.126200  0.217100  1.0  0.1092
  H  H141  1  0.396300  0.161200  0.311100  1.0  0.0889
  H  H142  1  0.275500  0.199800  0.315000  1.0  0.0883
  H  H143  1  0.275200  0.265000  0.241800  1.0  0.0701
  H  H144  1  0.286800  0.322800  0.280700  1.0  0.0711
  H  H145  1  0.142500  0.960800  0.263600  1.0  0.0686
  H  H146  1  0.337500  0.703200  0.209200  1.0  0.0881
  H  H147  1  0.322900  0.605000  0.298800  1.0  0.0539
  H  H148  1  0.201800  0.642800  0.304800  1.0  0.0774
  H  H149  1  0.284100  0.589600  0.218700  1.0  0.069
  H  H150  1  0.328800  0.497600  0.252500  1.0  0.0615
  C  C151  1  0.968900  0.393400  0.585700  1.0  0.2209
  C  C152  1  0.846400  0.436400  0.543500  1.0  0.1137
  C  C153  1  0.737800  0.376600  0.591300  1.0  -0.037
  C  C154  1  0.776500  0.264000  0.602800  1.0  -0.1572
  C  C155  1  0.835600  0.192600  0.562100  1.0  -0.1833
  C  C156  1  0.928100  0.090800  0.577200  1.0  -0.052
  C  C157  1  0.047400  0.096800  0.630900  1.0  0.1181
  C  C158  1  0.137800  0.138200  0.584100  1.0  0.2603
  C  C159  1  0.077500  0.279800  0.474900  1.0  0.1271
  C  C160  1  0.156700  0.339400  0.431600  1.0  0.2286
  C  C161  1  0.157900  0.106400  0.440600  1.0  -0.0178
  C  C162  1  0.252400  0.027400  0.463700  1.0  -0.1124
  C  C163  1  0.357200  0.024600  0.451800  1.0  -0.1315
  C  C164  1  0.388200  0.013800  0.402800  1.0  -0.0307
  C  C165  1  0.576700  0.939000  0.369700  1.0  0.0572
  C  C166  1  0.601000  0.058400  0.388400  1.0  0.2675
  C  C167  1  0.338200  0.071200  0.761100  1.0  0.2464
  C  C168  1  0.387000  0.927000  0.734700  1.0  0.0459
  C  C169  1  0.514400  0.822800  0.793900  1.0  -0.1182
  C  C170  1  0.583400  0.739200  0.763300  1.0  -0.1365
  C  C171  1  0.071800  0.108600  0.758300  1.0  0.2394
  C  C172  1  0.039400  0.246800  0.728200  1.0  0.1219
  C  C173  1  0.893300  0.366200  0.783300  1.0  -0.0744
  C  C174  1  0.836600  0.434800  0.747900  1.0  -0.1705
  C  C175  1  0.637700  0.393400  0.914300  1.0  0.2164
  C  C176  1  0.717200  0.436400  0.956500  1.0  0.1142
  C  C177  1  0.885600  0.376600  0.908700  1.0  -0.0355
  C  C178  1  0.959500  0.264000  0.897200  1.0  -0.1557
  C  C179  1  0.971800  0.192600  0.937900  1.0  -0.1891
  C  C180  1  0.981100  0.090800  0.922800  1.0  -0.0511
  C  C181  1  0.855800  0.096800  0.869100  1.0  0.1196
  C  C182  1  0.724000  0.138200  0.915900  1.0  0.2584
  C  C183  1  0.642700  0.279800  0.025100  1.0  0.1282
  C  C184  1  0.503900  0.339400  0.068400  1.0  0.226
  C  C185  1  0.735700  0.106400  0.059400  1.0  -0.0168
  C  C186  1  0.720200  0.027400  0.036300  1.0  -0.1136
  C  C187  1  0.618200  0.024600  0.048200  1.0  -0.1322
  C  C188  1  0.598000  0.013800  0.097200  1.0  -0.0311
  C  C189  1  0.484300  0.939000  0.130300  1.0  0.0568
  C  C190  1  0.340600  0.058400  0.111600  1.0  0.2674
  C  C191  1  0.590600  0.071200  0.738900  1.0  0.2466
  C  C192  1  0.686000  0.927000  0.765300  1.0  0.0498
  C  C193  1  0.662800  0.822800  0.706100  1.0  -0.117
  C  C194  1  0.677400  0.739200  0.736700  1.0  -0.137
  C  C195  1  0.819600  0.108600  0.741700  1.0  0.2392
  C  C196  1  0.713800  0.246800  0.771800  1.0  0.1225
  C  C197  1  0.740500  0.366200  0.716700  1.0  -0.0741
  C  C198  1  0.728600  0.434800  0.752100  1.0  -0.1672
  C  C199  1  0.031100  0.606600  0.414300  1.0  0.2165
  C  C200  1  0.153600  0.563600  0.456500  1.0  0.1144
  C  C201  1  0.262200  0.623400  0.408700  1.0  -0.0348
  C  C202  1  0.223500  0.736000  0.397200  1.0  -0.1547
  C  C203  1  0.164400  0.807400  0.437900  1.0  -0.1888
  C  C204  1  0.071900  0.909200  0.422800  1.0  -0.0506
  C  C205  1  0.952600  0.903200  0.369100  1.0  0.1212
  C  C206  1  0.862200  0.861800  0.415900  1.0  0.2591
  C  C207  1  0.922500  0.720200  0.525100  1.0  0.1281
  C  C208  1  0.843300  0.660600  0.568400  1.0  0.2272
  C  C209  1  0.842100  0.893600  0.559400  1.0  -0.0169
  C  C210  1  0.747600  0.972600  0.536300  1.0  -0.1145
  C  C211  1  0.642800  0.975400  0.548200  1.0  -0.1319
  C  C212  1  0.611800  0.986200  0.597200  1.0  -0.0315
  C  C213  1  0.423300  0.061000  0.630300  1.0  0.0592
  C  C214  1  0.399000  0.941600  0.611600  1.0  0.2659
  C  C215  1  0.661800  0.928800  0.238900  1.0  0.2454
  C  C216  1  0.613000  0.073000  0.265300  1.0  0.0498
  C  C217  1  0.485600  0.177200  0.206100  1.0  -0.1175
  C  C218  1  0.416600  0.260800  0.236700  1.0  -0.1389
  C  C219  1  0.928200  0.891400  0.241700  1.0  0.2399
  C  C220  1  0.960600  0.753200  0.271800  1.0  0.1229
  C  C221  1  0.106700  0.633800  0.216700  1.0  -0.0731
  C  C222  1  0.163400  0.565200  0.252100  1.0  -0.1658
  C  C223  1  0.362300  0.606600  0.085700  1.0  0.22
  C  C224  1  0.282800  0.563600  0.043500  1.0  0.1136
  C  C225  1  0.114400  0.623400  0.091300  1.0  -0.0373
  C  C226  1  0.040500  0.736000  0.102800  1.0  -0.1571
  C  C227  1  0.028200  0.807400  0.062100  1.0  -0.1827
  C  C228  1  0.018900  0.909200  0.077200  1.0  -0.0519
  C  C229  1  0.144200  0.903200  0.130900  1.0  0.1203
  C  C230  1  0.276000  0.861800  0.084100  1.0  0.2605
  C  C231  1  0.357300  0.720200  0.974900  1.0  0.1276
  C  C232  1  0.496100  0.660600  0.931600  1.0  0.2283
  C  C233  1  0.264300  0.893600  0.940600  1.0  -0.0184
  C  C234  1  0.279800  0.972600  0.963700  1.0  -0.1137
  C  C235  1  0.381800  0.975400  0.951800  1.0  -0.132
  C  C236  1  0.402000  0.986200  0.902800  1.0  -0.0304
  C  C237  1  0.515700  0.061000  0.869700  1.0  0.0589
  C  C238  1  0.659400  0.941600  0.888400  1.0  0.2661
  C  C239  1  0.409400  0.928800  0.261100  1.0  0.2459
  C  C240  1  0.314000  0.073000  0.234700  1.0  0.0465
  C  C241  1  0.337200  0.177200  0.293900  1.0  -0.1171
  C  C242  1  0.322600  0.260800  0.263300  1.0  -0.1361
  C  C243  1  0.180400  0.891400  0.258300  1.0  0.2396
  C  C244  1  0.286200  0.753200  0.228200  1.0  0.1219
  C  C245  1  0.259500  0.633800  0.283300  1.0  -0.0743
  C  C246  1  0.271400  0.565200  0.247900  1.0  -0.1702
  N  N247  1  0.935100  0.440000  0.545100  1.0  -0.3602
  N  N248  1  0.905100  0.365800  0.608500  1.0  -0.4108
  N  N249  1  0.826600  0.393800  0.579600  1.0  0.1204
  N  N250  1  0.013100  0.105600  0.590800  1.0  0.1226
  N  N251  1  0.069900  0.135000  0.559800  1.0  -0.3874
  N  N252  1  0.128000  0.115800  0.628300  1.0  -0.4349
  N  N253  1  0.082300  0.365600  0.467900  1.0  -0.4619
  N  N254  1  0.193900  0.243600  0.416900  1.0  -0.414
  N  N255  1  0.140900  0.208400  0.445000  1.0  0.1554
  N  N256  1  0.490800  0.011600  0.392700  1.0  0.1457
  N  N257  1  0.504800  0.088600  0.403000  1.0  -0.3945
  N  N258  1  0.649200  0.971200  0.365500  1.0  -0.4234
  N  N259  1  0.321900  0.026000  0.728400  1.0  -0.3996
  N  N260  1  0.409600  0.010000  0.788400  1.0  -0.404
  N  N261  1  0.437200  0.919200  0.771500  1.0  0.1179
  N  N262  1  0.103100  0.150000  0.722900  1.0  -0.3865
  N  N263  1  0.991700  0.176600  0.784600  1.0  -0.427
  N  N264  1  0.973400  0.265000  0.763500  1.0  0.1229
  N  N265  1  0.624900  0.440000  0.954900  1.0  -0.3613
  N  N266  1  0.729100  0.365800  0.891500  1.0  -0.4109
  N  N267  1  0.779600  0.393800  0.920400  1.0  0.1205
  N  N268  1  0.881300  0.105600  0.909200  1.0  0.1238
  N  N269  1  0.795100  0.135000  0.940200  1.0  -0.387
  N  N270  1  0.756200  0.115800  0.871700  1.0  -0.4371
  N  N271  1  0.552100  0.365600  0.032100  1.0  -0.4617
  N  N272  1  0.562500  0.243600  0.083100  1.0  -0.4114
  N  N273  1  0.650700  0.208400  0.055000  1.0  0.1551
  N  N274  1  0.497600  0.011600  0.107300  1.0  0.1461
  N  N275  1  0.406600  0.088600  0.097000  1.0  -0.3954
  N  N276  1  0.379600  0.971200  0.134500  1.0  -0.4255
  N  N277  1  0.652100  0.026000  0.771600  1.0  -0.3975
  N  N278  1  0.580400  0.010000  0.711600  1.0  -0.4033
  N  N279  1  0.643600  0.919200  0.728500  1.0  0.1184
  N  N280  1  0.746900  0.150000  0.777100  1.0  -0.3865
  N  N281  1  0.831700  0.176600  0.715400  1.0  -0.4352
  N  N282  1  0.761600  0.265000  0.736500  1.0  0.1225
  N  N283  1  0.064900  0.560000  0.454900  1.0  -0.3605
  N  N284  1  0.094900  0.634200  0.391500  1.0  -0.4108
  N  N285  1  0.173400  0.606200  0.420400  1.0  0.1211
  N  N286  1  0.986900  0.894400  0.409200  1.0  0.1251
  N  N287  1  0.930100  0.865000  0.440200  1.0  -0.3871
  N  N288  1  0.872000  0.884200  0.371700  1.0  -0.4378
  N  N289  1  0.917700  0.634400  0.532100  1.0  -0.4613
  N  N290  1  0.806100  0.756400  0.583100  1.0  -0.4126
  N  N291  1  0.859100  0.791600  0.555000  1.0  0.1556
  N  N292  1  0.509200  0.988400  0.607300  1.0  0.1457
  N  N293  1  0.495200  0.911400  0.597000  1.0  -0.3954
  N  N294  1  0.350800  0.028800  0.634500  1.0  -0.4253
  N  N295  1  0.678100  0.974000  0.271600  1.0  -0.3978
  N  N296  1  0.590400  0.990000  0.211600  1.0  -0.3995
  N  N297  1  0.562800  0.080800  0.228500  1.0  0.1186
  N  N298  1  0.896900  0.850000  0.277100  1.0  -0.3873
  N  N299  1  0.008300  0.823400  0.215400  1.0  -0.4305
  N  N300  1  0.026600  0.735000  0.236500  1.0  0.1225
  N  N301  1  0.375100  0.560000  0.045100  1.0  -0.36
  N  N302  1  0.270900  0.634200  0.108500  1.0  -0.4108
  N  N303  1  0.220400  0.606200  0.079600  1.0  0.1196
  N  N304  1  0.118700  0.894400  0.090800  1.0  0.1239
  N  N305  1  0.204900  0.865000  0.059800  1.0  -0.3868
  N  N306  1  0.243800  0.884200  0.128300  1.0  -0.4356
  N  N307  1  0.447900  0.634400  0.967900  1.0  -0.4615
  N  N308  1  0.437500  0.756400  0.916900  1.0  -0.4143
  N  N309  1  0.349300  0.791600  0.945000  1.0  0.1542
  N  N310  1  0.502400  0.988400  0.892700  1.0  0.1456
  N  N311  1  0.593400  0.911400  0.903000  1.0  -0.3973
  N  N312  1  0.620400  0.028800  0.865500  1.0  -0.4238
  N  N313  1  0.347900  0.974000  0.228400  1.0  -0.3994
  N  N314  1  0.419600  0.990000  0.288400  1.0  -0.4005
  N  N315  1  0.356400  0.080800  0.271500  1.0  0.1182
  N  N316  1  0.253100  0.850000  0.222900  1.0  -0.3864
  N  N317  1  0.168300  0.823400  0.284600  1.0  -0.4365
  N  N318  1  0.238400  0.735000  0.263500  1.0  0.1225
