# generated using pymatgen
data_Zn3P3HO12
_symmetry_space_group_name_H-M   'P 1'
_cell_length_a   9.79040000
_cell_length_b   14.02870000
_cell_length_c   11.86510000
_cell_angle_alpha   90.00000000
_cell_angle_beta   104.69000000
_cell_angle_gamma   90.00000000
_symmetry_Int_Tables_number   1
_chemical_formula_structural   Zn3P3HO12
_chemical_formula_sum   'Zn12 P12 H4 O48'
_cell_volume   1576.36162697
_cell_formula_units_Z   4
loop_
 _symmetry_equiv_pos_site_id
 _symmetry_equiv_pos_as_xyz
  1  'x, y, z'
loop_
 _atom_site_type_symbol
 _atom_site_label
 _atom_site_symmetry_multiplicity
 _atom_site_fract_x
 _atom_site_fract_y
 _atom_site_fract_z
 _atom_site_occupancy
 _atom_site_charge
  Zn  Zn1  1  0.370700  0.387790  0.141860  1.0  1.0107
  Zn  Zn2  1  0.586730  0.385010  0.451580  1.0  1.16
  Zn  Zn3  1  0.996610  0.544730  0.828420  1.0  1.1782
  Zn  Zn4  1  0.129300  0.887790  0.358140  1.0  1.012
  Zn  Zn5  1  0.913270  0.885010  0.048420  1.0  1.1599
  Zn  Zn6  1  0.503390  0.044730  0.671580  1.0  1.1779
  Zn  Zn7  1  0.629300  0.612210  0.858140  1.0  1.011
  Zn  Zn8  1  0.413270  0.614990  0.548420  1.0  1.1603
  Zn  Zn9  1  0.003390  0.455270  0.171580  1.0  1.1772
  Zn  Zn10  1  0.870700  0.112210  0.641860  1.0  1.0103
  Zn  Zn11  1  0.086730  0.114990  0.951580  1.0  1.1604
  Zn  Zn12  1  0.496610  0.955270  0.328420  1.0  1.1776
  P  P13  1  0.096550  0.349710  0.928530  1.0  1.4418
  P  P14  1  0.702300  0.502890  0.661610  1.0  1.7261
  P  P15  1  0.690870  0.445870  0.219370  1.0  1.8392
  P  P16  1  0.403450  0.849710  0.571470  1.0  1.4407
  P  P17  1  0.797700  0.002890  0.838390  1.0  1.7243
  P  P18  1  0.809130  0.945870  0.280630  1.0  1.8393
  P  P19  1  0.903450  0.650290  0.071470  1.0  1.4405
  P  P20  1  0.297700  0.497110  0.338390  1.0  1.7246
  P  P21  1  0.309130  0.554130  0.780630  1.0  1.8385
  P  P22  1  0.596550  0.150290  0.428530  1.0  1.4419
  P  P23  1  0.202300  0.997110  0.161610  1.0  1.7264
  P  P24  1  0.190870  0.054130  0.719370  1.0  1.8382
  H  H25  1  0.693700  0.568200  0.123900  1.0  0.3653
  H  H26  1  0.806300  0.068200  0.376100  1.0  0.3643
  H  H27  1  0.306300  0.431800  0.876100  1.0  0.3674
  H  H28  1  0.193700  0.931800  0.623900  1.0  0.3693
  O  O29  1  0.695300  0.401100  0.612800  1.0  -0.7251
  O  O30  1  0.857000  0.541600  0.675800  1.0  -0.7168
  O  O31  1  0.001500  0.417600  0.884800  1.0  -0.6267
  O  O32  1  0.674400  0.500600  0.781800  1.0  -0.7509
  O  O33  1  0.254100  0.376900  0.983800  1.0  -0.8033
  O  O34  1  0.605400  0.568900  0.578100  1.0  -0.7739
  O  O35  1  0.068600  0.250700  0.913800  1.0  -0.7414
  O  O36  1  0.688900  0.435900  0.344800  1.0  -0.8092
  O  O37  1  0.567200  0.396600  0.134500  1.0  -0.7583
  O  O38  1  0.680000  0.555500  0.194900  1.0  -0.5191
  O  O39  1  0.826800  0.409400  0.196200  1.0  -0.7732
  O  O40  1  0.069000  0.351700  0.089200  1.0  -0.7234
  O  O41  1  0.804700  0.901100  0.887200  1.0  -0.7257
  O  O42  1  0.643000  0.041600  0.824200  1.0  -0.7159
  O  O43  1  0.498500  0.917600  0.615200  1.0  -0.6264
  O  O44  1  0.825600  0.000600  0.718200  1.0  -0.7496
  O  O45  1  0.245900  0.876900  0.516200  1.0  -0.803
  O  O46  1  0.894600  0.068900  0.921900  1.0  -0.7749
  O  O47  1  0.431400  0.750700  0.586200  1.0  -0.7388
  O  O48  1  0.811100  0.935900  0.155200  1.0  -0.8092
  O  O49  1  0.932800  0.896600  0.365500  1.0  -0.7574
  O  O50  1  0.820000  0.055500  0.305100  1.0  -0.5186
  O  O51  1  0.673200  0.909400  0.303800  1.0  -0.7749
  O  O52  1  0.431000  0.851700  0.410800  1.0  -0.7245
  O  O53  1  0.304700  0.598900  0.387200  1.0  -0.7248
  O  O54  1  0.143000  0.458400  0.324200  1.0  -0.7172
  O  O55  1  0.998500  0.582400  0.115200  1.0  -0.6275
  O  O56  1  0.325600  0.499400  0.218200  1.0  -0.7496
  O  O57  1  0.745900  0.623100  0.016200  1.0  -0.8033
  O  O58  1  0.394600  0.431100  0.421900  1.0  -0.7727
  O  O59  1  0.931400  0.749300  0.086200  1.0  -0.7412
  O  O60  1  0.311100  0.564100  0.655200  1.0  -0.8092
  O  O61  1  0.432800  0.603400  0.865500  1.0  -0.7564
  O  O62  1  0.320000  0.444500  0.805100  1.0  -0.5192
  O  O63  1  0.173200  0.590600  0.803800  1.0  -0.7762
  O  O64  1  0.931000  0.648300  0.910800  1.0  -0.7236
  O  O65  1  0.195300  0.098900  0.112800  1.0  -0.7244
  O  O66  1  0.357000  0.958400  0.175800  1.0  -0.7177
  O  O67  1  0.501500  0.082400  0.384800  1.0  -0.6275
  O  O68  1  0.174400  0.999400  0.281800  1.0  -0.751
  O  O69  1  0.754100  0.123100  0.483800  1.0  -0.8039
  O  O70  1  0.105400  0.931100  0.078100  1.0  -0.7726
  O  O71  1  0.568600  0.249300  0.413800  1.0  -0.7431
  O  O72  1  0.188900  0.064100  0.844800  1.0  -0.8092
  O  O73  1  0.067200  0.103400  0.634500  1.0  -0.7576
  O  O74  1  0.180000  0.944500  0.694900  1.0  -0.5192
  O  O75  1  0.326800  0.090600  0.696200  1.0  -0.7738
  O  O76  1  0.569000  0.148300  0.589200  1.0  -0.7222
