# generated using pymatgen
data_Tb2MnH32C56(N2O5)4
_symmetry_space_group_name_H-M   'P 1'
_cell_length_a   10.14500000
_cell_length_b   10.88580000
_cell_length_c   13.85150000
_cell_angle_alpha   78.70600000
_cell_angle_beta   79.29700000
_cell_angle_gamma   86.25300000
_symmetry_Int_Tables_number   1
_chemical_formula_structural   Tb2MnH32C56(N2O5)4
_chemical_formula_sum   'Tb2 Mn1 H32 C56 N8 O20'
_cell_volume   1473.32411560
_cell_formula_units_Z   1
loop_
 _symmetry_equiv_pos_site_id
 _symmetry_equiv_pos_as_xyz
  1  'x, y, z'
loop_
 _atom_site_type_symbol
 _atom_site_label
 _atom_site_symmetry_multiplicity
 _atom_site_fract_x
 _atom_site_fract_y
 _atom_site_fract_z
 _atom_site_occupancy
 _atom_site_charge
  Tb  Tb1  1  0.319890  0.923350  0.296640  1.0  2.1624
  Tb  Tb2  1  0.680110  0.076650  0.703360  1.0  2.1605
  Mn  Mn3  1  0.000000  0.500000  0.500000  1.0  1.1433
  H  H4  1  0.826800  0.913500  0.278600  1.0  0.1106
  H  H5  1  0.088500  0.847000  0.039500  1.0  0.123
  H  H6  1  0.693800  0.853400  0.037100  1.0  0.1242
  H  H7  1  0.012100  0.833600  0.718800  1.0  0.1251
  H  H8  1  0.034600  0.752400  0.574800  1.0  0.0843
  H  H9  1  0.015400  0.411000  0.727500  1.0  0.0783
  H  H10  1  0.008700  0.481000  0.875100  1.0  0.1283
  H  H11  1  0.329600  0.669200  0.153300  1.0  0.116
  H  H12  1  0.346900  0.331800  0.077100  1.0  0.1178
  H  H13  1  0.285700  0.360700  0.366900  1.0  0.1083
  H  H14  1  0.344400  0.774300  0.852800  1.0  0.1277
  H  H15  1  0.353100  0.882400  0.690500  1.0  0.0817
  H  H16  1  0.362100  0.574000  0.589100  1.0  0.0897
  H  H17  1  0.356600  0.456400  0.745700  1.0  0.1215
  H  H18  1  0.876900  0.842000  0.883900  1.0  0.2918
  H  H19  1  0.380300  0.646800  0.982900  1.0  0.3234
  H  H20  1  0.173200  0.086500  0.721400  1.0  0.1102
  H  H21  1  0.911500  0.153000  0.960500  1.0  0.1227
  H  H22  1  0.306200  0.146600  0.962900  1.0  0.1246
  H  H23  1  0.987900  0.166400  0.281200  1.0  0.125
  H  H24  1  0.965400  0.247600  0.425200  1.0  0.0848
  H  H25  1  0.984600  0.589000  0.272500  1.0  0.0781
  H  H26  1  0.991300  0.519000  0.124900  1.0  0.1289
  H  H27  1  0.670400  0.330800  0.846700  1.0  0.1159
  H  H28  1  0.653100  0.668200  0.922900  1.0  0.1176
  H  H29  1  0.714300  0.639300  0.633100  1.0  0.1091
  H  H30  1  0.655600  0.225700  0.147200  1.0  0.1275
  H  H31  1  0.646900  0.117600  0.309500  1.0  0.0802
  H  H32  1  0.637900  0.426000  0.410900  1.0  0.0902
  H  H33  1  0.643400  0.543600  0.254300  1.0  0.12
  H  H34  1  0.123100  0.158000  0.116100  1.0  0.2917
  H  H35  1  0.619700  0.353200  0.017100  1.0  0.3242
  C  C36  1  0.595300  0.900900  0.214200  1.0  0.6712
  C  C37  1  0.737800  0.885500  0.166900  1.0  -0.1396
  C  C38  1  0.843700  0.895900  0.214300  1.0  -0.0228
  C  C39  1  0.972500  0.880800  0.167900  1.0  -0.1607
  C  C40  1  0.000300  0.854300  0.072000  1.0  -0.1264
  C  C41  1  0.893900  0.838900  0.025300  1.0  0.2069
  C  C42  1  0.764200  0.858300  0.070500  1.0  -0.0874
  C  C43  1  0.092100  0.893200  0.215700  1.0  0.6765
  C  C44  1  0.003900  0.706200  0.911000  1.0  0.5217
  C  C45  1  0.008900  0.666100  0.813400  1.0  -0.0113
  C  C46  1  0.014900  0.747400  0.722200  1.0  -0.1597
  C  C47  1  0.025200  0.697700  0.636100  1.0  0.1776
  C  C48  1  0.016100  0.496800  0.725800  1.0  0.176
  C  C49  1  0.010900  0.538000  0.815300  1.0  -0.1685
  C  C50  1  0.271800  0.605000  0.353100  1.0  0.7371
  C  C51  1  0.299800  0.528100  0.273200  1.0  -0.1627
  C  C52  1  0.323100  0.582700  0.171900  1.0  -0.1086
  C  C53  1  0.336600  0.510800  0.098600  1.0  0.1943
  C  C54  1  0.335400  0.381200  0.125900  1.0  -0.1525
  C  C55  1  0.316900  0.325200  0.227400  1.0  -0.1314
  C  C56  1  0.298800  0.398600  0.299700  1.0  -0.0243
  C  C57  1  0.312600  0.189100  0.252500  1.0  0.6625
  C  C58  1  0.333700  0.519100  0.920800  1.0  0.5349
  C  C59  1  0.348200  0.601900  0.818900  1.0  -0.0394
  C  C60  1  0.348000  0.731000  0.800800  1.0  -0.2007
  C  C61  1  0.353500  0.795300  0.702400  1.0  0.1812
  C  C62  1  0.359100  0.614500  0.642700  1.0  0.1643
  C  C63  1  0.355000  0.543300  0.736700  1.0  -0.1381
  C  C64  1  0.404700  0.099100  0.785800  1.0  0.6691
  C  C65  1  0.262200  0.114500  0.833100  1.0  -0.1389
  C  C66  1  0.156300  0.104100  0.785700  1.0  -0.0204
  C  C67  1  0.027500  0.119200  0.832100  1.0  -0.161
  C  C68  1  0.999700  0.145700  0.928000  1.0  -0.1272
  C  C69  1  0.106100  0.161100  0.974700  1.0  0.2066
  C  C70  1  0.235800  0.141700  0.929500  1.0  -0.0875
  C  C71  1  0.907900  0.106800  0.784300  1.0  0.6759
  C  C72  1  0.996100  0.293800  0.089000  1.0  0.5227
  C  C73  1  0.991100  0.333900  0.186600  1.0  -0.0107
  C  C74  1  0.985100  0.252600  0.277800  1.0  -0.1573
  C  C75  1  0.974800  0.302300  0.363900  1.0  0.1783
  C  C76  1  0.983900  0.503200  0.274200  1.0  0.1761
  C  C77  1  0.989100  0.462000  0.184700  1.0  -0.169
  C  C78  1  0.728200  0.395000  0.646900  1.0  0.7392
  C  C79  1  0.700200  0.471900  0.726800  1.0  -0.159
  C  C80  1  0.676900  0.417300  0.828100  1.0  -0.1085
  C  C81  1  0.663400  0.489200  0.901400  1.0  0.1943
  C  C82  1  0.664600  0.618800  0.874100  1.0  -0.1541
  C  C83  1  0.683100  0.674800  0.772600  1.0  -0.1329
  C  C84  1  0.701200  0.601400  0.700300  1.0  -0.022
  C  C85  1  0.687400  0.810900  0.747500  1.0  0.6654
  C  C86  1  0.666300  0.480900  0.079200  1.0  0.5353
  C  C87  1  0.651800  0.398100  0.181100  1.0  -0.0392
  C  C88  1  0.652000  0.269000  0.199200  1.0  -0.1973
  C  C89  1  0.646500  0.204700  0.297600  1.0  0.1865
  C  C90  1  0.640900  0.385500  0.357300  1.0  0.164
  C  C91  1  0.645000  0.456700  0.263300  1.0  -0.1387
  N  N92  1  0.918000  0.802200  0.930200  1.0  -0.3982
  N  N93  1  0.022300  0.574300  0.637400  1.0  -0.3702
  N  N94  1  0.354200  0.570700  0.997000  1.0  -0.409
  N  N95  1  0.359100  0.738700  0.625300  1.0  -0.4224
  N  N96  1  0.082000  0.197800  0.069800  1.0  -0.3976
  N  N97  1  0.977700  0.425700  0.362600  1.0  -0.3868
  N  N98  1  0.645800  0.429300  0.003000  1.0  -0.4095
  N  N99  1  0.640900  0.261300  0.374700  1.0  -0.4193
  O  O100  1  0.562100  0.901100  0.307900  1.0  -0.7099
  O  O101  1  0.505600  0.914300  0.162100  1.0  -0.6391
  O  O102  1  0.072500  0.905300  0.307800  1.0  -0.7016
  O  O103  1  0.205300  0.888800  0.166300  1.0  -0.6017
  O  O104  1  0.076300  0.652600  0.968700  1.0  -0.4985
  O  O105  1  0.321500  0.712200  0.333400  1.0  -0.7496
  O  O106  1  0.199300  0.562700  0.433400  1.0  -0.6612
  O  O107  1  0.325800  0.130600  0.339000  1.0  -0.6849
  O  O108  1  0.295600  0.126400  0.189000  1.0  -0.6472
  O  O109  1  0.305500  0.411900  0.928700  1.0  -0.4614
  O  O110  1  0.437900  0.098900  0.692100  1.0  -0.7084
  O  O111  1  0.494400  0.085700  0.837900  1.0  -0.6398
  O  O112  1  0.927500  0.094700  0.692200  1.0  -0.7026
  O  O113  1  0.794700  0.111200  0.833700  1.0  -0.601
  O  O114  1  0.923700  0.347400  0.031300  1.0  -0.4997
  O  O115  1  0.678500  0.287800  0.666667  1.0  -0.7532
  O  O116  1  0.800700  0.437300  0.566600  1.0  -0.6615
  O  O117  1  0.674200  0.869400  0.661000  1.0  -0.6869
  O  O118  1  0.704400  0.873600  0.811000  1.0  -0.6459
  O  O119  1  0.694500  0.588100  0.071300  1.0  -0.4611
