# generated using pymatgen
data_La2H6C24(NO4)3
_symmetry_space_group_name_H-M   'P 1'
_cell_length_a   10.22100000
_cell_length_b   10.45200000
_cell_length_c   15.24800000
_cell_angle_alpha   105.76600000
_cell_angle_beta   101.43100000
_cell_angle_gamma   101.22600000
_symmetry_Int_Tables_number   1
_chemical_formula_structural   La2H6C24(NO4)3
_chemical_formula_sum   'La4 H12 C48 N6 O24'
_cell_volume   1482.27375389
_cell_formula_units_Z   2
loop_
 _symmetry_equiv_pos_site_id
 _symmetry_equiv_pos_as_xyz
  1  'x, y, z'
loop_
 _atom_site_type_symbol
 _atom_site_label
 _atom_site_symmetry_multiplicity
 _atom_site_fract_x
 _atom_site_fract_y
 _atom_site_fract_z
 _atom_site_occupancy
 _atom_site_charge
  La  La1  1  0.219690  0.965600  0.804940  1.0  2.1906
  La  La2  1  0.709700  0.992050  0.777590  1.0  2.1702
  La  La3  1  0.780310  0.034400  0.195060  1.0  2.1914
  La  La4  1  0.290300  0.007950  0.222410  1.0  2.1709
  H  H5  1  0.031400  0.588600  0.700400  1.0  0.1076
  H  H6  1  0.689900  0.371100  0.417700  1.0  0.1159
  H  H7  1  0.918000  0.391900  0.839700  1.0  0.1147
  H  H8  1  0.343600  0.653100  0.039600  1.0  0.1147
  H  H9  1  0.292700  0.307300  0.792000  1.0  0.0917
  H  H10  1  0.619800  0.634700  0.747400  1.0  0.1097
  H  H11  1  0.968600  0.411400  0.299600  1.0  0.1076
  H  H12  1  0.310100  0.628900  0.582300  1.0  0.1151
  H  H13  1  0.082000  0.608100  0.160300  1.0  0.1149
  H  H14  1  0.656400  0.346900  0.960400  1.0  0.1156
  H  H15  1  0.707300  0.692700  0.208000  1.0  0.0914
  H  H16  1  0.380200  0.365300  0.252600  1.0  0.1103
  C  C17  1  0.874200  0.750500  0.681400  1.0  0.7564
  C  C18  1  0.862200  0.611100  0.616600  1.0  -0.1857
  C  C19  1  0.962400  0.544500  0.644100  1.0  -0.0485
  C  C20  1  0.960200  0.412400  0.588200  1.0  0.0487
  C  C21  1  0.856600  0.351600  0.503800  1.0  -0.0999
  C  C22  1  0.757100  0.414800  0.474900  1.0  -0.0712
  C  C23  1  0.758100  0.546100  0.532700  1.0  0.1942
  C  C24  1  0.857800  0.212600  0.438000  1.0  0.6642
  C  C25  1  0.054500  0.221900  0.883100  1.0  0.7113
  C  C26  1  0.099000  0.378000  0.913400  1.0  -0.1581
  C  C27  1  0.004900  0.444400  0.878600  1.0  0.0144
  C  C28  1  0.037700  0.587200  0.900400  1.0  0.0297
  C  C29  1  0.166300  0.665300  0.961700  1.0  -0.0596
  C  C30  1  0.258800  0.600000  0.998000  1.0  -0.0929
  C  C31  1  0.228300  0.454800  0.973700  1.0  0.2196
  C  C32  1  0.207600  0.819700  0.985200  1.0  0.6695
  C  C33  1  0.500100  0.203500  0.765600  1.0  0.6951
  C  C34  1  0.476800  0.339100  0.763300  1.0  -0.138
  C  C35  1  0.359200  0.372800  0.782400  1.0  0.0447
  C  C36  1  0.336700  0.500000  0.787600  1.0  0.0588
  C  C37  1  0.438600  0.601000  0.779500  1.0  -0.0527
  C  C38  1  0.553300  0.567800  0.755700  1.0  -0.1105
  C  C39  1  0.572500  0.435900  0.743600  1.0  0.2206
  C  C40  1  0.426000  0.745800  0.801000  1.0  0.7092
  C  C41  1  0.125800  0.249500  0.318600  1.0  0.7554
  C  C42  1  0.137800  0.388900  0.383400  1.0  -0.187
  C  C43  1  0.037600  0.455500  0.355900  1.0  -0.051
  C  C44  1  0.039800  0.587600  0.411800  1.0  0.048
  C  C45  1  0.143400  0.648400  0.496200  1.0  -0.0981
  C  C46  1  0.242900  0.585200  0.525100  1.0  -0.0699
  C  C47  1  0.241900  0.453900  0.467300  1.0  0.1972
  C  C48  1  0.142200  0.787400  0.562000  1.0  0.6644
  C  C49  1  0.945500  0.778100  0.116900  1.0  0.7118
  C  C50  1  0.901000  0.622000  0.086600  1.0  -0.1569
  C  C51  1  0.995100  0.555600  0.121400  1.0  0.0148
  C  C52  1  0.962300  0.412800  0.099600  1.0  0.0292
  C  C53  1  0.833700  0.334700  0.038300  1.0  -0.058
  C  C54  1  0.741200  0.400000  0.002000  1.0  -0.0926
  C  C55  1  0.771700  0.545200  0.026300  1.0  0.2189
  C  C56  1  0.792400  0.180300  0.014800  1.0  0.6685
  C  C57  1  0.499900  0.796500  0.234400  1.0  0.6973
  C  C58  1  0.523200  0.660900  0.236700  1.0  -0.1364
  C  C59  1  0.640800  0.627200  0.217600  1.0  0.0436
  C  C60  1  0.663300  0.500000  0.212400  1.0  0.0595
  C  C61  1  0.561400  0.399000  0.220500  1.0  -0.051
  C  C62  1  0.446700  0.432200  0.244300  1.0  -0.1092
  C  C63  1  0.427500  0.564100  0.256400  1.0  0.2185
  C  C64  1  0.574000  0.254200  0.199000  1.0  0.7073
  N  N65  1  0.655400  0.604900  0.503400  1.0  -0.2714
  N  N66  1  0.330500  0.398700  0.007700  1.0  -0.2752
  N  N67  1  0.680200  0.403100  0.709000  1.0  -0.244
  N  N68  1  0.344600  0.395100  0.496600  1.0  -0.2723
  N  N69  1  0.669500  0.601300  0.992300  1.0  -0.2729
  N  N70  1  0.319800  0.596900  0.291000  1.0  -0.2424
  O  O71  1  0.769500  0.796600  0.676000  1.0  -0.6661
  O  O72  1  0.988300  0.816700  0.739500  1.0  -0.7428
  O  O73  1  0.763900  0.160500  0.358100  1.0  -0.6497
  O  O74  1  0.947300  0.155600  0.463200  1.0  -0.5031
  O  O75  1  0.144500  0.158400  0.896500  1.0  -0.714
  O  O76  1  0.929000  0.163000  0.843500  1.0  -0.7617
  O  O77  1  0.307400  0.888500  0.057300  1.0  -0.7076
  O  O78  1  0.142400  0.874900  0.933800  1.0  -0.6849
  O  O79  1  0.410600  0.119800  0.782300  1.0  -0.7829
  O  O80  1  0.612700  0.179400  0.753700  1.0  -0.6694
  O  O81  1  0.316500  0.770200  0.816000  1.0  -0.6251
  O  O82  1  0.527200  0.838800  0.805400  1.0  -0.742
  O  O83  1  0.230500  0.203400  0.324000  1.0  -0.6662
  O  O84  1  0.011700  0.183300  0.260500  1.0  -0.7417
  O  O85  1  0.236100  0.839500  0.641900  1.0  -0.6507
  O  O86  1  0.052700  0.844400  0.536800  1.0  -0.5023
  O  O87  1  0.855500  0.841600  0.103500  1.0  -0.7126
  O  O88  1  0.071000  0.837000  0.156500  1.0  -0.762
  O  O89  1  0.692600  0.111500  0.942700  1.0  -0.7073
  O  O90  1  0.857600  0.125100  0.066200  1.0  -0.6843
  O  O91  1  0.589400  0.880200  0.217700  1.0  -0.7823
  O  O92  1  0.387300  0.820600  0.246300  1.0  -0.6697
  O  O93  1  0.683500  0.229800  0.184000  1.0  -0.6258
  O  O94  1  0.472800  0.161200  0.194600  1.0  -0.7434
