# generated using pymatgen
data_TbH6C14(NO4)2
_symmetry_space_group_name_H-M   'P 1'
_cell_length_a   6.72200000
_cell_length_b   14.23900000
_cell_length_c   22.88000000
_cell_angle_alpha   90.00000000
_cell_angle_beta   90.00000000
_cell_angle_gamma   90.00000000
_symmetry_Int_Tables_number   1
_chemical_formula_structural   TbH6C14(NO4)2
_chemical_formula_sum   'Tb4 H24 C56 N8 O32'
_cell_volume   2189.94908704
_cell_formula_units_Z   4
loop_
 _symmetry_equiv_pos_site_id
 _symmetry_equiv_pos_as_xyz
  1  'x, y, z'
loop_
 _atom_site_type_symbol
 _atom_site_label
 _atom_site_symmetry_multiplicity
 _atom_site_fract_x
 _atom_site_fract_y
 _atom_site_fract_z
 _atom_site_occupancy
 _atom_site_charge
  Tb  Tb1  1  0.750000  0.952430  0.640440  1.0  2.2409
  Tb  Tb2  1  0.250000  0.547570  0.140440  1.0  2.2402
  Tb  Tb3  1  0.250000  0.047570  0.359560  1.0  2.2402
  Tb  Tb4  1  0.750000  0.452430  0.859560  1.0  2.2403
  H  H5  1  0.750000  0.987300  0.794700  1.0  0.099
  H  H6  1  0.750000  0.907400  0.881600  1.0  0.1228
  H  H7  1  0.750000  0.747900  0.883100  1.0  0.1323
  H  H8  1  0.750000  0.769200  0.535400  1.0  0.0959
  H  H9  1  0.750000  0.738800  0.437400  1.0  0.1271
  H  H10  1  0.750000  0.862200  0.371200  1.0  0.1318
  H  H11  1  0.250000  0.512700  0.294700  1.0  0.0986
  H  H12  1  0.250000  0.592600  0.381600  1.0  0.1233
  H  H13  1  0.250000  0.752100  0.383100  1.0  0.1329
  H  H14  1  0.250000  0.730800  0.035400  1.0  0.0975
  H  H15  1  0.250000  0.761200  0.937400  1.0  0.1276
  H  H16  1  0.250000  0.637800  0.871200  1.0  0.132
  H  H17  1  0.250000  0.012700  0.205300  1.0  0.0978
  H  H18  1  0.250000  0.092600  0.118400  1.0  0.1222
  H  H19  1  0.250000  0.252100  0.116900  1.0  0.1321
  H  H20  1  0.250000  0.230800  0.464600  1.0  0.0985
  H  H21  1  0.250000  0.261200  0.562600  1.0  0.1274
  H  H22  1  0.250000  0.137800  0.628800  1.0  0.1317
  H  H23  1  0.750000  0.487300  0.705300  1.0  0.0981
  H  H24  1  0.750000  0.407400  0.618400  1.0  0.1223
  H  H25  1  0.750000  0.247900  0.616900  1.0  0.1314
  H  H26  1  0.750000  0.269200  0.964600  1.0  0.0953
  H  H27  1  0.750000  0.238800  0.062600  1.0  0.1275
  H  H28  1  0.750000  0.362200  0.128800  1.0  0.1314
  C  C29  1  0.750000  0.922000  0.794300  1.0  0.14
  C  C30  1  0.750000  0.874100  0.846700  1.0  -0.0933
  C  C31  1  0.750000  0.780000  0.847700  1.0  -0.0587
  C  C32  1  0.750000  0.730200  0.794700  1.0  -0.0634
  C  C33  1  0.750000  0.623200  0.797200  1.0  0.665
  C  C34  1  0.750000  0.780800  0.742600  1.0  0.1105
  C  C35  1  0.750000  0.734700  0.683700  1.0  0.7203
  C  C36  1  0.750000  0.819500  0.509500  1.0  0.1598
  C  C37  1  0.750000  0.800600  0.450600  1.0  -0.1352
  C  C38  1  0.750000  0.873900  0.411200  1.0  -0.0262
  C  C39  1  0.750000  0.966500  0.432500  1.0  -0.0522
  C  C40  1  0.750000  0.045500  0.388800  1.0  0.7422
  C  C41  1  0.750000  0.979600  0.493400  1.0  0.094
  C  C42  1  0.750000  0.076500  0.520600  1.0  0.6429
  C  C43  1  0.250000  0.578000  0.294300  1.0  0.1401
  C  C44  1  0.250000  0.625900  0.346700  1.0  -0.0935
  C  C45  1  0.250000  0.720000  0.347700  1.0  -0.0581
  C  C46  1  0.250000  0.769800  0.294700  1.0  -0.0634
  C  C47  1  0.250000  0.876800  0.297200  1.0  0.6651
  C  C48  1  0.250000  0.719200  0.242600  1.0  0.1107
  C  C49  1  0.250000  0.765300  0.183700  1.0  0.7219
  C  C50  1  0.250000  0.680500  0.009500  1.0  0.1567
  C  C51  1  0.250000  0.699400  0.950600  1.0  -0.1354
  C  C52  1  0.250000  0.626100  0.911200  1.0  -0.0265
  C  C53  1  0.250000  0.533500  0.932500  1.0  -0.0524
  C  C54  1  0.250000  0.454500  0.888800  1.0  0.741
  C  C55  1  0.250000  0.520400  0.993400  1.0  0.0931
  C  C56  1  0.250000  0.423500  0.020600  1.0  0.6428
  C  C57  1  0.250000  0.078000  0.205700  1.0  0.1398
  C  C58  1  0.250000  0.125900  0.153300  1.0  -0.0919
  C  C59  1  0.250000  0.220000  0.152300  1.0  -0.0572
  C  C60  1  0.250000  0.269800  0.205300  1.0  -0.0622
  C  C61  1  0.250000  0.376800  0.202800  1.0  0.6652
  C  C62  1  0.250000  0.219200  0.257400  1.0  0.1095
  C  C63  1  0.250000  0.265300  0.316300  1.0  0.7203
  C  C64  1  0.250000  0.180500  0.490500  1.0  0.1576
  C  C65  1  0.250000  0.199400  0.549400  1.0  -0.135
  C  C66  1  0.250000  0.126100  0.588800  1.0  -0.0265
  C  C67  1  0.250000  0.033500  0.567500  1.0  -0.0508
  C  C68  1  0.250000  0.954500  0.611200  1.0  0.7422
  C  C69  1  0.250000  0.020400  0.506600  1.0  0.0929
  C  C70  1  0.250000  0.923500  0.479400  1.0  0.6423
  C  C71  1  0.750000  0.422000  0.705700  1.0  0.1396
  C  C72  1  0.750000  0.374100  0.653300  1.0  -0.0919
  C  C73  1  0.750000  0.280000  0.652300  1.0  -0.0579
  C  C74  1  0.750000  0.230200  0.705300  1.0  -0.0623
  C  C75  1  0.750000  0.123200  0.702800  1.0  0.665
  C  C76  1  0.750000  0.280800  0.757400  1.0  0.1099
  C  C77  1  0.750000  0.234700  0.816300  1.0  0.7211
  C  C78  1  0.750000  0.319500  0.990500  1.0  0.1606
  C  C79  1  0.750000  0.300600  0.049400  1.0  -0.1356
  C  C80  1  0.750000  0.373900  0.088800  1.0  -0.0269
  C  C81  1  0.750000  0.466500  0.067500  1.0  -0.0518
  C  C82  1  0.750000  0.545500  0.111200  1.0  0.7427
  C  C83  1  0.750000  0.479600  0.006600  1.0  0.094
  C  C84  1  0.750000  0.576500  0.979400  1.0  0.6426
  N  N85  1  0.750000  0.875700  0.741300  1.0  -0.4049
  N  N86  1  0.750000  0.906600  0.531300  1.0  -0.4031
  N  N87  1  0.250000  0.624300  0.241300  1.0  -0.4047
  N  N88  1  0.250000  0.593400  0.031300  1.0  -0.4031
  N  N89  1  0.250000  0.124300  0.258700  1.0  -0.4048
  N  N90  1  0.250000  0.093400  0.468700  1.0  -0.4029
  N  N91  1  0.750000  0.375700  0.758700  1.0  -0.4049
  N  N92  1  0.750000  0.406600  0.968700  1.0  -0.4032
  O  O93  1  0.913000  0.580200  0.803390  1.0  -0.6192
  O  O94  1  0.915500  0.075500  0.370730  1.0  -0.6965
  O  O95  1  0.087000  0.919800  0.303390  1.0  -0.6196
  O  O96  1  0.084500  0.424500  0.870730  1.0  -0.6963
  O  O97  1  0.413000  0.419800  0.196610  1.0  -0.6186
  O  O98  1  0.415500  0.924500  0.629270  1.0  -0.6981
  O  O99  1  0.587000  0.080200  0.696610  1.0  -0.6198
  O  O100  1  0.584500  0.575500  0.129270  1.0  -0.6957
  O  O101  1  0.087000  0.419800  0.196610  1.0  -0.6198
  O  O102  1  0.084500  0.924500  0.629270  1.0  -0.6977
  O  O103  1  0.913000  0.080200  0.696610  1.0  -0.6187
  O  O104  1  0.915500  0.575500  0.129270  1.0  -0.6976
  O  O105  1  0.587000  0.580200  0.803390  1.0  -0.6209
  O  O106  1  0.584500  0.075500  0.370730  1.0  -0.6952
  O  O107  1  0.413000  0.919800  0.303390  1.0  -0.6183
  O  O108  1  0.415500  0.424500  0.870730  1.0  -0.6962
  O  O109  1  0.750000  0.788800  0.640200  1.0  -0.6508
  O  O110  1  0.750000  0.647100  0.681000  1.0  -0.5607
  O  O111  1  0.750000  0.077900  0.576700  1.0  -0.6135
  O  O112  1  0.750000  0.145200  0.487000  1.0  -0.5311
  O  O113  1  0.250000  0.711200  0.140200  1.0  -0.6527
  O  O114  1  0.250000  0.852900  0.181000  1.0  -0.5606
  O  O115  1  0.250000  0.422100  0.076700  1.0  -0.613
  O  O116  1  0.250000  0.354800  0.987000  1.0  -0.5302
  O  O117  1  0.250000  0.211200  0.359800  1.0  -0.6524
  O  O118  1  0.250000  0.352900  0.319000  1.0  -0.5602
  O  O119  1  0.250000  0.922100  0.423300  1.0  -0.6127
  O  O120  1  0.250000  0.854800  0.513000  1.0  -0.5283
  O  O121  1  0.750000  0.288800  0.859800  1.0  -0.6506
  O  O122  1  0.750000  0.147100  0.819000  1.0  -0.5608
  O  O123  1  0.750000  0.577900  0.923300  1.0  -0.6123
  O  O124  1  0.750000  0.645200  0.013000  1.0  -0.5315
