# generated using pymatgen
data_Zn4H13C9SN16O7
_symmetry_space_group_name_H-M   'P 1'
_cell_length_a   7.42670000
_cell_length_b   12.90820000
_cell_length_c   12.90820000
_cell_angle_alpha   92.14510000
_cell_angle_beta   94.53440000
_cell_angle_gamma   85.46560000
_symmetry_Int_Tables_number   1
_chemical_formula_structural   Zn4H13C9SN16O7
_chemical_formula_sum   'Zn8 H26 C18 S2 N32 O14'
_cell_volume   1229.10919088
_cell_formula_units_Z   2
loop_
 _symmetry_equiv_pos_site_id
 _symmetry_equiv_pos_as_xyz
  1  'x, y, z'
loop_
 _atom_site_type_symbol
 _atom_site_label
 _atom_site_symmetry_multiplicity
 _atom_site_fract_x
 _atom_site_fract_y
 _atom_site_fract_z
 _atom_site_occupancy
 _atom_site_charge
  Zn  Zn1  1  0.722330  0.389860  0.787000  1.0  0.9309
  Zn  Zn2  1  0.277670  0.787000  0.389860  1.0  0.9347
  Zn  Zn3  1  0.277670  0.610140  0.213000  1.0  0.9317
  Zn  Zn4  1  0.722330  0.213000  0.610140  1.0  0.932
  Zn  Zn5  1  0.500000  0.845530  0.845530  1.0  0.7069
  Zn  Zn6  1  0.500000  0.154470  0.154470  1.0  0.7076
  Zn  Zn7  1  0.000000  0.820750  0.820750  1.0  0.7919
  Zn  Zn8  1  0.000000  0.179250  0.179250  1.0  0.7922
  H  H9  1  0.058200  0.504000  0.731200  1.0  0.3358
  H  H10  1  0.115700  0.608400  0.736600  1.0  0.3195
  H  H11  1  0.938400  0.738200  0.130600  1.0  0.3388
  H  H12  1  0.868500  0.788800  0.036600  1.0  0.3277
  H  H13  1  0.502900  0.593500  0.835900  1.0  0.0801
  H  H14  1  0.513100  0.692200  0.045000  1.0  0.0865
  H  H15  1  0.941800  0.731200  0.504000  1.0  0.3351
  H  H16  1  0.884300  0.736600  0.608400  1.0  0.319
  H  H17  1  0.061600  0.130600  0.738200  1.0  0.3421
  H  H18  1  0.131500  0.036600  0.788800  1.0  0.3284
  H  H19  1  0.497100  0.835900  0.593500  1.0  0.0804
  H  H20  1  0.486900  0.045000  0.692200  1.0  0.0874
  H  H21  1  0.941800  0.496000  0.268800  1.0  0.3358
  H  H22  1  0.884300  0.391600  0.263400  1.0  0.3193
  H  H23  1  0.061600  0.261800  0.869400  1.0  0.3405
  H  H24  1  0.131500  0.211200  0.963400  1.0  0.3271
  H  H25  1  0.497100  0.406500  0.164100  1.0  0.0804
  H  H26  1  0.486900  0.307800  0.955000  1.0  0.0863
  H  H27  1  0.058200  0.268800  0.496000  1.0  0.3348
  H  H28  1  0.115700  0.263400  0.391600  1.0  0.3173
  H  H29  1  0.938400  0.869400  0.261800  1.0  0.3419
  H  H30  1  0.868500  0.963400  0.211200  1.0  0.3271
  H  H31  1  0.502900  0.164100  0.406500  1.0  0.0803
  H  H32  1  0.513100  0.955000  0.307800  1.0  0.0872
  H  H33  1  0.896000  0.354700  0.645300  1.0  0.4231
  H  H34  1  0.104000  0.645300  0.354700  1.0  0.4236
  C  C35  1  0.618100  0.611270  0.823650  1.0  0.2768
  C  C36  1  0.892400  0.599740  0.789100  1.0  0.6178
  C  C37  1  0.392300  0.713600  0.027660  1.0  0.2863
  C  C38  1  0.108000  0.739090  0.033590  1.0  0.5996
  C  C39  1  0.381900  0.823650  0.611270  1.0  0.2769
  C  C40  1  0.107600  0.789100  0.599740  1.0  0.6173
  C  C41  1  0.607700  0.027660  0.713600  1.0  0.2868
  C  C42  1  0.892000  0.033590  0.739090  1.0  0.5986
  C  C43  1  0.381900  0.388730  0.176350  1.0  0.2771
  C  C44  1  0.107600  0.400260  0.210900  1.0  0.6175
  C  C45  1  0.607700  0.286400  0.972340  1.0  0.2865
  C  C46  1  0.892000  0.260910  0.966410  1.0  0.5989
  C  C47  1  0.618100  0.176350  0.388730  1.0  0.2768
  C  C48  1  0.892400  0.210900  0.400260  1.0  0.6171
  C  C49  1  0.392300  0.972340  0.286400  1.0  0.287
  C  C50  1  0.108000  0.966410  0.260910  1.0  0.5993
  C  C51  1  0.590200  0.974030  0.025970  1.0  0.5786
  C  C52  1  0.409800  0.025970  0.974030  1.0  0.5739
  S  S53  1  0.351880  0.314890  0.685110  1.0  1.6501
  S  S54  1  0.648120  0.685110  0.314890  1.0  1.6519
  N  N55  1  0.663000  0.706910  0.824810  1.0  -0.2227
  N  N56  1  0.842900  0.700330  0.801610  1.0  -0.3855
  N  N57  1  0.756000  0.540160  0.802880  1.0  -0.5482
  N  N58  1  0.064000  0.561650  0.770050  1.0  -0.7094
  N  N59  1  0.337700  0.765650  0.944790  1.0  -0.2475
  N  N60  1  0.150500  0.783570  0.948430  1.0  -0.3822
  N  N61  1  0.256300  0.693930  0.085570  1.0  -0.5468
  N  N62  1  0.936600  0.735320  0.062160  1.0  -0.723
  N  N63  1  0.337000  0.824810  0.706910  1.0  -0.2212
  N  N64  1  0.157100  0.801610  0.700330  1.0  -0.392
  N  N65  1  0.244000  0.802880  0.540160  1.0  -0.5503
  N  N66  1  0.936000  0.770050  0.561650  1.0  -0.7101
  N  N67  1  0.662300  0.944790  0.765650  1.0  -0.2486
  N  N68  1  0.849500  0.948430  0.783570  1.0  -0.3809
  N  N69  1  0.743700  0.085570  0.693930  1.0  -0.5453
  N  N70  1  0.063400  0.062160  0.735320  1.0  -0.7247
  N  N71  1  0.337000  0.293090  0.175190  1.0  -0.2225
  N  N72  1  0.157100  0.299670  0.198390  1.0  -0.3892
  N  N73  1  0.244000  0.459840  0.197120  1.0  -0.5452
  N  N74  1  0.936000  0.438350  0.229950  1.0  -0.7136
  N  N75  1  0.662300  0.234350  0.055210  1.0  -0.247
  N  N76  1  0.849500  0.216430  0.051570  1.0  -0.3825
  N  N77  1  0.743700  0.306070  0.914430  1.0  -0.5456
  N  N78  1  0.063400  0.264680  0.937840  1.0  -0.7224
  N  N79  1  0.663000  0.175190  0.293090  1.0  -0.2218
  N  N80  1  0.842900  0.198390  0.299670  1.0  -0.3915
  N  N81  1  0.756000  0.197120  0.459840  1.0  -0.5481
  N  N82  1  0.064000  0.229950  0.438350  1.0  -0.7096
  N  N83  1  0.337700  0.055210  0.234350  1.0  -0.2482
  N  N84  1  0.150500  0.051570  0.216430  1.0  -0.3801
  N  N85  1  0.256300  0.914430  0.306070  1.0  -0.546
  N  N86  1  0.936600  0.937840  0.264680  1.0  -0.7229
  O  O87  1  0.461800  0.394530  0.740270  1.0  -0.7813
  O  O88  1  0.656100  0.892610  0.982570  1.0  -0.5529
  O  O89  1  0.538200  0.740270  0.394530  1.0  -0.7811
  O  O90  1  0.343900  0.982570  0.892610  1.0  -0.5522
  O  O91  1  0.538200  0.605470  0.259730  1.0  -0.7808
  O  O92  1  0.343900  0.107390  0.017430  1.0  -0.5531
  O  O93  1  0.461800  0.259730  0.605470  1.0  -0.7815
  O  O94  1  0.656100  0.017430  0.107390  1.0  -0.553
  O  O95  1  0.192000  0.368480  0.631520  1.0  -0.7286
  O  O96  1  0.302000  0.241760  0.758240  1.0  -0.6852
  O  O97  1  0.860100  0.312910  0.687090  1.0  -0.9361
  O  O98  1  0.808000  0.631520  0.368480  1.0  -0.7285
  O  O99  1  0.698000  0.758240  0.241760  1.0  -0.6839
  O  O100  1  0.139900  0.687090  0.312910  1.0  -0.935
