# generated using pymatgen
data_Ag7C14(OF)12
_symmetry_space_group_name_H-M   'P 1'
_cell_length_a   10.05450000
_cell_length_b   15.29380000
_cell_length_c   20.44660000
_cell_angle_alpha   90.00000000
_cell_angle_beta   90.00000000
_cell_angle_gamma   90.00000000
_symmetry_Int_Tables_number   1
_chemical_formula_structural   Ag7C14(OF)12
_chemical_formula_sum   'Ag28 C56 O48 F48'
_cell_volume   3144.10459930
_cell_formula_units_Z   4
loop_
 _symmetry_equiv_pos_site_id
 _symmetry_equiv_pos_as_xyz
  1  'x, y, z'
loop_
 _atom_site_type_symbol
 _atom_site_label
 _atom_site_symmetry_multiplicity
 _atom_site_fract_x
 _atom_site_fract_y
 _atom_site_fract_z
 _atom_site_occupancy
 _atom_site_charge
  Ag  Ag1  1  0.397580  0.911270  0.587850  1.0  0.5747
  Ag  Ag2  1  0.552900  0.870120  0.473290  1.0  0.4979
  Ag  Ag3  1  0.102420  0.088730  0.087850  1.0  0.5747
  Ag  Ag4  1  0.947100  0.129880  0.973290  1.0  0.4991
  Ag  Ag5  1  0.602420  0.411270  0.412150  1.0  0.5751
  Ag  Ag6  1  0.447100  0.370120  0.526710  1.0  0.5
  Ag  Ag7  1  0.897580  0.588730  0.912150  1.0  0.5747
  Ag  Ag8  1  0.052900  0.629880  0.026710  1.0  0.4997
  Ag  Ag9  1  0.602420  0.088730  0.412150  1.0  0.575
  Ag  Ag10  1  0.447100  0.129880  0.526710  1.0  0.5
  Ag  Ag11  1  0.897580  0.911270  0.912150  1.0  0.5748
  Ag  Ag12  1  0.052900  0.870120  0.026710  1.0  0.4996
  Ag  Ag13  1  0.397580  0.588730  0.587850  1.0  0.5745
  Ag  Ag14  1  0.552900  0.629880  0.473290  1.0  0.4987
  Ag  Ag15  1  0.102420  0.411270  0.087850  1.0  0.575
  Ag  Ag16  1  0.947100  0.370120  0.973290  1.0  0.4984
  Ag  Ag17  1  0.346600  0.750000  0.657070  1.0  0.6336
  Ag  Ag18  1  0.324880  0.750000  0.460930  1.0  0.6605
  Ag  Ag19  1  0.707670  0.750000  0.556880  1.0  0.699
  Ag  Ag20  1  0.153400  0.250000  0.157070  1.0  0.6219
  Ag  Ag21  1  0.175120  0.250000  0.960930  1.0  0.6549
  Ag  Ag22  1  0.792330  0.250000  0.056880  1.0  0.7011
  Ag  Ag23  1  0.653400  0.250000  0.342930  1.0  0.6221
  Ag  Ag24  1  0.675120  0.250000  0.539070  1.0  0.655
  Ag  Ag25  1  0.292330  0.250000  0.443120  1.0  0.7003
  Ag  Ag26  1  0.846600  0.750000  0.842930  1.0  0.6336
  Ag  Ag27  1  0.824880  0.750000  0.039070  1.0  0.6564
  Ag  Ag28  1  0.207670  0.750000  0.943120  1.0  0.6985
  C  C29  1  0.467900  0.789700  0.553300  1.0  -0.5899
  C  C30  1  0.229200  0.938000  0.708100  1.0  0.566
  C  C31  1  0.150400  0.991100  0.760100  1.0  0.2826
  C  C32  1  0.230400  0.011000  0.822600  1.0  0.2724
  C  C33  1  0.159900  0.072500  0.871500  1.0  0.5739
  C  C34  1  0.833700  0.932600  0.485500  1.0  0.5815
  C  C35  1  0.961000  0.986400  0.470000  1.0  0.2767
  C  C36  1  0.032100  0.210300  0.053300  1.0  -0.5813
  C  C37  1  0.270800  0.062000  0.208100  1.0  0.5658
  C  C38  1  0.349600  0.008900  0.260100  1.0  0.2824
  C  C39  1  0.269600  0.989000  0.322600  1.0  0.2772
  C  C40  1  0.340100  0.927500  0.371500  1.0  0.5762
  C  C41  1  0.666300  0.067400  0.985500  1.0  0.582
  C  C42  1  0.539000  0.013600  0.970000  1.0  0.275
  C  C43  1  0.532100  0.289700  0.446700  1.0  -0.5845
  C  C44  1  0.770800  0.438000  0.291900  1.0  0.5675
  C  C45  1  0.849600  0.491100  0.239900  1.0  0.2828
  C  C46  1  0.769600  0.511000  0.177400  1.0  0.2716
  C  C47  1  0.840100  0.572500  0.128500  1.0  0.5735
  C  C48  1  0.166300  0.432600  0.514500  1.0  0.5822
  C  C49  1  0.039000  0.486400  0.530000  1.0  0.2778
  C  C50  1  0.967900  0.710300  0.946700  1.0  -0.5865
  C  C51  1  0.729200  0.562000  0.791900  1.0  0.5658
  C  C52  1  0.650400  0.508900  0.739900  1.0  0.2808
  C  C53  1  0.730400  0.489000  0.677400  1.0  0.2785
  C  C54  1  0.659900  0.427500  0.628500  1.0  0.5752
  C  C55  1  0.333700  0.567400  0.014500  1.0  0.5803
  C  C56  1  0.461000  0.513600  0.030000  1.0  0.2773
  C  C57  1  0.532100  0.210300  0.446700  1.0  -0.5881
  C  C58  1  0.770800  0.062000  0.291900  1.0  0.5658
  C  C59  1  0.849600  0.008900  0.239900  1.0  0.2822
  C  C60  1  0.769600  0.989000  0.177400  1.0  0.2772
  C  C61  1  0.840100  0.927500  0.128500  1.0  0.5742
  C  C62  1  0.166300  0.067400  0.514500  1.0  0.5816
  C  C63  1  0.039000  0.013600  0.530000  1.0  0.2748
  C  C64  1  0.967900  0.789700  0.946700  1.0  -0.5891
  C  C65  1  0.729200  0.938000  0.791900  1.0  0.5675
  C  C66  1  0.650400  0.991100  0.739900  1.0  0.2821
  C  C67  1  0.730400  0.011000  0.677400  1.0  0.2744
  C  C68  1  0.659900  0.072500  0.628500  1.0  0.5744
  C  C69  1  0.333700  0.932600  0.014500  1.0  0.5812
  C  C70  1  0.461000  0.986400  0.030000  1.0  0.2779
  C  C71  1  0.467900  0.710300  0.553300  1.0  -0.5877
  C  C72  1  0.229200  0.562000  0.708100  1.0  0.5656
  C  C73  1  0.150400  0.508900  0.760100  1.0  0.2816
  C  C74  1  0.230400  0.489000  0.822600  1.0  0.2786
  C  C75  1  0.159900  0.427500  0.871500  1.0  0.5763
  C  C76  1  0.833700  0.567400  0.485500  1.0  0.5808
  C  C77  1  0.961000  0.513600  0.470000  1.0  0.2768
  C  C78  1  0.032100  0.289700  0.053300  1.0  -0.577
  C  C79  1  0.270800  0.438000  0.208100  1.0  0.5661
  C  C80  1  0.349600  0.491100  0.260100  1.0  0.2828
  C  C81  1  0.269600  0.511000  0.322600  1.0  0.2717
  C  C82  1  0.340100  0.572500  0.371500  1.0  0.5736
  C  C83  1  0.666300  0.432600  0.985500  1.0  0.5822
  C  C84  1  0.539000  0.486400  0.970000  1.0  0.2764
  O  O85  1  0.280800  0.981300  0.664000  1.0  -0.4881
  O  O86  1  0.231300  0.858100  0.716900  1.0  -0.5208
  O  O87  1  0.061500  0.040900  0.899900  1.0  -0.5393
  O  O88  1  0.207000  0.147300  0.876200  1.0  -0.4881
  O  O89  1  0.728400  0.972100  0.481900  1.0  -0.5274
  O  O90  1  0.854800  0.853100  0.497600  1.0  -0.5273
  O  O91  1  0.219200  0.018700  0.164000  1.0  -0.4887
  O  O92  1  0.268700  0.141900  0.216900  1.0  -0.5212
  O  O93  1  0.438500  0.959100  0.399900  1.0  -0.5385
  O  O94  1  0.293000  0.852700  0.376200  1.0  -0.4867
  O  O95  1  0.771600  0.027900  0.981900  1.0  -0.5287
  O  O96  1  0.645200  0.146900  0.997600  1.0  -0.5324
  O  O97  1  0.719200  0.481300  0.336000  1.0  -0.4875
  O  O98  1  0.768700  0.358100  0.283100  1.0  -0.517
  O  O99  1  0.938500  0.540900  0.100100  1.0  -0.5387
  O  O100  1  0.793000  0.647300  0.123800  1.0  -0.4927
  O  O101  1  0.271600  0.472100  0.518100  1.0  -0.5279
  O  O102  1  0.145200  0.353100  0.502400  1.0  -0.5285
  O  O103  1  0.780800  0.518700  0.836000  1.0  -0.4885
  O  O104  1  0.731300  0.641900  0.783100  1.0  -0.5228
  O  O105  1  0.561500  0.459100  0.600100  1.0  -0.5383
  O  O106  1  0.707000  0.352700  0.623800  1.0  -0.4826
  O  O107  1  0.228400  0.527900  0.018100  1.0  -0.5284
  O  O108  1  0.354800  0.646900  0.002400  1.0  -0.5303
  O  O109  1  0.719200  0.018700  0.336000  1.0  -0.4884
  O  O110  1  0.768700  0.141900  0.283100  1.0  -0.521
  O  O111  1  0.938500  0.959100  0.100100  1.0  -0.5385
  O  O112  1  0.793000  0.852700  0.123800  1.0  -0.4861
  O  O113  1  0.271600  0.027900  0.518100  1.0  -0.5287
  O  O114  1  0.145200  0.146900  0.502400  1.0  -0.5318
  O  O115  1  0.780800  0.981300  0.836000  1.0  -0.4876
  O  O116  1  0.731300  0.858100  0.783100  1.0  -0.5196
  O  O117  1  0.561500  0.040900  0.600100  1.0  -0.539
  O  O118  1  0.707000  0.147300  0.623800  1.0  -0.4892
  O  O119  1  0.228400  0.972100  0.018100  1.0  -0.5271
  O  O120  1  0.354800  0.853100  0.002400  1.0  -0.5268
  O  O121  1  0.280800  0.518700  0.664000  1.0  -0.4885
  O  O122  1  0.231300  0.641900  0.716900  1.0  -0.5241
  O  O123  1  0.061500  0.459100  0.899900  1.0  -0.5385
  O  O124  1  0.207000  0.352700  0.876200  1.0  -0.4832
  O  O125  1  0.728400  0.527900  0.481900  1.0  -0.5283
  O  O126  1  0.854800  0.646900  0.497600  1.0  -0.5309
  O  O127  1  0.219200  0.481300  0.164000  1.0  -0.488
  O  O128  1  0.268700  0.358100  0.216900  1.0  -0.5172
  O  O129  1  0.438500  0.540900  0.399900  1.0  -0.5389
  O  O130  1  0.293000  0.647300  0.376200  1.0  -0.4915
  O  O131  1  0.771600  0.472100  0.981900  1.0  -0.5282
  O  O132  1  0.645200  0.353100  0.997600  1.0  -0.5291
  F  F133  1  0.109900  0.068500  0.735930  1.0  -0.1338
  F  F134  1  0.039300  0.945900  0.776800  1.0  -0.1714
  F  F135  1  0.345700  0.045800  0.803000  1.0  -0.1417
  F  F136  1  0.258900  0.934800  0.852500  1.0  -0.1746
  F  F137  1  0.937100  0.058600  0.434000  1.0  -0.1538
  F  F138  1  0.049500  0.938100  0.433600  1.0  -0.1673
  F  F139  1  0.390100  0.931500  0.235930  1.0  -0.1358
  F  F140  1  0.460700  0.054100  0.276800  1.0  -0.1712
  F  F141  1  0.154300  0.954200  0.303000  1.0  -0.1435
  F  F142  1  0.241100  0.065200  0.352500  1.0  -0.1748
  F  F143  1  0.562900  0.941400  0.934000  1.0  -0.1536
  F  F144  1  0.450500  0.061900  0.933600  1.0  -0.1671
  F  F145  1  0.890100  0.568500  0.264070  1.0  -0.1357
  F  F146  1  0.960700  0.445900  0.223200  1.0  -0.171
  F  F147  1  0.654300  0.545800  0.197000  1.0  -0.1429
  F  F148  1  0.741100  0.434800  0.147500  1.0  -0.1743
  F  F149  1  0.062900  0.558600  0.566000  1.0  -0.1541
  F  F150  1  0.950500  0.438100  0.566400  1.0  -0.1665
  F  F151  1  0.609900  0.431500  0.764070  1.0  -0.1347
  F  F152  1  0.539300  0.554100  0.723200  1.0  -0.1716
  F  F153  1  0.845700  0.454200  0.697000  1.0  -0.1436
  F  F154  1  0.758900  0.565200  0.647500  1.0  -0.1739
  F  F155  1  0.437100  0.441400  0.066000  1.0  -0.1541
  F  F156  1  0.549500  0.561900  0.066400  1.0  -0.1673
  F  F157  1  0.890100  0.931500  0.264070  1.0  -0.1353
  F  F158  1  0.960700  0.054100  0.223200  1.0  -0.1711
  F  F159  1  0.654300  0.954200  0.197000  1.0  -0.1431
  F  F160  1  0.741100  0.065200  0.147500  1.0  -0.1734
  F  F161  1  0.062900  0.941400  0.566000  1.0  -0.1538
  F  F162  1  0.950500  0.061900  0.566400  1.0  -0.1668
  F  F163  1  0.609900  0.068500  0.764070  1.0  -0.1354
  F  F164  1  0.539300  0.945900  0.723200  1.0  -0.1713
  F  F165  1  0.845700  0.045800  0.697000  1.0  -0.1423
  F  F166  1  0.758900  0.934800  0.647500  1.0  -0.1746
  F  F167  1  0.437100  0.058600  0.066000  1.0  -0.1546
  F  F168  1  0.549500  0.938100  0.066400  1.0  -0.1668
  F  F169  1  0.109900  0.431500  0.735930  1.0  -0.1344
  F  F170  1  0.039300  0.554100  0.776800  1.0  -0.1717
  F  F171  1  0.345700  0.454200  0.803000  1.0  -0.1432
  F  F172  1  0.258900  0.565200  0.852500  1.0  -0.1745
  F  F173  1  0.937100  0.441400  0.434000  1.0  -0.1537
  F  F174  1  0.049500  0.561900  0.433600  1.0  -0.1678
  F  F175  1  0.390100  0.568500  0.235930  1.0  -0.1356
  F  F176  1  0.460700  0.445900  0.276800  1.0  -0.1709
  F  F177  1  0.154300  0.545800  0.303000  1.0  -0.1423
  F  F178  1  0.241100  0.434800  0.352500  1.0  -0.1743
  F  F179  1  0.562900  0.558600  0.934000  1.0  -0.1533
  F  F180  1  0.450500  0.438100  0.933600  1.0  -0.1668
