# generated using pymatgen
data_Ag15C28(OF)24
_symmetry_space_group_name_H-M   'P 1'
_cell_length_a   10.55690000
_cell_length_b   14.84590000
_cell_length_c   19.06630000
_cell_angle_alpha   90.00000000
_cell_angle_beta   90.00000000
_cell_angle_gamma   90.00000000
_symmetry_Int_Tables_number   1
_chemical_formula_structural   Ag15C28(OF)24
_chemical_formula_sum   'Ag30 C56 O48 F48'
_cell_volume   2988.19793149
_cell_formula_units_Z   2
loop_
 _symmetry_equiv_pos_site_id
 _symmetry_equiv_pos_as_xyz
  1  'x, y, z'
loop_
 _atom_site_type_symbol
 _atom_site_label
 _atom_site_symmetry_multiplicity
 _atom_site_fract_x
 _atom_site_fract_y
 _atom_site_fract_z
 _atom_site_occupancy
 _atom_site_charge
  Ag  Ag1  1  0.648840  0.149750  0.352390  1.0  0.5508
  Ag  Ag2  1  0.872680  0.102440  0.451740  1.0  0.6036
  Ag  Ag3  1  0.147400  0.849650  0.015600  1.0  0.5611
  Ag  Ag4  1  0.355840  0.888910  0.917520  1.0  0.5167
  Ag  Ag5  1  0.351160  0.350250  0.852390  1.0  0.5512
  Ag  Ag6  1  0.127320  0.397560  0.951740  1.0  0.6026
  Ag  Ag7  1  0.852600  0.650350  0.515600  1.0  0.5612
  Ag  Ag8  1  0.644160  0.611090  0.417520  1.0  0.5156
  Ag  Ag9  1  0.351160  0.649750  0.852390  1.0  0.5511
  Ag  Ag10  1  0.127320  0.602440  0.951740  1.0  0.6034
  Ag  Ag11  1  0.852600  0.349650  0.515600  1.0  0.5613
  Ag  Ag12  1  0.644160  0.388910  0.417520  1.0  0.5153
  Ag  Ag13  1  0.648840  0.850250  0.352390  1.0  0.5509
  Ag  Ag14  1  0.872680  0.897560  0.451740  1.0  0.6033
  Ag  Ag15  1  0.147400  0.150350  0.015600  1.0  0.5611
  Ag  Ag16  1  0.355840  0.111090  0.917520  1.0  0.5165
  Ag  Ag17  1  0.567870  0.000000  0.265580  1.0  0.5096
  Ag  Ag18  1  0.589570  0.000000  0.451390  1.0  0.6261
  Ag  Ag19  1  0.869430  0.000000  0.251310  1.0  0.6497
  Ag  Ag20  1  0.033890  0.000000  0.083980  1.0  0.4983
  Ag  Ag21  1  0.086740  0.000000  0.915820  1.0  0.6108
  Ag  Ag22  1  0.311390  0.000000  0.137320  1.0  0.5783
  Ag  Ag23  1  0.519930  0.000000  0.002890  1.0  0.6655
  Ag  Ag24  1  0.432130  0.500000  0.765580  1.0  0.5109
  Ag  Ag25  1  0.410430  0.500000  0.951390  1.0  0.6266
  Ag  Ag26  1  0.130570  0.500000  0.751310  1.0  0.6506
  Ag  Ag27  1  0.966110  0.500000  0.583980  1.0  0.4982
  Ag  Ag28  1  0.913260  0.500000  0.415820  1.0  0.611
  Ag  Ag29  1  0.688610  0.500000  0.637320  1.0  0.5785
  Ag  Ag30  1  0.480070  0.500000  0.502890  1.0  0.664
  C  C31  1  0.922000  0.178800  0.140700  1.0  0.5749
  C  C32  1  0.850300  0.241400  0.190700  1.0  0.2764
  C  C33  1  0.917300  0.259400  0.260800  1.0  0.2809
  C  C34  1  0.850100  0.324500  0.312900  1.0  0.5765
  C  C35  1  0.442000  0.820300  0.221900  1.0  0.5828
  C  C36  1  0.354000  0.762200  0.172700  1.0  0.2662
  C  C37  1  0.416000  0.744600  0.101700  1.0  0.2813
  C  C38  1  0.341900  0.680500  0.054600  1.0  0.5702
  C  C39  1  0.420300  0.190600  0.440100  1.0  0.5683
  C  C40  1  0.300000  0.240600  0.462900  1.0  0.2934
  C  C41  1  0.202400  0.258900  0.405900  1.0  0.2845
  C  C42  1  0.080800  0.307300  0.432500  1.0  0.5785
  C  C43  1  0.078000  0.321200  0.640700  1.0  0.5757
  C  C44  1  0.149700  0.258600  0.690700  1.0  0.2764
  C  C45  1  0.082700  0.240600  0.760800  1.0  0.2814
  C  C46  1  0.149900  0.175500  0.812900  1.0  0.5764
  C  C47  1  0.558000  0.679700  0.721900  1.0  0.5825
  C  C48  1  0.646000  0.737800  0.672700  1.0  0.265
  C  C49  1  0.584000  0.755400  0.601700  1.0  0.2814
  C  C50  1  0.658100  0.819500  0.554600  1.0  0.5705
  C  C51  1  0.579700  0.309400  0.940100  1.0  0.5677
  C  C52  1  0.700000  0.259400  0.962900  1.0  0.2923
  C  C53  1  0.797600  0.241100  0.905900  1.0  0.284
  C  C54  1  0.919200  0.192700  0.932500  1.0  0.5792
  C  C55  1  0.078000  0.678800  0.640700  1.0  0.5751
  C  C56  1  0.149700  0.741400  0.690700  1.0  0.276
  C  C57  1  0.082700  0.759400  0.760800  1.0  0.2814
  C  C58  1  0.149900  0.824500  0.812900  1.0  0.5771
  C  C59  1  0.558000  0.320300  0.721900  1.0  0.5831
  C  C60  1  0.646000  0.262200  0.672700  1.0  0.2654
  C  C61  1  0.584000  0.244600  0.601700  1.0  0.2813
  C  C62  1  0.658100  0.180500  0.554600  1.0  0.5671
  C  C63  1  0.579700  0.690600  0.940100  1.0  0.5668
  C  C64  1  0.700000  0.740600  0.962900  1.0  0.2923
  C  C65  1  0.797600  0.758900  0.905900  1.0  0.2841
  C  C66  1  0.919200  0.807300  0.932500  1.0  0.5801
  C  C67  1  0.922000  0.821200  0.140700  1.0  0.5757
  C  C68  1  0.850300  0.758600  0.190700  1.0  0.2768
  C  C69  1  0.917300  0.740600  0.260800  1.0  0.2814
  C  C70  1  0.850100  0.675500  0.312900  1.0  0.5763
  C  C71  1  0.442000  0.179700  0.221900  1.0  0.5824
  C  C72  1  0.354000  0.237800  0.172700  1.0  0.2659
  C  C73  1  0.416000  0.255400  0.101700  1.0  0.2813
  C  C74  1  0.341900  0.319500  0.054600  1.0  0.5741
  C  C75  1  0.420300  0.809400  0.440100  1.0  0.5692
  C  C76  1  0.300000  0.759400  0.462900  1.0  0.2934
  C  C77  1  0.202400  0.741100  0.405900  1.0  0.2844
  C  C78  1  0.080800  0.692700  0.432500  1.0  0.5779
  C  C79  1  0.722000  0.000000  0.336000  1.0  -0.6203
  C  C80  1  0.798000  0.000000  0.383400  1.0  -0.5292
  C  C81  1  0.210500  0.000000  0.027100  1.0  -0.5421
  C  C82  1  0.311800  0.000000  0.996200  1.0  -0.5241
  C  C83  1  0.278000  0.500000  0.836000  1.0  -0.6217
  C  C84  1  0.202000  0.500000  0.883400  1.0  -0.5257
  C  C85  1  0.789500  0.500000  0.527100  1.0  -0.5429
  C  C86  1  0.688200  0.500000  0.496200  1.0  -0.52
  O  O87  1  0.899000  0.094200  0.144700  1.0  -0.5604
  O  O88  1  0.996300  0.215400  0.098900  1.0  -0.5216
  O  O89  1  0.757000  0.291400  0.344800  1.0  -0.5634
  O  O90  1  0.892300  0.400600  0.317200  1.0  -0.5032
  O  O91  1  0.449300  0.900400  0.202900  1.0  -0.5627
  O  O92  1  0.491000  0.783600  0.273000  1.0  -0.4883
  O  O93  1  0.252700  0.710700  0.020400  1.0  -0.5346
  O  O94  1  0.379300  0.600000  0.054900  1.0  -0.5099
  O  O95  1  0.515500  0.239600  0.426000  1.0  -0.5491
  O  O96  1  0.412800  0.108100  0.434800  1.0  -0.5028
  O  O97  1  0.093500  0.388600  0.445000  1.0  -0.5483
  O  O98  1  0.985700  0.260400  0.440900  1.0  -0.5387
  O  O99  1  0.101000  0.405800  0.644700  1.0  -0.5588
  O  O100  1  0.003700  0.284600  0.598900  1.0  -0.5196
  O  O101  1  0.243000  0.208600  0.844800  1.0  -0.5602
  O  O102  1  0.107700  0.099400  0.817200  1.0  -0.499
  O  O103  1  0.550700  0.599600  0.702900  1.0  -0.5633
  O  O104  1  0.509000  0.716400  0.773000  1.0  -0.4864
  O  O105  1  0.747300  0.789300  0.520400  1.0  -0.5323
  O  O106  1  0.620700  0.900000  0.554900  1.0  -0.5291
  O  O107  1  0.484500  0.260400  0.926000  1.0  -0.5506
  O  O108  1  0.587200  0.391900  0.934800  1.0  -0.5032
  O  O109  1  0.906500  0.111400  0.945000  1.0  -0.546
  O  O110  1  0.014300  0.239600  0.940900  1.0  -0.5393
  O  O111  1  0.101000  0.594200  0.644700  1.0  -0.5586
  O  O112  1  0.003700  0.715400  0.598900  1.0  -0.5194
  O  O113  1  0.243000  0.791400  0.844800  1.0  -0.5588
  O  O114  1  0.107700  0.900600  0.817200  1.0  -0.5035
  O  O115  1  0.550700  0.400400  0.702900  1.0  -0.5622
  O  O116  1  0.509000  0.283600  0.773000  1.0  -0.4865
  O  O117  1  0.747300  0.210700  0.520400  1.0  -0.5327
  O  O118  1  0.620700  0.100000  0.554900  1.0  -0.509
  O  O119  1  0.484500  0.739600  0.926000  1.0  -0.5519
  O  O120  1  0.587200  0.608100  0.934800  1.0  -0.5012
  O  O121  1  0.906500  0.888600  0.945000  1.0  -0.55
  O  O122  1  0.014300  0.760400  0.940900  1.0  -0.5392
  O  O123  1  0.899000  0.905800  0.144700  1.0  -0.5598
  O  O124  1  0.996300  0.784600  0.098900  1.0  -0.5215
  O  O125  1  0.757000  0.708600  0.344800  1.0  -0.5647
  O  O126  1  0.892300  0.599400  0.317200  1.0  -0.4977
  O  O127  1  0.449300  0.099600  0.202900  1.0  -0.564
  O  O128  1  0.491000  0.216400  0.273000  1.0  -0.4884
  O  O129  1  0.252700  0.289300  0.020400  1.0  -0.5348
  O  O130  1  0.379300  0.400000  0.054900  1.0  -0.5343
  O  O131  1  0.515500  0.760400  0.426000  1.0  -0.5474
  O  O132  1  0.412800  0.891900  0.434800  1.0  -0.5057
  O  O133  1  0.093500  0.611400  0.445000  1.0  -0.5446
  O  O134  1  0.985700  0.739600  0.440900  1.0  -0.5383
  F  F135  1  0.825200  0.321500  0.162500  1.0  -0.1186
  F  F136  1  0.735900  0.203500  0.206700  1.0  -0.1788
  F  F137  1  0.034500  0.288000  0.244700  1.0  -0.1432
  F  F138  1  0.936000  0.176300  0.293300  1.0  -0.2216
  F  F139  1  0.330900  0.680900  0.203500  1.0  -0.1315
  F  F140  1  0.240400  0.803600  0.163000  1.0  -0.1609
  F  F141  1  0.534500  0.711900  0.113300  1.0  -0.1395
  F  F142  1  0.428800  0.824300  0.068600  1.0  -0.1929
  F  F143  1  0.330300  0.319500  0.494900  1.0  -0.1814
  F  F144  1  0.239400  0.191200  0.514400  1.0  -0.1657
  F  F145  1  0.174400  0.180700  0.375600  1.0  -0.1476
  F  F146  1  0.261100  0.311000  0.357800  1.0  -0.1564
  F  F147  1  0.174800  0.178500  0.662500  1.0  -0.1195
  F  F148  1  0.264100  0.296500  0.706700  1.0  -0.1798
  F  F149  1  0.965500  0.212000  0.744700  1.0  -0.1446
  F  F150  1  0.064000  0.323700  0.793300  1.0  -0.2226
  F  F151  1  0.669100  0.819100  0.703500  1.0  -0.1319
  F  F152  1  0.759600  0.696400  0.663000  1.0  -0.1599
  F  F153  1  0.465500  0.788100  0.613300  1.0  -0.1404
  F  F154  1  0.571200  0.675700  0.568600  1.0  -0.1931
  F  F155  1  0.669700  0.180500  0.994900  1.0  -0.1825
  F  F156  1  0.760600  0.308800  0.014400  1.0  -0.1652
  F  F157  1  0.825600  0.319300  0.875600  1.0  -0.1486
  F  F158  1  0.738900  0.189000  0.857800  1.0  -0.1555
  F  F159  1  0.174800  0.821500  0.662500  1.0  -0.119
  F  F160  1  0.264100  0.703500  0.706700  1.0  -0.1793
  F  F161  1  0.965500  0.788000  0.744700  1.0  -0.1449
  F  F162  1  0.064000  0.676300  0.793300  1.0  -0.2214
  F  F163  1  0.669100  0.180900  0.703500  1.0  -0.1331
  F  F164  1  0.759600  0.303600  0.663000  1.0  -0.1607
  F  F165  1  0.465500  0.211900  0.613300  1.0  -0.1409
  F  F166  1  0.571200  0.324300  0.568600  1.0  -0.193
  F  F167  1  0.669700  0.819500  0.994900  1.0  -0.182
  F  F168  1  0.760600  0.691200  0.014400  1.0  -0.1659
  F  F169  1  0.825600  0.680700  0.875600  1.0  -0.1482
  F  F170  1  0.738900  0.811000  0.857800  1.0  -0.1561
  F  F171  1  0.825200  0.678500  0.162500  1.0  -0.1194
  F  F172  1  0.735900  0.796500  0.206700  1.0  -0.179
  F  F173  1  0.034500  0.712000  0.244700  1.0  -0.1432
  F  F174  1  0.936000  0.823700  0.293300  1.0  -0.2219
  F  F175  1  0.330900  0.319100  0.203500  1.0  -0.1343
  F  F176  1  0.240400  0.196400  0.163000  1.0  -0.1601
  F  F177  1  0.534500  0.288100  0.113300  1.0  -0.1391
  F  F178  1  0.428800  0.175700  0.068600  1.0  -0.1931
  F  F179  1  0.330300  0.680500  0.494900  1.0  -0.1822
  F  F180  1  0.239400  0.808800  0.514400  1.0  -0.1652
  F  F181  1  0.174400  0.819300  0.375600  1.0  -0.148
  F  F182  1  0.261100  0.689000  0.357800  1.0  -0.1558
