# generated using pymatgen
data_Co3H4(C2N9)4
_symmetry_space_group_name_H-M   'P 1'
_cell_length_a   16.82430000
_cell_length_b   18.10940000
_cell_length_c   17.26720000
_cell_angle_alpha   110.95700000
_cell_angle_beta   90.00000000
_cell_angle_gamma   90.00000000
_symmetry_Int_Tables_number   1
_chemical_formula_structural   Co3H4(C2N9)4
_chemical_formula_sum   'Co18 H24 C48 N216'
_cell_volume   4912.92004745
_cell_formula_units_Z   6
loop_
 _symmetry_equiv_pos_site_id
 _symmetry_equiv_pos_as_xyz
  1  'x, y, z'
loop_
 _atom_site_type_symbol
 _atom_site_label
 _atom_site_symmetry_multiplicity
 _atom_site_fract_x
 _atom_site_fract_y
 _atom_site_fract_z
 _atom_site_occupancy
 _atom_site_charge
  Co  Co1  1  0.329870  0.149950  0.427740  1.0  0.8963
  Co  Co2  1  0.317340  0.841470  0.504180  1.0  0.2936
  Co  Co3  1  0.899710  0.675820  0.294370  1.0  0.4759
  Co  Co4  1  0.399710  0.324180  0.205630  1.0  0.4728
  Co  Co5  1  0.258480  0.596070  0.660360  1.0  0.9185
  Co  Co6  1  0.600290  0.675820  0.794370  1.0  0.4751
  Co  Co7  1  0.182660  0.841470  0.004180  1.0  0.2935
  Co  Co8  1  0.741520  0.403930  0.339640  1.0  0.9153
  Co  Co9  1  0.758480  0.403930  0.839640  1.0  0.9158
  Co  Co10  1  0.170130  0.149950  0.927740  1.0  0.8959
  Co  Co11  1  0.817340  0.158530  0.995820  1.0  0.2945
  Co  Co12  1  0.241520  0.596070  0.160360  1.0  0.9164
  Co  Co13  1  0.682660  0.158530  0.495820  1.0  0.2946
  Co  Co14  1  0.500000  0.000000  0.000000  1.0  0.9671
  Co  Co15  1  0.829870  0.850050  0.072260  1.0  0.8984
  Co  Co16  1  0.670130  0.850050  0.572260  1.0  0.8981
  Co  Co17  1  0.000000  0.000000  0.500000  1.0  0.9671
  Co  Co18  1  0.100290  0.324180  0.705630  1.0  0.4725
  H  H19  1  0.715000  0.375000  0.137000  1.0  0.2418
  H  H20  1  0.780000  0.568000  0.624000  1.0  0.2358
  H  H21  1  0.005000  0.091000  0.842000  1.0  0.2383
  H  H22  1  0.115000  0.743000  0.234000  1.0  0.2073
  H  H23  1  0.298000  0.298000  0.969000  1.0  0.3572
  H  H24  1  0.615000  0.257000  0.266000  1.0  0.208
  H  H25  1  0.285000  0.625000  0.863000  1.0  0.2417
  H  H26  1  0.220000  0.432000  0.376000  1.0  0.2378
  H  H27  1  0.192000  0.038000  0.489000  1.0  0.2231
  H  H28  1  0.202000  0.298000  0.469000  1.0  0.3572
  H  H29  1  0.385000  0.743000  0.734000  1.0  0.2083
  H  H30  1  0.308000  0.038000  0.989000  1.0  0.2228
  H  H31  1  0.720000  0.568000  0.124000  1.0  0.2381
  H  H32  1  0.495000  0.091000  0.342000  1.0  0.2381
  H  H33  1  0.215000  0.625000  0.363000  1.0  0.2415
  H  H34  1  0.702000  0.702000  0.031000  1.0  0.3532
  H  H35  1  0.280000  0.432000  0.876000  1.0  0.2376
  H  H36  1  0.798000  0.702000  0.531000  1.0  0.3559
  H  H37  1  0.808000  0.962000  0.511000  1.0  0.2239
  H  H38  1  0.995000  0.909000  0.158000  1.0  0.2395
  H  H39  1  0.505000  0.909000  0.658000  1.0  0.2401
  H  H40  1  0.785000  0.375000  0.637000  1.0  0.2427
  H  H41  1  0.692000  0.962000  0.011000  1.0  0.2237
  H  H42  1  0.885000  0.257000  0.766000  1.0  0.2088
  C  C43  1  0.395700  0.918100  0.664800  1.0  0.5767
  C  C44  1  0.777400  0.556900  0.209400  1.0  0.5986
  C  C45  1  0.400400  0.326200  0.037200  1.0  0.4983
  C  C46  1  0.795300  0.657300  0.151600  1.0  0.5499
  C  C47  1  0.789700  0.742500  0.435300  1.0  0.5306
  C  C48  1  0.204700  0.342700  0.848400  1.0  0.5491
  C  C49  1  0.265500  0.716400  0.348800  1.0  0.5643
  C  C50  1  0.970800  0.211400  0.695600  1.0  0.5683
  C  C51  1  0.563200  0.345000  0.275600  1.0  0.6103
  C  C52  1  0.823000  0.059200  0.490700  1.0  0.4092
  C  C53  1  0.099600  0.326200  0.537200  1.0  0.4997
  C  C54  1  0.470800  0.788600  0.804400  1.0  0.5679
  C  C55  1  0.529200  0.211400  0.195600  1.0  0.5681
  C  C56  1  0.604300  0.081900  0.335200  1.0  0.5726
  C  C57  1  0.754900  0.318600  0.031200  1.0  0.5992
  C  C58  1  0.323000  0.940800  0.009300  1.0  0.4091
  C  C59  1  0.254900  0.681400  0.468800  1.0  0.5983
  C  C60  1  0.289700  0.257500  0.064700  1.0  0.5292
  C  C61  1  0.599600  0.673800  0.962800  1.0  0.5034
  C  C62  1  0.895700  0.081900  0.835200  1.0  0.5736
  C  C63  1  0.177000  0.940800  0.509300  1.0  0.4092
  C  C64  1  0.482600  0.841700  0.556400  1.0  0.5794
  C  C65  1  0.063200  0.655000  0.224400  1.0  0.6109
  C  C66  1  0.436800  0.655000  0.724400  1.0  0.6101
  C  C67  1  0.222600  0.443100  0.790600  1.0  0.5975
  C  C68  1  0.295300  0.342700  0.348400  1.0  0.5491
  C  C69  1  0.745100  0.318600  0.531200  1.0  0.5994
  C  C70  1  0.798200  0.007900  0.024900  1.0  0.57
  C  C71  1  0.234500  0.716400  0.848800  1.0  0.5634
  C  C72  1  0.900400  0.673800  0.462800  1.0  0.5021
  C  C73  1  0.017400  0.841700  0.056400  1.0  0.5789
  C  C74  1  0.765500  0.283600  0.151200  1.0  0.5642
  C  C75  1  0.245100  0.681400  0.968800  1.0  0.5984
  C  C76  1  0.277400  0.443100  0.290600  1.0  0.5979
  C  C77  1  0.936800  0.345000  0.775600  1.0  0.6098
  C  C78  1  0.201800  0.992100  0.975100  1.0  0.571
  C  C79  1  0.710300  0.742500  0.935300  1.0  0.531
  C  C80  1  0.704700  0.657300  0.651600  1.0  0.5489
  C  C81  1  0.517400  0.158300  0.443600  1.0  0.5795
  C  C82  1  0.722600  0.556900  0.709400  1.0  0.5985
  C  C83  1  0.677000  0.059200  0.990700  1.0  0.4092
  C  C84  1  0.298200  0.992100  0.475100  1.0  0.5699
  C  C85  1  0.029200  0.788600  0.304400  1.0  0.5676
  C  C86  1  0.701800  0.007900  0.524900  1.0  0.5711
  C  C87  1  0.104300  0.918100  0.164800  1.0  0.5757
  C  C88  1  0.210300  0.257500  0.564700  1.0  0.53
  C  C89  1  0.734500  0.283600  0.651200  1.0  0.5632
  C  C90  1  0.982600  0.158300  0.943600  1.0  0.5798
  N  N91  1  0.663000  0.581100  0.764500  1.0  -0.337
  N  N92  1  0.757500  0.773100  0.330300  1.0  -0.1238
  N  N93  1  0.697300  0.024100  0.255300  1.0  -0.1211
  N  N94  1  0.726900  0.788700  0.458000  1.0  -0.2724
  N  N95  1  0.337000  0.418900  0.235500  1.0  -0.3367
  N  N96  1  0.511400  0.383600  0.032000  1.0  -0.0987
  N  N97  1  0.802000  0.269400  0.907700  1.0  -0.1649
  N  N98  1  0.736100  0.300800  0.733000  1.0  -0.2681
  N  N99  1  0.223600  0.516700  0.720000  1.0  -0.0272
  N  N100  1  0.242500  0.226900  0.669700  1.0  -0.1268
  N  N101  1  0.757800  0.372300  0.497100  1.0  -0.3205
  N  N102  1  0.773400  0.339300  0.920300  1.0  -0.0249
  N  N103  1  0.210010  0.745900  0.022000  1.0  -0.2639
  N  N104  1  0.958200  0.772900  0.327700  1.0  -0.2653
  N  N105  1  0.837000  0.581100  0.264500  1.0  -0.3366
  N  N106  1  0.698000  0.215300  0.612300  1.0  -0.3303
  N  N107  1  0.084000  0.012100  0.940400  1.0  -0.0978
  N  N108  1  0.030600  0.891700  0.135300  1.0  -0.3611
  N  N109  1  0.540500  0.763000  0.449500  1.0  -0.0592
  N  N110  1  0.075000  0.733900  0.245400  1.0  -0.4498
  N  N111  1  0.340500  0.042500  0.451800  1.0  -0.254
  N  N112  1  0.493500  0.376300  0.264700  1.0  -0.3359
  N  N113  1  0.562300  0.660200  0.891900  1.0  -0.2604
  N  N114  1  0.175200  0.811200  0.826800  1.0  -0.085
  N  N115  1  0.829200  0.709700  0.484800  1.0  -0.1163
  N  N116  1  0.827600  0.755300  0.119500  1.0  -0.0012
  N  N117  1  0.040500  0.237000  0.050500  1.0  -0.0619
  N  N118  1  0.273100  0.211300  0.542000  1.0  -0.2733
  N  N119  1  0.449500  0.862500  0.844800  1.0  -0.3345
  N  N120  1  0.166100  0.466800  0.690600  1.0  -0.1267
  N  N121  1  0.541800  0.772900  0.827700  1.0  -0.2661
  N  N122  1  0.276400  0.516700  0.220000  1.0  -0.0266
  N  N123  1  0.218900  0.998700  0.491500  1.0  -0.3348
  N  N124  1  0.198000  0.730600  0.092300  1.0  -0.165
  N  N125  1  0.257800  0.627700  0.002900  1.0  -0.3227
  N  N126  1  0.659500  0.957500  0.548200  1.0  -0.2535
  N  N127  1  0.802000  0.215300  0.112300  1.0  -0.3302
  N  N128  1  0.707900  0.807000  0.390300  1.0  -0.0812
  N  N129  1  0.494500  0.544400  0.707800  1.0  -0.0867
  N  N130  1  0.207900  0.193000  0.109700  1.0  -0.0822
  N  N131  1  0.257100  0.408300  0.345600  1.0  -0.2898
  N  N132  1  0.899600  0.055600  0.474400  1.0  -0.2684
  N  N133  1  0.773100  0.788700  0.958000  1.0  -0.2731
  N  N134  1  0.833900  0.533200  0.309400  1.0  -0.1275
  N  N135  1  0.729300  0.063200  0.327500  1.0  -0.1377
  N  N136  1  0.666100  0.533200  0.809400  1.0  -0.1288
  N  N137  1  0.236100  0.699200  0.767000  1.0  -0.2679
  N  N138  1  0.006500  0.376300  0.764700  1.0  -0.3354
  N  N139  1  0.768100  0.329300  0.611100  1.0  -0.2947
  N  N140  1  0.675200  0.188800  0.673200  1.0  -0.0831
  N  N141  1  0.844000  0.065700  0.018900  1.0  -0.3065
  N  N142  1  0.672400  0.755300  0.619500  1.0  -0.0039
  N  N143  1  0.329900  0.899300  0.620500  1.0  -0.2974
  N  N144  1  0.459500  0.237000  0.550500  1.0  -0.0613
  N  N145  1  0.050500  0.862500  0.344800  1.0  -0.3351
  N  N146  1  0.465700  0.761200  0.433300  1.0  -0.0821
  N  N147  1  0.427000  0.811600  0.499900  1.0  -0.3401
  N  N148  1  0.530600  0.108300  0.364700  1.0  -0.3658
  N  N149  1  0.698000  0.269400  0.407700  1.0  -0.1637
  N  N150  1  0.556100  0.646900  0.011100  1.0  -0.2584
  N  N151  1  0.302000  0.730600  0.592300  1.0  -0.1658
  N  N152  1  0.600400  0.055600  0.974400  1.0  -0.2686
  N  N153  1  0.302300  0.760700  0.256300  1.0  -0.0945
  N  N154  1  0.148000  0.835500  0.532000  1.0  -0.0833
  N  N155  1  0.781100  0.001300  0.508500  1.0  -0.336
  N  N156  1  0.506500  0.623700  0.735300  1.0  -0.3349
  N  N157  1  0.274700  0.304500  0.398200  1.0  -0.3437
  N  N158  1  0.575000  0.266100  0.254600  1.0  -0.4498
  N  N159  1  0.172400  0.244700  0.880500  1.0  -0.0036
  N  N160  1  0.062300  0.339800  0.608100  1.0  -0.2608
  N  N161  1  0.584000  0.987900  0.559600  1.0  -0.0991
  N  N162  1  0.011400  0.616400  0.468000  1.0  -0.0954
  N  N163  1  0.723600  0.483300  0.780000  1.0  -0.0265
  N  N164  1  0.273400  0.660700  0.579700  1.0  -0.0261
  N  N165  1  0.945700  0.814600  0.027300  1.0  -0.2512
  N  N166  1  0.567100  0.839700  0.887800  1.0  -0.207
  N  N167  1  0.056100  0.353100  0.488900  1.0  -0.2515
  N  N168  1  0.270700  0.936800  0.672500  1.0  -0.1328
  N  N169  1  0.170100  0.899300  0.120500  1.0  -0.2972
  N  N170  1  0.789990  0.254100  0.978000  1.0  -0.2681
  N  N171  1  0.791000  0.125600  0.488100  1.0  -0.3316
  N  N172  1  0.081400  0.948100  0.957500  1.0  -0.1273
  N  N173  1  0.225300  0.304500  0.898200  1.0  -0.3435
  N  N174  1  0.418600  0.948100  0.457500  1.0  -0.1282
  N  N175  1  0.710010  0.254100  0.478000  1.0  -0.2678
  N  N176  1  0.742200  0.372300  0.997100  1.0  -0.3206
  N  N177  1  0.792100  0.807000  0.890300  1.0  -0.0818
  N  N178  1  0.937700  0.660200  0.391900  1.0  -0.2611
  N  N179  1  0.073000  0.811600  0.999900  1.0  -0.3473
  N  N180  1  0.916000  0.987900  0.059600  1.0  -0.098
  N  N181  1  0.310100  0.268800  0.142900  1.0  -0.2764
  N  N182  1  0.642200  0.691400  0.698100  1.0  -0.2893
  N  N183  1  0.656000  0.065700  0.518900  1.0  -0.3081
  N  N184  1  0.226900  0.211300  0.042000  1.0  -0.2724
  N  N185  1  0.949500  0.137500  0.655200  1.0  -0.3346
  N  N186  1  0.965700  0.238800  0.066700  1.0  -0.0844
  N  N187  1  0.987800  0.891500  0.396900  1.0  -0.0254
  N  N188  1  0.840500  0.957500  0.048200  1.0  -0.2536
  N  N189  1  0.988600  0.383600  0.532000  1.0  -0.0966
  N  N190  1  0.324800  0.811200  0.326800  1.0  -0.0846
  N  N191  1  0.458200  0.227100  0.172300  1.0  -0.2678
  N  N192  1  0.189900  0.268800  0.642900  1.0  -0.2777
  N  N193  1  0.726600  0.339300  0.420300  1.0  -0.0254
  N  N194  1  0.116600  0.599000  0.191900  1.0  -0.2374
  N  N195  1  0.159500  0.042500  0.951800  1.0  -0.2538
  N  N196  1  0.352000  0.835500  0.032000  1.0  -0.0868
  N  N197  1  0.776400  0.483300  0.280000  1.0  -0.0259
  N  N198  1  0.616600  0.401000  0.308100  1.0  -0.2386
  N  N199  1  0.731900  0.329300  0.111100  1.0  -0.2964
  N  N200  1  0.231900  0.670700  0.388900  1.0  -0.2957
  N  N201  1  0.824800  0.188800  0.173200  1.0  -0.0842
  N  N202  1  0.156000  0.934300  0.981100  1.0  -0.3086
  N  N203  1  0.344000  0.934300  0.481100  1.0  -0.3078
  N  N204  1  0.857800  0.691400  0.198100  1.0  -0.2921
  N  N205  1  0.469400  0.891700  0.635300  1.0  -0.3612
  N  N206  1  0.077500  0.529800  0.181500  1.0  -0.0789
  N  N207  1  0.333900  0.466800  0.190600  1.0  -0.1271
  N  N208  1  0.226600  0.660700  0.079700  1.0  -0.0267
  N  N209  1  0.763900  0.300800  0.233000  1.0  -0.2686
  N  N210  1  0.925000  0.266100  0.754600  1.0  -0.4505
  N  N211  1  0.670800  0.709700  0.984800  1.0  -0.1159
  N  N212  1  0.993500  0.623700  0.235300  1.0  -0.3356
  N  N213  1  0.122300  0.245600  0.823500  1.0  -0.169
  N  N214  1  0.041800  0.227100  0.672300  1.0  -0.2671
  N  N215  1  0.302000  0.784700  0.387700  1.0  -0.3314
  N  N216  1  0.994500  0.455600  0.792200  1.0  -0.0843
  N  N217  1  0.725300  0.695500  0.601800  1.0  -0.3351
  N  N218  1  0.488600  0.616400  0.968000  1.0  -0.0984
  N  N219  1  0.581400  0.051900  0.542500  1.0  -0.126
  N  N220  1  0.117500  0.965700  0.243000  1.0  -0.3294
  N  N221  1  0.422500  0.529800  0.681500  1.0  -0.0833
  N  N222  1  0.291000  0.874400  0.011900  1.0  -0.3305
  N  N223  1  0.281100  0.998700  0.991500  1.0  -0.3355
  N  N224  1  0.761800  0.496000  0.716300  1.0  -0.3252
  N  N225  1  0.007600  0.623800  0.396200  1.0  -0.0791
  N  N226  1  0.505500  0.455600  0.292200  1.0  -0.086
  N  N227  1  0.257500  0.226900  0.169700  1.0  -0.1268
  N  N228  1  0.292100  0.193000  0.609700  1.0  -0.0808
  N  N229  1  0.883400  0.401000  0.808100  1.0  -0.2385
  N  N230  1  0.329200  0.290300  0.015200  1.0  -0.1137
  N  N231  1  0.802700  0.024100  0.755300  1.0  -0.1206
  N  N232  1  0.922500  0.470200  0.818500  1.0  -0.0767
  N  N233  1  0.738200  0.496000  0.216300  1.0  -0.3254
  N  N234  1  0.918600  0.051900  0.042500  1.0  -0.1294
  N  N235  1  0.534300  0.238800  0.566700  1.0  -0.0856
  N  N236  1  0.242900  0.408300  0.845600  1.0  -0.2913
  N  N237  1  0.443900  0.353100  0.988900  1.0  -0.252
  N  N238  1  0.697700  0.239300  0.743700  1.0  -0.0947
  N  N239  1  0.084200  0.875700  0.538800  1.0  -0.0849
  N  N240  1  0.067100  0.160300  0.612200  1.0  -0.2059
  N  N241  1  0.377700  0.245600  0.323500  1.0  -0.1689
  N  N242  1  0.229300  0.936800  0.172500  1.0  -0.1385
  N  N243  1  0.012200  0.108500  0.603100  1.0  -0.0249
  N  N244  1  0.992400  0.376200  0.603800  1.0  -0.0794
  N  N245  1  0.617500  0.034300  0.257000  1.0  -0.3282
  N  N246  1  0.915800  0.124300  0.461200  1.0  -0.0796
  N  N247  1  0.577500  0.470200  0.318500  1.0  -0.0769
  N  N248  1  0.689900  0.731200  0.857100  1.0  -0.2782
  N  N249  1  0.100400  0.944400  0.525600  1.0  -0.2693
  N  N250  1  0.554300  0.814600  0.527300  1.0  -0.2523
  N  N251  1  0.399600  0.944400  0.025600  1.0  -0.2697
  N  N252  1  0.512200  0.891500  0.896900  1.0  -0.0246
  N  N253  1  0.382500  0.965700  0.743000  1.0  -0.3279
  N  N254  1  0.969400  0.108300  0.864700  1.0  -0.3616
  N  N255  1  0.852000  0.164500  0.468000  1.0  -0.0898
  N  N256  1  0.742500  0.773100  0.830300  1.0  -0.1258
  N  N257  1  0.268100  0.670700  0.888900  1.0  -0.2952
  N  N258  1  0.432900  0.160300  0.112200  1.0  -0.2063
  N  N259  1  0.242200  0.627700  0.502900  1.0  -0.3227
  N  N260  1  0.142200  0.308600  0.801900  1.0  -0.2901
  N  N261  1  0.437700  0.339800  0.108100  1.0  -0.262
  N  N262  1  0.197300  0.975900  0.244700  1.0  -0.1244
  N  N263  1  0.670100  0.100700  0.379500  1.0  -0.2952
  N  N264  1  0.054300  0.185400  0.972700  1.0  -0.2512
  N  N265  1  0.445700  0.185400  0.472700  1.0  -0.2499
  N  N266  1  0.327600  0.244700  0.380500  1.0  -0.0006
  N  N267  1  0.709000  0.125600  0.988100  1.0  -0.332
  N  N268  1  0.492400  0.623800  0.896200  1.0  -0.079
  N  N269  1  0.757100  0.591700  0.154400  1.0  -0.2889
  N  N270  1  0.770700  0.063200  0.827500  1.0  -0.1333
  N  N271  1  0.959500  0.763000  0.949500  1.0  -0.0587
  N  N272  1  0.197700  0.760700  0.756300  1.0  -0.0927
  N  N273  1  0.648000  0.164500  0.968000  1.0  -0.0856
  N  N274  1  0.383400  0.599000  0.691900  1.0  -0.2373
  N  N275  1  0.550500  0.137500  0.155200  1.0  -0.3334
  N  N276  1  0.927000  0.188400  0.000100  1.0  -0.3397
  N  N277  1  0.882500  0.034300  0.757000  1.0  -0.3272
  N  N278  1  0.209000  0.874400  0.511900  1.0  -0.3309
  N  N279  1  0.238200  0.504000  0.283700  1.0  -0.3262
  N  N280  1  0.932900  0.839700  0.387800  1.0  -0.2068
  N  N281  1  0.877700  0.754400  0.176500  1.0  -0.1689
  N  N282  1  0.034300  0.761200  0.933300  1.0  -0.0815
  N  N283  1  0.573000  0.188400  0.500100  1.0  -0.3391
  N  N284  1  0.302700  0.975900  0.744700  1.0  -0.1239
  N  N285  1  0.425000  0.733900  0.745400  1.0  -0.4507
  N  N286  1  0.357800  0.308600  0.301900  1.0  -0.2959
  N  N287  1  0.170800  0.290300  0.515200  1.0  -0.1146
  N  N288  1  0.261800  0.504000  0.783700  1.0  -0.327
  N  N289  1  0.163000  0.418900  0.735500  1.0  -0.3378
  N  N290  1  0.487800  0.108500  0.103100  1.0  -0.0267
  N  N291  1  0.289990  0.745900  0.522000  1.0  -0.2669
  N  N292  1  0.416000  0.012100  0.440400  1.0  -0.098
  N  N293  1  0.943900  0.646900  0.511100  1.0  -0.2562
  N  N294  1  0.507600  0.376200  0.103800  1.0  -0.0798
  N  N295  1  0.198000  0.784700  0.887700  1.0  -0.3318
  N  N296  1  0.802300  0.239300  0.243700  1.0  -0.0964
  N  N297  1  0.810100  0.731200  0.357100  1.0  -0.2773
  N  N298  1  0.415800  0.875700  0.038800  1.0  -0.0814
  N  N299  1  0.829900  0.100700  0.879500  1.0  -0.296
  N  N300  1  0.263900  0.699200  0.267000  1.0  -0.2698
  N  N301  1  0.742900  0.591700  0.654400  1.0  -0.2904
  N  N302  1  0.718900  0.001300  0.008500  1.0  -0.3365
  N  N303  1  0.622300  0.754400  0.676500  1.0  -0.1682
  N  N304  1  0.584200  0.124300  0.961200  1.0  -0.0857
  N  N305  1  0.005500  0.544400  0.207800  1.0  -0.0881
  N  N306  1  0.774700  0.695500  0.101800  1.0  -0.3399
