# generated using pymatgen
data_Mn2NbH8(C7N6)2
_symmetry_space_group_name_H-M   'P 1'
_cell_length_a   12.34800000
_cell_length_b   14.80200000
_cell_length_c   15.87790000
_cell_angle_alpha   90.00000000
_cell_angle_beta   107.93100000
_cell_angle_gamma   90.00000000
_symmetry_Int_Tables_number   1
_chemical_formula_structural   Mn2NbH8(C7N6)2
_chemical_formula_sum   'Mn8 Nb4 H32 C56 N48'
_cell_volume   2761.12454796
_cell_formula_units_Z   4
loop_
 _symmetry_equiv_pos_site_id
 _symmetry_equiv_pos_as_xyz
  1  'x, y, z'
loop_
 _atom_site_type_symbol
 _atom_site_label
 _atom_site_symmetry_multiplicity
 _atom_site_fract_x
 _atom_site_fract_y
 _atom_site_fract_z
 _atom_site_occupancy
 _atom_site_charge
  Mn  Mn1  1  0.318380  0.080400  0.796170  1.0  1.0958
  Mn  Mn2  1  0.169790  0.078370  0.202240  1.0  1.0896
  Mn  Mn3  1  0.181620  0.580400  0.703830  1.0  1.0964
  Mn  Mn4  1  0.330210  0.578370  0.297760  1.0  1.09
  Mn  Mn5  1  0.681620  0.919600  0.203830  1.0  1.0968
  Mn  Mn6  1  0.830210  0.921630  0.797760  1.0  1.0901
  Mn  Mn7  1  0.818380  0.419600  0.296170  1.0  1.096
  Mn  Mn8  1  0.669790  0.421630  0.702240  1.0  1.09
  Nb  Nb9  1  0.745440  0.208210  0.998550  1.0  0.305
  Nb  Nb10  1  0.754560  0.708210  0.501450  1.0  0.3065
  Nb  Nb11  1  0.254560  0.791790  0.001450  1.0  0.3146
  Nb  Nb12  1  0.245440  0.291790  0.498550  1.0  0.3125
  H  H13  1  0.024000  0.162800  0.946600  1.0  0.2865
  H  H14  1  0.382700  0.310800  0.074000  1.0  0.327
  H  H15  1  0.112600  0.240800  0.746400  1.0  0.0939
  H  H16  1  0.969700  0.264000  0.821400  1.0  0.1262
  H  H17  1  0.185900  0.080000  0.948400  1.0  0.083
  H  H18  1  0.395200  0.057600  0.127800  1.0  0.0953
  H  H19  1  0.486400  0.171500  0.066600  1.0  0.1141
  H  H20  1  0.230400  0.278800  0.131500  1.0  0.0979
  H  H21  1  0.476000  0.662800  0.553400  1.0  0.2868
  H  H22  1  0.117300  0.810800  0.426000  1.0  0.3276
  H  H23  1  0.387400  0.740800  0.753600  1.0  0.0932
  H  H24  1  0.530300  0.764000  0.678600  1.0  0.126
  H  H25  1  0.314100  0.580000  0.551600  1.0  0.0823
  H  H26  1  0.104800  0.557600  0.372200  1.0  0.095
  H  H27  1  0.013600  0.671500  0.433400  1.0  0.1148
  H  H28  1  0.269600  0.778800  0.368500  1.0  0.0983
  H  H29  1  0.976000  0.837200  0.053400  1.0  0.2864
  H  H30  1  0.617300  0.689200  0.926000  1.0  0.3282
  H  H31  1  0.887400  0.759200  0.253600  1.0  0.0936
  H  H32  1  0.030300  0.736000  0.178600  1.0  0.1263
  H  H33  1  0.814100  0.920000  0.051600  1.0  0.0825
  H  H34  1  0.604800  0.942400  0.872200  1.0  0.0951
  H  H35  1  0.513600  0.828500  0.933400  1.0  0.1147
  H  H36  1  0.769600  0.721200  0.868500  1.0  0.0981
  H  H37  1  0.524000  0.337200  0.446600  1.0  0.2863
  H  H38  1  0.882700  0.189200  0.574000  1.0  0.3272
  H  H39  1  0.612600  0.259200  0.246400  1.0  0.0938
  H  H40  1  0.469700  0.236000  0.321400  1.0  0.1264
  H  H41  1  0.685900  0.420000  0.448400  1.0  0.0828
  H  H42  1  0.895200  0.442400  0.627800  1.0  0.0948
  H  H43  1  0.986400  0.328500  0.566600  1.0  0.1139
  H  H44  1  0.730400  0.221200  0.631500  1.0  0.0975
  C  C45  1  0.110800  0.211500  0.797800  1.0  0.0205
  C  C46  1  0.031300  0.224600  0.838200  1.0  -0.0803
  C  C47  1  0.151500  0.124300  0.907400  1.0  0.2245
  C  C48  1  0.373400  0.118000  0.121000  1.0  0.0338
  C  C49  1  0.424600  0.179500  0.087600  1.0  -0.0336
  C  C50  1  0.283400  0.237500  0.123900  1.0  0.2158
  C  C51  1  0.571700  0.153650  0.923800  1.0  0.1125
  C  C52  1  0.918850  0.151740  0.071950  1.0  0.1177
  C  C53  1  0.785640  0.098970  0.914040  1.0  0.0962
  C  C54  1  0.694450  0.269860  0.862350  1.0  0.1441
  C  C55  1  0.871210  0.314890  0.990810  1.0  0.0069
  C  C56  1  0.707330  0.096580  0.081330  1.0  0.1023
  C  C57  1  0.624860  0.318720  0.006560  1.0  0.0147
  C  C58  1  0.795830  0.267520  0.135830  1.0  0.1359
  C  C59  1  0.389200  0.711500  0.702200  1.0  0.0211
  C  C60  1  0.468700  0.724600  0.661800  1.0  -0.0795
  C  C61  1  0.348500  0.624300  0.592600  1.0  0.2249
  C  C62  1  0.126600  0.618000  0.379000  1.0  0.0327
  C  C63  1  0.075400  0.679500  0.412400  1.0  -0.0342
  C  C64  1  0.216600  0.737500  0.376100  1.0  0.2183
  C  C65  1  0.928300  0.653650  0.576200  1.0  0.112
  C  C66  1  0.581150  0.651740  0.428050  1.0  0.1183
  C  C67  1  0.714360  0.598970  0.585960  1.0  0.0966
  C  C68  1  0.805550  0.769860  0.637650  1.0  0.143
  C  C69  1  0.628790  0.814890  0.509190  1.0  0.0056
  C  C70  1  0.792670  0.596580  0.418670  1.0  0.1013
  C  C71  1  0.875140  0.818720  0.493440  1.0  0.0155
  C  C72  1  0.704170  0.767520  0.364170  1.0  0.1348
  C  C73  1  0.889200  0.788500  0.202200  1.0  0.0216
  C  C74  1  0.968700  0.775400  0.161800  1.0  -0.0797
  C  C75  1  0.848500  0.875700  0.092600  1.0  0.2245
  C  C76  1  0.626600  0.882000  0.879000  1.0  0.0339
  C  C77  1  0.575400  0.820500  0.912400  1.0  -0.0338
  C  C78  1  0.716600  0.762500  0.876100  1.0  0.2178
  C  C79  1  0.428300  0.846350  0.076200  1.0  0.1118
  C  C80  1  0.081150  0.848260  0.928050  1.0  0.1179
  C  C81  1  0.214360  0.901030  0.085960  1.0  0.0965
  C  C82  1  0.305550  0.730140  0.137650  1.0  0.1442
  C  C83  1  0.128790  0.685110  0.009190  1.0  0.0101
  C  C84  1  0.292670  0.903420  0.918670  1.0  0.101
  C  C85  1  0.375140  0.681280  0.993440  1.0  0.0166
  C  C86  1  0.204170  0.732480  0.864170  1.0  0.1349
  C  C87  1  0.610800  0.288500  0.297800  1.0  0.0204
  C  C88  1  0.531300  0.275400  0.338200  1.0  -0.08
  C  C89  1  0.651500  0.375700  0.407400  1.0  0.2237
  C  C90  1  0.873400  0.382000  0.621000  1.0  0.035
  C  C91  1  0.924600  0.320500  0.587600  1.0  -0.0331
  C  C92  1  0.783400  0.262500  0.623900  1.0  0.2173
  C  C93  1  0.071700  0.346350  0.423800  1.0  0.1121
  C  C94  1  0.418850  0.348260  0.571950  1.0  0.1176
  C  C95  1  0.285640  0.401030  0.414040  1.0  0.0962
  C  C96  1  0.194450  0.230140  0.362350  1.0  0.1449
  C  C97  1  0.371210  0.185110  0.490810  1.0  0.0079
  C  C98  1  0.207330  0.403420  0.581330  1.0  0.1021
  C  C99  1  0.124860  0.181280  0.506560  1.0  0.0178
  C  C100  1  0.295830  0.232480  0.635830  1.0  0.1361
  N  N101  1  0.188870  0.149080  0.842870  1.0  -0.4356
  N  N102  1  0.059600  0.168600  0.908100  1.0  -0.193
  N  N103  1  0.285020  0.152180  0.144620  1.0  -0.4351
  N  N104  1  0.367400  0.258200  0.090400  1.0  -0.2387
  N  N105  1  0.482200  0.128260  0.885120  1.0  -0.4375
  N  N106  1  0.008620  0.125300  0.107690  1.0  -0.4515
  N  N107  1  0.806670  0.042630  0.872370  1.0  -0.4612
  N  N108  1  0.671900  0.305490  0.795000  1.0  -0.4607
  N  N109  1  0.936740  0.367050  0.984440  1.0  -0.4087
  N  N110  1  0.690870  0.039660  0.124470  1.0  -0.4548
  N  N111  1  0.564930  0.375680  0.012830  1.0  -0.413
  N  N112  1  0.815410  0.302730  0.203410  1.0  -0.4454
  N  N113  1  0.311130  0.649080  0.657130  1.0  -0.4374
  N  N114  1  0.440400  0.668600  0.591900  1.0  -0.1938
  N  N115  1  0.214980  0.652180  0.355380  1.0  -0.4372
  N  N116  1  0.132600  0.758200  0.409600  1.0  -0.2386
  N  N117  1  0.017800  0.628260  0.614880  1.0  -0.4368
  N  N118  1  0.491380  0.625300  0.392310  1.0  -0.4517
  N  N119  1  0.693330  0.542630  0.627630  1.0  -0.4566
  N  N120  1  0.828100  0.805490  0.705000  1.0  -0.4608
  N  N121  1  0.563260  0.867050  0.515560  1.0  -0.4086
  N  N122  1  0.809130  0.539660  0.375530  1.0  -0.4572
  N  N123  1  0.935070  0.875680  0.487170  1.0  -0.4137
  N  N124  1  0.684590  0.802730  0.296590  1.0  -0.445
  N  N125  1  0.811130  0.850920  0.157130  1.0  -0.4372
  N  N126  1  0.940400  0.831400  0.091900  1.0  -0.1938
  N  N127  1  0.714980  0.847820  0.855380  1.0  -0.4342
  N  N128  1  0.632600  0.741800  0.909600  1.0  -0.2387
  N  N129  1  0.517800  0.871740  0.114880  1.0  -0.4365
  N  N130  1  0.991380  0.874700  0.892310  1.0  -0.4517
  N  N131  1  0.193330  0.957370  0.127630  1.0  -0.4566
  N  N132  1  0.328100  0.694510  0.205000  1.0  -0.4606
  N  N133  1  0.063260  0.632950  0.015560  1.0  -0.4061
  N  N134  1  0.309130  0.960340  0.875530  1.0  -0.4568
  N  N135  1  0.435070  0.624320  0.987170  1.0  -0.4128
  N  N136  1  0.184590  0.697270  0.796590  1.0  -0.4449
  N  N137  1  0.688870  0.350920  0.342870  1.0  -0.4353
  N  N138  1  0.559600  0.331400  0.408100  1.0  -0.193
  N  N139  1  0.785020  0.347820  0.644620  1.0  -0.4367
  N  N140  1  0.867400  0.241800  0.590400  1.0  -0.2397
  N  N141  1  0.982200  0.371740  0.385120  1.0  -0.4369
  N  N142  1  0.508620  0.374700  0.607690  1.0  -0.4523
  N  N143  1  0.306670  0.457370  0.372370  1.0  -0.4606
  N  N144  1  0.171900  0.194510  0.295000  1.0  -0.4603
  N  N145  1  0.436740  0.132950  0.484440  1.0  -0.4054
  N  N146  1  0.190870  0.460340  0.624470  1.0  -0.4552
  N  N147  1  0.064930  0.124320  0.512830  1.0  -0.4129
  N  N148  1  0.315410  0.197270  0.703410  1.0  -0.4449
