# generated using pymatgen
data_Sm2H12C15(NO2)6
_symmetry_space_group_name_H-M   'P 1'
_cell_length_a   12.69740000
_cell_length_b   16.73090000
_cell_length_c   14.80760000
_cell_angle_alpha   90.00000000
_cell_angle_beta   91.45200000
_cell_angle_gamma   90.00000000
_symmetry_Int_Tables_number   1
_chemical_formula_structural   Sm2H12C15(NO2)6
_chemical_formula_sum   'Sm8 H48 C60 N24 O48'
_cell_volume   3144.70062010
_cell_formula_units_Z   4
loop_
 _symmetry_equiv_pos_site_id
 _symmetry_equiv_pos_as_xyz
  1  'x, y, z'
loop_
 _atom_site_type_symbol
 _atom_site_label
 _atom_site_symmetry_multiplicity
 _atom_site_fract_x
 _atom_site_fract_y
 _atom_site_fract_z
 _atom_site_occupancy
 _atom_site_charge
  Sm  Sm1  1  0.376900  0.198360  0.055350  1.0  2.2612
  Sm  Sm2  1  0.876900  0.698360  0.055350  1.0  2.2612
  Sm  Sm3  1  0.623100  0.198360  0.444650  1.0  2.2621
  Sm  Sm4  1  0.123100  0.698360  0.444650  1.0  2.2621
  Sm  Sm5  1  0.623100  0.801650  0.944650  1.0  2.2623
  Sm  Sm6  1  0.123100  0.301650  0.944650  1.0  2.2623
  Sm  Sm7  1  0.376900  0.801650  0.555350  1.0  2.2614
  Sm  Sm8  1  0.876900  0.301650  0.555350  1.0  2.2614
  H  H9  1  0.391700  0.066500  0.340100  1.0  0.1194
  H  H10  1  0.269300  0.072800  0.327000  1.0  0.1024
  H  H11  1  0.577700  0.631500  0.213100  1.0  0.1045
  H  H12  1  0.652400  0.701400  0.244800  1.0  0.1057
  H  H13  1  0.216900  0.892300  0.246000  1.0  0.1201
  H  H14  1  0.171500  0.966000  0.297200  1.0  0.1101
  H  H15  1  0.891700  0.566500  0.340100  1.0  0.1194
  H  H16  1  0.769300  0.572800  0.327000  1.0  0.1024
  H  H17  1  0.077700  0.131500  0.213100  1.0  0.1045
  H  H18  1  0.152400  0.201400  0.244800  1.0  0.105
  H  H19  1  0.716900  0.392300  0.246000  1.0  0.1201
  H  H20  1  0.671500  0.466000  0.297200  1.0  0.1101
  H  H21  1  0.608300  0.066500  0.159900  1.0  0.12
  H  H22  1  0.730700  0.072800  0.173000  1.0  0.1028
  H  H23  1  0.422300  0.631500  0.286900  1.0  0.1056
  H  H24  1  0.347600  0.701400  0.255200  1.0  0.1055
  H  H25  1  0.783100  0.892300  0.254000  1.0  0.1208
  H  H26  1  0.828500  0.966000  0.202800  1.0  0.1097
  H  H27  1  0.108300  0.566500  0.159900  1.0  0.12
  H  H28  1  0.230700  0.572800  0.173000  1.0  0.1028
  H  H29  1  0.922300  0.131500  0.286900  1.0  0.1056
  H  H30  1  0.847600  0.201400  0.255200  1.0  0.1049
  H  H31  1  0.283100  0.392300  0.254000  1.0  0.1208
  H  H32  1  0.328500  0.466000  0.202800  1.0  0.1097
  H  H33  1  0.608300  0.933500  0.659900  1.0  0.1196
  H  H34  1  0.730700  0.927200  0.673000  1.0  0.1021
  H  H35  1  0.422300  0.368500  0.786900  1.0  0.1042
  H  H36  1  0.347600  0.298600  0.755200  1.0  0.1059
  H  H37  1  0.783100  0.107700  0.754000  1.0  0.1209
  H  H38  1  0.828500  0.034000  0.702800  1.0  0.1094
  H  H39  1  0.108300  0.433500  0.659900  1.0  0.1196
  H  H40  1  0.230700  0.427200  0.673000  1.0  0.1021
  H  H41  1  0.922300  0.868500  0.786900  1.0  0.1042
  H  H42  1  0.847600  0.798600  0.755200  1.0  0.1052
  H  H43  1  0.283100  0.607700  0.754000  1.0  0.1209
  H  H44  1  0.328500  0.534000  0.702800  1.0  0.1094
  H  H45  1  0.391700  0.933500  0.840100  1.0  0.1203
  H  H46  1  0.269300  0.927200  0.827000  1.0  0.1025
  H  H47  1  0.577700  0.368500  0.713100  1.0  0.1047
  H  H48  1  0.652400  0.298600  0.744800  1.0  0.1063
  H  H49  1  0.216900  0.107700  0.746000  1.0  0.1199
  H  H50  1  0.171500  0.034000  0.797200  1.0  0.1092
  H  H51  1  0.891700  0.433500  0.840100  1.0  0.1203
  H  H52  1  0.769300  0.427200  0.827000  1.0  0.1025
  H  H53  1  0.077700  0.868500  0.713100  1.0  0.1047
  H  H54  1  0.152400  0.798600  0.744800  1.0  0.1056
  H  H55  1  0.716900  0.607700  0.746000  1.0  0.1199
  H  H56  1  0.671500  0.534000  0.797200  1.0  0.1092
  C  C57  1  0.347400  0.100600  0.212900  1.0  0.7557
  C  C58  1  0.333200  0.054500  0.299000  1.0  -0.2004
  C  C59  1  0.601800  0.713800  0.112600  1.0  0.776
  C  C60  1  0.588600  0.688800  0.210300  1.0  -0.1801
  C  C61  1  0.221700  0.876900  0.384000  1.0  0.7482
  C  C62  1  0.228200  0.927100  0.297700  1.0  -0.2029
  C  C63  1  0.414800  0.926800  0.268000  1.0  0.5515
  C  C64  1  0.847400  0.600600  0.212900  1.0  0.7557
  C  C65  1  0.833200  0.554500  0.299000  1.0  -0.2004
  C  C66  1  0.101800  0.213800  0.112600  1.0  0.776
  C  C67  1  0.088600  0.188800  0.210300  1.0  -0.1801
  C  C68  1  0.721700  0.376900  0.384000  1.0  0.7482
  C  C69  1  0.728200  0.427100  0.297700  1.0  -0.2029
  C  C70  1  0.914800  0.426800  0.268000  1.0  0.5515
  C  C71  1  0.652600  0.100600  0.287100  1.0  0.7542
  C  C72  1  0.666800  0.054500  0.201000  1.0  -0.1999
  C  C73  1  0.398200  0.713800  0.387400  1.0  0.7738
  C  C74  1  0.411400  0.688800  0.289700  1.0  -0.1809
  C  C75  1  0.778300  0.876900  0.116000  1.0  0.7478
  C  C76  1  0.771800  0.927100  0.202300  1.0  -0.2012
  C  C77  1  0.585200  0.926800  0.232000  1.0  0.552
  C  C78  1  0.152600  0.600600  0.287100  1.0  0.7542
  C  C79  1  0.166800  0.554500  0.201000  1.0  -0.1999
  C  C80  1  0.898200  0.213800  0.387400  1.0  0.7738
  C  C81  1  0.911400  0.188800  0.289700  1.0  -0.1809
  C  C82  1  0.278300  0.376900  0.116000  1.0  0.7478
  C  C83  1  0.271800  0.427100  0.202300  1.0  -0.2012
  C  C84  1  0.085200  0.426800  0.232000  1.0  0.552
  C  C85  1  0.652600  0.899400  0.787100  1.0  0.7546
  C  C86  1  0.666800  0.945500  0.701000  1.0  -0.1976
  C  C87  1  0.398200  0.286200  0.887400  1.0  0.7734
  C  C88  1  0.411400  0.311200  0.789700  1.0  -0.1808
  C  C89  1  0.778300  0.123100  0.616000  1.0  0.7479
  C  C90  1  0.771800  0.072900  0.702300  1.0  -0.2011
  C  C91  1  0.585200  0.073200  0.732000  1.0  0.5521
  C  C92  1  0.152600  0.399400  0.787100  1.0  0.7546
  C  C93  1  0.166800  0.445500  0.701000  1.0  -0.1976
  C  C94  1  0.898200  0.786200  0.887400  1.0  0.7734
  C  C95  1  0.911400  0.811200  0.789700  1.0  -0.1808
  C  C96  1  0.278300  0.623100  0.616000  1.0  0.7479
  C  C97  1  0.271800  0.572900  0.702300  1.0  -0.2011
  C  C98  1  0.085200  0.573200  0.732000  1.0  0.5521
  C  C99  1  0.347400  0.899400  0.712900  1.0  0.7555
  C  C100  1  0.333200  0.945500  0.799000  1.0  -0.1985
  C  C101  1  0.601800  0.286200  0.612600  1.0  0.7753
  C  C102  1  0.588600  0.311200  0.710300  1.0  -0.18
  C  C103  1  0.221700  0.123100  0.884000  1.0  0.7485
  C  C104  1  0.228200  0.072900  0.797700  1.0  -0.2032
  C  C105  1  0.414800  0.073200  0.768000  1.0  0.5516
  C  C106  1  0.847400  0.399400  0.712900  1.0  0.7555
  C  C107  1  0.833200  0.445500  0.799000  1.0  -0.1985
  C  C108  1  0.101800  0.786200  0.612600  1.0  0.7753
  C  C109  1  0.088600  0.811200  0.710300  1.0  -0.18
  C  C110  1  0.721700  0.623100  0.884000  1.0  0.7485
  C  C111  1  0.728200  0.572900  0.797700  1.0  -0.2032
  C  C112  1  0.914800  0.573200  0.768000  1.0  0.5516
  C  C113  1  0.500000  0.811100  0.250000  1.0  0.578
  C  C114  1  0.000000  0.311100  0.250000  1.0  0.578
  C  C115  1  0.500000  0.188900  0.750000  1.0  0.5781
  C  C116  1  0.000000  0.688900  0.750000  1.0  0.5781
  N  N117  1  0.326900  0.969000  0.287300  1.0  -0.0879
  N  N118  1  0.408700  0.847000  0.267900  1.0  -0.6438
  N  N119  1  0.826900  0.469000  0.287300  1.0  -0.0879
  N  N120  1  0.908700  0.347000  0.267900  1.0  -0.6438
  N  N121  1  0.673100  0.969000  0.212700  1.0  -0.0854
  N  N122  1  0.591300  0.847000  0.232100  1.0  -0.6422
  N  N123  1  0.173100  0.469000  0.212700  1.0  -0.0854
  N  N124  1  0.091300  0.347000  0.232100  1.0  -0.6422
  N  N125  1  0.673100  0.031000  0.712700  1.0  -0.0852
  N  N126  1  0.591300  0.153000  0.732100  1.0  -0.6424
  N  N127  1  0.173100  0.531000  0.712700  1.0  -0.0852
  N  N128  1  0.091300  0.653000  0.732100  1.0  -0.6424
  N  N129  1  0.326900  0.031000  0.787300  1.0  -0.0875
  N  N130  1  0.408700  0.153000  0.767900  1.0  -0.6435
  N  N131  1  0.826900  0.531000  0.787300  1.0  -0.0875
  N  N132  1  0.908700  0.653000  0.767900  1.0  -0.6435
  N  N133  1  0.500000  0.729300  0.250000  1.0  -0.1407
  N  N134  1  0.500000  0.971000  0.250000  1.0  -0.5992
  N  N135  1  0.000000  0.229300  0.250000  1.0  -0.1407
  N  N136  1  0.000000  0.471000  0.250000  1.0  -0.5992
  N  N137  1  0.500000  0.270700  0.750000  1.0  -0.1411
  N  N138  1  0.500000  0.029000  0.750000  1.0  -0.6002
  N  N139  1  0.000000  0.770700  0.750000  1.0  -0.1411
  N  N140  1  0.000000  0.529000  0.750000  1.0  -0.6002
  O  O141  1  0.326900  0.071500  0.136200  1.0  -0.6964
  O  O142  1  0.378600  0.172900  0.219400  1.0  -0.6796
  O  O143  1  0.522500  0.732800  0.064500  1.0  -0.6927
  O  O144  1  0.692900  0.716900  0.079700  1.0  -0.8489
  O  O145  1  0.291300  0.885600  0.443800  1.0  -0.7127
  O  O146  1  0.144300  0.830100  0.385500  1.0  -0.7323
  O  O147  1  0.826900  0.571500  0.136200  1.0  -0.6964
  O  O148  1  0.878600  0.672900  0.219400  1.0  -0.6786
  O  O149  1  0.022500  0.232800  0.064500  1.0  -0.6927
  O  O150  1  0.192900  0.216900  0.079700  1.0  -0.8489
  O  O151  1  0.791300  0.385600  0.443800  1.0  -0.7127
  O  O152  1  0.644300  0.330100  0.385500  1.0  -0.7323
  O  O153  1  0.673100  0.071500  0.363800  1.0  -0.6977
  O  O154  1  0.621400  0.172900  0.280600  1.0  -0.6799
  O  O155  1  0.477500  0.732800  0.435500  1.0  -0.6919
  O  O156  1  0.307100  0.716900  0.420300  1.0  -0.8494
  O  O157  1  0.708700  0.885600  0.056200  1.0  -0.7126
  O  O158  1  0.855700  0.830100  0.114500  1.0  -0.7305
  O  O159  1  0.173100  0.571500  0.363800  1.0  -0.6977
  O  O160  1  0.121400  0.672900  0.280600  1.0  -0.6789
  O  O161  1  0.977500  0.232800  0.435500  1.0  -0.6919
  O  O162  1  0.807100  0.216900  0.420300  1.0  -0.8494
  O  O163  1  0.208700  0.385600  0.056200  1.0  -0.7126
  O  O164  1  0.355700  0.330100  0.114500  1.0  -0.7305
  O  O165  1  0.673100  0.928500  0.863800  1.0  -0.7
  O  O166  1  0.621400  0.827100  0.780600  1.0  -0.6777
  O  O167  1  0.477500  0.267200  0.935500  1.0  -0.6917
  O  O168  1  0.307100  0.283100  0.920300  1.0  -0.8493
  O  O169  1  0.708700  0.114400  0.556200  1.0  -0.7133
  O  O170  1  0.855700  0.169900  0.614500  1.0  -0.73
  O  O171  1  0.173100  0.428500  0.863800  1.0  -0.7
  O  O172  1  0.121400  0.327100  0.780600  1.0  -0.6771
  O  O173  1  0.977500  0.767200  0.935500  1.0  -0.6917
  O  O174  1  0.807100  0.783100  0.920300  1.0  -0.8493
  O  O175  1  0.208700  0.614400  0.556200  1.0  -0.7133
  O  O176  1  0.355700  0.669900  0.614500  1.0  -0.73
  O  O177  1  0.326900  0.928500  0.636200  1.0  -0.6967
  O  O178  1  0.378600  0.827100  0.719400  1.0  -0.679
  O  O179  1  0.522500  0.267200  0.564500  1.0  -0.6925
  O  O180  1  0.692900  0.283100  0.579700  1.0  -0.8481
  O  O181  1  0.291300  0.114400  0.943800  1.0  -0.7131
  O  O182  1  0.144300  0.169900  0.885500  1.0  -0.7312
  O  O183  1  0.826900  0.428500  0.636200  1.0  -0.6967
  O  O184  1  0.878600  0.327100  0.719400  1.0  -0.6784
  O  O185  1  0.022500  0.767200  0.564500  1.0  -0.6925
  O  O186  1  0.192900  0.783100  0.579700  1.0  -0.8481
  O  O187  1  0.791300  0.614400  0.943800  1.0  -0.7131
  O  O188  1  0.644300  0.669900  0.885500  1.0  -0.7312
