# generated using pymatgen
data_CaCdH8(C2O)8
_symmetry_space_group_name_H-M   'P 1'
_cell_length_a   14.22130000
_cell_length_b   20.28300000
_cell_length_c   19.83900000
_cell_angle_alpha   110.32600000
_cell_angle_beta   90.00000000
_cell_angle_gamma   90.00000000
_symmetry_Int_Tables_number   1
_chemical_formula_structural   CaCdH8(C2O)8
_chemical_formula_sum   'Ca8 Cd8 H64 C128 O64'
_cell_volume   5366.23548051
_cell_formula_units_Z   8
loop_
 _symmetry_equiv_pos_site_id
 _symmetry_equiv_pos_as_xyz
  1  'x, y, z'
loop_
 _atom_site_type_symbol
 _atom_site_label
 _atom_site_symmetry_multiplicity
 _atom_site_fract_x
 _atom_site_fract_y
 _atom_site_fract_z
 _atom_site_occupancy
 _atom_site_charge
  Ca  Ca1  1  0.543600  0.439750  0.203670  1.0  1.6199
  Ca  Ca2  1  0.197110  0.061330  0.309590  1.0  1.6499
  Ca  Ca3  1  0.802890  0.938670  0.690410  1.0  1.6514
  Ca  Ca4  1  0.697110  0.938670  0.190410  1.0  1.6513
  Ca  Ca5  1  0.302890  0.061330  0.809590  1.0  1.65
  Ca  Ca6  1  0.043600  0.560250  0.296330  1.0  1.6208
  Ca  Ca7  1  0.456400  0.560250  0.796330  1.0  1.6207
  Ca  Ca8  1  0.956400  0.439750  0.703670  1.0  1.6201
  Cd  Cd9  1  0.057670  0.974320  0.758310  1.0  1.0189
  Cd  Cd10  1  0.300840  0.531200  0.256770  1.0  1.0275
  Cd  Cd11  1  0.942330  0.025680  0.241690  1.0  1.0188
  Cd  Cd12  1  0.199160  0.531200  0.756770  1.0  1.0292
  Cd  Cd13  1  0.442330  0.974320  0.258310  1.0  1.0187
  Cd  Cd14  1  0.699160  0.468800  0.743230  1.0  1.0281
  Cd  Cd15  1  0.557670  0.025680  0.741690  1.0  1.019
  Cd  Cd16  1  0.800840  0.468800  0.243230  1.0  1.0265
  H  H17  1  0.067700  0.468600  0.387400  1.0  0.0887
  H  H18  1  0.515300  0.780700  0.709500  1.0  0.1044
  H  H19  1  0.350100  0.028300  0.627800  1.0  0.0903
  H  H20  1  0.347400  0.538900  0.498300  1.0  0.1024
  H  H21  1  0.649900  0.971700  0.372200  1.0  0.0903
  H  H22  1  0.793900  0.220100  0.219200  1.0  0.0998
  H  H23  1  0.706100  0.220100  0.719200  1.0  0.1008
  H  H24  1  0.767800  0.715100  0.273900  1.0  0.1042
  H  H25  1  0.298300  0.182200  0.729600  1.0  0.094
  H  H26  1  0.839600  0.520500  0.513800  1.0  0.1088
  H  H27  1  0.985800  0.622900  0.738900  1.0  0.0977
  H  H28  1  0.312400  0.963100  0.913100  1.0  0.0902
  H  H29  1  0.551400  0.273800  0.762500  1.0  0.0919
  H  H30  1  0.228200  0.881500  0.275100  1.0  0.0918
  H  H31  1  0.728200  0.118500  0.224900  1.0  0.0915
  H  H32  1  0.074800  0.027400  0.024000  1.0  0.0996
  H  H33  1  0.514200  0.622900  0.238900  1.0  0.0975
  H  H34  1  0.187600  0.963100  0.413100  1.0  0.0898
  H  H35  1  0.050400  0.678400  0.215500  1.0  0.0929
  H  H36  1  0.485800  0.377100  0.761100  1.0  0.097
  H  H37  1  0.687600  0.036900  0.086900  1.0  0.0897
  H  H38  1  0.386000  0.959700  0.015300  1.0  0.1058
  H  H39  1  0.152600  0.538900  0.998300  1.0  0.102
  H  H40  1  0.567700  0.531400  0.112600  1.0  0.089
  H  H41  1  0.652600  0.461100  0.501700  1.0  0.1017
  H  H42  1  0.449600  0.678400  0.715500  1.0  0.0934
  H  H43  1  0.798300  0.817800  0.770400  1.0  0.0942
  H  H44  1  0.948600  0.273800  0.262500  1.0  0.0926
  H  H45  1  0.701700  0.817800  0.270400  1.0  0.0943
  H  H46  1  0.574800  0.972600  0.476000  1.0  0.0996
  H  H47  1  0.448600  0.726200  0.237500  1.0  0.0928
  H  H48  1  0.267800  0.284900  0.226100  1.0  0.1043
  H  H49  1  0.409100  0.531600  0.603100  1.0  0.095
  H  H50  1  0.425200  0.027400  0.524000  1.0  0.0999
  H  H51  1  0.201700  0.182200  0.229600  1.0  0.0947
  H  H52  1  0.660400  0.520500  0.013800  1.0  0.1084
  H  H53  1  0.014200  0.377100  0.261100  1.0  0.0973
  H  H54  1  0.293900  0.779900  0.280800  1.0  0.1002
  H  H55  1  0.484700  0.219300  0.290500  1.0  0.1052
  H  H56  1  0.925200  0.972600  0.976000  1.0  0.0998
  H  H57  1  0.550400  0.321600  0.284500  1.0  0.0935
  H  H58  1  0.732200  0.715100  0.773900  1.0  0.1048
  H  H59  1  0.271800  0.881500  0.775100  1.0  0.0921
  H  H60  1  0.114000  0.959700  0.515300  1.0  0.1069
  H  H61  1  0.909100  0.468400  0.896900  1.0  0.0954
  H  H62  1  0.850100  0.971700  0.872200  1.0  0.0904
  H  H63  1  0.432300  0.468600  0.887400  1.0  0.0891
  H  H64  1  0.984700  0.780700  0.209500  1.0  0.1054
  H  H65  1  0.232200  0.284900  0.726100  1.0  0.1046
  H  H66  1  0.160400  0.479500  0.486200  1.0  0.1086
  H  H67  1  0.339600  0.479500  0.986200  1.0  0.1088
  H  H68  1  0.771800  0.118500  0.724900  1.0  0.0917
  H  H69  1  0.847400  0.461100  0.001700  1.0  0.1023
  H  H70  1  0.206100  0.779900  0.780800  1.0  0.1009
  H  H71  1  0.886000  0.040300  0.484700  1.0  0.1064
  H  H72  1  0.015300  0.219300  0.790500  1.0  0.1043
  H  H73  1  0.932300  0.531400  0.612600  1.0  0.0889
  H  H74  1  0.090900  0.531600  0.103100  1.0  0.0952
  H  H75  1  0.051400  0.726200  0.737500  1.0  0.0924
  H  H76  1  0.614000  0.040300  0.984700  1.0  0.1065
  H  H77  1  0.149900  0.028300  0.127800  1.0  0.0903
  H  H78  1  0.812400  0.036900  0.586900  1.0  0.0899
  H  H79  1  0.949600  0.321600  0.784500  1.0  0.0935
  H  H80  1  0.590900  0.468400  0.396900  1.0  0.0955
  C  C81  1  0.947700  0.661800  0.744800  1.0  -0.0543
  C  C82  1  0.024500  0.152150  0.252300  1.0  0.7009
  C  C83  1  0.692000  0.159100  0.236200  1.0  -0.0437
  C  C84  1  0.903900  0.512200  0.508200  1.0  -0.0642
  C  C85  1  0.164000  0.221500  0.236300  1.0  -0.0614
  C  C86  1  0.648800  0.657640  0.254800  1.0  -0.1463
  C  C87  1  0.116200  0.512000  0.623200  1.0  0.7224
  C  C88  1  0.986900  0.723700  0.743800  1.0  -0.0399
  C  C89  1  0.586100  0.280700  0.271800  1.0  -0.0634
  C  C90  1  0.637600  0.985900  0.477800  1.0  -0.0599
  C  C91  1  0.576400  0.491400  0.632900  1.0  0.7446
  C  C92  1  0.413900  0.719300  0.728200  1.0  -0.061
  C  C93  1  0.721100  0.346160  0.243000  1.0  0.6962
  C  C94  1  0.308000  0.840900  0.763800  1.0  -0.0449
  C  C95  1  0.463000  0.504200  0.436400  1.0  -0.1247
  C  C96  1  0.851200  0.657640  0.754800  1.0  -0.1459
  C  C97  1  0.552300  0.661800  0.244800  1.0  -0.0566
  C  C98  1  0.808000  0.159100  0.736200  1.0  -0.0445
  C  C99  1  0.423600  0.508600  0.367100  1.0  0.7437
  C  C100  1  0.836000  0.778500  0.763700  1.0  -0.0612
  C  C101  1  0.383800  0.512000  0.123200  1.0  0.7246
  C  C102  1  0.444700  0.909500  0.744200  1.0  0.7257
  C  C103  1  0.268700  0.780000  0.767200  1.0  -0.0467
  C  C104  1  0.692000  0.589650  0.251800  1.0  0.6903
  C  C105  1  0.975500  0.847850  0.747700  1.0  0.7008
  C  C106  1  0.054200  0.518900  0.061700  1.0  -0.0499
  C  C107  1  0.883800  0.488000  0.376800  1.0  0.7235
  C  C108  1  0.137600  0.014100  0.022200  1.0  -0.0561
  C  C109  1  0.447700  0.338200  0.755200  1.0  -0.0555
  C  C110  1  0.677600  0.008900  0.851100  1.0  0.739
  C  C111  1  0.231300  0.780000  0.267200  1.0  -0.0472
  C  C112  1  0.808000  0.589650  0.751800  1.0  0.6891
  C  C113  1  0.555700  0.493500  0.940300  1.0  -0.1344
  C  C114  1  0.296300  0.283200  0.734600  1.0  -0.0589
  C  C115  1  0.944300  0.493500  0.440300  1.0  -0.1341
  C  C116  1  0.308000  0.410350  0.748200  1.0  0.6896
  C  C117  1  0.768700  0.220000  0.732800  1.0  -0.0474
  C  C118  1  0.459600  0.481300  0.932700  1.0  -0.0534
  C  C119  1  0.685800  0.005200  0.542100  1.0  -0.1299
  C  C120  1  0.537000  0.495800  0.563600  1.0  -0.1252
  C  C121  1  0.192000  0.410350  0.248200  1.0  0.6903
  C  C122  1  0.314200  0.994800  0.457900  1.0  -0.1292
  C  C123  1  0.136700  0.994100  0.890740  1.0  0.7215
  C  C124  1  0.203700  0.283200  0.234600  1.0  -0.062
  C  C125  1  0.475500  0.152150  0.752300  1.0  0.7016
  C  C126  1  0.554200  0.481100  0.438300  1.0  -0.0491
  C  C127  1  0.636700  0.005900  0.609260  1.0  0.7211
  C  C128  1  0.336000  0.221500  0.736300  1.0  -0.0609
  C  C129  1  0.322400  0.991100  0.148900  1.0  0.7391
  C  C130  1  0.796300  0.716800  0.765400  1.0  -0.0593
  C  C131  1  0.274800  0.992400  0.082100  1.0  -0.1347
  C  C132  1  0.401100  0.842100  0.743700  1.0  -0.1413
  C  C133  1  0.037000  0.504200  0.936400  1.0  -0.1248
  C  C134  1  0.931400  0.782010  0.751900  1.0  -0.1391
  C  C135  1  0.822400  0.008900  0.351100  1.0  0.7382
  C  C136  1  0.486900  0.276300  0.756200  1.0  -0.04
  C  C137  1  0.453400  0.780800  0.724700  1.0  -0.0662
  C  C138  1  0.953400  0.219200  0.775300  1.0  -0.0666
  C  C139  1  0.185800  0.994800  0.957900  1.0  -0.1297
  C  C140  1  0.731300  0.220000  0.232800  1.0  -0.0476
  C  C141  1  0.068600  0.217990  0.248100  1.0  -0.1394
  C  C142  1  0.963000  0.495800  0.063600  1.0  -0.125
  C  C143  1  0.821600  0.281360  0.749600  1.0  -0.1461
  C  C144  1  0.013100  0.276300  0.256200  1.0  -0.0404
  C  C145  1  0.278900  0.653840  0.757000  1.0  0.6962
  C  C146  1  0.221100  0.653840  0.257000  1.0  0.6962
  C  C147  1  0.555300  0.090500  0.255800  1.0  0.7243
  C  C148  1  0.862400  0.985900  0.977800  1.0  -0.0557
  C  C149  1  0.317600  0.013900  0.584400  1.0  -0.0351
  C  C150  1  0.513100  0.723700  0.243800  1.0  -0.041
  C  C151  1  0.779100  0.024800  0.543900  1.0  -0.0532
  C  C152  1  0.076400  0.508600  0.867100  1.0  0.7424
  C  C153  1  0.863300  0.005900  0.109260  1.0  0.7211
  C  C154  1  0.682400  0.986100  0.415600  1.0  -0.0345
  C  C155  1  0.678400  0.281360  0.249600  1.0  -0.1452
  C  C156  1  0.055700  0.506500  0.559700  1.0  -0.1349
  C  C157  1  0.220900  0.975200  0.456100  1.0  -0.0516
  C  C158  1  0.052300  0.338200  0.255200  1.0  -0.0569
  C  C159  1  0.540400  0.518700  0.067300  1.0  -0.0601
  C  C160  1  0.445800  0.518900  0.561700  1.0  -0.0494
  C  C161  1  0.176600  0.973500  0.517300  1.0  -0.0704
  C  C162  1  0.225200  0.992400  0.582100  1.0  -0.134
  C  C163  1  0.182400  0.013900  0.084400  1.0  -0.0351
  C  C164  1  0.323400  0.973500  0.017300  1.0  -0.0705
  C  C165  1  0.814200  0.005200  0.042100  1.0  -0.1297
  C  C166  1  0.524500  0.847850  0.247700  1.0  0.7004
  C  C167  1  0.096100  0.487800  0.491800  1.0  -0.0621
  C  C168  1  0.817600  0.986100  0.915600  1.0  -0.0341
  C  C169  1  0.596100  0.512200  0.008200  1.0  -0.0617
  C  C170  1  0.403900  0.487800  0.991800  1.0  -0.063
  C  C171  1  0.040400  0.481300  0.432700  1.0  -0.0591
  C  C172  1  0.279100  0.975200  0.956100  1.0  -0.0522
  C  C173  1  0.944700  0.090500  0.755800  1.0  0.725
  C  C174  1  0.046600  0.780800  0.224700  1.0  -0.0658
  C  C175  1  0.351200  0.342360  0.745200  1.0  -0.1471
  C  C176  1  0.908700  0.476800  0.001100  1.0  -0.0583
  C  C177  1  0.913900  0.280700  0.771800  1.0  -0.063
  C  C178  1  0.901100  0.157900  0.756300  1.0  -0.1426
  C  C179  1  0.178400  0.718640  0.250400  1.0  -0.1455
  C  C180  1  0.616200  0.488000  0.876800  1.0  0.7218
  C  C181  1  0.598900  0.157900  0.256300  1.0  -0.1417
  C  C182  1  0.363300  0.994100  0.390740  1.0  0.7209
  C  C183  1  0.720900  0.024800  0.043900  1.0  -0.0525
  C  C184  1  0.546600  0.219200  0.275300  1.0  -0.0667
  C  C185  1  0.055300  0.909500  0.244200  1.0  0.7251
  C  C186  1  0.568600  0.782010  0.251900  1.0  -0.1397
  C  C187  1  0.923600  0.491400  0.132900  1.0  0.7447
  C  C188  1  0.098900  0.842100  0.243700  1.0  -0.141
  C  C189  1  0.431400  0.217990  0.748100  1.0  -0.1389
  C  C190  1  0.959600  0.518700  0.567300  1.0  -0.0585
  C  C191  1  0.725200  0.007600  0.917900  1.0  -0.1347
  C  C192  1  0.774800  0.007600  0.417900  1.0  -0.1343
  C  C193  1  0.091300  0.523200  0.998900  1.0  -0.0582
  C  C194  1  0.408700  0.523200  0.498900  1.0  -0.0625
  C  C195  1  0.945800  0.481100  0.938300  1.0  -0.049
  C  C196  1  0.664000  0.778500  0.263700  1.0  -0.0604
  C  C197  1  0.321600  0.718640  0.750400  1.0  -0.1464
  C  C198  1  0.192000  0.840900  0.263800  1.0  -0.0449
  C  C199  1  0.591300  0.476800  0.501100  1.0  -0.058
  C  C200  1  0.444300  0.506500  0.059700  1.0  -0.1341
  C  C201  1  0.177600  0.991100  0.648900  1.0  0.7376
  C  C202  1  0.362400  0.014100  0.522200  1.0  -0.0566
  C  C203  1  0.148800  0.342360  0.245200  1.0  -0.1473
  C  C204  1  0.676600  0.026500  0.982700  1.0  -0.0723
  C  C205  1  0.703700  0.716800  0.265400  1.0  -0.0596
  C  C206  1  0.086100  0.719300  0.228200  1.0  -0.0631
  C  C207  1  0.778900  0.346160  0.743000  1.0  0.6957
  C  C208  1  0.823400  0.026500  0.482700  1.0  -0.0692
  O  O209  1  0.144700  0.465340  0.269620  1.0  -0.7453
  O  O210  1  0.549670  0.007320  0.613200  1.0  -0.6106
  O  O211  1  0.306700  0.652010  0.270120  1.0  -0.598
  O  O212  1  0.966900  0.522200  0.189060  1.0  -0.7671
  O  O213  1  0.950330  0.007320  0.113200  1.0  -0.6104
  O  O214  1  0.926130  0.490180  0.320180  1.0  -0.6752
  O  O215  1  0.098800  0.965870  0.273680  1.0  -0.768
  O  O216  1  0.450330  0.992680  0.386800  1.0  -0.6106
  O  O217  1  0.776900  0.588350  0.269580  1.0  -0.614
  O  O218  1  0.598800  0.034130  0.226320  1.0  -0.7672
  O  O219  1  0.276900  0.411650  0.230420  1.0  -0.6134
  O  O220  1  0.331600  0.600930  0.747430  1.0  -0.6747
  O  O221  1  0.401200  0.965870  0.773680  1.0  -0.7666
  O  O222  1  0.348500  0.542240  0.369610  1.0  -0.619
  O  O223  1  0.702300  0.482260  0.878760  1.0  -0.6267
  O  O224  1  0.831600  0.399070  0.752570  1.0  -0.6749
  O  O225  1  0.687770  0.007110  0.662360  1.0  -0.6609
  O  O226  1  0.562860  0.145840  0.751130  1.0  -0.6204
  O  O227  1  0.077600  0.103300  0.255710  1.0  -0.7318
  O  O228  1  0.024200  0.091380  0.782780  1.0  -0.596
  O  O229  1  0.215000  0.025200  0.707940  1.0  -0.7458
  O  O230  1  0.975800  0.908620  0.217220  1.0  -0.595
  O  O231  1  0.422400  0.103300  0.755710  1.0  -0.7324
  O  O232  1  0.533100  0.522200  0.689060  1.0  -0.7651
  O  O233  1  0.806700  0.347990  0.229880  1.0  -0.5976
  O  O234  1  0.573870  0.490180  0.820180  1.0  -0.6716
  O  O235  1  0.297700  0.517740  0.121240  1.0  -0.6271
  O  O236  1  0.426130  0.509820  0.179820  1.0  -0.6742
  O  O237  1  0.049670  0.992680  0.886800  1.0  -0.6108
  O  O238  1  0.466900  0.477800  0.310940  1.0  -0.7659
  O  O239  1  0.715000  0.974800  0.792060  1.0  -0.7444
  O  O240  1  0.033100  0.477800  0.810940  1.0  -0.7641
  O  O241  1  0.785000  0.974800  0.292060  1.0  -0.742
  O  O242  1  0.312230  0.992890  0.337640  1.0  -0.6614
  O  O243  1  0.062860  0.854160  0.748870  1.0  -0.6196
  O  O244  1  0.168400  0.600930  0.247430  1.0  -0.6752
  O  O245  1  0.102900  0.956640  0.643690  1.0  -0.5929
  O  O246  1  0.855300  0.534660  0.730380  1.0  -0.7431
  O  O247  1  0.901200  0.034130  0.726320  1.0  -0.7672
  O  O248  1  0.922400  0.896700  0.744290  1.0  -0.7329
  O  O249  1  0.437140  0.854160  0.248870  1.0  -0.6212
  O  O250  1  0.202300  0.517740  0.621240  1.0  -0.6269
  O  O251  1  0.723100  0.588350  0.769580  1.0  -0.6124
  O  O252  1  0.524200  0.908620  0.717220  1.0  -0.5962
  O  O253  1  0.475800  0.091380  0.282780  1.0  -0.5949
  O  O254  1  0.602900  0.043360  0.856310  1.0  -0.5922
  O  O255  1  0.577600  0.896700  0.244290  1.0  -0.7324
  O  O256  1  0.193300  0.652010  0.770120  1.0  -0.5978
  O  O257  1  0.848500  0.457760  0.130390  1.0  -0.6179
  O  O258  1  0.223100  0.411650  0.730420  1.0  -0.6123
  O  O259  1  0.668400  0.399070  0.252570  1.0  -0.6754
  O  O260  1  0.897100  0.043360  0.356310  1.0  -0.5933
  O  O261  1  0.355300  0.465340  0.769620  1.0  -0.7452
  O  O262  1  0.797700  0.482260  0.378760  1.0  -0.6274
  O  O263  1  0.187770  0.992890  0.837640  1.0  -0.6613
  O  O264  1  0.644700  0.534660  0.230380  1.0  -0.7419
  O  O265  1  0.151500  0.542240  0.869610  1.0  -0.6195
  O  O266  1  0.073870  0.509820  0.679820  1.0  -0.6728
  O  O267  1  0.693300  0.347990  0.729880  1.0  -0.5963
  O  O268  1  0.397100  0.956640  0.143690  1.0  -0.5931
  O  O269  1  0.285000  0.025200  0.207940  1.0  -0.7426
  O  O270  1  0.651500  0.457760  0.630390  1.0  -0.618
  O  O271  1  0.812230  0.007110  0.162360  1.0  -0.6611
  O  O272  1  0.937140  0.145840  0.251130  1.0  -0.6206
