# generated using pymatgen
data_FeAg2(C4N3)2
_symmetry_space_group_name_H-M   'P 1'
_cell_length_a   12.81500000
_cell_length_b   15.97900000
_cell_length_c   6.77050000
_cell_angle_alpha   90.00000000
_cell_angle_beta   90.00000000
_cell_angle_gamma   90.00000000
_symmetry_Int_Tables_number   1
_chemical_formula_structural   FeAg2(C4N3)2
_chemical_formula_sum   'Fe4 Ag8 C32 N24'
_cell_volume   1386.40127689
_cell_formula_units_Z   4
loop_
 _symmetry_equiv_pos_site_id
 _symmetry_equiv_pos_as_xyz
  1  'x, y, z'
loop_
 _atom_site_type_symbol
 _atom_site_label
 _atom_site_symmetry_multiplicity
 _atom_site_fract_x
 _atom_site_fract_y
 _atom_site_fract_z
 _atom_site_occupancy
 _atom_site_charge
  Fe  Fe1  1  0.500000  0.289200  0.250000  1.0  0.9306
  Fe  Fe2  1  0.000000  0.789200  0.250000  1.0  0.9306
  Fe  Fe3  1  0.500000  0.710800  0.750000  1.0  0.9336
  Fe  Fe4  1  0.000000  0.210800  0.750000  1.0  0.9336
  Ag  Ag5  1  0.252600  0.038190  0.250000  1.0  0.3077
  Ag  Ag6  1  0.752600  0.538190  0.250000  1.0  0.3077
  Ag  Ag7  1  0.747400  0.038190  0.250000  1.0  0.307
  Ag  Ag8  1  0.247400  0.538190  0.250000  1.0  0.307
  Ag  Ag9  1  0.747400  0.961810  0.750000  1.0  0.3072
  Ag  Ag10  1  0.247400  0.461810  0.750000  1.0  0.3072
  Ag  Ag11  1  0.252600  0.961810  0.750000  1.0  0.3079
  Ag  Ag12  1  0.752600  0.461810  0.750000  1.0  0.3079
  C  C13  1  0.500000  0.360000  0.851700  1.0  0.1634
  C  C14  1  0.500000  0.219000  0.852200  1.0  0.1044
  C  C15  1  0.000000  0.860000  0.851700  1.0  0.1634
  C  C16  1  0.000000  0.719000  0.852200  1.0  0.1044
  C  C17  1  0.500000  0.360000  0.648300  1.0  0.1645
  C  C18  1  0.500000  0.219000  0.647800  1.0  0.105
  C  C19  1  0.000000  0.860000  0.648300  1.0  0.1645
  C  C20  1  0.000000  0.719000  0.647800  1.0  0.105
  C  C21  1  0.336000  0.150000  0.250000  1.0  -0.0736
  C  C22  1  0.162000  0.934000  0.250000  1.0  0.055
  C  C23  1  0.836000  0.650000  0.250000  1.0  -0.0736
  C  C24  1  0.662000  0.434000  0.250000  1.0  0.055
  C  C25  1  0.664000  0.150000  0.250000  1.0  -0.0727
  C  C26  1  0.838000  0.934000  0.250000  1.0  0.0557
  C  C27  1  0.164000  0.650000  0.250000  1.0  -0.0727
  C  C28  1  0.338000  0.434000  0.250000  1.0  0.0557
  C  C29  1  0.500000  0.640000  0.351700  1.0  0.1664
  C  C30  1  0.500000  0.781000  0.352200  1.0  0.1046
  C  C31  1  0.000000  0.140000  0.351700  1.0  0.1664
  C  C32  1  0.000000  0.281000  0.352200  1.0  0.1046
  C  C33  1  0.500000  0.640000  0.148300  1.0  0.1675
  C  C34  1  0.500000  0.781000  0.147800  1.0  0.1048
  C  C35  1  0.000000  0.140000  0.148300  1.0  0.1675
  C  C36  1  0.000000  0.281000  0.147800  1.0  0.1048
  C  C37  1  0.664000  0.850000  0.750000  1.0  -0.0741
  C  C38  1  0.838000  0.066000  0.750000  1.0  0.056
  C  C39  1  0.164000  0.350000  0.750000  1.0  -0.0741
  C  C40  1  0.338000  0.566000  0.750000  1.0  0.056
  C  C41  1  0.336000  0.850000  0.750000  1.0  -0.0745
  C  C42  1  0.162000  0.066000  0.750000  1.0  0.0553
  C  C43  1  0.836000  0.350000  0.750000  1.0  -0.0745
  C  C44  1  0.662000  0.566000  0.750000  1.0  0.0553
  N  N45  1  0.500000  0.290500  0.958000  1.0  -0.2629
  N  N46  1  0.000000  0.790500  0.958000  1.0  -0.2629
  N  N47  1  0.500000  0.290500  0.542000  1.0  -0.2638
  N  N48  1  0.000000  0.790500  0.542000  1.0  -0.2638
  N  N49  1  0.395500  0.204300  0.250000  1.0  -0.3636
  N  N50  1  0.109000  0.877000  0.250000  1.0  -0.3981
  N  N51  1  0.895500  0.704300  0.250000  1.0  -0.3672
  N  N52  1  0.609000  0.377000  0.250000  1.0  -0.3956
  N  N53  1  0.604500  0.204300  0.250000  1.0  -0.3652
  N  N54  1  0.891000  0.877000  0.250000  1.0  -0.3964
  N  N55  1  0.104500  0.704300  0.250000  1.0  -0.3687
  N  N56  1  0.391000  0.377000  0.250000  1.0  -0.394
  N  N57  1  0.500000  0.709500  0.458000  1.0  -0.2633
  N  N58  1  0.000000  0.209500  0.458000  1.0  -0.2633
  N  N59  1  0.500000  0.709500  0.042000  1.0  -0.2639
  N  N60  1  0.000000  0.209500  0.042000  1.0  -0.2639
  N  N61  1  0.604500  0.795700  0.750000  1.0  -0.3665
  N  N62  1  0.891000  0.123000  0.750000  1.0  -0.3956
  N  N63  1  0.104500  0.295700  0.750000  1.0  -0.37
  N  N64  1  0.391000  0.623000  0.750000  1.0  -0.3929
  N  N65  1  0.395500  0.795700  0.750000  1.0  -0.3639
  N  N66  1  0.109000  0.123000  0.750000  1.0  -0.3965
  N  N67  1  0.895500  0.295700  0.750000  1.0  -0.3675
  N  N68  1  0.609000  0.623000  0.750000  1.0  -0.3937
