# generated using pymatgen
data_ZnH3(C2O)4
_symmetry_space_group_name_H-M   'P 1'
_cell_length_a   14.29000000
_cell_length_b   12.97300000
_cell_length_c   17.81800000
_cell_angle_alpha   90.00000000
_cell_angle_beta   95.33000000
_cell_angle_gamma   90.00000000
_symmetry_Int_Tables_number   1
_chemical_formula_structural   ZnH3(C2O)4
_chemical_formula_sum   'Zn8 H24 C64 O32'
_cell_volume   3288.89286105
_cell_formula_units_Z   8
loop_
 _symmetry_equiv_pos_site_id
 _symmetry_equiv_pos_as_xyz
  1  'x, y, z'
loop_
 _atom_site_type_symbol
 _atom_site_label
 _atom_site_symmetry_multiplicity
 _atom_site_fract_x
 _atom_site_fract_y
 _atom_site_fract_z
 _atom_site_occupancy
 _atom_site_charge
  Zn  Zn1  1  0.009900  0.945950  0.225380  1.0  1.0381
  Zn  Zn2  1  0.070560  0.779550  0.363400  1.0  0.9713
  Zn  Zn3  1  0.490100  0.445950  0.274620  1.0  1.0381
  Zn  Zn4  1  0.429440  0.279550  0.136600  1.0  0.9745
  Zn  Zn5  1  0.990100  0.054050  0.774620  1.0  1.039
  Zn  Zn6  1  0.929440  0.220450  0.636600  1.0  0.9732
  Zn  Zn7  1  0.509900  0.554050  0.725380  1.0  1.0378
  Zn  Zn8  1  0.570560  0.720450  0.863400  1.0  0.9751
  H  H9  1  0.734900  0.714500  0.233400  1.0  0.1172
  H  H10  1  0.614400  0.690700  0.426900  1.0  0.1034
  H  H11  1  0.845100  0.866500  0.416700  1.0  0.1005
  H  H12  1  0.807400  0.943600  0.514800  1.0  0.1051
  H  H13  1  0.727400  0.882300  0.720100  1.0  0.1163
  H  H14  1  0.637300  0.704200  0.545100  1.0  0.1052
  H  H15  1  0.765100  0.214500  0.266600  1.0  0.1176
  H  H16  1  0.885600  0.190700  0.073100  1.0  0.1031
  H  H17  1  0.654900  0.366500  0.083300  1.0  0.1014
  H  H18  1  0.692600  0.443600  0.985200  1.0  0.1051
  H  H19  1  0.772600  0.382300  0.779900  1.0  0.1164
  H  H20  1  0.862700  0.204200  0.954900  1.0  0.1051
  H  H21  1  0.265100  0.285500  0.766600  1.0  0.1173
  H  H22  1  0.385600  0.309300  0.573100  1.0  0.1037
  H  H23  1  0.154900  0.133500  0.583300  1.0  0.1009
  H  H24  1  0.192600  0.056400  0.485200  1.0  0.1052
  H  H25  1  0.272600  0.117700  0.279900  1.0  0.1162
  H  H26  1  0.362700  0.295800  0.454900  1.0  0.105
  H  H27  1  0.234900  0.785500  0.733400  1.0  0.1171
  H  H28  1  0.114400  0.809300  0.926900  1.0  0.1032
  H  H29  1  0.345100  0.633500  0.916700  1.0  0.1008
  H  H30  1  0.307400  0.556400  0.014800  1.0  0.1046
  H  H31  1  0.227400  0.617700  0.220100  1.0  0.1163
  H  H32  1  0.137300  0.795800  0.045100  1.0  0.1056
  C  C33  1  0.801800  0.795600  0.319100  1.0  -0.1431
  C  C34  1  0.734400  0.730300  0.284300  1.0  0.0164
  C  C35  1  0.666500  0.688900  0.325600  1.0  -0.1423
  C  C36  1  0.661800  0.717400  0.400200  1.0  -0.0355
  C  C37  1  0.727700  0.785900  0.436100  1.0  0.0753
  C  C38  1  0.799100  0.823000  0.394000  1.0  -0.0892
  C  C39  1  0.724100  0.816300  0.515800  1.0  0.0183
  C  C40  1  0.774900  0.902000  0.546100  1.0  -0.0574
  C  C41  1  0.776900  0.924800  0.621900  1.0  -0.1419
  C  C42  1  0.725300  0.867100  0.669000  1.0  0.0277
  C  C43  1  0.670600  0.786600  0.638900  1.0  -0.1596
  C  C44  1  0.672100  0.760600  0.564000  1.0  -0.0342
  C  C45  1  0.875300  0.839600  0.273800  1.0  0.6421
  C  C46  1  0.597900  0.611200  0.289500  1.0  0.67
  C  C47  1  0.842000  0.009100  0.655700  1.0  0.7383
  C  C48  1  0.614800  0.723200  0.689700  1.0  0.7262
  C  C49  1  0.698200  0.295600  0.180900  1.0  -0.1425
  C  C50  1  0.765600  0.230300  0.215700  1.0  0.0179
  C  C51  1  0.833500  0.188900  0.174400  1.0  -0.1425
  C  C52  1  0.838200  0.217400  0.099800  1.0  -0.0356
  C  C53  1  0.772300  0.285900  0.063900  1.0  0.0749
  C  C54  1  0.700900  0.323000  0.106000  1.0  -0.0888
  C  C55  1  0.775900  0.316300  0.984200  1.0  0.0175
  C  C56  1  0.725100  0.402000  0.953900  1.0  -0.0585
  C  C57  1  0.723100  0.424800  0.878100  1.0  -0.1419
  C  C58  1  0.774700  0.367100  0.831000  1.0  0.0254
  C  C59  1  0.829400  0.286600  0.861100  1.0  -0.1591
  C  C60  1  0.827900  0.260600  0.936000  1.0  -0.0324
  C  C61  1  0.624700  0.339600  0.226200  1.0  0.6431
  C  C62  1  0.902100  0.111200  0.210500  1.0  0.6711
  C  C63  1  0.658000  0.509100  0.844300  1.0  0.7387
  C  C64  1  0.885200  0.223200  0.810300  1.0  0.7262
  C  C65  1  0.198200  0.204400  0.680900  1.0  -0.1425
  C  C66  1  0.265600  0.269700  0.715700  1.0  0.0171
  C  C67  1  0.333500  0.311100  0.674400  1.0  -0.143
  C  C68  1  0.338200  0.282600  0.599800  1.0  -0.0359
  C  C69  1  0.272300  0.214100  0.563900  1.0  0.0749
  C  C70  1  0.200900  0.177000  0.606000  1.0  -0.0888
  C  C71  1  0.275900  0.183700  0.484200  1.0  0.0176
  C  C72  1  0.225100  0.098000  0.453900  1.0  -0.0586
  C  C73  1  0.223100  0.075200  0.378100  1.0  -0.1422
  C  C74  1  0.274700  0.132900  0.331000  1.0  0.0265
  C  C75  1  0.329400  0.213400  0.361100  1.0  -0.1589
  C  C76  1  0.327900  0.239400  0.436000  1.0  -0.0333
  C  C77  1  0.124700  0.160400  0.726200  1.0  0.6422
  C  C78  1  0.402100  0.388800  0.710500  1.0  0.6711
  C  C79  1  0.158000  0.990900  0.344300  1.0  0.7385
  C  C80  1  0.385200  0.276800  0.310300  1.0  0.7268
  C  C81  1  0.301800  0.704400  0.819100  1.0  -0.143
  C  C82  1  0.234400  0.769700  0.784300  1.0  0.0158
  C  C83  1  0.166500  0.811100  0.825600  1.0  -0.1421
  C  C84  1  0.161800  0.782600  0.900200  1.0  -0.0359
  C  C85  1  0.227700  0.714100  0.936100  1.0  0.0753
  C  C86  1  0.299100  0.677000  0.894000  1.0  -0.0891
  C  C87  1  0.224100  0.683700  0.015800  1.0  0.0183
  C  C88  1  0.274900  0.598000  0.046100  1.0  -0.0575
  C  C89  1  0.276900  0.575200  0.121900  1.0  -0.142
  C  C90  1  0.225300  0.632900  0.169000  1.0  0.0282
  C  C91  1  0.170600  0.713400  0.138900  1.0  -0.1597
  C  C92  1  0.172100  0.739400  0.064000  1.0  -0.0344
  C  C93  1  0.375300  0.660400  0.773800  1.0  0.6415
  C  C94  1  0.097900  0.888800  0.789500  1.0  0.6697
  C  C95  1  0.342000  0.490900  0.155700  1.0  0.7382
  C  C96  1  0.114800  0.776800  0.189700  1.0  0.7266
  O  O97  1  0.860200  0.851000  0.205700  1.0  -0.5377
  O  O98  1  0.953800  0.869700  0.310100  1.0  -0.6678
  O  O99  1  0.594200  0.596700  0.221200  1.0  -0.5102
  O  O100  1  0.549100  0.561000  0.332700  1.0  -0.5888
  O  O101  1  0.873700  0.994900  0.722600  1.0  -0.59
  O  O102  1  0.860500  0.083100  0.614000  1.0  -0.6414
  O  O103  1  0.618500  0.746200  0.757500  1.0  -0.6439
  O  O104  1  0.568600  0.649000  0.658400  1.0  -0.5891
  O  O105  1  0.639800  0.351000  0.294300  1.0  -0.5377
  O  O106  1  0.546200  0.369700  0.189900  1.0  -0.6664
  O  O107  1  0.905800  0.096700  0.278800  1.0  -0.5127
  O  O108  1  0.950900  0.061000  0.167300  1.0  -0.5877
  O  O109  1  0.626300  0.494900  0.777400  1.0  -0.5909
  O  O110  1  0.639500  0.583100  0.886000  1.0  -0.6385
  O  O111  1  0.881500  0.246200  0.742500  1.0  -0.6468
  O  O112  1  0.931400  0.149000  0.841600  1.0  -0.5897
  O  O113  1  0.139800  0.149000  0.794300  1.0  -0.5376
  O  O114  1  0.046200  0.130300  0.689900  1.0  -0.6667
  O  O115  1  0.405800  0.403300  0.778800  1.0  -0.5125
  O  O116  1  0.450900  0.439000  0.667300  1.0  -0.5879
  O  O117  1  0.126300  0.005100  0.277400  1.0  -0.591
  O  O118  1  0.139500  0.916900  0.386000  1.0  -0.6411
  O  O119  1  0.381500  0.253800  0.242500  1.0  -0.6465
  O  O120  1  0.431400  0.351000  0.341600  1.0  -0.5901
  O  O121  1  0.360200  0.649000  0.705700  1.0  -0.5378
  O  O122  1  0.453800  0.630300  0.810100  1.0  -0.6683
  O  O123  1  0.094200  0.903300  0.721200  1.0  -0.5102
  O  O124  1  0.049100  0.939000  0.832700  1.0  -0.589
  O  O125  1  0.373700  0.505100  0.222600  1.0  -0.5909
  O  O126  1  0.360500  0.416900  0.114000  1.0  -0.6415
  O  O127  1  0.118500  0.753800  0.257500  1.0  -0.6443
  O  O128  1  0.068600  0.851000  0.158400  1.0  -0.5901
