# generated using pymatgen
data_Eu4Co3H12C48(NO6)6
_symmetry_space_group_name_H-M   'P 1'
_cell_length_a   14.56500000
_cell_length_b   14.56500000
_cell_length_c   18.04500000
_cell_angle_alpha   69.83470000
_cell_angle_beta   69.83470000
_cell_angle_gamma   87.86640000
_symmetry_Int_Tables_number   1
_chemical_formula_structural   Eu4Co3H12C48(NO6)6
_chemical_formula_sum   'Eu8 Co6 H24 C96 N12 O72'
_cell_volume   3358.63414052
_cell_formula_units_Z   2
loop_
 _symmetry_equiv_pos_site_id
 _symmetry_equiv_pos_as_xyz
  1  'x, y, z'
loop_
 _atom_site_type_symbol
 _atom_site_label
 _atom_site_symmetry_multiplicity
 _atom_site_fract_x
 _atom_site_fract_y
 _atom_site_fract_z
 _atom_site_occupancy
 _atom_site_charge
  Eu  Eu1  1  0.406980  0.056240  0.233000  1.0  2.1603
  Eu  Eu2  1  0.943760  0.593020  0.267000  1.0  2.1605
  Eu  Eu3  1  0.593020  0.943760  0.767000  1.0  2.1601
  Eu  Eu4  1  0.056240  0.406980  0.733000  1.0  2.1608
  Eu  Eu5  1  0.024440  0.975560  0.250000  1.0  2.1456
  Eu  Eu6  1  0.975560  0.024440  0.750000  1.0  2.1443
  Eu  Eu7  1  0.313330  0.686670  0.750000  1.0  2.0992
  Eu  Eu8  1  0.686670  0.313330  0.250000  1.0  2.0943
  Co  Co9  1  0.709790  0.004450  0.243990  1.0  0.9669
  Co  Co10  1  0.995550  0.290210  0.256010  1.0  0.9673
  Co  Co11  1  0.290210  0.995550  0.756010  1.0  0.9648
  Co  Co12  1  0.004450  0.709790  0.743990  1.0  0.9692
  Co  Co13  1  0.666200  0.333800  0.750000  1.0  0.8499
  Co  Co14  1  0.333800  0.666200  0.250000  1.0  0.8504
  H  H15  1  0.452700  0.862300  0.524200  1.0  0.119
  H  H16  1  0.725400  0.894200  0.531100  1.0  0.124
  H  H17  1  0.090200  0.745600  0.025200  1.0  0.1287
  H  H18  1  0.094800  0.021000  0.029700  1.0  0.1211
  H  H19  1  0.404900  0.140700  0.978800  1.0  0.1307
  H  H20  1  0.287500  0.861900  0.068400  1.0  0.1223
  H  H21  1  0.137700  0.547300  0.975800  1.0  0.1194
  H  H22  1  0.105800  0.274600  0.968900  1.0  0.1228
  H  H23  1  0.254400  0.909800  0.474800  1.0  0.1285
  H  H24  1  0.979000  0.905200  0.470300  1.0  0.1207
  H  H25  1  0.859300  0.595100  0.521200  1.0  0.1297
  H  H26  1  0.138100  0.712500  0.431600  1.0  0.1221
  H  H27  1  0.547300  0.137700  0.475800  1.0  0.1199
  H  H28  1  0.274600  0.105800  0.468900  1.0  0.1238
  H  H29  1  0.909800  0.254400  0.974800  1.0  0.129
  H  H30  1  0.905200  0.979000  0.970300  1.0  0.1219
  H  H31  1  0.595100  0.859300  0.021200  1.0  0.1301
  H  H32  1  0.712500  0.138100  0.931600  1.0  0.1221
  H  H33  1  0.862300  0.452700  0.024200  1.0  0.1186
  H  H34  1  0.894200  0.725400  0.031100  1.0  0.1232
  H  H35  1  0.745600  0.090200  0.525200  1.0  0.1289
  H  H36  1  0.021000  0.094800  0.529700  1.0  0.1215
  H  H37  1  0.140700  0.404900  0.478800  1.0  0.1295
  H  H38  1  0.861900  0.287500  0.568400  1.0  0.1222
  C  C39  1  0.561200  0.923000  0.410600  1.0  0.1338
  C  C40  1  0.519500  0.882300  0.497400  1.0  -0.0335
  C  C41  1  0.581900  0.871900  0.544100  1.0  -0.1199
  C  C42  1  0.682800  0.899200  0.501800  1.0  -0.0474
  C  C43  1  0.716700  0.934100  0.413600  1.0  0.14
  C  C44  1  0.504200  0.948800  0.349000  1.0  0.6599
  C  C45  1  0.538600  0.834400  0.639700  1.0  0.7563
  C  C46  1  0.823700  0.959900  0.357800  1.0  0.6495
  C  C47  1  0.172100  0.849500  0.916700  1.0  0.156
  C  C48  1  0.111700  0.812100  0.999000  1.0  -0.0326
  C  C49  1  0.082800  0.877600  0.043000  1.0  -0.1713
  C  C50  1  0.114800  0.976600  0.001900  1.0  -0.0143
  C  C51  1  0.177500  0.007700  0.918500  1.0  0.1304
  C  C52  1  0.211600  0.793000  0.858300  1.0  0.6929
  C  C53  1  0.021400  0.838600  0.135500  1.0  0.7316
  C  C54  1  0.223400  0.111600  0.864300  1.0  0.6372
  C  C55  1  0.466900  0.062900  0.904300  1.0  0.1361
  C  C56  1  0.403300  0.079100  0.974200  1.0  -0.0487
  C  C57  1  0.336100  0.002700  0.038200  1.0  -0.138
  C  C58  1  0.333333  0.913300  0.027900  1.0  -0.008
  C  C59  1  0.400700  0.901500  0.955600  1.0  0.1274
  C  C60  1  0.545300  0.138300  0.832700  1.0  0.6283
  C  C61  1  0.272300  0.014900  0.120100  1.0  0.7224
  C  C62  1  0.410900  0.805700  0.939300  1.0  0.6275
  C  C63  1  0.077000  0.438800  0.089400  1.0  0.137
  C  C64  1  0.117700  0.480500  0.002600  1.0  -0.0321
  C  C65  1  0.128100  0.418100  0.955900  1.0  -0.1198
  C  C66  1  0.100800  0.317200  0.998200  1.0  -0.046
  C  C67  1  0.065900  0.283300  0.086400  1.0  0.1445
  C  C68  1  0.051200  0.495800  0.151000  1.0  0.6608
  C  C69  1  0.165600  0.461400  0.860300  1.0  0.7546
  C  C70  1  0.040100  0.176300  0.142200  1.0  0.6522
  C  C71  1  0.150500  0.827900  0.583300  1.0  0.1559
  C  C72  1  0.187900  0.888300  0.501000  1.0  -0.0329
  C  C73  1  0.122400  0.917200  0.457000  1.0  -0.1738
  C  C74  1  0.023400  0.885200  0.498100  1.0  -0.0151
  C  C75  1  0.992300  0.822500  0.581500  1.0  0.1282
  C  C76  1  0.207000  0.788400  0.641700  1.0  0.6904
  C  C77  1  0.161400  0.978600  0.364500  1.0  0.7333
  C  C78  1  0.888400  0.776600  0.635700  1.0  0.6336
  C  C79  1  0.937100  0.533100  0.595700  1.0  0.1406
  C  C80  1  0.920900  0.596700  0.525800  1.0  -0.0526
  C  C81  1  0.997300  0.663900  0.461800  1.0  -0.1381
  C  C82  1  0.086700  0.666667  0.472100  1.0  -0.0089
  C  C83  1  0.098500  0.599300  0.544400  1.0  0.1292
  C  C84  1  0.861700  0.454700  0.667300  1.0  0.6245
  C  C85  1  0.985100  0.727700  0.379900  1.0  0.726
  C  C86  1  0.194300  0.589100  0.560700  1.0  0.6272
  C  C87  1  0.438800  0.077000  0.589400  1.0  0.1346
  C  C88  1  0.480500  0.117700  0.502600  1.0  -0.0349
  C  C89  1  0.418100  0.128100  0.455900  1.0  -0.1194
  C  C90  1  0.317200  0.100800  0.498200  1.0  -0.0468
  C  C91  1  0.283300  0.065900  0.586400  1.0  0.1401
  C  C92  1  0.495800  0.051200  0.651000  1.0  0.6604
  C  C93  1  0.461400  0.165600  0.360300  1.0  0.7559
  C  C94  1  0.176300  0.040100  0.642200  1.0  0.6492
  C  C95  1  0.827900  0.150500  0.083300  1.0  0.1559
  C  C96  1  0.888300  0.187900  0.001000  1.0  -0.0328
  C  C97  1  0.917200  0.122400  0.957000  1.0  -0.1714
  C  C98  1  0.885200  0.023400  0.998100  1.0  -0.0141
  C  C99  1  0.822500  0.992300  0.081500  1.0  0.1311
  C  C100  1  0.788400  0.207000  0.141700  1.0  0.6931
  C  C101  1  0.978600  0.161400  0.864500  1.0  0.7322
  C  C102  1  0.776600  0.888400  0.135700  1.0  0.6369
  C  C103  1  0.533100  0.937100  0.095700  1.0  0.1367
  C  C104  1  0.596700  0.920900  0.025800  1.0  -0.0488
  C  C105  1  0.663900  0.997300  0.961800  1.0  -0.1386
  C  C106  1  0.666667  0.086700  0.972100  1.0  -0.0084
  C  C107  1  0.599300  0.098500  0.044400  1.0  0.1281
  C  C108  1  0.454700  0.861700  0.167300  1.0  0.6289
  C  C109  1  0.727700  0.985100  0.879900  1.0  0.7224
  C  C110  1  0.589100  0.194300  0.060700  1.0  0.6312
  C  C111  1  0.923000  0.561200  0.910600  1.0  0.1353
  C  C112  1  0.882300  0.519500  0.997400  1.0  -0.0298
  C  C113  1  0.871900  0.581900  0.044100  1.0  -0.1215
  C  C114  1  0.899200  0.682800  0.001800  1.0  -0.0455
  C  C115  1  0.934100  0.716700  0.913600  1.0  0.1432
  C  C116  1  0.948800  0.504200  0.849000  1.0  0.6607
  C  C117  1  0.834400  0.538600  0.139700  1.0  0.7536
  C  C118  1  0.959900  0.823700  0.857800  1.0  0.6512
  C  C119  1  0.849500  0.172100  0.416700  1.0  0.1557
  C  C120  1  0.812100  0.111700  0.499000  1.0  -0.0307
  C  C121  1  0.877600  0.082800  0.543000  1.0  -0.1736
  C  C122  1  0.976600  0.114800  0.501900  1.0  -0.0154
  C  C123  1  0.007700  0.177500  0.418500  1.0  0.1293
  C  C124  1  0.793000  0.211600  0.358300  1.0  0.689
  C  C125  1  0.838600  0.021400  0.635500  1.0  0.7321
  C  C126  1  0.111600  0.223400  0.364300  1.0  0.6342
  C  C127  1  0.062900  0.466900  0.404300  1.0  0.1413
  C  C128  1  0.079100  0.403300  0.474200  1.0  -0.0549
  C  C129  1  0.002700  0.336100  0.538200  1.0  -0.1368
  C  C130  1  0.913300  0.333333  0.527900  1.0  -0.0056
  C  C131  1  0.901500  0.400700  0.455600  1.0  0.1302
  C  C132  1  0.138300  0.545300  0.332700  1.0  0.6288
  C  C133  1  0.014900  0.272300  0.620100  1.0  0.7245
  C  C134  1  0.805700  0.410900  0.439300  1.0  0.6261
  N  N135  1  0.657700  0.948700  0.370400  1.0  -0.3128
  N  N136  1  0.205300  0.944900  0.878600  1.0  -0.3087
  N  N137  1  0.467000  0.974800  0.894600  1.0  -0.4749
  N  N138  1  0.051300  0.342300  0.129600  1.0  -0.3097
  N  N139  1  0.055100  0.794700  0.621400  1.0  -0.3092
  N  N140  1  0.025200  0.533000  0.605400  1.0  -0.472
  N  N141  1  0.342300  0.051300  0.629600  1.0  -0.3125
  N  N142  1  0.794700  0.055100  0.121400  1.0  -0.308
  N  N143  1  0.533000  0.025200  0.105400  1.0  -0.4726
  N  N144  1  0.948700  0.657700  0.870400  1.0  -0.3102
  N  N145  1  0.944900  0.205300  0.378600  1.0  -0.3083
  N  N146  1  0.974800  0.467000  0.394600  1.0  -0.4743
  O  O147  1  0.556600  0.996800  0.273500  1.0  -0.6294
  O  O148  1  0.416700  0.927500  0.375300  1.0  -0.6397
  O  O149  1  0.463200  0.778600  0.674500  1.0  -0.7609
  O  O150  1  0.585100  0.860300  0.676300  1.0  -0.7221
  O  O151  1  0.888700  0.951100  0.387500  1.0  -0.63
  O  O152  1  0.842000  0.990200  0.277500  1.0  -0.6454
  O  O153  1  0.279300  0.837900  0.786500  1.0  -0.6525
  O  O154  1  0.179700  0.706700  0.879500  1.0  -0.6411
  O  O155  1  0.006900  0.749100  0.168900  1.0  -0.6967
  O  O156  1  0.988800  0.897000  0.171800  1.0  -0.6743
  O  O157  1  0.206200  0.176400  0.893500  1.0  -0.544
  O  O158  1  0.282400  0.121000  0.789600  1.0  -0.5709
  O  O159  1  0.601300  0.106100  0.775400  1.0  -0.6476
  O  O160  1  0.552200  0.222000  0.833600  1.0  -0.5878
  O  O161  1  0.190500  0.966500  0.159300  1.0  -0.6947
  O  O162  1  0.311500  0.070300  0.142600  1.0  -0.6983
  O  O163  1  0.353800  0.733600  0.988400  1.0  -0.4951
  O  O164  1  0.481400  0.806800  0.871700  1.0  -0.7071
  O  O165  1  0.003200  0.443400  0.226500  1.0  -0.6302
  O  O166  1  0.072500  0.583300  0.124700  1.0  -0.6419
  O  O167  1  0.221400  0.536800  0.825500  1.0  -0.7565
  O  O168  1  0.139700  0.414900  0.823700  1.0  -0.7242
  O  O169  1  0.048900  0.111300  0.112500  1.0  -0.6339
  O  O170  1  0.009800  0.158000  0.222500  1.0  -0.649
  O  O171  1  0.162100  0.720700  0.713500  1.0  -0.6545
  O  O172  1  0.293300  0.820300  0.620500  1.0  -0.6375
  O  O173  1  0.250900  0.993100  0.331100  1.0  -0.6979
  O  O174  1  0.103000  0.011200  0.328200  1.0  -0.6773
  O  O175  1  0.823600  0.793800  0.606500  1.0  -0.542
  O  O176  1  0.879000  0.717600  0.710400  1.0  -0.5697
  O  O177  1  0.893900  0.398700  0.724600  1.0  -0.6497
  O  O178  1  0.778000  0.447800  0.666400  1.0  -0.5863
  O  O179  1  0.033500  0.809500  0.340700  1.0  -0.6948
  O  O180  1  0.929700  0.688500  0.357400  1.0  -0.6995
  O  O181  1  0.266400  0.646200  0.511600  1.0  -0.4971
  O  O182  1  0.193200  0.518600  0.628300  1.0  -0.7048
  O  O183  1  0.443400  0.003200  0.726500  1.0  -0.6296
  O  O184  1  0.583300  0.072500  0.624700  1.0  -0.6382
  O  O185  1  0.536800  0.221400  0.325500  1.0  -0.7579
  O  O186  1  0.414900  0.139700  0.323700  1.0  -0.721
  O  O187  1  0.111300  0.048900  0.612500  1.0  -0.6297
  O  O188  1  0.158000  0.009800  0.722500  1.0  -0.6469
  O  O189  1  0.720700  0.162100  0.213500  1.0  -0.6541
  O  O190  1  0.820300  0.293300  0.120500  1.0  -0.6423
  O  O191  1  0.993100  0.250900  0.831100  1.0  -0.6964
  O  O192  1  0.011200  0.103000  0.828200  1.0  -0.6744
  O  O193  1  0.793800  0.823600  0.106500  1.0  -0.5455
  O  O194  1  0.717600  0.879000  0.210400  1.0  -0.5695
  O  O195  1  0.398700  0.893900  0.224600  1.0  -0.6478
  O  O196  1  0.447800  0.778000  0.166400  1.0  -0.5897
  O  O197  1  0.809500  0.033500  0.840700  1.0  -0.6947
  O  O198  1  0.688500  0.929700  0.857400  1.0  -0.6989
  O  O199  1  0.646200  0.266400  0.011600  1.0  -0.4979
  O  O200  1  0.518600  0.193200  0.128300  1.0  -0.7058
  O  O201  1  0.996800  0.556600  0.773500  1.0  -0.6304
  O  O202  1  0.927500  0.416700  0.875300  1.0  -0.6419
  O  O203  1  0.778600  0.463200  0.174500  1.0  -0.7582
  O  O204  1  0.860300  0.585100  0.176300  1.0  -0.722
  O  O205  1  0.951100  0.888700  0.887500  1.0  -0.6356
  O  O206  1  0.990200  0.842000  0.777500  1.0  -0.6491
  O  O207  1  0.837900  0.279300  0.286500  1.0  -0.6555
  O  O208  1  0.706700  0.179700  0.379500  1.0  -0.6385
  O  O209  1  0.749100  0.006900  0.668900  1.0  -0.6973
  O  O210  1  0.897000  0.988800  0.671800  1.0  -0.6771
  O  O211  1  0.176400  0.206200  0.393500  1.0  -0.5427
  O  O212  1  0.121000  0.282400  0.289600  1.0  -0.5714
  O  O213  1  0.106100  0.601300  0.275400  1.0  -0.6509
  O  O214  1  0.222000  0.552200  0.333600  1.0  -0.5877
  O  O215  1  0.966500  0.190500  0.659300  1.0  -0.6945
  O  O216  1  0.070300  0.311500  0.642600  1.0  -0.7013
  O  O217  1  0.733600  0.353800  0.488400  1.0  -0.4921
  O  O218  1  0.806800  0.481400  0.371700  1.0  -0.7066
