# generated using pymatgen
data_LaH3C9(NO2)3
_symmetry_space_group_name_H-M   'P 1'
_cell_length_a   6.37730000
_cell_length_b   6.97190000
_cell_length_c   15.51180000
_cell_angle_alpha   78.96300000
_cell_angle_beta   87.65700000
_cell_angle_gamma   71.99000000
_symmetry_Int_Tables_number   1
_chemical_formula_structural   LaH3C9(NO2)3
_chemical_formula_sum   'La2 H6 C18 N6 O12'
_cell_volume   643.63593691
_cell_formula_units_Z   2
loop_
 _symmetry_equiv_pos_site_id
 _symmetry_equiv_pos_as_xyz
  1  'x, y, z'
loop_
 _atom_site_type_symbol
 _atom_site_label
 _atom_site_symmetry_multiplicity
 _atom_site_fract_x
 _atom_site_fract_y
 _atom_site_fract_z
 _atom_site_occupancy
 _atom_site_charge
  La  La1  1  0.292020  0.937120  0.258220  1.0  2.1532
  La  La2  1  0.707980  0.062880  0.741780  1.0  2.1531
  H  H3  1  0.182000  0.918000  0.496000  1.0  0.086
  H  H4  1  0.878900  0.255600  0.920100  1.0  0.0952
  H  H5  1  0.621400  0.898000  0.977900  1.0  0.1514
  H  H6  1  0.818000  0.082000  0.504000  1.0  0.0862
  H  H7  1  0.121100  0.744400  0.079900  1.0  0.0957
  H  H8  1  0.378600  0.102000  0.022100  1.0  0.1505
  C  C9  1  0.756800  0.991900  0.345230  1.0  0.7042
  C  C10  1  0.618700  0.998600  0.427290  1.0  0.1331
  C  C11  1  0.310500  0.958200  0.497200  1.0  0.1711
  C  C12  1  0.642100  0.620700  0.126700  1.0  0.6495
  C  C13  1  0.702100  0.597300  0.032380  1.0  0.0923
  C  C14  1  0.821900  0.386400  0.933200  1.0  0.1634
  C  C15  1  0.813900  0.535200  0.769600  1.0  0.6863
  C  C16  1  0.777900  0.555900  0.864860  1.0  0.0693
  C  C17  1  0.670300  0.767000  0.964600  1.0  0.1644
  C  C18  1  0.243200  0.008100  0.654770  1.0  0.7046
  C  C19  1  0.381300  0.001400  0.572710  1.0  0.137
  C  C20  1  0.689500  0.041800  0.502800  1.0  0.1758
  C  C21  1  0.357900  0.379300  0.873300  1.0  0.6515
  C  C22  1  0.297900  0.402700  0.967620  1.0  0.0946
  C  C23  1  0.178100  0.613600  0.066800  1.0  0.162
  C  C24  1  0.186100  0.464800  0.230400  1.0  0.6834
  C  C25  1  0.222100  0.444100  0.135140  1.0  0.0702
  C  C26  1  0.329700  0.233000  0.035400  1.0  0.1642
  N  N27  1  0.428300  0.958300  0.423660  1.0  -0.4662
  N  N28  1  0.784700  0.406200  0.016860  1.0  -0.4369
  N  N29  1  0.707700  0.747300  0.881170  1.0  -0.448
  N  N30  1  0.571700  0.041700  0.576340  1.0  -0.4622
  N  N31  1  0.215300  0.593800  0.983140  1.0  -0.4372
  N  N32  1  0.292300  0.252700  0.118830  1.0  -0.4462
  O  O33  1  0.661300  0.990300  0.276300  1.0  -0.6715
  O  O34  1  0.953200  0.986400  0.352960  1.0  -0.7235
  O  O35  1  0.518300  0.796200  0.136460  1.0  -0.651
  O  O36  1  0.710800  0.466800  0.184900  1.0  -0.5334
  O  O37  1  0.846400  0.361600  0.751440  1.0  -0.7114
  O  O38  1  0.807100  0.696900  0.715720  1.0  -0.6874
  O  O39  1  0.338700  0.009700  0.723700  1.0  -0.6708
  O  O40  1  0.046800  0.013600  0.647040  1.0  -0.7222
  O  O41  1  0.481700  0.203800  0.863540  1.0  -0.6499
  O  O42  1  0.289200  0.533200  0.815100  1.0  -0.5324
  O  O43  1  0.153600  0.638400  0.248560  1.0  -0.7118
  O  O44  1  0.192900  0.303100  0.284280  1.0  -0.6863
