# generated using pymatgen
data_Nd5(SO4)12
_symmetry_space_group_name_H-M   'P 1'
_cell_length_a   20.57000000
_cell_length_b   35.81500000
_cell_length_c   10.10600000
_cell_angle_alpha   90.00000000
_cell_angle_beta   114.69400000
_cell_angle_gamma   90.00000000
_symmetry_Int_Tables_number   1
_chemical_formula_structural   Nd5(SO4)12
_chemical_formula_sum   'Nd20 S48 O192'
_cell_volume   6764.38467684
_cell_formula_units_Z   4
loop_
 _symmetry_equiv_pos_site_id
 _symmetry_equiv_pos_as_xyz
  1  'x, y, z'
loop_
 _atom_site_type_symbol
 _atom_site_label
 _atom_site_symmetry_multiplicity
 _atom_site_fract_x
 _atom_site_fract_y
 _atom_site_fract_z
 _atom_site_occupancy
 _atom_site_charge
  Nd  Nd1  1  0.757520  0.192590  0.508910  1.0  2.2759
  Nd  Nd2  1  0.637520  0.030950  0.479230  1.0  2.296
  Nd  Nd3  1  0.257520  0.692590  0.508910  1.0  2.2759
  Nd  Nd4  1  0.137520  0.530950  0.479230  1.0  2.296
  Nd  Nd5  1  0.242480  0.192590  0.991090  1.0  2.2755
  Nd  Nd6  1  0.362480  0.030950  0.020770  1.0  2.296
  Nd  Nd7  1  0.742480  0.692590  0.991090  1.0  2.2755
  Nd  Nd8  1  0.862480  0.530950  0.020770  1.0  2.296
  Nd  Nd9  1  0.242480  0.807410  0.491090  1.0  2.2748
  Nd  Nd10  1  0.362480  0.969050  0.520770  1.0  2.2959
  Nd  Nd11  1  0.742480  0.307410  0.491090  1.0  2.2748
  Nd  Nd12  1  0.862480  0.469050  0.520770  1.0  2.2959
  Nd  Nd13  1  0.757520  0.807410  0.008910  1.0  2.2751
  Nd  Nd14  1  0.637520  0.969050  0.979230  1.0  2.2959
  Nd  Nd15  1  0.257520  0.307410  0.008910  1.0  2.2751
  Nd  Nd16  1  0.137520  0.469050  0.979230  1.0  2.2959
  Nd  Nd17  1  0.000000  0.220020  0.750000  1.0  2.335
  Nd  Nd18  1  0.500000  0.720020  0.750000  1.0  2.335
  Nd  Nd19  1  0.000000  0.779980  0.250000  1.0  2.3352
  Nd  Nd20  1  0.500000  0.279980  0.250000  1.0  2.3352
  S  S21  1  0.752920  0.973790  0.371900  1.0  1.5407
  S  S22  1  0.558380  0.035710  0.138100  1.0  1.7261
  S  S23  1  0.706320  0.110880  0.516400  1.0  1.6759
  S  S24  1  0.904930  0.157560  0.537900  1.0  1.709
  S  S25  1  0.867780  0.267840  0.442870  1.0  1.724
  S  S26  1  0.844070  0.252630  0.822360  1.0  1.6179
  S  S27  1  0.252920  0.473790  0.371900  1.0  1.5407
  S  S28  1  0.058380  0.535710  0.138100  1.0  1.7261
  S  S29  1  0.206320  0.610880  0.516400  1.0  1.6759
  S  S30  1  0.404930  0.657560  0.537900  1.0  1.709
  S  S31  1  0.367780  0.767840  0.442870  1.0  1.724
  S  S32  1  0.344070  0.752630  0.822360  1.0  1.6179
  S  S33  1  0.247080  0.973790  0.128100  1.0  1.5373
  S  S34  1  0.441620  0.035710  0.361900  1.0  1.7271
  S  S35  1  0.293680  0.110880  0.983600  1.0  1.6761
  S  S36  1  0.095070  0.157560  0.962100  1.0  1.7095
  S  S37  1  0.132220  0.267840  0.057130  1.0  1.7239
  S  S38  1  0.155930  0.252630  0.677640  1.0  1.6177
  S  S39  1  0.747080  0.473790  0.128100  1.0  1.5373
  S  S40  1  0.941620  0.535710  0.361900  1.0  1.7271
  S  S41  1  0.793680  0.610880  0.983600  1.0  1.6761
  S  S42  1  0.595070  0.657560  0.962100  1.0  1.7095
  S  S43  1  0.632220  0.767840  0.057130  1.0  1.7239
  S  S44  1  0.655930  0.752630  0.677640  1.0  1.6177
  S  S45  1  0.247080  0.026210  0.628100  1.0  1.5373
  S  S46  1  0.441620  0.964290  0.861900  1.0  1.7268
  S  S47  1  0.293680  0.889120  0.483600  1.0  1.6765
  S  S48  1  0.095070  0.842440  0.462100  1.0  1.709
  S  S49  1  0.132220  0.732160  0.557130  1.0  1.7201
  S  S50  1  0.155930  0.747370  0.177640  1.0  1.618
  S  S51  1  0.747080  0.526210  0.628100  1.0  1.5373
  S  S52  1  0.941620  0.464290  0.861900  1.0  1.7268
  S  S53  1  0.793680  0.389120  0.483600  1.0  1.6765
  S  S54  1  0.595070  0.342440  0.462100  1.0  1.709
  S  S55  1  0.632220  0.232160  0.557130  1.0  1.7201
  S  S56  1  0.655930  0.247370  0.177640  1.0  1.618
  S  S57  1  0.752920  0.026210  0.871900  1.0  1.5406
  S  S58  1  0.558380  0.964290  0.638100  1.0  1.7256
  S  S59  1  0.706320  0.889120  0.016400  1.0  1.6763
  S  S60  1  0.904930  0.842440  0.037900  1.0  1.7085
  S  S61  1  0.867780  0.732160  0.942870  1.0  1.7205
  S  S62  1  0.844070  0.747370  0.322360  1.0  1.6183
  S  S63  1  0.252920  0.526210  0.871900  1.0  1.5406
  S  S64  1  0.058380  0.464290  0.638100  1.0  1.7256
  S  S65  1  0.206320  0.389120  0.016400  1.0  1.6763
  S  S66  1  0.404930  0.342440  0.037900  1.0  1.7085
  S  S67  1  0.367780  0.232160  0.942870  1.0  1.7205
  S  S68  1  0.344070  0.247370  0.322360  1.0  1.6183
  O  O69  1  0.775000  0.936800  0.405000  1.0  -0.4585
  O  O70  1  0.714100  0.979900  0.222200  1.0  -0.5991
  O  O71  1  0.820700  0.995500  0.420900  1.0  -0.5093
  O  O72  1  0.715900  0.987300  0.454600  1.0  -0.5743
  O  O73  1  0.586700  0.027520  0.030400  1.0  -0.6722
  O  O74  1  0.565300  0.002940  0.229100  1.0  -0.6645
  O  O75  1  0.484300  0.048250  0.060700  1.0  -0.6663
  O  O76  1  0.599900  0.065120  0.239100  1.0  -0.671
  O  O77  1  0.738700  0.075410  0.501700  1.0  -0.7005
  O  O78  1  0.640900  0.100470  0.532300  1.0  -0.6452
  O  O79  1  0.690400  0.135180  0.389800  1.0  -0.6588
  O  O80  1  0.756800  0.132490  0.643000  1.0  -0.7591
  O  O81  1  0.918700  0.118120  0.565800  1.0  -0.5552
  O  O82  1  0.966300  0.177040  0.533400  1.0  -0.6275
  O  O83  1  0.838400  0.163750  0.407800  1.0  -0.6253
  O  O84  1  0.893400  0.176020  0.659800  1.0  -0.8521
  O  O85  1  0.816500  0.248020  0.488400  1.0  -0.8535
  O  O86  1  0.860600  0.255770  0.302500  1.0  -0.4773
  O  O87  1  0.849900  0.307600  0.444000  1.0  -0.7067
  O  O88  1  0.940400  0.261430  0.553700  1.0  -0.6657
  O  O89  1  0.799600  0.219450  0.752400  1.0  -0.7933
  O  O90  1  0.916500  0.246640  0.831600  1.0  -0.6896
  O  O91  1  0.813000  0.286610  0.736800  1.0  -0.7393
  O  O92  1  0.847300  0.256600  0.967700  1.0  -0.5684
  O  O93  1  0.275000  0.436800  0.405000  1.0  -0.4585
  O  O94  1  0.214100  0.479900  0.222200  1.0  -0.5991
  O  O95  1  0.320700  0.495500  0.420900  1.0  -0.5093
  O  O96  1  0.215900  0.487300  0.454600  1.0  -0.5743
  O  O97  1  0.086700  0.527520  0.030400  1.0  -0.6722
  O  O98  1  0.065300  0.502940  0.229100  1.0  -0.6645
  O  O99  1  0.984300  0.548250  0.060700  1.0  -0.6663
  O  O100  1  0.099900  0.565120  0.239100  1.0  -0.671
  O  O101  1  0.238700  0.575410  0.501700  1.0  -0.7005
  O  O102  1  0.140900  0.600470  0.532300  1.0  -0.6452
  O  O103  1  0.190400  0.635180  0.389800  1.0  -0.6588
  O  O104  1  0.256800  0.632490  0.643000  1.0  -0.7591
  O  O105  1  0.418700  0.618120  0.565800  1.0  -0.5552
  O  O106  1  0.466300  0.677040  0.533400  1.0  -0.6275
  O  O107  1  0.338400  0.663750  0.407800  1.0  -0.6253
  O  O108  1  0.393400  0.676020  0.659800  1.0  -0.8521
  O  O109  1  0.316500  0.748020  0.488400  1.0  -0.8535
  O  O110  1  0.360600  0.755770  0.302500  1.0  -0.4773
  O  O111  1  0.349900  0.807600  0.444000  1.0  -0.7067
  O  O112  1  0.440400  0.761430  0.553700  1.0  -0.6657
  O  O113  1  0.299600  0.719450  0.752400  1.0  -0.7933
  O  O114  1  0.416500  0.746640  0.831600  1.0  -0.6896
  O  O115  1  0.313000  0.786610  0.736800  1.0  -0.7393
  O  O116  1  0.347300  0.756600  0.967700  1.0  -0.5684
  O  O117  1  0.225000  0.936800  0.095000  1.0  -0.4592
  O  O118  1  0.285900  0.979900  0.277800  1.0  -0.5977
  O  O119  1  0.179300  0.995500  0.079100  1.0  -0.5072
  O  O120  1  0.284100  0.987300  0.045400  1.0  -0.573
  O  O121  1  0.413300  0.027520  0.469600  1.0  -0.6694
  O  O122  1  0.434700  0.002940  0.270900  1.0  -0.664
  O  O123  1  0.515700  0.048250  0.439300  1.0  -0.6686
  O  O124  1  0.400100  0.065120  0.260900  1.0  -0.6718
  O  O125  1  0.261300  0.075410  0.998300  1.0  -0.7005
  O  O126  1  0.359100  0.100470  0.967700  1.0  -0.643
  O  O127  1  0.309600  0.135180  0.110200  1.0  -0.6581
  O  O128  1  0.243200  0.132490  0.857000  1.0  -0.757
  O  O129  1  0.081300  0.118120  0.934200  1.0  -0.5552
  O  O130  1  0.033700  0.177040  0.966600  1.0  -0.6279
  O  O131  1  0.161600  0.163750  0.092200  1.0  -0.6283
  O  O132  1  0.106600  0.176020  0.840200  1.0  -0.8495
  O  O133  1  0.183500  0.248020  0.011600  1.0  -0.8515
  O  O134  1  0.139400  0.255770  0.197500  1.0  -0.4763
  O  O135  1  0.150100  0.307600  0.056000  1.0  -0.706
  O  O136  1  0.059600  0.261430  0.946300  1.0  -0.6633
  O  O137  1  0.200400  0.219450  0.747600  1.0  -0.7923
  O  O138  1  0.083500  0.246640  0.668400  1.0  -0.6883
  O  O139  1  0.187000  0.286610  0.763200  1.0  -0.7425
  O  O140  1  0.152700  0.256600  0.532300  1.0  -0.5701
  O  O141  1  0.725000  0.436800  0.095000  1.0  -0.4592
  O  O142  1  0.785900  0.479900  0.277800  1.0  -0.5977
  O  O143  1  0.679300  0.495500  0.079100  1.0  -0.5072
  O  O144  1  0.784100  0.487300  0.045400  1.0  -0.573
  O  O145  1  0.913300  0.527520  0.469600  1.0  -0.6694
  O  O146  1  0.934700  0.502940  0.270900  1.0  -0.664
  O  O147  1  0.015700  0.548250  0.439300  1.0  -0.6686
  O  O148  1  0.900100  0.565120  0.260900  1.0  -0.6718
  O  O149  1  0.761300  0.575410  0.998300  1.0  -0.7005
  O  O150  1  0.859100  0.600470  0.967700  1.0  -0.643
  O  O151  1  0.809600  0.635180  0.110200  1.0  -0.6581
  O  O152  1  0.743200  0.632490  0.857000  1.0  -0.757
  O  O153  1  0.581300  0.618120  0.934200  1.0  -0.5552
  O  O154  1  0.533700  0.677040  0.966600  1.0  -0.6279
  O  O155  1  0.661600  0.663750  0.092200  1.0  -0.6283
  O  O156  1  0.606600  0.676020  0.840200  1.0  -0.8495
  O  O157  1  0.683500  0.748020  0.011600  1.0  -0.8515
  O  O158  1  0.639400  0.755770  0.197500  1.0  -0.4763
  O  O159  1  0.650100  0.807600  0.056000  1.0  -0.706
  O  O160  1  0.559600  0.761430  0.946300  1.0  -0.6633
  O  O161  1  0.700400  0.719450  0.747600  1.0  -0.7923
  O  O162  1  0.583500  0.746640  0.668400  1.0  -0.6883
  O  O163  1  0.687000  0.786610  0.763200  1.0  -0.7425
  O  O164  1  0.652700  0.756600  0.532300  1.0  -0.5701
  O  O165  1  0.225000  0.063200  0.595000  1.0  -0.4603
  O  O166  1  0.285900  0.020100  0.777800  1.0  -0.5977
  O  O167  1  0.179300  0.004500  0.579100  1.0  -0.5096
  O  O168  1  0.284100  0.012700  0.545400  1.0  -0.5733
  O  O169  1  0.413300  0.972480  0.969600  1.0  -0.6706
  O  O170  1  0.434700  0.997060  0.770900  1.0  -0.665
  O  O171  1  0.515700  0.951750  0.939300  1.0  -0.6675
  O  O172  1  0.400100  0.934880  0.760900  1.0  -0.6727
  O  O173  1  0.261300  0.924590  0.498300  1.0  -0.6999
  O  O174  1  0.359100  0.899530  0.467700  1.0  -0.643
  O  O175  1  0.309600  0.864820  0.610200  1.0  -0.6583
  O  O176  1  0.243200  0.867510  0.357000  1.0  -0.7574
  O  O177  1  0.081300  0.881880  0.434200  1.0  -0.5583
  O  O178  1  0.033700  0.822960  0.466600  1.0  -0.6277
  O  O179  1  0.161600  0.836250  0.592200  1.0  -0.6269
  O  O180  1  0.106600  0.823980  0.340200  1.0  -0.8486
  O  O181  1  0.183500  0.751980  0.511600  1.0  -0.8507
  O  O182  1  0.139400  0.744230  0.697500  1.0  -0.4766
  O  O183  1  0.150100  0.692400  0.556000  1.0  -0.7051
  O  O184  1  0.059600  0.738570  0.446300  1.0  -0.6624
  O  O185  1  0.200400  0.780550  0.247600  1.0  -0.7937
  O  O186  1  0.083500  0.753360  0.168400  1.0  -0.6883
  O  O187  1  0.187000  0.713390  0.263200  1.0  -0.7411
  O  O188  1  0.152700  0.743400  0.032300  1.0  -0.5702
  O  O189  1  0.725000  0.563200  0.595000  1.0  -0.4603
  O  O190  1  0.785900  0.520100  0.777800  1.0  -0.5977
  O  O191  1  0.679300  0.504500  0.579100  1.0  -0.5096
  O  O192  1  0.784100  0.512700  0.545400  1.0  -0.5733
  O  O193  1  0.913300  0.472480  0.969600  1.0  -0.6706
  O  O194  1  0.934700  0.497060  0.770900  1.0  -0.665
  O  O195  1  0.015700  0.451750  0.939300  1.0  -0.6675
  O  O196  1  0.900100  0.434880  0.760900  1.0  -0.6727
  O  O197  1  0.761300  0.424590  0.498300  1.0  -0.6999
  O  O198  1  0.859100  0.399530  0.467700  1.0  -0.643
  O  O199  1  0.809600  0.364820  0.610200  1.0  -0.6583
  O  O200  1  0.743200  0.367510  0.357000  1.0  -0.7574
  O  O201  1  0.581300  0.381880  0.434200  1.0  -0.5583
  O  O202  1  0.533700  0.322960  0.466600  1.0  -0.6277
  O  O203  1  0.661600  0.336250  0.592200  1.0  -0.6269
  O  O204  1  0.606600  0.323980  0.340200  1.0  -0.8486
  O  O205  1  0.683500  0.251980  0.511600  1.0  -0.8507
  O  O206  1  0.639400  0.244230  0.697500  1.0  -0.4766
  O  O207  1  0.650100  0.192400  0.556000  1.0  -0.7051
  O  O208  1  0.559600  0.238570  0.446300  1.0  -0.6624
  O  O209  1  0.700400  0.280550  0.247600  1.0  -0.7937
  O  O210  1  0.583500  0.253360  0.168400  1.0  -0.6883
  O  O211  1  0.687000  0.213390  0.263200  1.0  -0.7411
  O  O212  1  0.652700  0.243400  0.032300  1.0  -0.5702
  O  O213  1  0.775000  0.063200  0.905000  1.0  -0.4585
  O  O214  1  0.714100  0.020100  0.722200  1.0  -0.5993
  O  O215  1  0.820700  0.004500  0.920900  1.0  -0.511
  O  O216  1  0.715900  0.012700  0.954600  1.0  -0.5747
  O  O217  1  0.586700  0.972480  0.530400  1.0  -0.6733
  O  O218  1  0.565300  0.997060  0.729100  1.0  -0.6652
  O  O219  1  0.484300  0.951750  0.560700  1.0  -0.6671
  O  O220  1  0.599900  0.934880  0.739100  1.0  -0.6725
  O  O221  1  0.738700  0.924590  0.001700  1.0  -0.6993
  O  O222  1  0.640900  0.899530  0.032300  1.0  -0.6451
  O  O223  1  0.690400  0.864820  0.889800  1.0  -0.659
  O  O224  1  0.756800  0.867510  0.143000  1.0  -0.7596
  O  O225  1  0.918700  0.881880  0.065800  1.0  -0.5572
  O  O226  1  0.966300  0.822960  0.033400  1.0  -0.6278
  O  O227  1  0.838400  0.836250  0.907800  1.0  -0.6259
  O  O228  1  0.893400  0.823980  0.159800  1.0  -0.8524
  O  O229  1  0.816500  0.751980  0.988400  1.0  -0.8531
  O  O230  1  0.860600  0.744230  0.802500  1.0  -0.477
  O  O231  1  0.849900  0.692400  0.944000  1.0  -0.7063
  O  O232  1  0.940400  0.738570  0.053700  1.0  -0.665
  O  O233  1  0.799600  0.780550  0.252400  1.0  -0.7926
  O  O234  1  0.916500  0.753360  0.331600  1.0  -0.689
  O  O235  1  0.813000  0.713390  0.236800  1.0  -0.7403
  O  O236  1  0.847300  0.743400  0.467700  1.0  -0.5684
  O  O237  1  0.275000  0.563200  0.905000  1.0  -0.4585
  O  O238  1  0.214100  0.520100  0.722200  1.0  -0.5993
  O  O239  1  0.320700  0.504500  0.920900  1.0  -0.511
  O  O240  1  0.215900  0.512700  0.954600  1.0  -0.5747
  O  O241  1  0.086700  0.472480  0.530400  1.0  -0.6733
  O  O242  1  0.065300  0.497060  0.729100  1.0  -0.6652
  O  O243  1  0.984300  0.451750  0.560700  1.0  -0.6671
  O  O244  1  0.099900  0.434880  0.739100  1.0  -0.6725
  O  O245  1  0.238700  0.424590  0.001700  1.0  -0.6993
  O  O246  1  0.140900  0.399530  0.032300  1.0  -0.6451
  O  O247  1  0.190400  0.364820  0.889800  1.0  -0.659
  O  O248  1  0.256800  0.367510  0.143000  1.0  -0.7596
  O  O249  1  0.418700  0.381880  0.065800  1.0  -0.5572
  O  O250  1  0.466300  0.322960  0.033400  1.0  -0.6278
  O  O251  1  0.338400  0.336250  0.907800  1.0  -0.6259
  O  O252  1  0.393400  0.323980  0.159800  1.0  -0.8524
  O  O253  1  0.316500  0.251980  0.988400  1.0  -0.8531
  O  O254  1  0.360600  0.244230  0.802500  1.0  -0.477
  O  O255  1  0.349900  0.192400  0.944000  1.0  -0.7063
  O  O256  1  0.440400  0.238570  0.053700  1.0  -0.665
  O  O257  1  0.299600  0.280550  0.252400  1.0  -0.7926
  O  O258  1  0.416500  0.253360  0.331600  1.0  -0.689
  O  O259  1  0.313000  0.213390  0.236800  1.0  -0.7403
  O  O260  1  0.347300  0.243400  0.467700  1.0  -0.5684
