# generated using pymatgen
data_Mn3H4C16(NO6)2
_symmetry_space_group_name_H-M   'P 1'
_cell_length_a   13.13170000
_cell_length_b   12.12560000
_cell_length_c   7.81190000
_cell_angle_alpha   90.00000000
_cell_angle_beta   99.73400000
_cell_angle_gamma   90.00000000
_symmetry_Int_Tables_number   1
_chemical_formula_structural   Mn3H4C16(NO6)2
_chemical_formula_sum   'Mn6 H8 C32 N4 O24'
_cell_volume   1225.97896727
_cell_formula_units_Z   2
loop_
 _symmetry_equiv_pos_site_id
 _symmetry_equiv_pos_as_xyz
  1  'x, y, z'
loop_
 _atom_site_type_symbol
 _atom_site_label
 _atom_site_symmetry_multiplicity
 _atom_site_fract_x
 _atom_site_fract_y
 _atom_site_fract_z
 _atom_site_occupancy
 _atom_site_charge
  Mn  Mn1  1  0.736820  0.482290  0.901400  1.0  1.121
  Mn  Mn2  1  0.263180  0.982290  0.598600  1.0  1.1233
  Mn  Mn3  1  0.263180  0.517710  0.098600  1.0  1.1184
  Mn  Mn4  1  0.736820  0.017710  0.401400  1.0  1.1167
  Mn  Mn5  1  0.000000  0.500000  0.500000  1.0  1.0515
  Mn  Mn6  1  0.000000  0.000000  0.000000  1.0  1.0515
  H  H7  1  0.414000  0.440000  0.606000  1.0  0.1049
  H  H8  1  0.475000  0.118000  0.687000  1.0  0.0769
  H  H9  1  0.586000  0.940000  0.894000  1.0  0.105
  H  H10  1  0.525000  0.618000  0.813000  1.0  0.077
  H  H11  1  0.586000  0.560000  0.394000  1.0  0.1051
  H  H12  1  0.525000  0.882000  0.313000  1.0  0.077
  H  H13  1  0.414000  0.060000  0.106000  1.0  0.1055
  H  H14  1  0.475000  0.382000  0.187000  1.0  0.0769
  C  C15  1  0.161000  0.187300  0.437900  1.0  0.6164
  C  C16  1  0.268200  0.228100  0.519000  1.0  0.1191
  C  C17  1  0.294900  0.339100  0.523400  1.0  -0.09
  C  C18  1  0.395800  0.367500  0.595700  1.0  0.0096
  C  C19  1  0.466100  0.285900  0.660700  1.0  -0.1369
  C  C20  1  0.432400  0.177000  0.651000  1.0  0.2249
  C  C21  1  0.216100  0.428900  0.472400  1.0  0.7099
  C  C22  1  0.574700  0.313300  0.748100  1.0  0.6608
  C  C23  1  0.839000  0.687300  0.062100  1.0  0.6209
  C  C24  1  0.731800  0.728100  0.981000  1.0  0.1203
  C  C25  1  0.705100  0.839100  0.976600  1.0  -0.0889
  C  C26  1  0.604200  0.867500  0.904300  1.0  0.0083
  C  C27  1  0.533900  0.785900  0.839300  1.0  -0.1354
  C  C28  1  0.567600  0.677000  0.849000  1.0  0.2245
  C  C29  1  0.783900  0.928900  0.027600  1.0  0.7055
  C  C30  1  0.425300  0.813300  0.751900  1.0  0.6623
  C  C31  1  0.839000  0.812700  0.562100  1.0  0.6206
  C  C32  1  0.731800  0.771900  0.481000  1.0  0.1204
  C  C33  1  0.705100  0.660900  0.476600  1.0  -0.0888
  C  C34  1  0.604200  0.632500  0.404300  1.0  0.0087
  C  C35  1  0.533900  0.714100  0.339300  1.0  -0.1358
  C  C36  1  0.567600  0.823000  0.349000  1.0  0.2234
  C  C37  1  0.783900  0.571100  0.527600  1.0  0.7066
  C  C38  1  0.425300  0.686700  0.251900  1.0  0.6622
  C  C39  1  0.161000  0.312700  0.937900  1.0  0.6179
  C  C40  1  0.268200  0.271900  0.019000  1.0  0.1199
  C  C41  1  0.294900  0.160900  0.023400  1.0  -0.0905
  C  C42  1  0.395800  0.132500  0.095700  1.0  0.0105
  C  C43  1  0.466100  0.214100  0.160700  1.0  -0.1371
  C  C44  1  0.432400  0.323000  0.151000  1.0  0.2235
  C  C45  1  0.216100  0.071100  0.972400  1.0  0.7103
  C  C46  1  0.574700  0.186700  0.248100  1.0  0.6611
  N  N47  1  0.335490  0.148800  0.583900  1.0  -0.3094
  N  N48  1  0.664510  0.648800  0.916100  1.0  -0.3072
  N  N49  1  0.664510  0.851200  0.416100  1.0  -0.3099
  N  N50  1  0.335490  0.351200  0.083900  1.0  -0.3103
  O  O51  1  0.136620  0.090070  0.480800  1.0  -0.6089
  O  O52  1  0.106380  0.249910  0.334900  1.0  -0.5399
  O  O53  1  0.153290  0.442220  0.577200  1.0  -0.6014
  O  O54  1  0.219790  0.488480  0.344700  1.0  -0.7236
  O  O55  1  0.593260  0.414080  0.779800  1.0  -0.6018
  O  O56  1  0.637340  0.236090  0.786100  1.0  -0.5553
  O  O57  1  0.863380  0.590070  0.019200  1.0  -0.6108
  O  O58  1  0.893620  0.749910  0.165100  1.0  -0.5408
  O  O59  1  0.846710  0.942220  0.922800  1.0  -0.6014
  O  O60  1  0.780210  0.988480  0.155300  1.0  -0.7228
  O  O61  1  0.406740  0.914080  0.720200  1.0  -0.6042
  O  O62  1  0.362660  0.736090  0.713900  1.0  -0.5577
  O  O63  1  0.863380  0.909930  0.519200  1.0  -0.609
  O  O64  1  0.893620  0.750090  0.665100  1.0  -0.5407
  O  O65  1  0.846710  0.557780  0.422800  1.0  -0.6024
  O  O66  1  0.780210  0.511520  0.655300  1.0  -0.7222
  O  O67  1  0.406740  0.585920  0.220200  1.0  -0.604
  O  O68  1  0.362660  0.763910  0.213900  1.0  -0.5586
  O  O69  1  0.136620  0.409930  0.980800  1.0  -0.6122
  O  O70  1  0.106380  0.250090  0.834900  1.0  -0.5404
  O  O71  1  0.153290  0.057780  0.077200  1.0  -0.6014
  O  O72  1  0.219790  0.011520  0.844700  1.0  -0.7207
  O  O73  1  0.593260  0.085920  0.279800  1.0  -0.603
  O  O74  1  0.637340  0.263910  0.286100  1.0  -0.5551
