# generated using pymatgen
data_Co3H4C16(NO6)2
_symmetry_space_group_name_H-M   'P 1'
_cell_length_a   12.85850000
_cell_length_b   11.98730000
_cell_length_c   7.66850000
_cell_angle_alpha   90.00000000
_cell_angle_beta   98.89600000
_cell_angle_gamma   90.00000000
_symmetry_Int_Tables_number   1
_chemical_formula_structural   Co3H4C16(NO6)2
_chemical_formula_sum   'Co6 H8 C32 N4 O24'
_cell_volume   1167.79377184
_cell_formula_units_Z   2
loop_
 _symmetry_equiv_pos_site_id
 _symmetry_equiv_pos_as_xyz
  1  'x, y, z'
loop_
 _atom_site_type_symbol
 _atom_site_label
 _atom_site_symmetry_multiplicity
 _atom_site_fract_x
 _atom_site_fract_y
 _atom_site_fract_z
 _atom_site_occupancy
 _atom_site_charge
  Co  Co1  1  0.265700  0.488500  0.594280  1.0  1.045
  Co  Co2  1  0.734300  0.988500  0.905720  1.0  1.0448
  Co  Co3  1  0.734300  0.511500  0.405720  1.0  1.0435
  Co  Co4  1  0.265700  0.011500  0.094280  1.0  1.0427
  Co  Co5  1  0.000000  0.000000  0.500000  1.0  0.8717
  Co  Co6  1  0.000000  0.500000  0.000000  1.0  0.8717
  H  H7  1  0.419900  0.941200  0.595900  1.0  0.1297
  H  H8  1  0.481600  0.618700  0.698600  1.0  0.1001
  H  H9  1  0.580100  0.441200  0.904100  1.0  0.1297
  H  H10  1  0.518400  0.118700  0.801400  1.0  0.1003
  H  H11  1  0.580100  0.058800  0.404100  1.0  0.1298
  H  H12  1  0.518400  0.381300  0.301400  1.0  0.1006
  H  H13  1  0.419900  0.558800  0.095900  1.0  0.13
  H  H14  1  0.481600  0.881300  0.198600  1.0  0.1002
  C  C15  1  0.160700  0.684400  0.435600  1.0  0.6285
  C  C16  1  0.268900  0.726300  0.517900  1.0  0.122
  C  C17  1  0.297400  0.837700  0.519700  1.0  -0.0715
  C  C18  1  0.398800  0.867000  0.593400  1.0  0.0047
  C  C19  1  0.468800  0.784400  0.663600  1.0  -0.1762
  C  C20  1  0.434600  0.674600  0.654900  1.0  0.2062
  C  C21  1  0.216000  0.928500  0.466300  1.0  0.681
  C  C22  1  0.578700  0.813000  0.752600  1.0  0.6667
  C  C23  1  0.839300  0.184400  0.064400  1.0  0.6309
  C  C24  1  0.731100  0.226300  0.982100  1.0  0.1233
  C  C25  1  0.702600  0.337700  0.980300  1.0  -0.0709
  C  C26  1  0.601200  0.367000  0.906600  1.0  0.0041
  C  C27  1  0.531200  0.284400  0.836400  1.0  -0.1754
  C  C28  1  0.565400  0.174600  0.845100  1.0  0.2067
  C  C29  1  0.784000  0.428500  0.033700  1.0  0.6771
  C  C30  1  0.421300  0.313000  0.747400  1.0  0.6685
  C  C31  1  0.839300  0.315600  0.564400  1.0  0.6306
  C  C32  1  0.731100  0.273700  0.482100  1.0  0.1225
  C  C33  1  0.702600  0.162300  0.480300  1.0  -0.071
  C  C34  1  0.601200  0.133000  0.406600  1.0  0.0047
  C  C35  1  0.531200  0.215600  0.336400  1.0  -0.1757
  C  C36  1  0.565400  0.325400  0.345100  1.0  0.205
  C  C37  1  0.784000  0.071500  0.533700  1.0  0.6779
  C  C38  1  0.421300  0.187000  0.247400  1.0  0.6683
  C  C39  1  0.160700  0.815600  0.935600  1.0  0.6302
  C  C40  1  0.268900  0.773700  0.017900  1.0  0.1221
  C  C41  1  0.297400  0.662300  0.019700  1.0  -0.072
  C  C42  1  0.398800  0.633000  0.093400  1.0  0.005
  C  C43  1  0.468800  0.715600  0.163600  1.0  -0.1762
  C  C44  1  0.434600  0.825400  0.154900  1.0  0.2055
  C  C45  1  0.216000  0.571500  0.966300  1.0  0.68
  C  C46  1  0.578700  0.687000  0.252600  1.0  0.6666
  N  N47  1  0.336500  0.646400  0.585900  1.0  -0.2757
  N  N48  1  0.663500  0.146400  0.914100  1.0  -0.2745
  N  N49  1  0.663500  0.353600  0.414100  1.0  -0.2762
  N  N50  1  0.336500  0.853600  0.085900  1.0  -0.2765
  O  O51  1  0.137500  0.585500  0.477200  1.0  -0.5866
  O  O52  1  0.106200  0.747500  0.331100  1.0  -0.5073
  O  O53  1  0.220200  0.988100  0.336400  1.0  -0.6759
  O  O54  1  0.150700  0.940000  0.571100  1.0  -0.6059
  O  O55  1  0.596800  0.914400  0.787500  1.0  -0.5845
  O  O56  1  0.643400  0.734800  0.790000  1.0  -0.5389
  O  O57  1  0.862500  0.085500  0.022800  1.0  -0.5883
  O  O58  1  0.893800  0.247500  0.168900  1.0  -0.5072
  O  O59  1  0.779800  0.488100  0.163600  1.0  -0.6748
  O  O60  1  0.849300  0.440000  0.928900  1.0  -0.6051
  O  O61  1  0.403200  0.414400  0.712500  1.0  -0.5857
  O  O62  1  0.356600  0.234800  0.710000  1.0  -0.5377
  O  O63  1  0.862500  0.414500  0.522800  1.0  -0.5852
  O  O64  1  0.893800  0.252500  0.668900  1.0  -0.5068
  O  O65  1  0.779800  0.011900  0.663600  1.0  -0.6693
  O  O66  1  0.849300  0.060000  0.428900  1.0  -0.6058
  O  O67  1  0.403200  0.085600  0.212500  1.0  -0.5864
  O  O68  1  0.356600  0.265200  0.210000  1.0  -0.5387
  O  O69  1  0.137500  0.914500  0.977200  1.0  -0.5877
  O  O70  1  0.106200  0.752500  0.831100  1.0  -0.5074
  O  O71  1  0.220200  0.511900  0.836400  1.0  -0.6698
  O  O72  1  0.150700  0.560000  0.071100  1.0  -0.6059
  O  O73  1  0.596800  0.585600  0.287500  1.0  -0.5869
  O  O74  1  0.643400  0.765200  0.290000  1.0  -0.538
