# generated using pymatgen
data_LiC6N4F3
_symmetry_space_group_name_H-M   'P 1'
_cell_length_a   15.11400000
_cell_length_b   8.78200000
_cell_length_c   15.34500000
_cell_angle_alpha   90.00000000
_cell_angle_beta   95.37800000
_cell_angle_gamma   90.00000000
_symmetry_Int_Tables_number   1
_chemical_formula_structural   LiC6N4F3
_chemical_formula_sum   'Li8 C48 N32 F24'
_cell_volume   2027.79370427
_cell_formula_units_Z   8
loop_
 _symmetry_equiv_pos_site_id
 _symmetry_equiv_pos_as_xyz
  1  'x, y, z'
loop_
 _atom_site_type_symbol
 _atom_site_label
 _atom_site_symmetry_multiplicity
 _atom_site_fract_x
 _atom_site_fract_y
 _atom_site_fract_z
 _atom_site_occupancy
 _atom_site_charge
  Li  Li1  1  0.866580  0.256300  0.361660  1.0  0.8513
  Li  Li2  1  0.366580  0.756300  0.361660  1.0  0.8513
  Li  Li3  1  0.133420  0.256300  0.138340  1.0  0.8504
  Li  Li4  1  0.633420  0.756300  0.138340  1.0  0.8504
  Li  Li5  1  0.133420  0.743700  0.638340  1.0  0.8496
  Li  Li6  1  0.633420  0.243700  0.638340  1.0  0.8496
  Li  Li7  1  0.866580  0.743700  0.861660  1.0  0.8513
  Li  Li8  1  0.366580  0.243700  0.861660  1.0  0.8513
  C  C9  1  0.801830  0.546350  0.126340  1.0  0.1537
  C  C10  1  0.854300  0.445990  0.178810  1.0  0.1619
  C  C11  1  0.937140  0.383110  0.159750  1.0  0.2708
  C  C12  1  0.741780  0.504510  0.242240  1.0  0.3311
  C  C13  1  0.818730  0.601310  0.042290  1.0  0.3258
  C  C14  1  0.676030  0.514740  0.309080  1.0  0.4458
  C  C15  1  0.301830  0.046350  0.126340  1.0  0.1537
  C  C16  1  0.354300  0.945990  0.178810  1.0  0.1619
  C  C17  1  0.437140  0.883110  0.159750  1.0  0.2708
  C  C18  1  0.241780  0.004510  0.242240  1.0  0.3311
  C  C19  1  0.318730  0.101310  0.042290  1.0  0.3258
  C  C20  1  0.176030  0.014740  0.309080  1.0  0.4458
  C  C21  1  0.198170  0.546350  0.373660  1.0  0.1546
  C  C22  1  0.145700  0.445990  0.321190  1.0  0.1604
  C  C23  1  0.062860  0.383110  0.340250  1.0  0.2688
  C  C24  1  0.258220  0.504510  0.257760  1.0  0.3317
  C  C25  1  0.181270  0.601310  0.457710  1.0  0.3255
  C  C26  1  0.323970  0.514740  0.190920  1.0  0.4435
  C  C27  1  0.698170  0.046350  0.373660  1.0  0.1546
  C  C28  1  0.645700  0.945990  0.321190  1.0  0.1604
  C  C29  1  0.562860  0.883110  0.340250  1.0  0.2688
  C  C30  1  0.758220  0.004510  0.257760  1.0  0.3317
  C  C31  1  0.681270  0.101310  0.457710  1.0  0.3255
  C  C32  1  0.823970  0.014740  0.190920  1.0  0.4435
  C  C33  1  0.198170  0.453650  0.873660  1.0  0.1548
  C  C34  1  0.145700  0.554010  0.821190  1.0  0.1606
  C  C35  1  0.062860  0.616890  0.840250  1.0  0.2687
  C  C36  1  0.258220  0.495490  0.757760  1.0  0.3318
  C  C37  1  0.181270  0.398690  0.957710  1.0  0.3259
  C  C38  1  0.323970  0.485260  0.690920  1.0  0.4434
  C  C39  1  0.698170  0.953650  0.873660  1.0  0.1548
  C  C40  1  0.645700  0.054010  0.821190  1.0  0.1606
  C  C41  1  0.562860  0.116890  0.840250  1.0  0.2687
  C  C42  1  0.758220  0.995490  0.757760  1.0  0.3318
  C  C43  1  0.681270  0.898690  0.957710  1.0  0.3259
  C  C44  1  0.823970  0.985260  0.690920  1.0  0.4434
  C  C45  1  0.801830  0.453650  0.626340  1.0  0.1539
  C  C46  1  0.854300  0.554010  0.678810  1.0  0.1621
  C  C47  1  0.937140  0.616890  0.659750  1.0  0.2705
  C  C48  1  0.741780  0.495490  0.742240  1.0  0.3312
  C  C49  1  0.818730  0.398690  0.542290  1.0  0.3263
  C  C50  1  0.676030  0.485260  0.809080  1.0  0.4456
  C  C51  1  0.301830  0.953650  0.626340  1.0  0.1539
  C  C52  1  0.354300  0.054010  0.678810  1.0  0.1621
  C  C53  1  0.437140  0.116890  0.659750  1.0  0.2705
  C  C54  1  0.241780  0.995490  0.742240  1.0  0.3312
  C  C55  1  0.318730  0.898690  0.542290  1.0  0.3263
  C  C56  1  0.176030  0.985260  0.809080  1.0  0.4456
  N  N57  1  0.729180  0.585060  0.167850  1.0  -0.4875
  N  N58  1  0.834550  0.642740  0.974570  1.0  -0.4537
  N  N59  1  0.004570  0.335950  0.143590  1.0  -0.4692
  N  N60  1  0.815130  0.418150  0.253840  1.0  -0.4524
  N  N61  1  0.229180  0.085060  0.167850  1.0  -0.4875
  N  N62  1  0.334550  0.142740  0.974570  1.0  -0.4537
  N  N63  1  0.504570  0.835950  0.143590  1.0  -0.4692
  N  N64  1  0.315130  0.918150  0.253840  1.0  -0.4524
  N  N65  1  0.270820  0.585060  0.332150  1.0  -0.49
  N  N66  1  0.165450  0.642740  0.525430  1.0  -0.4542
  N  N67  1  0.995430  0.335950  0.356410  1.0  -0.4707
  N  N68  1  0.184870  0.418150  0.246160  1.0  -0.4512
  N  N69  1  0.770820  0.085060  0.332150  1.0  -0.49
  N  N70  1  0.665450  0.142740  0.525430  1.0  -0.4542
  N  N71  1  0.495430  0.835950  0.356410  1.0  -0.4707
  N  N72  1  0.684870  0.918150  0.246160  1.0  -0.4512
  N  N73  1  0.270820  0.414940  0.832150  1.0  -0.4891
  N  N74  1  0.165450  0.357260  0.025430  1.0  -0.4542
  N  N75  1  0.995430  0.664050  0.856410  1.0  -0.471
  N  N76  1  0.184870  0.581850  0.746160  1.0  -0.4512
  N  N77  1  0.770820  0.914940  0.832150  1.0  -0.4891
  N  N78  1  0.665450  0.857260  0.025430  1.0  -0.4542
  N  N79  1  0.495430  0.164050  0.856410  1.0  -0.471
  N  N80  1  0.684870  0.081850  0.746160  1.0  -0.4512
  N  N81  1  0.729180  0.414940  0.667850  1.0  -0.488
  N  N82  1  0.834550  0.357260  0.474570  1.0  -0.454
  N  N83  1  0.004570  0.664050  0.643590  1.0  -0.4692
  N  N84  1  0.815130  0.581850  0.753840  1.0  -0.4524
  N  N85  1  0.229180  0.914940  0.667850  1.0  -0.488
  N  N86  1  0.334550  0.857260  0.474570  1.0  -0.454
  N  N87  1  0.504570  0.164050  0.643590  1.0  -0.4692
  N  N88  1  0.315130  0.081850  0.753840  1.0  -0.4524
  F  F89  1  0.599470  0.575050  0.273930  1.0  -0.254
  F  F90  1  0.704630  0.602940  0.377470  1.0  -0.2124
  F  F91  1  0.657680  0.378950  0.341790  1.0  -0.2066
  F  F92  1  0.099470  0.075050  0.273930  1.0  -0.254
  F  F93  1  0.204630  0.102940  0.377470  1.0  -0.2124
  F  F94  1  0.157680  0.878950  0.341790  1.0  -0.2066
  F  F95  1  0.400530  0.575050  0.226070  1.0  -0.2552
  F  F96  1  0.295370  0.602940  0.122530  1.0  -0.2105
  F  F97  1  0.342320  0.378950  0.158210  1.0  -0.2076
  F  F98  1  0.900530  0.075050  0.226070  1.0  -0.2552
  F  F99  1  0.795370  0.102940  0.122530  1.0  -0.2105
  F  F100  1  0.842320  0.878950  0.158210  1.0  -0.2076
  F  F101  1  0.400530  0.424950  0.726070  1.0  -0.256
  F  F102  1  0.295370  0.397060  0.622530  1.0  -0.2112
  F  F103  1  0.342320  0.621050  0.658210  1.0  -0.2059
  F  F104  1  0.900530  0.924950  0.726070  1.0  -0.256
  F  F105  1  0.795370  0.897060  0.622530  1.0  -0.2112
  F  F106  1  0.842320  0.121050  0.658210  1.0  -0.2059
  F  F107  1  0.599470  0.424950  0.773930  1.0  -0.2552
  F  F108  1  0.704630  0.397060  0.877470  1.0  -0.2124
  F  F109  1  0.657680  0.621050  0.841790  1.0  -0.2061
  F  F110  1  0.099470  0.924950  0.773930  1.0  -0.2552
  F  F111  1  0.204630  0.897060  0.877470  1.0  -0.2124
  F  F112  1  0.157680  0.121050  0.841790  1.0  -0.2061
