# generated using pymatgen
data_AgH4(C2N3)2
_symmetry_space_group_name_H-M   'P 1'
_cell_length_a   22.87000000
_cell_length_b   34.64700000
_cell_length_c   9.53500000
_cell_angle_alpha   90.00000000
_cell_angle_beta   90.00000000
_cell_angle_gamma   90.00000000
_symmetry_Int_Tables_number   1
_chemical_formula_structural   AgH4(C2N3)2
_chemical_formula_sum   'Ag32 H128 C128 N192'
_cell_volume   7555.31364615
_cell_formula_units_Z   32
loop_
 _symmetry_equiv_pos_site_id
 _symmetry_equiv_pos_as_xyz
  1  'x, y, z'
loop_
 _atom_site_type_symbol
 _atom_site_label
 _atom_site_symmetry_multiplicity
 _atom_site_fract_x
 _atom_site_fract_y
 _atom_site_fract_z
 _atom_site_occupancy
 _atom_site_charge
  Ag  Ag1  1  0.322820  0.125200  0.638840  1.0  0.3213
  Ag  Ag2  1  0.441270  0.141110  0.962050  1.0  0.2829
  Ag  Ag3  1  0.322820  0.625200  0.138840  1.0  0.3213
  Ag  Ag4  1  0.441270  0.641110  0.462050  1.0  0.2829
  Ag  Ag5  1  0.822820  0.125200  0.138840  1.0  0.3213
  Ag  Ag6  1  0.941270  0.141110  0.462050  1.0  0.2829
  Ag  Ag7  1  0.822820  0.625200  0.638840  1.0  0.3213
  Ag  Ag8  1  0.941270  0.641110  0.962050  1.0  0.2829
  Ag  Ag9  1  0.677180  0.874800  0.638840  1.0  0.3211
  Ag  Ag10  1  0.558730  0.858890  0.962050  1.0  0.2822
  Ag  Ag11  1  0.677180  0.374800  0.138840  1.0  0.3211
  Ag  Ag12  1  0.558730  0.358890  0.462050  1.0  0.2822
  Ag  Ag13  1  0.177180  0.874800  0.138840  1.0  0.3211
  Ag  Ag14  1  0.058730  0.858890  0.462050  1.0  0.2822
  Ag  Ag15  1  0.177180  0.374800  0.638840  1.0  0.3211
  Ag  Ag16  1  0.058730  0.358890  0.962050  1.0  0.2822
  Ag  Ag17  1  0.572820  0.124800  0.888840  1.0  0.3217
  Ag  Ag18  1  0.691270  0.108890  0.212050  1.0  0.283
  Ag  Ag19  1  0.572820  0.624800  0.388840  1.0  0.3217
  Ag  Ag20  1  0.691270  0.608900  0.712050  1.0  0.2846
  Ag  Ag21  1  0.072820  0.124800  0.388840  1.0  0.3217
  Ag  Ag22  1  0.191270  0.108890  0.712050  1.0  0.283
  Ag  Ag23  1  0.072820  0.624800  0.888840  1.0  0.3217
  Ag  Ag24  1  0.191270  0.608900  0.212050  1.0  0.2846
  Ag  Ag25  1  0.927180  0.375200  0.888840  1.0  0.3206
  Ag  Ag26  1  0.808730  0.391110  0.212050  1.0  0.2826
  Ag  Ag27  1  0.927180  0.875200  0.388840  1.0  0.3206
  Ag  Ag28  1  0.808730  0.891110  0.712050  1.0  0.2826
  Ag  Ag29  1  0.427180  0.375200  0.388840  1.0  0.3206
  Ag  Ag30  1  0.308730  0.391110  0.712050  1.0  0.2826
  Ag  Ag31  1  0.427180  0.875200  0.888840  1.0  0.3206
  Ag  Ag32  1  0.308730  0.891110  0.212050  1.0  0.2826
  H  H33  1  0.562500  0.128600  0.548100  1.0  0.0621
  H  H34  1  0.460300  0.037200  0.541400  1.0  0.0649
  H  H35  1  0.457300  0.136900  0.318600  1.0  0.075
  H  H36  1  0.550800  0.042700  0.264500  1.0  0.0615
  H  H37  1  0.293500  0.987500  0.117500  1.0  0.0692
  H  H38  1  0.392900  0.960500  0.794200  1.0  0.0614
  H  H39  1  0.415500  0.047700  0.032900  1.0  0.0513
  H  H40  1  0.291500  0.035200  0.750400  1.0  0.0507
  H  H41  1  0.562500  0.628600  0.048100  1.0  0.0621
  H  H42  1  0.460300  0.537200  0.041400  1.0  0.0649
  H  H43  1  0.457300  0.636900  0.818600  1.0  0.075
  H  H44  1  0.550800  0.542700  0.764500  1.0  0.0615
  H  H45  1  0.293500  0.487500  0.617500  1.0  0.0692
  H  H46  1  0.392900  0.460500  0.294200  1.0  0.0614
  H  H47  1  0.415500  0.547700  0.532900  1.0  0.0513
  H  H48  1  0.291500  0.535200  0.250400  1.0  0.0508
  H  H49  1  0.062500  0.128600  0.048100  1.0  0.0621
  H  H50  1  0.960300  0.037200  0.041400  1.0  0.0649
  H  H51  1  0.957300  0.136900  0.818600  1.0  0.075
  H  H52  1  0.050800  0.042700  0.764500  1.0  0.0615
  H  H53  1  0.793500  0.987500  0.617500  1.0  0.0692
  H  H54  1  0.892900  0.960500  0.294200  1.0  0.0614
  H  H55  1  0.915500  0.047700  0.532900  1.0  0.0513
  H  H56  1  0.791500  0.035200  0.250400  1.0  0.0507
  H  H57  1  0.062500  0.628600  0.548100  1.0  0.0621
  H  H58  1  0.960300  0.537200  0.541400  1.0  0.0649
  H  H59  1  0.957300  0.636900  0.318600  1.0  0.075
  H  H60  1  0.050800  0.542700  0.264500  1.0  0.0615
  H  H61  1  0.793500  0.487500  0.117500  1.0  0.0692
  H  H62  1  0.892900  0.460500  0.794200  1.0  0.0614
  H  H63  1  0.915500  0.547700  0.032900  1.0  0.0513
  H  H64  1  0.791500  0.535200  0.750400  1.0  0.0508
  H  H65  1  0.437500  0.871400  0.548100  1.0  0.0616
  H  H66  1  0.539700  0.962800  0.541400  1.0  0.0655
  H  H67  1  0.542700  0.863100  0.318600  1.0  0.0744
  H  H68  1  0.449200  0.957300  0.264500  1.0  0.0617
  H  H69  1  0.706500  0.012500  0.117500  1.0  0.0683
  H  H70  1  0.607100  0.039500  0.794200  1.0  0.0595
  H  H71  1  0.584500  0.952300  0.032900  1.0  0.0511
  H  H72  1  0.708500  0.964800  0.750400  1.0  0.0503
  H  H73  1  0.437500  0.371400  0.048100  1.0  0.0616
  H  H74  1  0.539700  0.462800  0.041400  1.0  0.0655
  H  H75  1  0.542700  0.363100  0.818600  1.0  0.0744
  H  H76  1  0.449200  0.457300  0.764500  1.0  0.0617
  H  H77  1  0.706500  0.512500  0.617500  1.0  0.0683
  H  H78  1  0.607100  0.539500  0.294200  1.0  0.0595
  H  H79  1  0.584500  0.452300  0.532900  1.0  0.0511
  H  H80  1  0.708500  0.464800  0.250400  1.0  0.0503
  H  H81  1  0.937500  0.871400  0.048100  1.0  0.0616
  H  H82  1  0.039700  0.962800  0.041400  1.0  0.0655
  H  H83  1  0.042700  0.863100  0.818600  1.0  0.0744
  H  H84  1  0.949200  0.957300  0.764500  1.0  0.0617
  H  H85  1  0.206500  0.012500  0.617500  1.0  0.0683
  H  H86  1  0.107100  0.039500  0.294200  1.0  0.0595
  H  H87  1  0.084500  0.952300  0.532900  1.0  0.0511
  H  H88  1  0.208500  0.964800  0.250400  1.0  0.0503
  H  H89  1  0.937500  0.371400  0.548100  1.0  0.0616
  H  H90  1  0.039700  0.462800  0.541400  1.0  0.0655
  H  H91  1  0.042700  0.363100  0.318600  1.0  0.0744
  H  H92  1  0.949200  0.457300  0.264500  1.0  0.0617
  H  H93  1  0.206500  0.512500  0.117500  1.0  0.0683
  H  H94  1  0.107100  0.539500  0.794200  1.0  0.0595
  H  H95  1  0.084500  0.452300  0.032900  1.0  0.0511
  H  H96  1  0.208500  0.464800  0.750400  1.0  0.0503
  H  H97  1  0.812500  0.121400  0.798100  1.0  0.0618
  H  H98  1  0.710300  0.212800  0.791400  1.0  0.0654
  H  H99  1  0.707300  0.113100  0.568600  1.0  0.0746
  H  H100  1  0.800800  0.207300  0.514500  1.0  0.0619
  H  H101  1  0.543500  0.262500  0.367500  1.0  0.0688
  H  H102  1  0.642900  0.289500  0.044200  1.0  0.0616
  H  H103  1  0.665500  0.202300  0.282900  1.0  0.0513
  H  H104  1  0.541500  0.214800  0.000400  1.0  0.0512
  H  H105  1  0.812500  0.621400  0.298100  1.0  0.0618
  H  H106  1  0.710300  0.712800  0.291400  1.0  0.0654
  H  H107  1  0.707300  0.613100  0.068600  1.0  0.0747
  H  H108  1  0.800800  0.707300  0.014500  1.0  0.0619
  H  H109  1  0.543500  0.762500  0.867500  1.0  0.0688
  H  H110  1  0.642900  0.789500  0.544200  1.0  0.0616
  H  H111  1  0.665500  0.702300  0.782900  1.0  0.0513
  H  H112  1  0.541500  0.714800  0.500400  1.0  0.0512
  H  H113  1  0.312500  0.121400  0.298100  1.0  0.0618
  H  H114  1  0.210300  0.212800  0.291400  1.0  0.0654
  H  H115  1  0.207300  0.113100  0.068600  1.0  0.0746
  H  H116  1  0.300800  0.207300  0.014500  1.0  0.0619
  H  H117  1  0.043500  0.262500  0.867500  1.0  0.0688
  H  H118  1  0.142900  0.289500  0.544200  1.0  0.0616
  H  H119  1  0.165500  0.202300  0.782900  1.0  0.0513
  H  H120  1  0.041500  0.214800  0.500400  1.0  0.0512
  H  H121  1  0.312500  0.621400  0.798100  1.0  0.0618
  H  H122  1  0.210300  0.712800  0.791400  1.0  0.0654
  H  H123  1  0.207300  0.613100  0.568600  1.0  0.0747
  H  H124  1  0.300800  0.707300  0.514500  1.0  0.0619
  H  H125  1  0.043500  0.762500  0.367500  1.0  0.0688
  H  H126  1  0.142900  0.789500  0.044200  1.0  0.0616
  H  H127  1  0.165500  0.702300  0.282900  1.0  0.0513
  H  H128  1  0.041500  0.714800  0.000400  1.0  0.0512
  H  H129  1  0.687500  0.378600  0.798100  1.0  0.0623
  H  H130  1  0.789700  0.287200  0.791400  1.0  0.0654
  H  H131  1  0.792700  0.386900  0.568600  1.0  0.0745
  H  H132  1  0.699200  0.292700  0.514500  1.0  0.0611
  H  H133  1  0.956500  0.237500  0.367500  1.0  0.0687
  H  H134  1  0.857100  0.210500  0.044200  1.0  0.0594
  H  H135  1  0.834500  0.297700  0.282900  1.0  0.051
  H  H136  1  0.958500  0.285200  0.000400  1.0  0.0502
  H  H137  1  0.687500  0.878600  0.298100  1.0  0.0623
  H  H138  1  0.789700  0.787200  0.291400  1.0  0.0654
  H  H139  1  0.792700  0.886900  0.068600  1.0  0.0745
  H  H140  1  0.699200  0.792700  0.014500  1.0  0.0611
  H  H141  1  0.956500  0.737500  0.867500  1.0  0.0687
  H  H142  1  0.857100  0.710500  0.544200  1.0  0.0594
  H  H143  1  0.834500  0.797700  0.782900  1.0  0.051
  H  H144  1  0.958500  0.785200  0.500400  1.0  0.0502
  H  H145  1  0.187500  0.378600  0.298100  1.0  0.0623
  H  H146  1  0.289700  0.287200  0.291400  1.0  0.0654
  H  H147  1  0.292700  0.386900  0.068600  1.0  0.0745
  H  H148  1  0.199200  0.292700  0.014500  1.0  0.0611
  H  H149  1  0.456500  0.237500  0.867500  1.0  0.0687
  H  H150  1  0.357100  0.210500  0.544200  1.0  0.0594
  H  H151  1  0.334500  0.297700  0.782900  1.0  0.051
  H  H152  1  0.458500  0.285200  0.500400  1.0  0.0502
  H  H153  1  0.187500  0.878600  0.798100  1.0  0.0623
  H  H154  1  0.289700  0.787200  0.791400  1.0  0.0654
  H  H155  1  0.292700  0.886900  0.568600  1.0  0.0745
  H  H156  1  0.199200  0.792700  0.514500  1.0  0.0611
  H  H157  1  0.456500  0.737500  0.367500  1.0  0.0687
  H  H158  1  0.357100  0.710500  0.044200  1.0  0.0594
  H  H159  1  0.334500  0.797700  0.282900  1.0  0.051
  H  H160  1  0.458500  0.785200  0.000400  1.0  0.0502
  C  C161  1  0.539800  0.107720  0.576500  1.0  0.0957
  C  C162  1  0.483860  0.057270  0.573100  1.0  0.0922
  C  C163  1  0.477440  0.116620  0.276900  1.0  0.145
  C  C164  1  0.528910  0.064730  0.246400  1.0  0.1543
  C  C165  1  0.315300  0.973470  0.052700  1.0  0.0751
  C  C166  1  0.369960  0.958530  0.874400  1.0  0.1134
  C  C167  1  0.389180  0.052790  0.960900  1.0  0.0993
  C  C168  1  0.320920  0.045820  0.805300  1.0  0.0601
  C  C169  1  0.539800  0.607720  0.076500  1.0  0.0957
  C  C170  1  0.483860  0.557270  0.073100  1.0  0.0922
  C  C171  1  0.477440  0.616620  0.776900  1.0  0.145
  C  C172  1  0.528910  0.564730  0.746400  1.0  0.1543
  C  C173  1  0.315300  0.473470  0.552700  1.0  0.0751
  C  C174  1  0.369960  0.458530  0.374400  1.0  0.1134
  C  C175  1  0.389180  0.552790  0.460900  1.0  0.0993
  C  C176  1  0.320920  0.545820  0.305300  1.0  0.0601
  C  C177  1  0.039800  0.107720  0.076500  1.0  0.0957
  C  C178  1  0.983860  0.057270  0.073100  1.0  0.0922
  C  C179  1  0.977440  0.116620  0.776900  1.0  0.145
  C  C180  1  0.028910  0.064730  0.746400  1.0  0.1543
  C  C181  1  0.815300  0.973470  0.552700  1.0  0.0751
  C  C182  1  0.869960  0.958530  0.374400  1.0  0.1134
  C  C183  1  0.889180  0.052790  0.460900  1.0  0.0993
  C  C184  1  0.820920  0.045820  0.305300  1.0  0.0601
  C  C185  1  0.039800  0.607720  0.576500  1.0  0.0957
  C  C186  1  0.983860  0.557270  0.573100  1.0  0.0922
  C  C187  1  0.977440  0.616620  0.276900  1.0  0.145
  C  C188  1  0.028910  0.564730  0.246400  1.0  0.1543
  C  C189  1  0.815300  0.473470  0.052700  1.0  0.0751
  C  C190  1  0.869960  0.458530  0.874400  1.0  0.1134
  C  C191  1  0.889180  0.552790  0.960900  1.0  0.0993
  C  C192  1  0.820920  0.545820  0.805300  1.0  0.0601
  C  C193  1  0.460200  0.892280  0.576500  1.0  0.095
  C  C194  1  0.516140  0.942730  0.573100  1.0  0.0935
  C  C195  1  0.522560  0.883380  0.276900  1.0  0.145
  C  C196  1  0.471090  0.935270  0.246400  1.0  0.1552
  C  C197  1  0.684700  0.026530  0.052700  1.0  0.0754
  C  C198  1  0.630040  0.041470  0.874400  1.0  0.1132
  C  C199  1  0.610820  0.947210  0.960900  1.0  0.099
  C  C200  1  0.679080  0.954180  0.805300  1.0  0.0595
  C  C201  1  0.460200  0.392280  0.076500  1.0  0.095
  C  C202  1  0.516140  0.442730  0.073100  1.0  0.0935
  C  C203  1  0.522560  0.383380  0.776900  1.0  0.145
  C  C204  1  0.471090  0.435270  0.746400  1.0  0.1552
  C  C205  1  0.684700  0.526530  0.552700  1.0  0.0754
  C  C206  1  0.630040  0.541470  0.374400  1.0  0.1132
  C  C207  1  0.610820  0.447210  0.460900  1.0  0.099
  C  C208  1  0.679080  0.454180  0.305300  1.0  0.0595
  C  C209  1  0.960200  0.892280  0.076500  1.0  0.095
  C  C210  1  0.016140  0.942730  0.073100  1.0  0.0935
  C  C211  1  0.022560  0.883380  0.776900  1.0  0.145
  C  C212  1  0.971090  0.935270  0.746400  1.0  0.1552
  C  C213  1  0.184700  0.026530  0.552700  1.0  0.0754
  C  C214  1  0.130040  0.041470  0.374400  1.0  0.1132
  C  C215  1  0.110820  0.947210  0.460900  1.0  0.099
  C  C216  1  0.179080  0.954180  0.305300  1.0  0.0595
  C  C217  1  0.960200  0.392280  0.576500  1.0  0.095
  C  C218  1  0.016140  0.442730  0.573100  1.0  0.0935
  C  C219  1  0.022560  0.383380  0.276900  1.0  0.145
  C  C220  1  0.971090  0.435270  0.246400  1.0  0.1552
  C  C221  1  0.184700  0.526530  0.052700  1.0  0.0754
  C  C222  1  0.130040  0.541470  0.874400  1.0  0.1132
  C  C223  1  0.110820  0.447210  0.960900  1.0  0.099
  C  C224  1  0.179080  0.454180  0.805300  1.0  0.0595
  C  C225  1  0.789800  0.142280  0.826500  1.0  0.0949
  C  C226  1  0.733860  0.192730  0.823100  1.0  0.0929
  C  C227  1  0.727440  0.133380  0.526900  1.0  0.1444
  C  C228  1  0.778910  0.185270  0.496400  1.0  0.1552
  C  C229  1  0.565300  0.276530  0.302700  1.0  0.0757
  C  C230  1  0.619960  0.291470  0.124400  1.0  0.1131
  C  C231  1  0.639180  0.197210  0.210900  1.0  0.0995
  C  C232  1  0.570920  0.204180  0.055300  1.0  0.0599
  C  C233  1  0.789800  0.642280  0.326500  1.0  0.0949
  C  C234  1  0.733860  0.692730  0.323100  1.0  0.0929
  C  C235  1  0.727440  0.633380  0.026900  1.0  0.1444
  C  C236  1  0.778910  0.685270  0.996400  1.0  0.1552
  C  C237  1  0.565300  0.776530  0.802700  1.0  0.0757
  C  C238  1  0.619960  0.791470  0.624400  1.0  0.1131
  C  C239  1  0.639180  0.697210  0.710900  1.0  0.0995
  C  C240  1  0.570920  0.704180  0.555300  1.0  0.0599
  C  C241  1  0.289800  0.142280  0.326500  1.0  0.0949
  C  C242  1  0.233860  0.192730  0.323100  1.0  0.0929
  C  C243  1  0.227440  0.133380  0.026900  1.0  0.1444
  C  C244  1  0.278910  0.185270  0.996400  1.0  0.1552
  C  C245  1  0.065300  0.276530  0.802700  1.0  0.0757
  C  C246  1  0.119960  0.291470  0.624400  1.0  0.1131
  C  C247  1  0.139180  0.197210  0.710900  1.0  0.0995
  C  C248  1  0.070920  0.204180  0.555300  1.0  0.0599
  C  C249  1  0.289800  0.642280  0.826500  1.0  0.0949
  C  C250  1  0.233860  0.692730  0.823100  1.0  0.0929
  C  C251  1  0.227440  0.633380  0.526900  1.0  0.1444
  C  C252  1  0.278910  0.685270  0.496400  1.0  0.1552
  C  C253  1  0.065300  0.776530  0.302700  1.0  0.0757
  C  C254  1  0.119960  0.791470  0.124400  1.0  0.1131
  C  C255  1  0.139180  0.697210  0.210900  1.0  0.0995
  C  C256  1  0.070920  0.704180  0.055300  1.0  0.0599
  C  C257  1  0.710200  0.357720  0.826500  1.0  0.0955
  C  C258  1  0.766140  0.307270  0.823100  1.0  0.0921
  C  C259  1  0.772560  0.366620  0.526900  1.0  0.1456
  C  C260  1  0.721090  0.314730  0.496400  1.0  0.1551
  C  C261  1  0.934700  0.223470  0.302700  1.0  0.0746
  C  C262  1  0.880040  0.208530  0.124400  1.0  0.1134
  C  C263  1  0.860820  0.302790  0.210900  1.0  0.0986
  C  C264  1  0.929080  0.295820  0.055300  1.0  0.0595
  C  C265  1  0.710200  0.857720  0.326500  1.0  0.0955
  C  C266  1  0.766140  0.807270  0.323100  1.0  0.0921
  C  C267  1  0.772560  0.866620  0.026900  1.0  0.1456
  C  C268  1  0.721090  0.814730  0.996400  1.0  0.1551
  C  C269  1  0.934700  0.723470  0.802700  1.0  0.0746
  C  C270  1  0.880040  0.708530  0.624400  1.0  0.1134
  C  C271  1  0.860820  0.802790  0.710900  1.0  0.0986
  C  C272  1  0.929080  0.795820  0.555300  1.0  0.0595
  C  C273  1  0.210200  0.357720  0.326500  1.0  0.0955
  C  C274  1  0.266140  0.307270  0.323100  1.0  0.0921
  C  C275  1  0.272560  0.366620  0.026900  1.0  0.1456
  C  C276  1  0.221090  0.314730  0.996400  1.0  0.1551
  C  C277  1  0.434700  0.223470  0.802700  1.0  0.0746
  C  C278  1  0.380040  0.208530  0.624400  1.0  0.1134
  C  C279  1  0.360820  0.302790  0.710900  1.0  0.0986
  C  C280  1  0.429080  0.295820  0.555300  1.0  0.0595
  C  C281  1  0.210200  0.857720  0.826500  1.0  0.0955
  C  C282  1  0.266140  0.807270  0.823100  1.0  0.0921
  C  C283  1  0.272560  0.866620  0.526900  1.0  0.1456
  C  C284  1  0.221090  0.814730  0.496400  1.0  0.1551
  C  C285  1  0.434700  0.723470  0.302700  1.0  0.0746
  C  C286  1  0.380040  0.708530  0.124400  1.0  0.1134
  C  C287  1  0.360820  0.802790  0.210900  1.0  0.0986
  C  C288  1  0.429080  0.795820  0.055300  1.0  0.0595
  N  N289  1  0.497250  0.063940  0.703100  1.0  -0.3166
  N  N290  1  0.532470  0.096940  0.703600  1.0  -0.2456
  N  N291  1  0.509780  0.084430  0.490400  1.0  0.0439
  N  N292  1  0.505910  0.088030  0.345200  1.0  0.0419
  N  N293  1  0.483140  0.110880  0.143200  1.0  -0.2289
  N  N294  1  0.515940  0.077590  0.122100  1.0  -0.3072
  N  N295  1  0.322100  0.936270  0.052100  1.0  -0.2504
  N  N296  1  0.356890  0.926700  0.937200  1.0  -0.2409
  N  N297  1  0.345460  0.988480  0.942300  1.0  0.0179
  N  N298  1  0.351110  0.026930  0.906400  1.0  0.0395
  N  N299  1  0.383470  0.085390  0.898100  1.0  -0.2585
  N  N300  1  0.339400  0.080840  0.797100  1.0  -0.2281
  N  N301  1  0.497250  0.563940  0.203100  1.0  -0.3166
  N  N302  1  0.532470  0.596940  0.203600  1.0  -0.2456
  N  N303  1  0.509780  0.584430  0.990400  1.0  0.0439
  N  N304  1  0.505910  0.588030  0.845200  1.0  0.0419
  N  N305  1  0.483140  0.610880  0.643200  1.0  -0.2289
  N  N306  1  0.515940  0.577590  0.622100  1.0  -0.3072
  N  N307  1  0.322100  0.436270  0.552100  1.0  -0.2504
  N  N308  1  0.356890  0.426700  0.437200  1.0  -0.2409
  N  N309  1  0.345460  0.488480  0.442300  1.0  0.0179
  N  N310  1  0.351110  0.526930  0.406400  1.0  0.0395
  N  N311  1  0.383470  0.585390  0.398100  1.0  -0.2585
  N  N312  1  0.339400  0.580840  0.297100  1.0  -0.2281
  N  N313  1  0.997250  0.063940  0.203100  1.0  -0.3166
  N  N314  1  0.032470  0.096940  0.203600  1.0  -0.2456
  N  N315  1  0.009780  0.084430  0.990400  1.0  0.0439
  N  N316  1  0.005910  0.088030  0.845200  1.0  0.0419
  N  N317  1  0.983140  0.110880  0.643200  1.0  -0.2289
  N  N318  1  0.015940  0.077590  0.622100  1.0  -0.3072
  N  N319  1  0.822100  0.936270  0.552100  1.0  -0.2504
  N  N320  1  0.856890  0.926700  0.437200  1.0  -0.2409
  N  N321  1  0.845460  0.988480  0.442300  1.0  0.0179
  N  N322  1  0.851110  0.026930  0.406400  1.0  0.0395
  N  N323  1  0.883470  0.085390  0.398100  1.0  -0.2585
  N  N324  1  0.839400  0.080840  0.297100  1.0  -0.2281
  N  N325  1  0.997250  0.563940  0.703100  1.0  -0.3166
  N  N326  1  0.032470  0.596940  0.703600  1.0  -0.2456
  N  N327  1  0.009780  0.584430  0.490400  1.0  0.0439
  N  N328  1  0.005910  0.588030  0.345200  1.0  0.0419
  N  N329  1  0.983140  0.610880  0.143200  1.0  -0.2289
  N  N330  1  0.015940  0.577590  0.122100  1.0  -0.3072
  N  N331  1  0.822100  0.436270  0.052100  1.0  -0.2504
  N  N332  1  0.856890  0.426700  0.937200  1.0  -0.2409
  N  N333  1  0.845460  0.488480  0.942300  1.0  0.0179
  N  N334  1  0.851110  0.526930  0.906400  1.0  0.0395
  N  N335  1  0.883470  0.585390  0.898100  1.0  -0.2585
  N  N336  1  0.839400  0.580840  0.797100  1.0  -0.2281
  N  N337  1  0.502750  0.936060  0.703100  1.0  -0.3177
  N  N338  1  0.467530  0.903060  0.703600  1.0  -0.245
  N  N339  1  0.490220  0.915570  0.490400  1.0  0.0439
  N  N340  1  0.494090  0.911970  0.345200  1.0  0.0423
  N  N341  1  0.516860  0.889120  0.143200  1.0  -0.2273
  N  N342  1  0.484060  0.922410  0.122100  1.0  -0.3074
  N  N343  1  0.677900  0.063730  0.052100  1.0  -0.2498
  N  N344  1  0.643110  0.073300  0.937200  1.0  -0.2434
  N  N345  1  0.654540  0.011520  0.942300  1.0  0.0185
  N  N346  1  0.648890  0.973070  0.906400  1.0  0.0386
  N  N347  1  0.616530  0.914610  0.898100  1.0  -0.2585
  N  N348  1  0.660600  0.919160  0.797100  1.0  -0.2278
  N  N349  1  0.502750  0.436060  0.203100  1.0  -0.3177
  N  N350  1  0.467530  0.403060  0.203600  1.0  -0.245
  N  N351  1  0.490220  0.415570  0.990400  1.0  0.0439
  N  N352  1  0.494090  0.411970  0.845200  1.0  0.0423
  N  N353  1  0.516860  0.389120  0.643200  1.0  -0.2273
  N  N354  1  0.484060  0.422410  0.622100  1.0  -0.3074
  N  N355  1  0.677900  0.563730  0.552100  1.0  -0.2498
  N  N356  1  0.643110  0.573300  0.437200  1.0  -0.2434
  N  N357  1  0.654540  0.511520  0.442300  1.0  0.0185
  N  N358  1  0.648890  0.473070  0.406400  1.0  0.0386
  N  N359  1  0.616530  0.414610  0.398100  1.0  -0.2585
  N  N360  1  0.660600  0.419160  0.297100  1.0  -0.2278
  N  N361  1  0.002750  0.936060  0.203100  1.0  -0.3177
  N  N362  1  0.967530  0.903060  0.203600  1.0  -0.245
  N  N363  1  0.990220  0.915570  0.990400  1.0  0.0439
  N  N364  1  0.994090  0.911970  0.845200  1.0  0.0423
  N  N365  1  0.016860  0.889120  0.643200  1.0  -0.2273
  N  N366  1  0.984060  0.922410  0.622100  1.0  -0.3074
  N  N367  1  0.177900  0.063730  0.552100  1.0  -0.2498
  N  N368  1  0.143110  0.073300  0.437200  1.0  -0.2434
  N  N369  1  0.154540  0.011520  0.442300  1.0  0.0185
  N  N370  1  0.148890  0.973070  0.406400  1.0  0.0386
  N  N371  1  0.116530  0.914610  0.398100  1.0  -0.2585
  N  N372  1  0.160600  0.919160  0.297100  1.0  -0.2278
  N  N373  1  0.002750  0.436060  0.703100  1.0  -0.3177
  N  N374  1  0.967530  0.403060  0.703600  1.0  -0.245
  N  N375  1  0.990220  0.415570  0.490400  1.0  0.0439
  N  N376  1  0.994090  0.411970  0.345200  1.0  0.0423
  N  N377  1  0.016860  0.389120  0.143200  1.0  -0.2273
  N  N378  1  0.984060  0.422410  0.122100  1.0  -0.3074
  N  N379  1  0.177900  0.563730  0.052100  1.0  -0.2498
  N  N380  1  0.143110  0.573300  0.937200  1.0  -0.2434
  N  N381  1  0.154540  0.511520  0.942300  1.0  0.0185
  N  N382  1  0.148890  0.473070  0.906400  1.0  0.0386
  N  N383  1  0.116530  0.414610  0.898100  1.0  -0.2585
  N  N384  1  0.160600  0.419160  0.797100  1.0  -0.2278
  N  N385  1  0.747250  0.186060  0.953100  1.0  -0.3182
  N  N386  1  0.782470  0.153060  0.953600  1.0  -0.2447
  N  N387  1  0.759780  0.165570  0.740400  1.0  0.0439
  N  N388  1  0.755910  0.161970  0.595200  1.0  0.0421
  N  N389  1  0.733140  0.139120  0.393200  1.0  -0.2274
  N  N390  1  0.765940  0.172410  0.372100  1.0  -0.3074
  N  N391  1  0.572100  0.313730  0.302100  1.0  -0.2513
  N  N392  1  0.606890  0.323300  0.187200  1.0  -0.2429
  N  N393  1  0.595460  0.261520  0.192300  1.0  0.0183
  N  N394  1  0.601110  0.223070  0.156400  1.0  0.0392
  N  N395  1  0.633470  0.164610  0.148100  1.0  -0.2573
  N  N396  1  0.589400  0.169160  0.047100  1.0  -0.2276
  N  N397  1  0.747250  0.686060  0.453100  1.0  -0.3182
  N  N398  1  0.782470  0.653060  0.453600  1.0  -0.2447
  N  N399  1  0.759780  0.665570  0.240400  1.0  0.0439
  N  N400  1  0.755910  0.661970  0.095200  1.0  0.0421
  N  N401  1  0.733140  0.639120  0.893200  1.0  -0.2274
  N  N402  1  0.765940  0.672410  0.872100  1.0  -0.3074
  N  N403  1  0.572100  0.813730  0.802100  1.0  -0.2513
  N  N404  1  0.606890  0.823300  0.687200  1.0  -0.2429
  N  N405  1  0.595460  0.761520  0.692300  1.0  0.0183
  N  N406  1  0.601110  0.723070  0.656400  1.0  0.0392
  N  N407  1  0.633470  0.664610  0.648100  1.0  -0.2573
  N  N408  1  0.589400  0.669160  0.547100  1.0  -0.2276
  N  N409  1  0.247250  0.186060  0.453100  1.0  -0.3182
  N  N410  1  0.282470  0.153060  0.453600  1.0  -0.2447
  N  N411  1  0.259780  0.165570  0.240400  1.0  0.0439
  N  N412  1  0.255910  0.161970  0.095200  1.0  0.0421
  N  N413  1  0.233140  0.139120  0.893200  1.0  -0.2274
  N  N414  1  0.265940  0.172410  0.872100  1.0  -0.3074
  N  N415  1  0.072100  0.313730  0.802100  1.0  -0.2513
  N  N416  1  0.106890  0.323300  0.687200  1.0  -0.2429
  N  N417  1  0.095460  0.261520  0.692300  1.0  0.0183
  N  N418  1  0.101110  0.223070  0.656400  1.0  0.0392
  N  N419  1  0.133470  0.164610  0.648100  1.0  -0.2573
  N  N420  1  0.089400  0.169160  0.547100  1.0  -0.2276
  N  N421  1  0.247250  0.686060  0.953100  1.0  -0.3182
  N  N422  1  0.282470  0.653060  0.953600  1.0  -0.2447
  N  N423  1  0.259780  0.665570  0.740400  1.0  0.0439
  N  N424  1  0.255910  0.661970  0.595200  1.0  0.0421
  N  N425  1  0.233140  0.639120  0.393200  1.0  -0.2274
  N  N426  1  0.265940  0.672410  0.372100  1.0  -0.3074
  N  N427  1  0.072100  0.813730  0.302100  1.0  -0.2513
  N  N428  1  0.106890  0.823300  0.187200  1.0  -0.2429
  N  N429  1  0.095460  0.761520  0.192300  1.0  0.0183
  N  N430  1  0.101110  0.723070  0.156400  1.0  0.0392
  N  N431  1  0.133470  0.664610  0.148100  1.0  -0.2573
  N  N432  1  0.089400  0.669160  0.047100  1.0  -0.2276
  N  N433  1  0.752750  0.313940  0.953100  1.0  -0.316
  N  N434  1  0.717530  0.346940  0.953600  1.0  -0.2458
  N  N435  1  0.740220  0.334430  0.740400  1.0  0.0438
  N  N436  1  0.744090  0.338030  0.595200  1.0  0.0421
  N  N437  1  0.766860  0.360880  0.393200  1.0  -0.2294
  N  N438  1  0.734060  0.327590  0.372100  1.0  -0.3076
  N  N439  1  0.927900  0.186270  0.302100  1.0  -0.2497
  N  N440  1  0.893110  0.176700  0.187200  1.0  -0.2425
  N  N441  1  0.904540  0.238480  0.192300  1.0  0.0178
  N  N442  1  0.898890  0.276930  0.156400  1.0  0.0391
  N  N443  1  0.866530  0.335390  0.148100  1.0  -0.2585
  N  N444  1  0.910600  0.330840  0.047100  1.0  -0.2279
  N  N445  1  0.752750  0.813940  0.453100  1.0  -0.316
  N  N446  1  0.717530  0.846940  0.453600  1.0  -0.2458
  N  N447  1  0.740220  0.834430  0.240400  1.0  0.0438
  N  N448  1  0.744090  0.838030  0.095200  1.0  0.0421
  N  N449  1  0.766860  0.860880  0.893200  1.0  -0.2294
  N  N450  1  0.734060  0.827590  0.872100  1.0  -0.3076
  N  N451  1  0.927900  0.686270  0.802100  1.0  -0.2497
  N  N452  1  0.893110  0.676700  0.687200  1.0  -0.2425
  N  N453  1  0.904540  0.738480  0.692300  1.0  0.0178
  N  N454  1  0.898890  0.776930  0.656400  1.0  0.0391
  N  N455  1  0.866530  0.835390  0.648100  1.0  -0.2585
  N  N456  1  0.910600  0.830840  0.547100  1.0  -0.2279
  N  N457  1  0.252750  0.313940  0.453100  1.0  -0.316
  N  N458  1  0.217530  0.346940  0.453600  1.0  -0.2458
  N  N459  1  0.240220  0.334430  0.240400  1.0  0.0438
  N  N460  1  0.244090  0.338030  0.095200  1.0  0.0421
  N  N461  1  0.266860  0.360880  0.893200  1.0  -0.2294
  N  N462  1  0.234060  0.327590  0.872100  1.0  -0.3076
  N  N463  1  0.427900  0.186270  0.802100  1.0  -0.2497
  N  N464  1  0.393110  0.176700  0.687200  1.0  -0.2425
  N  N465  1  0.404540  0.238480  0.692300  1.0  0.0178
  N  N466  1  0.398890  0.276930  0.656400  1.0  0.0391
  N  N467  1  0.366530  0.335390  0.648100  1.0  -0.2585
  N  N468  1  0.410600  0.330840  0.547100  1.0  -0.2279
  N  N469  1  0.252750  0.813940  0.953100  1.0  -0.316
  N  N470  1  0.217530  0.846940  0.953600  1.0  -0.2458
  N  N471  1  0.240220  0.834430  0.740400  1.0  0.0438
  N  N472  1  0.244090  0.838030  0.595200  1.0  0.0421
  N  N473  1  0.266860  0.860880  0.393200  1.0  -0.2294
  N  N474  1  0.234060  0.827590  0.372100  1.0  -0.3076
  N  N475  1  0.427900  0.686270  0.302100  1.0  -0.2497
  N  N476  1  0.393110  0.676700  0.187200  1.0  -0.2425
  N  N477  1  0.404540  0.738480  0.192300  1.0  0.0178
  N  N478  1  0.398890  0.776930  0.156400  1.0  0.0391
  N  N479  1  0.366530  0.835390  0.148100  1.0  -0.2585
  N  N480  1  0.410600  0.830840  0.047100  1.0  -0.2279
