# generated using pymatgen
data_Al3P3O13F
_symmetry_space_group_name_H-M   'P 1'
_cell_length_a   9.15100000
_cell_length_b   9.16710000
_cell_length_c   9.31360000
_cell_angle_alpha   77.93000000
_cell_angle_beta   86.22000000
_cell_angle_gamma   88.36000000
_symmetry_Int_Tables_number   1
_chemical_formula_structural   Al3P3O13F
_chemical_formula_sum   'Al6 P6 O26 F2'
_cell_volume   762.27797292
_cell_formula_units_Z   2
loop_
 _symmetry_equiv_pos_site_id
 _symmetry_equiv_pos_as_xyz
  1  'x, y, z'
loop_
 _atom_site_type_symbol
 _atom_site_label
 _atom_site_symmetry_multiplicity
 _atom_site_fract_x
 _atom_site_fract_y
 _atom_site_fract_z
 _atom_site_occupancy
 _atom_site_charge
  Al  Al1  1  0.437840  0.132940  0.911990  1.0  1.7764
  Al  Al2  1  0.625820  0.396520  0.342370  1.0  2.0131
  Al  Al3  1  0.841590  0.367830  0.923760  1.0  1.9946
  Al  Al4  1  0.562160  0.867060  0.088010  1.0  1.7707
  Al  Al5  1  0.374180  0.603480  0.657630  1.0  2.0122
  Al  Al6  1  0.158410  0.632170  0.076240  1.0  1.9954
  P  P7  1  0.353350  0.831500  0.856170  1.0  1.8077
  P  P8  1  0.187030  0.383040  0.899470  1.0  2.0903
  P  P9  1  0.618760  0.371930  0.678520  1.0  2.0405
  P  P10  1  0.646650  0.168500  0.143830  1.0  1.8092
  P  P11  1  0.812970  0.616960  0.100530  1.0  2.0939
  P  P12  1  0.381240  0.628070  0.321480  1.0  2.0335
  O  O13  1  0.202600  0.778400  0.929500  1.0  -0.854
  O  O14  1  0.374900  0.771200  0.713600  1.0  -0.9177
  O  O15  1  0.470200  0.765800  0.960800  1.0  -0.8258
  O  O16  1  0.354400  0.000400  0.811300  1.0  -0.787
  O  O17  1  0.265200  0.235600  0.929100  1.0  -0.9171
  O  O18  1  0.026800  0.358700  0.881800  1.0  -0.9503
  O  O19  1  0.200600  0.461000  0.028500  1.0  -0.9495
  O  O20  1  0.245700  0.484600  0.757900  1.0  -0.9661
  O  O21  1  0.506700  0.255900  0.740100  1.0  -0.8856
  O  O22  1  0.550800  0.528300  0.669000  1.0  -0.9073
  O  O23  1  0.753300  0.360000  0.767400  1.0  -0.9413
  O  O24  1  0.672400  0.356700  0.523800  1.0  -0.946
  O  O25  1  0.387000  0.991000  0.097000  1.0  -0.6361
  O  O26  1  0.797400  0.221600  0.070500  1.0  -0.8574
  O  O27  1  0.625100  0.228800  0.286400  1.0  -0.9175
  O  O28  1  0.529800  0.234200  0.039200  1.0  -0.8265
  O  O29  1  0.645600  0.999600  0.188700  1.0  -0.7861
  O  O30  1  0.734800  0.764400  0.070900  1.0  -0.9161
  O  O31  1  0.973200  0.641300  0.118200  1.0  -0.9515
  O  O32  1  0.799400  0.539000  0.971500  1.0  -0.9495
  O  O33  1  0.754300  0.515400  0.242100  1.0  -0.9659
  O  O34  1  0.493300  0.744100  0.259900  1.0  -0.8849
  O  O35  1  0.449200  0.471700  0.331000  1.0  -0.908
  O  O36  1  0.246700  0.640000  0.232600  1.0  -0.9444
  O  O37  1  0.327600  0.643300  0.476200  1.0  -0.9457
  O  O38  1  0.613000  0.009000  0.903000  1.0  -0.6368
  F  F39  1  0.391700  0.988800  0.080200  1.0  -0.2277
  F  F40  1  0.608300  0.011200  0.919800  1.0  -0.2358
