# generated using pymatgen
data_MgH2(CO2)2
_symmetry_space_group_name_H-M   'P 1'
_cell_length_a   10.01300000
_cell_length_b   11.41600000
_cell_length_c   14.91400000
_cell_angle_alpha   91.44000000
_cell_angle_beta   90.00000000
_cell_angle_gamma   90.00000000
_symmetry_Int_Tables_number   1
_chemical_formula_structural   MgH2(CO2)2
_chemical_formula_sum   'Mg12 H24 C24 O48'
_cell_volume   1704.25720419
_cell_formula_units_Z   12
loop_
 _symmetry_equiv_pos_site_id
 _symmetry_equiv_pos_as_xyz
  1  'x, y, z'
loop_
 _atom_site_type_symbol
 _atom_site_label
 _atom_site_symmetry_multiplicity
 _atom_site_fract_x
 _atom_site_fract_y
 _atom_site_fract_z
 _atom_site_occupancy
 _atom_site_charge
  Mg  Mg1  1  0.000000  0.000000  0.500000  1.0  1.4981
  Mg  Mg2  1  0.621180  0.261120  0.695280  1.0  1.4954
  Mg  Mg3  1  0.378820  0.738880  0.304720  1.0  1.4955
  Mg  Mg4  1  0.426830  0.244890  0.864720  1.0  1.5052
  Mg  Mg5  1  0.121180  0.238880  0.804720  1.0  1.4957
  Mg  Mg6  1  0.926830  0.255110  0.635280  1.0  1.5058
  Mg  Mg7  1  0.573170  0.755110  0.135280  1.0  1.5068
  Mg  Mg8  1  0.073170  0.744890  0.364720  1.0  1.5056
  Mg  Mg9  1  0.500000  0.500000  0.000000  1.0  1.4981
  Mg  Mg10  1  0.878820  0.761120  0.195280  1.0  1.4956
  Mg  Mg11  1  0.000000  0.500000  0.500000  1.0  1.5081
  Mg  Mg12  1  0.500000  0.000000  0.000000  1.0  1.5081
  H  H13  1  0.853800  0.803000  0.572000  1.0  -0.0152
  H  H14  1  0.274300  0.151800  0.630200  1.0  -0.0112
  H  H15  1  0.451900  0.476400  0.255800  1.0  -0.0065
  H  H16  1  0.217000  0.994700  0.964400  1.0  -0.0114
  H  H17  1  0.372800  0.940700  0.447800  1.0  -0.0016
  H  H18  1  0.283000  0.494700  0.464400  1.0  -0.0119
  H  H19  1  0.872800  0.559300  0.052200  1.0  -0.0021
  H  H20  1  0.548100  0.523600  0.744200  1.0  -0.0067
  H  H21  1  0.225700  0.651800  0.130200  1.0  -0.0119
  H  H22  1  0.281200  0.964400  0.211800  1.0  -0.0136
  H  H23  1  0.725700  0.848200  0.369800  1.0  -0.0125
  H  H24  1  0.146200  0.197000  0.428000  1.0  -0.0155
  H  H25  1  0.627200  0.059300  0.552200  1.0  -0.0017
  H  H26  1  0.783000  0.005300  0.035600  1.0  -0.0114
  H  H27  1  0.127200  0.440700  0.947800  1.0  -0.0016
  H  H28  1  0.717000  0.505300  0.535600  1.0  -0.0113
  H  H29  1  0.048100  0.976400  0.755800  1.0  -0.0062
  H  H30  1  0.218800  0.464400  0.711800  1.0  -0.0136
  H  H31  1  0.718800  0.035600  0.788200  1.0  -0.0133
  H  H32  1  0.353800  0.697000  0.928000  1.0  -0.0154
  H  H33  1  0.781200  0.535600  0.288200  1.0  -0.0138
  H  H34  1  0.646200  0.303000  0.072000  1.0  -0.015
  H  H35  1  0.774300  0.348200  0.869800  1.0  -0.0121
  H  H36  1  0.951900  0.023600  0.244200  1.0  -0.0068
  C  C37  1  0.851300  0.558800  0.325500  1.0  0.7066
  C  C38  1  0.973200  0.981000  0.294600  1.0  0.6976
  C  C39  1  0.592100  0.259400  0.033100  1.0  0.7202
  C  C40  1  0.473200  0.519000  0.205400  1.0  0.6971
  C  C41  1  0.407900  0.740600  0.966900  1.0  0.7197
  C  C42  1  0.026800  0.019000  0.705400  1.0  0.6975
  C  C43  1  0.526800  0.481000  0.794600  1.0  0.6962
  C  C44  1  0.717400  0.077600  0.557800  1.0  0.6945
  C  C45  1  0.734100  0.439400  0.569100  1.0  0.714
  C  C46  1  0.648700  0.058800  0.825500  1.0  0.706
  C  C47  1  0.907900  0.759400  0.533100  1.0  0.7204
  C  C48  1  0.234100  0.060600  0.930900  1.0  0.7142
  C  C49  1  0.765900  0.939400  0.069100  1.0  0.7131
  C  C50  1  0.341300  0.178100  0.668900  1.0  0.6954
  C  C51  1  0.092100  0.240600  0.466900  1.0  0.7191
  C  C52  1  0.782600  0.577600  0.057800  1.0  0.692
  C  C53  1  0.658700  0.821900  0.331100  1.0  0.6964
  C  C54  1  0.148700  0.441200  0.674500  1.0  0.7053
  C  C55  1  0.841300  0.321900  0.831100  1.0  0.6954
  C  C56  1  0.265900  0.560600  0.430900  1.0  0.7135
  C  C57  1  0.351300  0.941200  0.174500  1.0  0.7053
  C  C58  1  0.158700  0.678100  0.168900  1.0  0.6961
  C  C59  1  0.282600  0.922400  0.442200  1.0  0.6921
  C  C60  1  0.217400  0.422400  0.942200  1.0  0.6929
  O  O61  1  0.974500  0.815700  0.475470  1.0  -0.7399
  O  O62  1  0.487800  0.463100  0.134350  1.0  -0.6402
  O  O63  1  0.853900  0.402600  0.569650  1.0  -0.7902
  O  O64  1  0.515700  0.370400  0.783600  1.0  -0.8231
  O  O65  1  0.750300  0.659300  0.114930  1.0  -0.7841
  O  O66  1  0.012200  0.963100  0.634350  1.0  -0.6405
  O  O67  1  0.453500  0.193500  0.635750  1.0  -0.6531
  O  O68  1  0.703600  0.521500  0.009700  1.0  -0.6612
  O  O69  1  0.309100  0.195000  0.750860  1.0  -0.7974
  O  O70  1  0.876400  0.496100  0.389600  1.0  -0.6372
  O  O71  1  0.353900  0.097400  0.930350  1.0  -0.7895
  O  O72  1  0.525500  0.315700  0.975470  1.0  -0.7393
  O  O73  1  0.025500  0.184300  0.524530  1.0  -0.7396
  O  O74  1  0.203600  0.978500  0.490300  1.0  -0.6601
  O  O75  1  0.190900  0.695000  0.250860  1.0  -0.7976
  O  O76  1  0.749700  0.159300  0.614930  1.0  -0.7839
  O  O77  1  0.146100  0.597400  0.430350  1.0  -0.79
  O  O78  1  0.249700  0.340700  0.885070  1.0  -0.7846
  O  O79  1  0.984300  0.870400  0.283600  1.0  -0.8233
  O  O80  1  0.512200  0.536900  0.865650  1.0  -0.6397
  O  O81  1  0.623600  0.996100  0.889600  1.0  -0.6371
  O  O82  1  0.908700  0.652000  0.542000  1.0  -0.6683
  O  O83  1  0.637900  0.396500  0.608650  1.0  -0.6596
  O  O84  1  0.376400  0.003900  0.110400  1.0  -0.6363
  O  O85  1  0.809100  0.305000  0.749140  1.0  -0.7975
  O  O86  1  0.123600  0.503900  0.610400  1.0  -0.636
  O  O87  1  0.591300  0.152000  0.042000  1.0  -0.6676
  O  O88  1  0.250300  0.840700  0.385070  1.0  -0.785
  O  O89  1  0.412800  0.847400  0.194010  1.0  -0.8173
  O  O90  1  0.587200  0.152600  0.805990  1.0  -0.8196
  O  O91  1  0.987800  0.036900  0.365650  1.0  -0.6395
  O  O92  1  0.015700  0.129600  0.716400  1.0  -0.823
  O  O93  1  0.912800  0.652600  0.305990  1.0  -0.818
  O  O94  1  0.091300  0.348000  0.458000  1.0  -0.6658
  O  O95  1  0.546500  0.806500  0.364250  1.0  -0.6524
  O  O96  1  0.137900  0.103500  0.891350  1.0  -0.6578
  O  O97  1  0.484300  0.629600  0.216400  1.0  -0.8229
  O  O98  1  0.408700  0.848000  0.958000  1.0  -0.6663
  O  O99  1  0.087200  0.347400  0.694010  1.0  -0.8183
  O  O100  1  0.690900  0.805000  0.249140  1.0  -0.7978
  O  O101  1  0.796400  0.021500  0.509700  1.0  -0.6622
  O  O102  1  0.862100  0.896500  0.108650  1.0  -0.6591
  O  O103  1  0.362100  0.603500  0.391350  1.0  -0.6575
  O  O104  1  0.474500  0.684300  0.024530  1.0  -0.7402
  O  O105  1  0.046500  0.693500  0.135750  1.0  -0.6531
  O  O106  1  0.953500  0.306500  0.864250  1.0  -0.6517
  O  O107  1  0.296400  0.478500  0.990300  1.0  -0.6605
  O  O108  1  0.646100  0.902600  0.069650  1.0  -0.791
