# generated using pymatgen
data_MgPO4
_symmetry_space_group_name_H-M   'P 1'
_cell_length_a   20.90980000
_cell_length_b   17.88550000
_cell_length_c   14.79130000
_cell_angle_alpha   90.00000000
_cell_angle_beta   134.84200000
_cell_angle_gamma   90.00000000
_symmetry_Int_Tables_number   1
_chemical_formula_structural   MgPO4
_chemical_formula_sum   'Mg32 P32 O128'
_cell_volume   3922.26231230
_cell_formula_units_Z   32
loop_
 _symmetry_equiv_pos_site_id
 _symmetry_equiv_pos_as_xyz
  1  'x, y, z'
loop_
 _atom_site_type_symbol
 _atom_site_label
 _atom_site_symmetry_multiplicity
 _atom_site_fract_x
 _atom_site_fract_y
 _atom_site_fract_z
 _atom_site_occupancy
 _atom_site_charge
  Mg  Mg1  1  0.633700  0.579100  0.869700  1.0  1.6161
  Mg  Mg2  1  0.866100  0.417200  0.120200  1.0  1.6034
  Mg  Mg3  1  0.486600  0.668600  0.106200  1.0  1.5712
  Mg  Mg4  1  0.501100  0.829900  0.884600  1.0  1.5982
  Mg  Mg5  1  0.133700  0.079100  0.869700  1.0  1.6161
  Mg  Mg6  1  0.366100  0.917200  0.120200  1.0  1.6034
  Mg  Mg7  1  0.986600  0.168600  0.106200  1.0  1.5712
  Mg  Mg8  1  0.001100  0.329900  0.884600  1.0  1.5982
  Mg  Mg9  1  0.366300  0.579100  0.630300  1.0  1.6163
  Mg  Mg10  1  0.133900  0.417200  0.379800  1.0  1.6031
  Mg  Mg11  1  0.513400  0.668600  0.393800  1.0  1.572
  Mg  Mg12  1  0.498900  0.829900  0.615400  1.0  1.5983
  Mg  Mg13  1  0.866300  0.079100  0.630300  1.0  1.6163
  Mg  Mg14  1  0.633900  0.917200  0.379800  1.0  1.6031
  Mg  Mg15  1  0.013400  0.168600  0.393800  1.0  1.572
  Mg  Mg16  1  0.998900  0.329900  0.615400  1.0  1.5983
  Mg  Mg17  1  0.366300  0.420900  0.130300  1.0  1.6162
  Mg  Mg18  1  0.133900  0.582800  0.879800  1.0  1.6033
  Mg  Mg19  1  0.513400  0.331400  0.893800  1.0  1.572
  Mg  Mg20  1  0.498900  0.170100  0.115400  1.0  1.5981
  Mg  Mg21  1  0.866300  0.920900  0.130300  1.0  1.6162
  Mg  Mg22  1  0.633900  0.082800  0.879800  1.0  1.6033
  Mg  Mg23  1  0.013400  0.831400  0.893800  1.0  1.572
  Mg  Mg24  1  0.998900  0.670100  0.115400  1.0  1.5981
  Mg  Mg25  1  0.633700  0.420900  0.369700  1.0  1.6161
  Mg  Mg26  1  0.866100  0.582800  0.620200  1.0  1.6037
  Mg  Mg27  1  0.486600  0.331400  0.606200  1.0  1.5713
  Mg  Mg28  1  0.501100  0.170100  0.384600  1.0  1.598
  Mg  Mg29  1  0.133700  0.920900  0.369700  1.0  1.6161
  Mg  Mg30  1  0.366100  0.082800  0.620200  1.0  1.6037
  Mg  Mg31  1  0.986600  0.831400  0.606200  1.0  1.5713
  Mg  Mg32  1  0.001100  0.670100  0.384600  1.0  1.598
  P  P33  1  0.512000  0.645000  0.914100  1.0  1.6785
  P  P34  1  0.850300  0.600200  0.114100  1.0  1.6826
  P  P35  1  0.649600  0.395500  0.896400  1.0  1.7106
  P  P36  1  0.004400  0.349600  0.403900  1.0  1.6918
  P  P37  1  0.012000  0.145000  0.914100  1.0  1.6785
  P  P38  1  0.350300  0.100200  0.114100  1.0  1.6826
  P  P39  1  0.149600  0.895500  0.896400  1.0  1.7106
  P  P40  1  0.504400  0.849600  0.403900  1.0  1.6918
  P  P41  1  0.488000  0.645000  0.585900  1.0  1.6781
  P  P42  1  0.149700  0.600200  0.385900  1.0  1.6827
  P  P43  1  0.350400  0.395500  0.603600  1.0  1.7032
  P  P44  1  0.995600  0.349600  0.096100  1.0  1.6841
  P  P45  1  0.988000  0.145000  0.585900  1.0  1.6781
  P  P46  1  0.649700  0.100200  0.385900  1.0  1.6827
  P  P47  1  0.850400  0.895500  0.603600  1.0  1.7032
  P  P48  1  0.495600  0.849600  0.096100  1.0  1.6872
  P  P49  1  0.488000  0.355000  0.085900  1.0  1.6779
  P  P50  1  0.149700  0.399800  0.885900  1.0  1.683
  P  P51  1  0.350400  0.604500  0.103600  1.0  1.7189
  P  P52  1  0.995600  0.650400  0.596100  1.0  1.6915
  P  P53  1  0.988000  0.855000  0.085900  1.0  1.6779
  P  P54  1  0.649700  0.899800  0.885900  1.0  1.683
  P  P55  1  0.850400  0.104500  0.103600  1.0  1.7189
  P  P56  1  0.495600  0.150400  0.596100  1.0  1.6915
  P  P57  1  0.512000  0.355000  0.414100  1.0  1.6788
  P  P58  1  0.850300  0.399800  0.614100  1.0  1.6847
  P  P59  1  0.649600  0.604500  0.396400  1.0  1.7046
  P  P60  1  0.004400  0.650400  0.903900  1.0  1.6853
  P  P61  1  0.012000  0.855000  0.414100  1.0  1.6788
  P  P62  1  0.350300  0.899800  0.614100  1.0  1.6847
  P  P63  1  0.149600  0.104500  0.396400  1.0  1.7046
  P  P64  1  0.504400  0.150400  0.903900  1.0  1.6884
  O  O65  1  0.578700  0.596500  0.929900  1.0  -0.8524
  O  O66  1  0.536900  0.726500  0.925300  1.0  -0.8928
  O  O67  1  0.414900  0.627900  0.785700  1.0  -0.7685
  O  O68  1  0.519700  0.623200  0.022900  1.0  -0.7864
  O  O69  1  0.911200  0.612600  0.093400  1.0  -0.8961
  O  O70  1  0.879200  0.651000  0.222200  1.0  -0.7515
  O  O71  1  0.851600  0.519200  0.147800  1.0  -0.8607
  O  O72  1  0.752800  0.623300  0.989800  1.0  -0.7649
  O  O73  1  0.638700  0.474500  0.849800  1.0  -0.9467
  O  O74  1  0.591800  0.340300  0.785000  1.0  -0.8997
  O  O75  1  0.749100  0.370700  0.984800  1.0  -0.7587
  O  O76  1  0.622700  0.389400  0.970900  1.0  -0.7465
  O  O77  1  0.914800  0.352600  0.262900  1.0  -0.8001
  O  O78  1  0.046300  0.271700  0.444600  1.0  -0.8677
  O  O79  1  0.070300  0.407900  0.429000  1.0  -0.7781
  O  O80  1  0.986000  0.374600  0.483900  1.0  -0.7755
  O  O81  1  0.078700  0.096500  0.929900  1.0  -0.8524
  O  O82  1  0.036900  0.226500  0.925300  1.0  -0.8928
  O  O83  1  0.914900  0.127900  0.785700  1.0  -0.7685
  O  O84  1  0.019700  0.123200  0.022900  1.0  -0.7864
  O  O85  1  0.411200  0.112600  0.093400  1.0  -0.8961
  O  O86  1  0.379200  0.151000  0.222200  1.0  -0.7515
  O  O87  1  0.351600  0.019200  0.147800  1.0  -0.8607
  O  O88  1  0.252800  0.123300  0.989800  1.0  -0.7649
  O  O89  1  0.138700  0.974500  0.849800  1.0  -0.9467
  O  O90  1  0.091800  0.840300  0.785000  1.0  -0.8997
  O  O91  1  0.249100  0.870700  0.984800  1.0  -0.7587
  O  O92  1  0.122700  0.889400  0.970900  1.0  -0.7465
  O  O93  1  0.414800  0.852600  0.262900  1.0  -0.8001
  O  O94  1  0.546300  0.771700  0.444600  1.0  -0.8677
  O  O95  1  0.570300  0.907900  0.429000  1.0  -0.7781
  O  O96  1  0.486000  0.874600  0.483900  1.0  -0.7755
  O  O97  1  0.421300  0.596500  0.570100  1.0  -0.8553
  O  O98  1  0.463100  0.726500  0.574700  1.0  -0.8943
  O  O99  1  0.585100  0.627900  0.714300  1.0  -0.769
  O  O100  1  0.480300  0.623200  0.477100  1.0  -0.7865
  O  O101  1  0.088800  0.612600  0.406600  1.0  -0.8958
  O  O102  1  0.120800  0.651000  0.277800  1.0  -0.7524
  O  O103  1  0.148400  0.519200  0.352200  1.0  -0.8598
  O  O104  1  0.247200  0.623300  0.510200  1.0  -0.7633
  O  O105  1  0.361300  0.474500  0.650200  1.0  -0.9486
  O  O106  1  0.408200  0.340300  0.715000  1.0  -0.8997
  O  O107  1  0.250900  0.370700  0.515200  1.0  -0.76
  O  O108  1  0.377300  0.389400  0.529100  1.0  -0.7458
  O  O109  1  0.085200  0.352600  0.237100  1.0  -0.8007
  O  O110  1  0.953700  0.271700  0.055400  1.0  -0.8673
  O  O111  1  0.929700  0.407900  0.071000  1.0  -0.7785
  O  O112  1  0.014000  0.374600  0.016100  1.0  -0.7748
  O  O113  1  0.921300  0.096500  0.570100  1.0  -0.8553
  O  O114  1  0.963100  0.226500  0.574700  1.0  -0.8943
  O  O115  1  0.085100  0.127900  0.714300  1.0  -0.769
  O  O116  1  0.980300  0.123200  0.477100  1.0  -0.7865
  O  O117  1  0.588800  0.112600  0.406600  1.0  -0.8958
  O  O118  1  0.620800  0.151000  0.277800  1.0  -0.7524
  O  O119  1  0.648400  0.019200  0.352200  1.0  -0.8598
  O  O120  1  0.747200  0.123300  0.510200  1.0  -0.7633
  O  O121  1  0.861300  0.974500  0.650200  1.0  -0.9486
  O  O122  1  0.908200  0.840300  0.715000  1.0  -0.8997
  O  O123  1  0.750900  0.870700  0.515200  1.0  -0.76
  O  O124  1  0.877300  0.889400  0.529100  1.0  -0.7458
  O  O125  1  0.585200  0.852600  0.237100  1.0  -0.8007
  O  O126  1  0.453700  0.771700  0.055400  1.0  -0.8673
  O  O127  1  0.429700  0.907900  0.071000  1.0  -0.7785
  O  O128  1  0.514000  0.874600  0.016100  1.0  -0.7748
  O  O129  1  0.421300  0.403500  0.070100  1.0  -0.8537
  O  O130  1  0.463100  0.273500  0.074700  1.0  -0.8944
  O  O131  1  0.585100  0.372100  0.214300  1.0  -0.769
  O  O132  1  0.480300  0.376800  0.977100  1.0  -0.7859
  O  O133  1  0.088800  0.387400  0.906600  1.0  -0.8959
  O  O134  1  0.120800  0.349000  0.777800  1.0  -0.7527
  O  O135  1  0.148400  0.480800  0.852200  1.0  -0.8597
  O  O136  1  0.247200  0.376700  0.010200  1.0  -0.7642
  O  O137  1  0.361300  0.525500  0.150200  1.0  -0.9483
  O  O138  1  0.408200  0.659700  0.215000  1.0  -0.8997
  O  O139  1  0.250900  0.629300  0.015200  1.0  -0.761
  O  O140  1  0.377300  0.610600  0.029100  1.0  -0.7458
  O  O141  1  0.085200  0.647400  0.737100  1.0  -0.8004
  O  O142  1  0.953700  0.728300  0.555400  1.0  -0.8675
  O  O143  1  0.929700  0.592100  0.571000  1.0  -0.7786
  O  O144  1  0.014000  0.625400  0.516100  1.0  -0.7752
  O  O145  1  0.921300  0.903500  0.070100  1.0  -0.8537
  O  O146  1  0.963100  0.773500  0.074700  1.0  -0.8944
  O  O147  1  0.085100  0.872100  0.214300  1.0  -0.769
  O  O148  1  0.980300  0.876800  0.977100  1.0  -0.7859
  O  O149  1  0.588800  0.887400  0.906600  1.0  -0.8959
  O  O150  1  0.620800  0.849000  0.777800  1.0  -0.7527
  O  O151  1  0.648400  0.980800  0.852200  1.0  -0.8597
  O  O152  1  0.747200  0.876700  0.010200  1.0  -0.7642
  O  O153  1  0.861300  0.025500  0.150200  1.0  -0.9483
  O  O154  1  0.908200  0.159700  0.215000  1.0  -0.8997
  O  O155  1  0.750900  0.129300  0.015200  1.0  -0.761
  O  O156  1  0.877300  0.110600  0.029100  1.0  -0.7458
  O  O157  1  0.585200  0.147400  0.737100  1.0  -0.8004
  O  O158  1  0.453700  0.228300  0.555400  1.0  -0.8675
  O  O159  1  0.429700  0.092100  0.571000  1.0  -0.7786
  O  O160  1  0.514000  0.125400  0.516100  1.0  -0.7752
  O  O161  1  0.578700  0.403500  0.429900  1.0  -0.8527
  O  O162  1  0.536900  0.273500  0.425300  1.0  -0.8926
  O  O163  1  0.414900  0.372100  0.285700  1.0  -0.7685
  O  O164  1  0.519700  0.376800  0.522900  1.0  -0.7856
  O  O165  1  0.911200  0.387400  0.593400  1.0  -0.8959
  O  O166  1  0.879200  0.349000  0.722200  1.0  -0.752
  O  O167  1  0.851600  0.480800  0.647800  1.0  -0.8607
  O  O168  1  0.752800  0.376700  0.489800  1.0  -0.7654
  O  O169  1  0.638700  0.525500  0.349800  1.0  -0.947
  O  O170  1  0.591800  0.659700  0.285000  1.0  -0.899
  O  O171  1  0.749100  0.629300  0.484800  1.0  -0.759
  O  O172  1  0.622700  0.610600  0.470900  1.0  -0.7465
  O  O173  1  0.914800  0.647400  0.762900  1.0  -0.7998
  O  O174  1  0.046300  0.728300  0.944600  1.0  -0.8679
  O  O175  1  0.070300  0.592100  0.929000  1.0  -0.7779
  O  O176  1  0.986000  0.625400  0.983900  1.0  -0.7759
  O  O177  1  0.078700  0.903500  0.429900  1.0  -0.8527
  O  O178  1  0.036900  0.773500  0.425300  1.0  -0.8926
  O  O179  1  0.914900  0.872100  0.285700  1.0  -0.7685
  O  O180  1  0.019700  0.876800  0.522900  1.0  -0.7856
  O  O181  1  0.411200  0.887400  0.593400  1.0  -0.8959
  O  O182  1  0.379200  0.849000  0.722200  1.0  -0.752
  O  O183  1  0.351600  0.980800  0.647800  1.0  -0.8607
  O  O184  1  0.252800  0.876700  0.489800  1.0  -0.7654
  O  O185  1  0.138700  0.025500  0.349800  1.0  -0.947
  O  O186  1  0.091800  0.159700  0.285000  1.0  -0.899
  O  O187  1  0.249100  0.129300  0.484800  1.0  -0.759
  O  O188  1  0.122700  0.110600  0.470900  1.0  -0.7465
  O  O189  1  0.414800  0.147400  0.762900  1.0  -0.7998
  O  O190  1  0.546300  0.228300  0.944600  1.0  -0.8679
  O  O191  1  0.570300  0.092100  0.929000  1.0  -0.7779
  O  O192  1  0.486000  0.125400  0.983900  1.0  -0.7759
