# generated using pymatgen
data_CdH21C28(NO)4
_symmetry_space_group_name_H-M   'P 1'
_cell_length_a   10.59030000
_cell_length_b   13.36200000
_cell_length_c   20.90700000
_cell_angle_alpha   90.00000000
_cell_angle_beta   90.00000000
_cell_angle_gamma   113.34600000
_symmetry_Int_Tables_number   1
_chemical_formula_structural   CdH21C28(NO)4
_chemical_formula_sum   'Cd4 H84 C112 N16 O16'
_cell_volume   2716.28245371
_cell_formula_units_Z   4
loop_
 _symmetry_equiv_pos_site_id
 _symmetry_equiv_pos_as_xyz
  1  'x, y, z'
loop_
 _atom_site_type_symbol
 _atom_site_label
 _atom_site_symmetry_multiplicity
 _atom_site_fract_x
 _atom_site_fract_y
 _atom_site_fract_z
 _atom_site_occupancy
 _atom_site_charge
  Cd  Cd1  1  0.403920  0.535200  0.435660  1.0  0.9594
  Cd  Cd2  1  0.596080  0.464800  0.935660  1.0  0.9615
  Cd  Cd3  1  0.131280  0.535200  0.064340  1.0  0.9624
  Cd  Cd4  1  0.868720  0.464800  0.564340  1.0  0.9611
  H  H5  1  0.219100  0.463200  0.646200  1.0  0.0906
  H  H6  1  0.362700  0.374200  0.802200  1.0  0.0867
  H  H7  1  0.554600  0.386000  0.747600  1.0  0.1066
  H  H8  1  0.560100  0.378400  0.476100  1.0  0.0862
  H  H9  1  0.420700  0.377200  0.304400  1.0  0.0989
  H  H10  1  0.525100  0.246000  0.305900  1.0  0.1214
  H  H11  1  0.722600  0.271400  0.451800  1.0  0.1095
  H  H12  1  0.582100  0.169800  0.455600  1.0  0.1068
  H  H13  1  0.510500  0.037200  0.368100  1.0  0.1242
  H  H14  1  0.578000  0.958400  0.283100  1.0  0.0958
  H  H15  1  0.951400  0.196800  0.288500  1.0  0.1024
  H  H16  1  0.885600  0.283600  0.369600  1.0  0.1239
  H  H17  1  0.917000  0.656800  0.047000  1.0  0.1011
  H  H18  1  0.295200  0.812200  0.106600  1.0  0.1003
  H  H19  1  0.189500  0.947000  0.102700  1.0  0.1268
  H  H20  1  0.952900  0.914600  0.025600  1.0  0.0918
  H  H21  1  0.833700  0.803600  0.043700  1.0  0.1239
  H  H22  1  0.754500  0.777000  0.159900  1.0  0.1039
  H  H23  1  0.714100  0.861600  0.249800  1.0  0.0849
  H  H24  1  0.942500  0.151000  0.178900  1.0  0.0918
  H  H25  1  0.000400  0.070400  0.092900  1.0  0.1199
  H  H26  1  0.780900  0.536800  0.146200  1.0  0.0901
  H  H27  1  0.637300  0.625800  0.302200  1.0  0.0865
  H  H28  1  0.445400  0.614000  0.247600  1.0  0.1063
  H  H29  1  0.439900  0.621600  0.976100  1.0  0.0862
  H  H30  1  0.579300  0.622800  0.804400  1.0  0.0991
  H  H31  1  0.474900  0.754000  0.805900  1.0  0.1218
  H  H32  1  0.277400  0.728600  0.951800  1.0  0.1098
  H  H33  1  0.417900  0.830200  0.955600  1.0  0.107
  H  H34  1  0.489500  0.962800  0.868100  1.0  0.1241
  H  H35  1  0.422000  0.041600  0.783100  1.0  0.0961
  H  H36  1  0.048600  0.803200  0.788500  1.0  0.1022
  H  H37  1  0.114400  0.716400  0.869600  1.0  0.1239
  H  H38  1  0.083000  0.343200  0.547000  1.0  0.1018
  H  H39  1  0.704800  0.187800  0.606600  1.0  0.1006
  H  H40  1  0.810500  0.053000  0.602700  1.0  0.1259
  H  H41  1  0.047100  0.085400  0.525600  1.0  0.091
  H  H42  1  0.166300  0.196400  0.543700  1.0  0.1223
  H  H43  1  0.245500  0.223000  0.659900  1.0  0.103
  H  H44  1  0.285900  0.138400  0.749800  1.0  0.0848
  H  H45  1  0.057500  0.849000  0.678900  1.0  0.0914
  H  H46  1  0.999600  0.929600  0.592900  1.0  0.1197
  H  H47  1  0.244100  0.463200  0.853800  1.0  0.0899
  H  H48  1  0.011500  0.374200  0.697800  1.0  0.0876
  H  H49  1  0.831400  0.386000  0.752400  1.0  0.1066
  H  H50  1  0.818300  0.378400  0.023900  1.0  0.0868
  H  H51  1  0.956500  0.377200  0.195600  1.0  0.0993
  H  H52  1  0.720900  0.246000  0.194100  1.0  0.122
  H  H53  1  0.548800  0.271400  0.048200  1.0  0.1109
  H  H54  1  0.587700  0.169800  0.044400  1.0  0.1054
  H  H55  1  0.526700  0.037200  0.131900  1.0  0.1236
  H  H56  1  0.380400  0.958400  0.216900  1.0  0.096
  H  H57  1  0.245400  0.196800  0.211500  1.0  0.1022
  H  H58  1  0.398000  0.283600  0.130400  1.0  0.1245
  H  H59  1  0.739800  0.656800  0.453000  1.0  0.1015
  H  H60  1  0.517000  0.812200  0.393400  1.0  0.1009
  H  H61  1  0.757500  0.947000  0.397300  1.0  0.1264
  H  H62  1  0.961700  0.914600  0.474400  1.0  0.0908
  H  H63  1  0.969900  0.803600  0.456300  1.0  0.1225
  H  H64  1  0.022500  0.777000  0.340100  1.0  0.1032
  H  H65  1  0.147500  0.861600  0.250200  1.0  0.0848
  H  H66  1  0.208500  0.151000  0.321100  1.0  0.0913
  H  H67  1  0.070000  0.070400  0.407100  1.0  0.1196
  H  H68  1  0.755900  0.536800  0.353800  1.0  0.0903
  H  H69  1  0.988500  0.625800  0.197800  1.0  0.0867
  H  H70  1  0.168600  0.614000  0.252400  1.0  0.1064
  H  H71  1  0.181700  0.621600  0.523900  1.0  0.0873
  H  H72  1  0.043500  0.622800  0.695600  1.0  0.0998
  H  H73  1  0.279100  0.754000  0.694100  1.0  0.1217
  H  H74  1  0.451200  0.728600  0.548200  1.0  0.1104
  H  H75  1  0.412300  0.830200  0.544400  1.0  0.1052
  H  H76  1  0.473300  0.962800  0.631900  1.0  0.1239
  H  H77  1  0.619600  0.041600  0.716900  1.0  0.096
  H  H78  1  0.754600  0.803200  0.711500  1.0  0.1018
  H  H79  1  0.602000  0.716400  0.630400  1.0  0.1244
  H  H80  1  0.260200  0.343200  0.953000  1.0  0.1011
  H  H81  1  0.483000  0.187800  0.893400  1.0  0.1004
  H  H82  1  0.242500  0.053000  0.897300  1.0  0.1266
  H  H83  1  0.038300  0.085400  0.974400  1.0  0.0909
  H  H84  1  0.030100  0.196400  0.956300  1.0  0.1233
  H  H85  1  0.977500  0.223000  0.840100  1.0  0.1033
  H  H86  1  0.852500  0.138400  0.750200  1.0  0.0852
  H  H87  1  0.791500  0.849000  0.821100  1.0  0.0914
  H  H88  1  0.930000  0.929600  0.907100  1.0  0.1199
  C  C89  1  0.416900  0.489200  0.562700  1.0  0.6516
  C  C90  1  0.401800  0.455200  0.631800  1.0  -0.1161
  C  C91  1  0.288000  0.449000  0.666900  1.0  -0.1064
  C  C92  1  0.271500  0.422400  0.731800  1.0  0.0248
  C  C93  1  0.372500  0.396200  0.759700  1.0  -0.1059
  C  C94  1  0.487400  0.401800  0.726600  1.0  -0.08
  C  C95  1  0.505100  0.430600  0.662600  1.0  -0.0662
  C  C96  1  0.632100  0.433200  0.627700  1.0  0.6583
  C  C97  1  0.538400  0.362000  0.433200  1.0  0.1534
  C  C98  1  0.462100  0.361200  0.340000  1.0  0.0579
  C  C99  1  0.520500  0.289000  0.340100  1.0  -0.1651
  C  C100  1  0.643900  0.224600  0.427000  1.0  -0.057
  C  C101  1  0.690900  0.170400  0.376100  1.0  0.0337
  C  C102  1  0.598700  0.070800  0.351300  1.0  -0.1346
  C  C103  1  0.641200  0.022600  0.300800  1.0  -0.1037
  C  C104  1  0.774800  0.066800  0.275800  1.0  0.0225
  C  C105  1  0.861600  0.164600  0.303700  1.0  -0.1015
  C  C106  1  0.823400  0.218000  0.353000  1.0  -0.1366
  C  C107  1  0.998200  0.711000  0.061600  1.0  0.1668
  C  C108  1  0.205100  0.797200  0.094400  1.0  0.0419
  C  C109  1  0.148900  0.873400  0.092300  1.0  -0.1789
  C  C110  1  0.918100  0.860400  0.059200  1.0  -0.0689
  C  C111  1  0.883600  0.915000  0.119000  1.0  0.03
  C  C112  1  0.795600  0.852400  0.164200  1.0  -0.1137
  C  C113  1  0.768500  0.904000  0.217000  1.0  -0.0972
  C  C114  1  0.819300  0.015000  0.222200  1.0  0.0279
  C  C115  1  0.905700  0.075400  0.175700  1.0  -0.0989
  C  C116  1  0.940200  0.027800  0.124000  1.0  -0.1309
  C  C117  1  0.583100  0.510800  0.062700  1.0  0.6518
  C  C118  1  0.598200  0.544800  0.131800  1.0  -0.1156
  C  C119  1  0.712000  0.551000  0.166900  1.0  -0.1084
  C  C120  1  0.728500  0.577600  0.231800  1.0  0.0246
  C  C121  1  0.627500  0.603800  0.259700  1.0  -0.1056
  C  C122  1  0.512600  0.598200  0.226600  1.0  -0.0793
  C  C123  1  0.494900  0.569400  0.162600  1.0  -0.066
  C  C124  1  0.367900  0.566800  0.127700  1.0  0.6571
  C  C125  1  0.461600  0.638000  0.933200  1.0  0.1531
  C  C126  1  0.537900  0.638800  0.840000  1.0  0.0598
  C  C127  1  0.479500  0.711000  0.840100  1.0  -0.1663
  C  C128  1  0.356100  0.775400  0.927000  1.0  -0.0562
  C  C129  1  0.309100  0.829600  0.876100  1.0  0.0342
  C  C130  1  0.401300  0.929200  0.851300  1.0  -0.1367
  C  C131  1  0.358800  0.977400  0.800800  1.0  -0.1029
  C  C132  1  0.225200  0.933200  0.775800  1.0  0.0225
  C  C133  1  0.138400  0.835400  0.803700  1.0  -0.0998
  C  C134  1  0.176600  0.782000  0.853000  1.0  -0.1313
  C  C135  1  0.001800  0.289000  0.561600  1.0  0.1657
  C  C136  1  0.794900  0.202800  0.594400  1.0  0.0415
  C  C137  1  0.851100  0.126600  0.592300  1.0  -0.1791
  C  C138  1  0.081900  0.139600  0.559200  1.0  -0.0698
  C  C139  1  0.116400  0.085000  0.619000  1.0  0.0311
  C  C140  1  0.204400  0.147600  0.664200  1.0  -0.1142
  C  C141  1  0.231500  0.096000  0.717000  1.0  -0.0971
  C  C142  1  0.180700  0.985000  0.722200  1.0  0.0298
  C  C143  1  0.094300  0.924600  0.675700  1.0  -0.0978
  C  C144  1  0.059800  0.972200  0.624000  1.0  -0.132
  C  C145  1  0.072300  0.489200  0.937300  1.0  0.6514
  C  C146  1  0.053400  0.455200  0.868200  1.0  -0.1146
  C  C147  1  0.161000  0.449000  0.833100  1.0  -0.1083
  C  C148  1  0.150900  0.422400  0.768200  1.0  0.0248
  C  C149  1  0.023700  0.396200  0.740300  1.0  -0.1044
  C  C150  1  0.914400  0.401800  0.773400  1.0  -0.0798
  C  C151  1  0.925500  0.430600  0.837400  1.0  -0.0659
  C  C152  1  0.801100  0.433200  0.872300  1.0  0.6569
  C  C153  1  0.823600  0.362000  0.066800  1.0  0.1529
  C  C154  1  0.899100  0.361200  0.160000  1.0  0.0595
  C  C155  1  0.768500  0.289000  0.159900  1.0  -0.1655
  C  C156  1  0.580700  0.224600  0.073000  1.0  -0.0549
  C  C157  1  0.479500  0.170400  0.123900  1.0  0.0327
  C  C158  1  0.472100  0.070800  0.148700  1.0  -0.1366
  C  C159  1  0.381400  0.022600  0.199200  1.0  -0.1037
  C  C160  1  0.292000  0.066800  0.224200  1.0  0.0223
  C  C161  1  0.303000  0.164600  0.196300  1.0  -0.1009
  C  C162  1  0.394600  0.218000  0.147000  1.0  -0.1345
  C  C163  1  0.712800  0.711000  0.438400  1.0  0.1664
  C  C164  1  0.592100  0.797200  0.405600  1.0  0.0412
  C  C165  1  0.724500  0.873400  0.407700  1.0  -0.1803
  C  C166  1  0.942300  0.860400  0.440800  1.0  -0.0702
  C  C167  1  0.031400  0.915000  0.381000  1.0  0.031
  C  C168  1  0.056800  0.852400  0.335800  1.0  -0.1131
  C  C169  1  0.135500  0.904000  0.283000  1.0  -0.0978
  C  C170  1  0.195700  0.015000  0.277800  1.0  0.0302
  C  C171  1  0.169700  0.075400  0.324300  1.0  -0.098
  C  C172  1  0.087600  0.027800  0.376000  1.0  -0.1333
  C  C173  1  0.927700  0.510800  0.437300  1.0  0.6515
  C  C174  1  0.946600  0.544800  0.368200  1.0  -0.1156
  C  C175  1  0.839000  0.551000  0.333100  1.0  -0.1061
  C  C176  1  0.849100  0.577600  0.268200  1.0  0.0249
  C  C177  1  0.976300  0.603800  0.240300  1.0  -0.1047
  C  C178  1  0.085600  0.598200  0.273400  1.0  -0.0806
  C  C179  1  0.074500  0.569400  0.337400  1.0  -0.0658
  C  C180  1  0.198900  0.566800  0.372300  1.0  0.6581
  C  C181  1  0.176400  0.638000  0.566800  1.0  0.1536
  C  C182  1  0.100900  0.638800  0.660000  1.0  0.0567
  C  C183  1  0.231500  0.711000  0.659900  1.0  -0.1622
  C  C184  1  0.419300  0.775400  0.573000  1.0  -0.0565
  C  C185  1  0.520500  0.829600  0.623900  1.0  0.0327
  C  C186  1  0.527900  0.929200  0.648700  1.0  -0.1358
  C  C187  1  0.618600  0.977400  0.699200  1.0  -0.1031
  C  C188  1  0.708000  0.933200  0.724200  1.0  0.0221
  C  C189  1  0.697000  0.835400  0.696300  1.0  -0.1012
  C  C190  1  0.605400  0.782000  0.647000  1.0  -0.134
  C  C191  1  0.287200  0.289000  0.938400  1.0  0.166
  C  C192  1  0.407900  0.202800  0.905600  1.0  0.0415
  C  C193  1  0.275500  0.126600  0.907700  1.0  -0.1808
  C  C194  1  0.057700  0.139600  0.940800  1.0  -0.0699
  C  C195  1  0.968600  0.085000  0.881000  1.0  0.0305
  C  C196  1  0.943200  0.147600  0.835800  1.0  -0.1127
  C  C197  1  0.864500  0.096000  0.783000  1.0  -0.0979
  C  C198  1  0.804300  0.985000  0.777800  1.0  0.0286
  C  C199  1  0.830300  0.924600  0.824300  1.0  -0.0966
  C  C200  1  0.912400  0.972200  0.876000  1.0  -0.131
  N  N201  1  0.470600  0.407800  0.398300  1.0  -0.4154
  N  N202  1  0.572600  0.290200  0.400600  1.0  0.039
  N  N203  1  0.111400  0.695000  0.076300  1.0  -0.4188
  N  N204  1  0.016500  0.813600  0.070600  1.0  0.0605
  N  N205  1  0.529400  0.592200  0.898300  1.0  -0.4119
  N  N206  1  0.427400  0.709800  0.900600  1.0  0.0413
  N  N207  1  0.888600  0.305000  0.576300  1.0  -0.4195
  N  N208  1  0.983500  0.186400  0.570600  1.0  0.0602
  N  N209  1  0.937200  0.407800  0.101700  1.0  -0.4126
  N  N210  1  0.717600  0.290200  0.099400  1.0  0.0402
  N  N211  1  0.583600  0.695000  0.423700  1.0  -0.4198
  N  N212  1  0.797100  0.813600  0.429400  1.0  0.0602
  N  N213  1  0.062800  0.592200  0.601700  1.0  -0.4172
  N  N214  1  0.282400  0.709800  0.599400  1.0  0.0394
  N  N215  1  0.416400  0.305000  0.923700  1.0  -0.4195
  N  N216  1  0.202900  0.186400  0.929400  1.0  0.0597
  O  O217  1  0.308000  0.459200  0.529600  1.0  -0.6081
  O  O218  1  0.531300  0.544800  0.541180  1.0  -0.5799
  O  O219  1  0.619500  0.369000  0.582500  1.0  -0.6401
  O  O220  1  0.746000  0.500600  0.646000  1.0  -0.6056
  O  O221  1  0.692000  0.540800  0.029600  1.0  -0.6091
  O  O222  1  0.468700  0.455200  0.041180  1.0  -0.5809
  O  O223  1  0.380500  0.631000  0.082500  1.0  -0.6401
  O  O224  1  0.254000  0.499400  0.146000  1.0  -0.6036
  O  O225  1  0.151200  0.459200  0.970400  1.0  -0.6087
  O  O226  1  0.013500  0.544800  0.958820  1.0  -0.5794
  O  O227  1  0.749500  0.369000  0.917500  1.0  -0.6394
  O  O228  1  0.754600  0.500600  0.854000  1.0  -0.6043
  O  O229  1  0.848800  0.540800  0.470400  1.0  -0.6087
  O  O230  1  0.986500  0.455200  0.458820  1.0  -0.581
  O  O231  1  0.250500  0.631000  0.417500  1.0  -0.639
  O  O232  1  0.245400  0.499400  0.354000  1.0  -0.6048
