# generated using pymatgen
data_AlPO4
_symmetry_space_group_name_H-M   'P 1'
_cell_length_a   8.23190000
_cell_length_b   9.16500000
_cell_length_c   17.58000000
_cell_angle_alpha   90.00000000
_cell_angle_beta   90.00000000
_cell_angle_gamma   90.00000000
_symmetry_Int_Tables_number   1
_chemical_formula_structural   AlPO4
_chemical_formula_sum   'Al12 P12 O48'
_cell_volume   1326.32949033
_cell_formula_units_Z   12
loop_
 _symmetry_equiv_pos_site_id
 _symmetry_equiv_pos_as_xyz
  1  'x, y, z'
loop_
 _atom_site_type_symbol
 _atom_site_label
 _atom_site_symmetry_multiplicity
 _atom_site_fract_x
 _atom_site_fract_y
 _atom_site_fract_z
 _atom_site_occupancy
 _atom_site_charge
  Al  Al1  1  0.861300  0.868800  0.566050  1.0  1.9411
  Al  Al2  1  0.939700  0.412200  0.468450  1.0  1.9987
  Al  Al3  1  0.442600  0.585300  0.667000  1.0  1.9925
  Al  Al4  1  0.638700  0.131200  0.066050  1.0  1.9414
  Al  Al5  1  0.560300  0.587800  0.968450  1.0  1.9966
  Al  Al6  1  0.057400  0.414700  0.167000  1.0  1.9932
  Al  Al7  1  0.138700  0.368800  0.933950  1.0  1.94
  Al  Al8  1  0.060300  0.912200  0.031550  1.0  1.9969
  Al  Al9  1  0.557400  0.085300  0.833000  1.0  1.9923
  Al  Al10  1  0.361300  0.631200  0.433950  1.0  1.939
  Al  Al11  1  0.439700  0.087800  0.531550  1.0  1.9986
  Al  Al12  1  0.942600  0.914700  0.333000  1.0  1.9925
  P  P13  1  0.133500  0.631100  0.571170  1.0  1.9407
  P  P14  1  0.070700  0.090500  0.473170  1.0  2.1084
  P  P15  1  0.564100  0.915400  0.672680  1.0  2.0739
  P  P16  1  0.366500  0.368900  0.071170  1.0  1.9406
  P  P17  1  0.429300  0.909500  0.973170  1.0  2.111
  P  P18  1  0.935900  0.084600  0.172680  1.0  2.0739
  P  P19  1  0.866500  0.131100  0.928830  1.0  1.9395
  P  P20  1  0.929300  0.590500  0.026830  1.0  2.1103
  P  P21  1  0.435900  0.415400  0.827320  1.0  2.0825
  P  P22  1  0.633500  0.868900  0.428830  1.0  1.9392
  P  P23  1  0.570700  0.409500  0.526830  1.0  2.109
  P  P24  1  0.064100  0.584600  0.327320  1.0  2.0822
  O  O25  1  0.964300  0.033100  0.536000  1.0  -1.0107
  O  O26  1  0.014300  0.242000  0.450500  1.0  -1.0458
  O  O27  1  0.244600  0.097900  0.501100  1.0  -0.9894
  O  O28  1  0.451400  0.987700  0.614600  1.0  -1.0287
  O  O29  1  0.507500  0.758700  0.682600  1.0  -1.0189
  O  O30  1  0.738400  0.921100  0.645900  1.0  -1.0086
  O  O31  1  0.548100  0.989200  0.748300  1.0  -1.0201
  O  O32  1  0.066200  0.994900  0.402400  1.0  -1.0324
  O  O33  1  0.234800  0.587000  0.640200  1.0  -0.9569
  O  O34  1  0.055500  0.494300  0.538600  1.0  -1.0364
  O  O35  1  0.238500  0.705000  0.511200  1.0  -0.9196
  O  O36  1  0.001800  0.733200  0.599900  1.0  -0.9907
  O  O37  1  0.535700  0.966900  0.036000  1.0  -1.0106
  O  O38  1  0.485700  0.758000  0.950500  1.0  -1.0462
  O  O39  1  0.255400  0.902100  0.001100  1.0  -0.99
  O  O40  1  0.048600  0.012300  0.114600  1.0  -1.0303
  O  O41  1  0.992500  0.241300  0.182600  1.0  -1.0206
  O  O42  1  0.761600  0.078900  0.145900  1.0  -1.0071
  O  O43  1  0.951900  0.010800  0.248300  1.0  -1.0197
  O  O44  1  0.433800  0.005100  0.902400  1.0  -1.032
  O  O45  1  0.265200  0.413000  0.140200  1.0  -0.9553
  O  O46  1  0.444500  0.505700  0.038600  1.0  -1.0389
  O  O47  1  0.261500  0.295000  0.011200  1.0  -0.9214
  O  O48  1  0.498200  0.266800  0.099900  1.0  -0.9902
  O  O49  1  0.035700  0.533100  0.964000  1.0  -1.0106
  O  O50  1  0.985700  0.742000  0.049500  1.0  -1.0445
  O  O51  1  0.755400  0.597900  0.998900  1.0  -0.9894
  O  O52  1  0.548600  0.487700  0.885400  1.0  -1.0294
  O  O53  1  0.492500  0.258700  0.817400  1.0  -1.0182
  O  O54  1  0.261600  0.421100  0.854100  1.0  -1.0079
  O  O55  1  0.451900  0.489200  0.751700  1.0  -1.0205
  O  O56  1  0.933800  0.494900  0.097600  1.0  -1.0328
  O  O57  1  0.765200  0.087000  0.859800  1.0  -0.9559
  O  O58  1  0.944500  0.994300  0.961400  1.0  -1.0342
  O  O59  1  0.761500  0.205000  0.988800  1.0  -0.9203
  O  O60  1  0.998200  0.233200  0.900100  1.0  -0.9903
  O  O61  1  0.464300  0.466900  0.464000  1.0  -1.0111
  O  O62  1  0.514300  0.258000  0.549500  1.0  -1.0441
  O  O63  1  0.744600  0.402100  0.498900  1.0  -0.989
  O  O64  1  0.951400  0.512300  0.385400  1.0  -1.0291
  O  O65  1  0.007500  0.741300  0.317400  1.0  -1.0202
  O  O66  1  0.238400  0.578900  0.354100  1.0  -1.0086
  O  O67  1  0.048100  0.510800  0.251700  1.0  -1.0207
  O  O68  1  0.566200  0.505100  0.597600  1.0  -1.0332
  O  O69  1  0.734800  0.913000  0.359800  1.0  -0.9557
  O  O70  1  0.555500  0.005700  0.461400  1.0  -1.0363
  O  O71  1  0.738500  0.795000  0.488800  1.0  -0.9212
  O  O72  1  0.501800  0.766800  0.400100  1.0  -0.9904
