# generated using pymatgen
data_Eu2H9C21(NO4)3
_symmetry_space_group_name_H-M   'P 1'
_cell_length_a   8.01540000
_cell_length_b   30.17500000
_cell_length_c   15.32200000
_cell_angle_alpha   90.00000000
_cell_angle_beta   90.00000000
_cell_angle_gamma   90.00000000
_symmetry_Int_Tables_number   1
_chemical_formula_structural   Eu2H9C21(NO4)3
_chemical_formula_sum   'Eu8 H36 C84 N12 O48'
_cell_volume   3705.85085679
_cell_formula_units_Z   4
loop_
 _symmetry_equiv_pos_site_id
 _symmetry_equiv_pos_as_xyz
  1  'x, y, z'
loop_
 _atom_site_type_symbol
 _atom_site_label
 _atom_site_symmetry_multiplicity
 _atom_site_fract_x
 _atom_site_fract_y
 _atom_site_fract_z
 _atom_site_occupancy
 _atom_site_charge
  Eu  Eu1  1  0.435410  0.907170  0.704420  1.0  2.1663
  Eu  Eu2  1  0.064590  0.092830  0.204420  1.0  2.1659
  Eu  Eu3  1  0.564590  0.407170  0.295580  1.0  2.1663
  Eu  Eu4  1  0.935410  0.592830  0.795580  1.0  2.1655
  Eu  Eu5  1  0.564590  0.092830  0.295580  1.0  2.1657
  Eu  Eu6  1  0.935410  0.907170  0.795580  1.0  2.1661
  Eu  Eu7  1  0.435410  0.592830  0.704420  1.0  2.1659
  Eu  Eu8  1  0.064590  0.407170  0.204420  1.0  2.1663
  H  H9  1  0.885400  0.043200  0.659000  1.0  0.0828
  H  H10  1  0.000000  0.110600  0.451100  1.0  0.0858
  H  H11  1  0.292900  0.008600  0.521100  1.0  0.1177
  H  H12  1  0.273000  0.814900  0.565000  1.0  0.0976
  H  H13  1  0.614600  0.956800  0.159000  1.0  0.0827
  H  H14  1  0.500000  0.889400  0.951100  1.0  0.0858
  H  H15  1  0.207100  0.991400  0.021100  1.0  0.1173
  H  H16  1  0.227000  0.185100  0.065000  1.0  0.0977
  H  H17  1  0.114600  0.543200  0.341000  1.0  0.0819
  H  H18  1  0.000000  0.610600  0.548900  1.0  0.086
  H  H19  1  0.707100  0.508600  0.478900  1.0  0.1171
  H  H20  1  0.727000  0.314900  0.435000  1.0  0.0988
  H  H21  1  0.385400  0.456800  0.841000  1.0  0.0821
  H  H22  1  0.500000  0.389400  0.048900  1.0  0.0856
  H  H23  1  0.792900  0.491400  0.978900  1.0  0.1175
  H  H24  1  0.773000  0.685100  0.935000  1.0  0.0986
  H  H25  1  0.114600  0.956800  0.341000  1.0  0.0822
  H  H26  1  0.000000  0.889400  0.548900  1.0  0.0861
  H  H27  1  0.707100  0.991400  0.478900  1.0  0.1171
  H  H28  1  0.727000  0.185100  0.435000  1.0  0.0998
  H  H29  1  0.385400  0.043200  0.841000  1.0  0.0818
  H  H30  1  0.500000  0.110600  0.048900  1.0  0.0858
  H  H31  1  0.792900  0.008600  0.978900  1.0  0.1175
  H  H32  1  0.773000  0.814900  0.935000  1.0  0.0994
  H  H33  1  0.885400  0.456800  0.659000  1.0  0.083
  H  H34  1  0.000000  0.389400  0.451100  1.0  0.0859
  H  H35  1  0.292900  0.491400  0.521100  1.0  0.1177
  H  H36  1  0.273000  0.685100  0.565000  1.0  0.0985
  H  H37  1  0.614600  0.543200  0.159000  1.0  0.0826
  H  H38  1  0.500000  0.610600  0.951100  1.0  0.0855
  H  H39  1  0.207100  0.508600  0.021100  1.0  0.1172
  H  H40  1  0.227000  0.314900  0.065000  1.0  0.0988
  H  H41  1  0.031800  0.750000  0.755400  1.0  0.1062
  H  H42  1  0.468200  0.250000  0.255400  1.0  0.1068
  H  H43  1  0.968200  0.250000  0.244600  1.0  0.1066
  H  H44  1  0.531800  0.750000  0.744600  1.0  0.1061
  C  C45  1  0.117100  0.980000  0.658200  1.0  0.709
  C  C46  1  0.092600  0.019500  0.600200  1.0  -0.1883
  C  C47  1  0.958600  0.048400  0.611400  1.0  0.1945
  C  C48  1  0.025200  0.087400  0.490800  1.0  0.2156
  C  C49  1  0.162200  0.060600  0.472700  1.0  -0.1709
  C  C50  1  0.197500  0.026800  0.529800  1.0  -0.0374
  C  C51  1  0.268200  0.066200  0.394100  1.0  0.6727
  C  C52  1  0.094300  0.832000  0.710000  1.0  0.7173
  C  C53  1  0.148000  0.789600  0.668600  1.0  -0.1374
  C  C54  1  0.242000  0.787700  0.591700  1.0  0.1753
  C  C55  1  0.382900  0.020000  0.158200  1.0  0.7083
  C  C56  1  0.407400  0.980500  0.100200  1.0  -0.19
  C  C57  1  0.541400  0.951600  0.111400  1.0  0.1933
  C  C58  1  0.474800  0.912600  0.990800  1.0  0.2145
  C  C59  1  0.337800  0.939400  0.972700  1.0  -0.1706
  C  C60  1  0.302500  0.973200  0.029800  1.0  -0.0366
  C  C61  1  0.231800  0.933800  0.894100  1.0  0.6735
  C  C62  1  0.405700  0.168000  0.210000  1.0  0.7177
  C  C63  1  0.352000  0.210400  0.168600  1.0  -0.1377
  C  C64  1  0.258000  0.212300  0.091700  1.0  0.1762
  C  C65  1  0.882900  0.480000  0.341800  1.0  0.7099
  C  C66  1  0.907400  0.519500  0.399800  1.0  -0.1899
  C  C67  1  0.041400  0.548400  0.388600  1.0  0.1959
  C  C68  1  0.974800  0.587400  0.509200  1.0  0.2146
  C  C69  1  0.837800  0.560600  0.527300  1.0  -0.1696
  C  C70  1  0.802500  0.526800  0.470200  1.0  -0.0367
  C  C71  1  0.731800  0.566200  0.605900  1.0  0.6736
  C  C72  1  0.905700  0.332000  0.290000  1.0  0.718
  C  C73  1  0.852000  0.289600  0.331400  1.0  -0.1383
  C  C74  1  0.758000  0.287700  0.408300  1.0  0.1746
  C  C75  1  0.617100  0.520000  0.841800  1.0  0.709
  C  C76  1  0.592600  0.480500  0.899800  1.0  -0.1894
  C  C77  1  0.458600  0.451600  0.888600  1.0  0.1976
  C  C78  1  0.525200  0.412600  0.009200  1.0  0.2145
  C  C79  1  0.662200  0.439400  0.027300  1.0  -0.1713
  C  C80  1  0.697500  0.473200  0.970200  1.0  -0.0361
  C  C81  1  0.768200  0.433800  0.105900  1.0  0.6735
  C  C82  1  0.594300  0.668000  0.790000  1.0  0.717
  C  C83  1  0.648000  0.710400  0.831400  1.0  -0.1369
  C  C84  1  0.742000  0.712300  0.908300  1.0  0.1741
  C  C85  1  0.882900  0.020000  0.341800  1.0  0.7096
  C  C86  1  0.907400  0.980500  0.399800  1.0  -0.1894
  C  C87  1  0.041400  0.951600  0.388600  1.0  0.1952
  C  C88  1  0.974800  0.912600  0.509200  1.0  0.2133
  C  C89  1  0.837800  0.939400  0.527300  1.0  -0.1704
  C  C90  1  0.802500  0.973200  0.470200  1.0  -0.0366
  C  C91  1  0.731800  0.933800  0.605900  1.0  0.6742
  C  C92  1  0.905700  0.168000  0.290000  1.0  0.7177
  C  C93  1  0.852000  0.210400  0.331400  1.0  -0.1381
  C  C94  1  0.758000  0.212300  0.408300  1.0  0.1741
  C  C95  1  0.617100  0.980000  0.841800  1.0  0.7093
  C  C96  1  0.592600  0.019500  0.899800  1.0  -0.1894
  C  C97  1  0.458600  0.048400  0.888600  1.0  0.196
  C  C98  1  0.525200  0.087400  0.009200  1.0  0.2151
  C  C99  1  0.662200  0.060600  0.027300  1.0  -0.1711
  C  C100  1  0.697500  0.026800  0.970200  1.0  -0.0359
  C  C101  1  0.768200  0.066200  0.105900  1.0  0.6724
  C  C102  1  0.594300  0.832000  0.790000  1.0  0.7171
  C  C103  1  0.648000  0.789600  0.831400  1.0  -0.1369
  C  C104  1  0.742000  0.787700  0.908300  1.0  0.1749
  C  C105  1  0.117100  0.520000  0.658200  1.0  0.7092
  C  C106  1  0.092600  0.480500  0.600200  1.0  -0.1899
  C  C107  1  0.958600  0.451600  0.611400  1.0  0.1953
  C  C108  1  0.025200  0.412600  0.490800  1.0  0.2157
  C  C109  1  0.162200  0.439400  0.472700  1.0  -0.1709
  C  C110  1  0.197500  0.473200  0.529800  1.0  -0.0371
  C  C111  1  0.268200  0.433800  0.394100  1.0  0.6736
  C  C112  1  0.094300  0.668000  0.710000  1.0  0.7172
  C  C113  1  0.148000  0.710400  0.668600  1.0  -0.1372
  C  C114  1  0.242000  0.712300  0.591700  1.0  0.1748
  C  C115  1  0.382900  0.480000  0.158200  1.0  0.7084
  C  C116  1  0.407400  0.519500  0.100200  1.0  -0.188
  C  C117  1  0.541400  0.548400  0.111400  1.0  0.1958
  C  C118  1  0.474800  0.587400  0.990800  1.0  0.215
  C  C119  1  0.337800  0.560600  0.972700  1.0  -0.1698
  C  C120  1  0.302500  0.526800  0.029800  1.0  -0.0374
  C  C121  1  0.231800  0.566200  0.894100  1.0  0.6732
  C  C122  1  0.405700  0.332000  0.210000  1.0  0.7181
  C  C123  1  0.352000  0.289600  0.168600  1.0  -0.1383
  C  C124  1  0.258000  0.287700  0.091700  1.0  0.1768
  C  C125  1  0.099700  0.750000  0.704600  1.0  0.0119
  C  C126  1  0.400300  0.250000  0.204600  1.0  0.0119
  C  C127  1  0.900300  0.250000  0.295400  1.0  0.0122
  C  C128  1  0.599700  0.750000  0.795400  1.0  0.0122
  N  N129  1  0.927000  0.082400  0.560300  1.0  -0.366
  N  N130  1  0.573000  0.917600  0.060300  1.0  -0.366
  N  N131  1  0.073000  0.582400  0.439700  1.0  -0.3723
  N  N132  1  0.427000  0.417600  0.939700  1.0  -0.3628
  N  N133  1  0.073000  0.917600  0.439700  1.0  -0.3641
  N  N134  1  0.427000  0.082400  0.939700  1.0  -0.3684
  N  N135  1  0.927000  0.417600  0.560300  1.0  -0.3648
  N  N136  1  0.573000  0.582400  0.060300  1.0  -0.3692
  N  N137  1  0.291500  0.750000  0.553100  1.0  -0.4042
  N  N138  1  0.208500  0.250000  0.053100  1.0  -0.3978
  N  N139  1  0.708500  0.250000  0.446900  1.0  -0.4032
  N  N140  1  0.791500  0.750000  0.946900  1.0  -0.3974
  O  O141  1  0.254200  0.959900  0.650000  1.0  -0.7172
  O  O142  1  0.001200  0.969900  0.708800  1.0  -0.6804
  O  O143  1  0.391900  0.042000  0.385000  1.0  -0.6612
  O  O144  1  0.236000  0.096900  0.337200  1.0  -0.8009
  O  O145  1  0.156800  0.869200  0.683100  1.0  -0.7216
  O  O146  1  0.987700  0.830500  0.769500  1.0  -0.6092
  O  O147  1  0.245800  0.040100  0.150000  1.0  -0.7189
  O  O148  1  0.498800  0.030100  0.208800  1.0  -0.6799
  O  O149  1  0.108100  0.958000  0.885000  1.0  -0.6623
  O  O150  1  0.264000  0.903100  0.837200  1.0  -0.8016
  O  O151  1  0.343200  0.130800  0.183100  1.0  -0.7227
  O  O152  1  0.512300  0.169500  0.269500  1.0  -0.6092
  O  O153  1  0.745800  0.459900  0.350000  1.0  -0.7189
  O  O154  1  0.998800  0.469900  0.291200  1.0  -0.6807
  O  O155  1  0.608100  0.542000  0.615000  1.0  -0.6627
  O  O156  1  0.764000  0.596900  0.662800  1.0  -0.8021
  O  O157  1  0.843200  0.369200  0.316900  1.0  -0.7213
  O  O158  1  0.012300  0.330500  0.230500  1.0  -0.6094
  O  O159  1  0.754200  0.540100  0.850000  1.0  -0.7179
  O  O160  1  0.501200  0.530100  0.791200  1.0  -0.6817
  O  O161  1  0.891900  0.458000  0.115000  1.0  -0.662
  O  O162  1  0.736000  0.403100  0.162800  1.0  -0.8019
  O  O163  1  0.656800  0.630800  0.816900  1.0  -0.722
  O  O164  1  0.487700  0.669500  0.730500  1.0  -0.6087
  O  O165  1  0.745800  0.040100  0.350000  1.0  -0.7192
  O  O166  1  0.998800  0.030100  0.291200  1.0  -0.6813
  O  O167  1  0.608100  0.958000  0.615000  1.0  -0.6627
  O  O168  1  0.764000  0.903100  0.662800  1.0  -0.8015
  O  O169  1  0.843200  0.130800  0.316900  1.0  -0.7218
  O  O170  1  0.012300  0.169500  0.230500  1.0  -0.6092
  O  O171  1  0.754200  0.959900  0.850000  1.0  -0.7175
  O  O172  1  0.501200  0.969900  0.791200  1.0  -0.6809
  O  O173  1  0.891900  0.042000  0.115000  1.0  -0.6615
  O  O174  1  0.736000  0.096900  0.162800  1.0  -0.8015
  O  O175  1  0.656800  0.869200  0.816900  1.0  -0.7211
  O  O176  1  0.487700  0.830500  0.730500  1.0  -0.6089
  O  O177  1  0.254200  0.540100  0.650000  1.0  -0.7176
  O  O178  1  0.001200  0.530100  0.708800  1.0  -0.6807
  O  O179  1  0.391900  0.458000  0.385000  1.0  -0.6616
  O  O180  1  0.236000  0.403100  0.337200  1.0  -0.8016
  O  O181  1  0.156800  0.630800  0.683100  1.0  -0.7228
  O  O182  1  0.987700  0.669500  0.769500  1.0  -0.609
  O  O183  1  0.245800  0.459900  0.150000  1.0  -0.7186
  O  O184  1  0.498800  0.469900  0.208800  1.0  -0.6797
  O  O185  1  0.108100  0.542000  0.885000  1.0  -0.6623
  O  O186  1  0.264000  0.596900  0.837200  1.0  -0.8017
  O  O187  1  0.343200  0.369200  0.183100  1.0  -0.7219
  O  O188  1  0.512300  0.330500  0.269500  1.0  -0.6093
