# generated using pymatgen
data_Co3H6C21N20
_symmetry_space_group_name_H-M   'P 1'
_cell_length_a   13.65500000
_cell_length_b   15.18900000
_cell_length_c   20.91210000
_cell_angle_alpha   90.00000000
_cell_angle_beta   102.48800000
_cell_angle_gamma   90.00000000
_symmetry_Int_Tables_number   1
_chemical_formula_structural   Co3H6C21N20
_chemical_formula_sum   'Co12 H24 C84 N80'
_cell_volume   4234.67613802
_cell_formula_units_Z   4
loop_
 _symmetry_equiv_pos_site_id
 _symmetry_equiv_pos_as_xyz
  1  'x, y, z'
loop_
 _atom_site_type_symbol
 _atom_site_label
 _atom_site_symmetry_multiplicity
 _atom_site_fract_x
 _atom_site_fract_y
 _atom_site_fract_z
 _atom_site_occupancy
 _atom_site_charge
  Co  Co1  1  0.244740  0.259070  0.461090  1.0  0.8286
  Co  Co2  1  0.818890  0.257030  0.603050  1.0  0.8255
  Co  Co3  1  0.298570  0.365750  0.799810  1.0  0.6469
  Co  Co4  1  0.255260  0.759070  0.038910  1.0  0.8273
  Co  Co5  1  0.681110  0.757030  0.896950  1.0  0.8244
  Co  Co6  1  0.201430  0.865750  0.700190  1.0  0.6397
  Co  Co7  1  0.755260  0.740930  0.538910  1.0  0.8256
  Co  Co8  1  0.181110  0.742970  0.396950  1.0  0.8202
  Co  Co9  1  0.701430  0.634250  0.200190  1.0  0.6445
  Co  Co10  1  0.744740  0.240930  0.961090  1.0  0.8265
  Co  Co11  1  0.318890  0.242970  0.103050  1.0  0.8226
  Co  Co12  1  0.798570  0.134250  0.299810  1.0  0.6529
  H  H13  1  0.450300  0.349500  0.696400  1.0  0.1013
  H  H14  1  0.433300  0.319800  0.585900  1.0  0.1094
  H  H15  1  0.003600  0.230100  0.410100  1.0  0.0928
  H  H16  1  0.863000  0.232700  0.456400  1.0  0.0883
  H  H17  1  0.914100  0.305500  0.760700  1.0  0.1057
  H  H18  1  0.070300  0.337200  0.823800  1.0  0.0958
  H  H19  1  0.049700  0.849500  0.803600  1.0  0.1023
  H  H20  1  0.066700  0.819800  0.914100  1.0  0.1094
  H  H21  1  0.496400  0.730100  0.089900  1.0  0.0924
  H  H22  1  0.637000  0.732700  0.043600  1.0  0.0876
  H  H23  1  0.585900  0.805500  0.739300  1.0  0.1051
  H  H24  1  0.429700  0.837200  0.676200  1.0  0.0954
  H  H25  1  0.549700  0.650500  0.303600  1.0  0.1027
  H  H26  1  0.566700  0.680200  0.414100  1.0  0.1096
  H  H27  1  0.996400  0.769900  0.589900  1.0  0.0929
  H  H28  1  0.137000  0.767300  0.543600  1.0  0.088
  H  H29  1  0.085900  0.694500  0.239300  1.0  0.1057
  H  H30  1  0.929700  0.662800  0.176200  1.0  0.0955
  H  H31  1  0.950300  0.150500  0.196400  1.0  0.1013
  H  H32  1  0.933300  0.180200  0.085900  1.0  0.1094
  H  H33  1  0.503600  0.269900  0.910100  1.0  0.0927
  H  H34  1  0.363000  0.267300  0.956400  1.0  0.0879
  H  H35  1  0.414100  0.194500  0.260700  1.0  0.106
  H  H36  1  0.570300  0.162800  0.323800  1.0  0.096
  C  C37  1  0.317800  0.143200  0.811800  1.0  -0.1447
  C  C38  1  0.207700  0.297200  0.594500  1.0  0.1284
  C  C39  1  0.108100  0.275200  0.554900  1.0  0.1174
  C  C40  1  0.026400  0.274800  0.582200  1.0  0.1204
  C  C41  1  0.037000  0.295300  0.651400  1.0  0.1177
  C  C42  1  0.130100  0.315500  0.690500  1.0  0.1175
  C  C43  1  0.219400  0.316600  0.660300  1.0  0.1107
  C  C44  1  0.385800  0.335800  0.670700  1.0  0.1081
  C  C45  1  0.375800  0.316900  0.604600  1.0  0.1013
  C  C46  1  0.012100  0.242600  0.455500  1.0  0.1329
  C  C47  1  0.927200  0.242800  0.483700  1.0  0.124
  C  C48  1  0.969800  0.307900  0.740300  1.0  0.1104
  C  C49  1  0.063800  0.326900  0.778300  1.0  0.0998
  C  C50  1  0.272000  0.058300  0.509300  1.0  0.6088
  C  C51  1  0.242400  0.439300  0.927400  1.0  0.5613
  C  C52  1  0.155200  0.235400  0.310000  1.0  0.6225
  C  C53  1  0.680100  0.269100  0.706200  1.0  0.592
  C  C54  1  0.469200  0.253300  0.442200  1.0  0.5458
  C  C55  1  0.636800  0.239200  0.481900  1.0  0.5613
  C  C56  1  0.876100  0.056000  0.640000  1.0  0.58
  C  C57  1  0.522500  0.442200  0.835700  1.0  0.5603
  C  C58  1  0.182200  0.643200  0.688200  1.0  -0.1454
  C  C59  1  0.292300  0.797200  0.905500  1.0  0.1286
  C  C60  1  0.391900  0.775200  0.945100  1.0  0.1169
  C  C61  1  0.473600  0.774800  0.917800  1.0  0.1204
  C  C62  1  0.463000  0.795300  0.848600  1.0  0.1167
  C  C63  1  0.369900  0.815500  0.809500  1.0  0.1167
  C  C64  1  0.280600  0.816600  0.839700  1.0  0.1111
  C  C65  1  0.114200  0.835800  0.829300  1.0  0.1089
  C  C66  1  0.124200  0.816900  0.895400  1.0  0.1013
  C  C67  1  0.487900  0.742600  0.044500  1.0  0.1327
  C  C68  1  0.572800  0.742800  0.016300  1.0  0.1237
  C  C69  1  0.530200  0.807900  0.759700  1.0  0.1087
  C  C70  1  0.436200  0.826900  0.721700  1.0  0.0981
  C  C71  1  0.228000  0.558300  0.990700  1.0  0.6085
  C  C72  1  0.257600  0.939300  0.572600  1.0  0.5621
  C  C73  1  0.344800  0.735400  0.190000  1.0  0.6227
  C  C74  1  0.819900  0.769100  0.793800  1.0  0.5925
  C  C75  1  0.030800  0.753300  0.057800  1.0  0.5451
  C  C76  1  0.863200  0.739200  0.018100  1.0  0.5589
  C  C77  1  0.623900  0.556000  0.860000  1.0  0.5793
  C  C78  1  0.977500  0.942200  0.664300  1.0  0.5607
  C  C79  1  0.682200  0.856800  0.188200  1.0  -0.1464
  C  C80  1  0.792300  0.702800  0.405500  1.0  0.1287
  C  C81  1  0.891900  0.724800  0.445100  1.0  0.1164
  C  C82  1  0.973600  0.725200  0.417800  1.0  0.1201
  C  C83  1  0.963000  0.704700  0.348600  1.0  0.116
  C  C84  1  0.869900  0.684500  0.309500  1.0  0.1163
  C  C85  1  0.780600  0.683400  0.339700  1.0  0.1105
  C  C86  1  0.614200  0.664200  0.329300  1.0  0.109
  C  C87  1  0.624200  0.683100  0.395400  1.0  0.1016
  C  C88  1  0.987900  0.757400  0.544500  1.0  0.1325
  C  C89  1  0.072800  0.757200  0.516300  1.0  0.1237
  C  C90  1  0.030200  0.692100  0.259700  1.0  0.1088
  C  C91  1  0.936200  0.673100  0.221700  1.0  0.0982
  C  C92  1  0.728000  0.941700  0.490700  1.0  0.6086
  C  C93  1  0.757600  0.560700  0.072600  1.0  0.5631
  C  C94  1  0.844800  0.764600  0.690000  1.0  0.6222
  C  C95  1  0.319900  0.730900  0.293800  1.0  0.5924
  C  C96  1  0.530800  0.746700  0.557800  1.0  0.5452
  C  C97  1  0.363200  0.760800  0.518100  1.0  0.5582
  C  C98  1  0.123900  0.944000  0.360000  1.0  0.5791
  C  C99  1  0.477500  0.557800  0.164300  1.0  0.5606
  C  C100  1  0.817800  0.356800  0.311800  1.0  -0.1457
  C  C101  1  0.707700  0.202800  0.094500  1.0  0.1282
  C  C102  1  0.608100  0.224800  0.054900  1.0  0.1173
  C  C103  1  0.526400  0.225200  0.082200  1.0  0.12
  C  C104  1  0.537000  0.204700  0.151400  1.0  0.1169
  C  C105  1  0.630100  0.184500  0.190500  1.0  0.1173
  C  C106  1  0.719400  0.183400  0.160300  1.0  0.1099
  C  C107  1  0.885800  0.164200  0.170700  1.0  0.1084
  C  C108  1  0.875800  0.183100  0.104600  1.0  0.1014
  C  C109  1  0.512100  0.257400  0.955500  1.0  0.1324
  C  C110  1  0.427200  0.257200  0.983700  1.0  0.1242
  C  C111  1  0.469800  0.192100  0.240300  1.0  0.1108
  C  C112  1  0.563800  0.173100  0.278300  1.0  0.1004
  C  C113  1  0.772000  0.441700  0.009300  1.0  0.6087
  C  C114  1  0.742400  0.060700  0.427400  1.0  0.5629
  C  C115  1  0.655200  0.264600  0.810000  1.0  0.6221
  C  C116  1  0.180100  0.230900  0.206200  1.0  0.5918
  C  C117  1  0.969200  0.246700  0.942200  1.0  0.5459
  C  C118  1  0.136800  0.260800  0.981900  1.0  0.5605
  C  C119  1  0.376100  0.444000  0.140000  1.0  0.5797
  C  C120  1  0.022500  0.057800  0.335700  1.0  0.5603
  N  N121  1  0.286700  0.294600  0.566200  1.0  -0.3047
  N  N122  1  0.102300  0.259100  0.489800  1.0  -0.2875
  N  N123  1  0.934100  0.256700  0.546700  1.0  -0.2941
  N  N124  1  0.955000  0.293000  0.676900  1.0  -0.2914
  N  N125  1  0.144600  0.331100  0.753300  1.0  -0.1577
  N  N126  1  0.307400  0.335100  0.699100  1.0  -0.1605
  N  N127  1  0.260200  0.128900  0.488900  1.0  -0.6078
  N  N128  1  0.288400  0.979500  0.523700  1.0  -0.5094
  N  N129  1  0.262600  0.399100  0.886800  1.0  -0.4996
  N  N130  1  0.179200  0.243600  0.363600  1.0  -0.5812
  N  N131  1  0.118300  0.223300  0.246600  1.0  -0.5668
  N  N132  1  0.725900  0.265800  0.666800  1.0  -0.5932
  N  N133  1  0.388000  0.265000  0.446100  1.0  -0.5766
  N  N134  1  0.561700  0.265000  0.430300  1.0  -0.5285
  N  N135  1  0.705300  0.242600  0.520700  1.0  -0.5369
  N  N136  1  0.847600  0.126300  0.623400  1.0  -0.5797
  N  N137  1  0.891400  0.976200  0.655500  1.0  -0.4824
  N  N138  1  0.449700  0.401300  0.824900  1.0  -0.5326
  N  N139  1  0.325700  0.237300  0.824800  1.0  -0.436
  N  N140  1  0.254500  0.491500  0.764600  1.0  -0.235
  N  N141  1  0.213300  0.794600  0.933800  1.0  -0.3037
  N  N142  1  0.397700  0.759100  0.010200  1.0  -0.2876
  N  N143  1  0.565900  0.756700  0.953300  1.0  -0.2944
  N  N144  1  0.545000  0.793000  0.823100  1.0  -0.2912
  N  N145  1  0.355400  0.831100  0.746700  1.0  -0.1572
  N  N146  1  0.192600  0.835100  0.800900  1.0  -0.1589
  N  N147  1  0.239800  0.628900  0.011100  1.0  -0.6117
  N  N148  1  0.211600  0.479500  0.976300  1.0  -0.5123
  N  N149  1  0.237400  0.899100  0.613200  1.0  -0.5005
  N  N150  1  0.320800  0.743600  0.136400  1.0  -0.5789
  N  N151  1  0.381700  0.723300  0.253400  1.0  -0.5659
  N  N152  1  0.774100  0.765800  0.833200  1.0  -0.5883
  N  N153  1  0.112000  0.765000  0.053900  1.0  -0.578
  N  N154  1  0.938300  0.765000  0.069700  1.0  -0.5235
  N  N155  1  0.794700  0.742600  0.979300  1.0  -0.5391
  N  N156  1  0.652400  0.626300  0.876600  1.0  -0.5725
  N  N157  1  0.608600  0.476200  0.844500  1.0  -0.4836
  N  N158  1  0.050300  0.901300  0.675100  1.0  -0.5317
  N  N159  1  0.174300  0.737300  0.675200  1.0  -0.4354
  N  N160  1  0.245500  0.991500  0.735400  1.0  -0.2343
  N  N161  1  0.713300  0.705400  0.433800  1.0  -0.303
  N  N162  1  0.897700  0.740900  0.510200  1.0  -0.2865
  N  N163  1  0.065900  0.743300  0.453300  1.0  -0.2936
  N  N164  1  0.045000  0.707000  0.323100  1.0  -0.2904
  N  N165  1  0.855400  0.668900  0.246700  1.0  -0.157
  N  N166  1  0.692600  0.664900  0.300900  1.0  -0.1586
  N  N167  1  0.739800  0.871100  0.511100  1.0  -0.6163
  N  N168  1  0.711600  0.020500  0.476300  1.0  -0.5135
  N  N169  1  0.737400  0.600900  0.113200  1.0  -0.5
  N  N170  1  0.820800  0.756400  0.636400  1.0  -0.5792
  N  N171  1  0.881700  0.776700  0.753400  1.0  -0.5662
  N  N172  1  0.274100  0.734200  0.333200  1.0  -0.5884
  N  N173  1  0.612000  0.735000  0.553900  1.0  -0.5768
  N  N174  1  0.438300  0.735000  0.569700  1.0  -0.5246
  N  N175  1  0.294700  0.757400  0.479300  1.0  -0.54
  N  N176  1  0.152400  0.873700  0.376600  1.0  -0.5807
  N  N177  1  0.108600  0.023800  0.344500  1.0  -0.4835
  N  N178  1  0.550300  0.598700  0.175100  1.0  -0.5308
  N  N179  1  0.674300  0.762700  0.175200  1.0  -0.4357
  N  N180  1  0.745500  0.508500  0.235400  1.0  -0.2347
  N  N181  1  0.786700  0.205400  0.066200  1.0  -0.3037
  N  N182  1  0.602300  0.240900  0.989800  1.0  -0.2867
  N  N183  1  0.434100  0.243300  0.046700  1.0  -0.2937
  N  N184  1  0.455000  0.207000  0.176900  1.0  -0.2909
  N  N185  1  0.644600  0.168900  0.253300  1.0  -0.1569
  N  N186  1  0.807400  0.164900  0.199100  1.0  -0.1597
  N  N187  1  0.760200  0.371100  0.988900  1.0  -0.6137
  N  N188  1  0.788400  0.520500  0.023700  1.0  -0.5119
  N  N189  1  0.762600  0.100900  0.386800  1.0  -0.4984
  N  N190  1  0.679200  0.256400  0.863600  1.0  -0.5812
  N  N191  1  0.618300  0.276700  0.746600  1.0  -0.5671
  N  N192  1  0.225900  0.234200  0.166800  1.0  -0.5933
  N  N193  1  0.888000  0.235000  0.946100  1.0  -0.5761
  N  N194  1  0.061700  0.235000  0.930300  1.0  -0.5292
  N  N195  1  0.205300  0.257400  0.020700  1.0  -0.5364
  N  N196  1  0.347600  0.373700  0.123400  1.0  -0.5864
  N  N197  1  0.391400  0.523800  0.155500  1.0  -0.4831
  N  N198  1  0.949700  0.098700  0.324900  1.0  -0.5316
  N  N199  1  0.825700  0.262700  0.324800  1.0  -0.4363
  N  N200  1  0.754500  0.008500  0.264600  1.0  -0.2345
