# generated using pymatgen
data_Zn2H13C24N2O9
_symmetry_space_group_name_H-M   'P 1'
_cell_length_a   13.87000000
_cell_length_b   19.02300000
_cell_length_c   19.23800000
_cell_angle_alpha   90.00000000
_cell_angle_beta   90.00000000
_cell_angle_gamma   90.00000000
_symmetry_Int_Tables_number   1
_chemical_formula_structural   Zn2H13C24N2O9
_chemical_formula_sum   'Zn16 H104 C192 N16 O72'
_cell_volume   5075.92725438
_cell_formula_units_Z   8
loop_
 _symmetry_equiv_pos_site_id
 _symmetry_equiv_pos_as_xyz
  1  'x, y, z'
loop_
 _atom_site_type_symbol
 _atom_site_label
 _atom_site_symmetry_multiplicity
 _atom_site_fract_x
 _atom_site_fract_y
 _atom_site_fract_z
 _atom_site_occupancy
 _atom_site_charge
  Zn  Zn1  1  0.404360  0.483790  0.955680  1.0  0.9633
  Zn  Zn2  1  0.595640  0.983790  0.544320  1.0  0.9619
  Zn  Zn3  1  0.364520  0.603220  0.067440  1.0  1.0286
  Zn  Zn4  1  0.635480  0.103220  0.432560  1.0  1.0277
  Zn  Zn5  1  0.364520  0.896780  0.567440  1.0  1.0288
  Zn  Zn6  1  0.595640  0.516210  0.044320  1.0  0.9616
  Zn  Zn7  1  0.635480  0.396780  0.932560  1.0  1.0283
  Zn  Zn8  1  0.404360  0.016210  0.455680  1.0  0.9628
  Zn  Zn9  1  0.864520  0.603220  0.432560  1.0  1.028
  Zn  Zn10  1  0.904360  0.016210  0.044320  1.0  0.963
  Zn  Zn11  1  0.095640  0.516210  0.455680  1.0  0.9618
  Zn  Zn12  1  0.135480  0.396780  0.567440  1.0  1.0287
  Zn  Zn13  1  0.095640  0.983790  0.955680  1.0  0.9619
  Zn  Zn14  1  0.904360  0.483790  0.544320  1.0  0.9634
  Zn  Zn15  1  0.864520  0.896780  0.932560  1.0  1.0285
  Zn  Zn16  1  0.135480  0.103220  0.067440  1.0  1.0283
  H  H17  1  0.622700  0.023600  0.705500  1.0  0.0876
  H  H18  1  0.623700  0.131900  0.156400  1.0  0.1029
  H  H19  1  0.411300  0.781700  0.200500  1.0  0.115
  H  H20  1  0.346600  0.179700  0.988300  1.0  0.0986
  H  H21  1  0.383500  0.366600  0.076200  1.0  0.0878
  H  H22  1  0.425100  0.016200  0.590700  1.0  0.3924
  H  H23  1  0.425100  0.483800  0.090700  1.0  0.3929
  H  H24  1  0.651600  0.649800  0.318700  1.0  0.1138
  H  H25  1  0.653400  0.679700  0.511700  1.0  0.0987
  H  H26  1  0.951400  0.090600  0.429200  1.0  0.0952
  H  H27  1  0.888200  0.567800  0.056800  1.0  0.1072
  H  H28  1  0.588700  0.281700  0.299500  1.0  0.1149
  H  H29  1  0.355600  0.470800  0.687900  1.0  0.122
  H  H30  1  0.348400  0.350200  0.681300  1.0  0.114
  H  H31  1  0.377300  0.523600  0.794500  1.0  0.0882
  H  H32  1  0.376300  0.631900  0.343600  1.0  0.1032
  H  H33  1  0.355600  0.029200  0.187900  1.0  0.122
  H  H34  1  0.951400  0.409400  0.929200  1.0  0.0954
  H  H35  1  0.576700  0.135600  0.711600  1.0  0.1017
  H  H36  1  0.111800  0.432200  0.943200  1.0  0.1073
  H  H37  1  0.653400  0.820300  0.011700  1.0  0.0982
  H  H38  1  0.346600  0.320300  0.488300  1.0  0.0985
  H  H39  1  0.411300  0.718300  0.700500  1.0  0.1152
  H  H40  1  0.354900  0.252200  0.588300  1.0  0.1278
  H  H41  1  0.376300  0.868100  0.843600  1.0  0.1032
  H  H42  1  0.574900  0.983800  0.409300  1.0  0.3934
  H  H43  1  0.377300  0.976400  0.294500  1.0  0.0874
  H  H44  1  0.423300  0.635600  0.788400  1.0  0.1019
  H  H45  1  0.616500  0.866600  0.423800  1.0  0.0881
  H  H46  1  0.588700  0.218300  0.799500  1.0  0.115
  H  H47  1  0.888200  0.932200  0.556800  1.0  0.1073
  H  H48  1  0.644400  0.970800  0.812100  1.0  0.1221
  H  H49  1  0.623700  0.368100  0.656400  1.0  0.103
  H  H50  1  0.380700  0.785700  0.931300  1.0  0.1186
  H  H51  1  0.383500  0.133400  0.576200  1.0  0.0875
  H  H52  1  0.619300  0.285700  0.568700  1.0  0.119
  H  H53  1  0.651600  0.850200  0.818700  1.0  0.1138
  H  H54  1  0.111800  0.067800  0.443200  1.0  0.1073
  H  H55  1  0.574900  0.516200  0.909300  1.0  0.3929
  H  H56  1  0.048600  0.909400  0.570800  1.0  0.0956
  H  H57  1  0.354900  0.247800  0.088300  1.0  0.1277
  H  H58  1  0.619300  0.214300  0.068700  1.0  0.119
  H  H59  1  0.348400  0.149800  0.181300  1.0  0.1137
  H  H60  1  0.048600  0.590600  0.070800  1.0  0.0953
  H  H61  1  0.380700  0.714300  0.431300  1.0  0.1188
  H  H62  1  0.423300  0.864400  0.288400  1.0  0.1017
  H  H63  1  0.616500  0.633400  0.923800  1.0  0.0879
  H  H64  1  0.644400  0.529200  0.312100  1.0  0.1221
  H  H65  1  0.622700  0.476400  0.205500  1.0  0.0871
  H  H66  1  0.645100  0.747800  0.411700  1.0  0.127
  H  H67  1  0.645100  0.752200  0.911700  1.0  0.1267
  H  H68  1  0.576700  0.364400  0.211600  1.0  0.1016
  H  H69  1  0.854900  0.247800  0.411700  1.0  0.1274
  H  H70  1  0.074900  0.516200  0.590700  1.0  0.3916
  H  H71  1  0.925100  0.016200  0.909300  1.0  0.3936
  H  H72  1  0.153400  0.820300  0.488300  1.0  0.0984
  H  H73  1  0.854900  0.252200  0.911700  1.0  0.127
  H  H74  1  0.911300  0.781700  0.299500  1.0  0.1147
  H  H75  1  0.611800  0.432200  0.556800  1.0  0.1075
  H  H76  1  0.145100  0.747800  0.088300  1.0  0.1274
  H  H77  1  0.846600  0.320300  0.011700  1.0  0.0983
  H  H78  1  0.151600  0.850200  0.681300  1.0  0.1139
  H  H79  1  0.088700  0.281700  0.200500  1.0  0.1153
  H  H80  1  0.151600  0.649800  0.181300  1.0  0.1137
  H  H81  1  0.119300  0.214300  0.431300  1.0  0.1186
  H  H82  1  0.877300  0.976400  0.205500  1.0  0.0871
  H  H83  1  0.848400  0.149800  0.318700  1.0  0.1137
  H  H84  1  0.848400  0.350200  0.818700  1.0  0.1138
  H  H85  1  0.123700  0.368100  0.843600  1.0  0.103
  H  H86  1  0.116500  0.633400  0.576200  1.0  0.087
  H  H87  1  0.883500  0.366600  0.423800  1.0  0.0882
  H  H88  1  0.088700  0.218300  0.700500  1.0  0.1155
  H  H89  1  0.388200  0.567800  0.443200  1.0  0.1073
  H  H90  1  0.548600  0.909400  0.929200  1.0  0.0952
  H  H91  1  0.923300  0.864400  0.211600  1.0  0.102
  H  H92  1  0.153400  0.679700  0.988300  1.0  0.0986
  H  H93  1  0.880700  0.785700  0.568700  1.0  0.1194
  H  H94  1  0.548600  0.590600  0.429200  1.0  0.0951
  H  H95  1  0.074900  0.983800  0.090700  1.0  0.3922
  H  H96  1  0.123700  0.131900  0.343600  1.0  0.1029
  H  H97  1  0.144400  0.970800  0.687900  1.0  0.1218
  H  H98  1  0.076700  0.135600  0.788400  1.0  0.1016
  H  H99  1  0.116500  0.866600  0.076200  1.0  0.0874
  H  H100  1  0.451400  0.090600  0.070800  1.0  0.0954
  H  H101  1  0.076700  0.364400  0.288400  1.0  0.1015
  H  H102  1  0.122700  0.476400  0.294500  1.0  0.0872
  H  H103  1  0.388200  0.932200  0.943200  1.0  0.1072
  H  H104  1  0.144400  0.529200  0.187900  1.0  0.1219
  H  H105  1  0.122700  0.023600  0.794500  1.0  0.0879
  H  H106  1  0.880700  0.714300  0.068700  1.0  0.1194
  H  H107  1  0.451400  0.409400  0.570800  1.0  0.0956
  H  H108  1  0.855600  0.029200  0.312100  1.0  0.1222
  H  H109  1  0.923300  0.635600  0.711600  1.0  0.1021
  H  H110  1  0.876300  0.631900  0.156400  1.0  0.1031
  H  H111  1  0.611800  0.067800  0.056800  1.0  0.1073
  H  H112  1  0.876300  0.868100  0.656400  1.0  0.1031
  H  H113  1  0.846600  0.179700  0.511700  1.0  0.0987
  H  H114  1  0.911300  0.718300  0.799500  1.0  0.1148
  H  H115  1  0.855600  0.470800  0.812100  1.0  0.1222
  H  H116  1  0.119300  0.285700  0.931300  1.0  0.1184
  H  H117  1  0.883500  0.133400  0.923800  1.0  0.0879
  H  H118  1  0.145100  0.752200  0.588300  1.0  0.1278
  H  H119  1  0.925100  0.483800  0.409300  1.0  0.3939
  H  H120  1  0.877300  0.523600  0.705500  1.0  0.0878
  C  C121  1  0.933300  0.959800  0.533700  1.0  -0.0238
  C  C122  1  0.933300  0.540200  0.033700  1.0  -0.0236
  C  C123  1  0.373500  0.025200  0.292600  1.0  0.1831
  C  C124  1  0.392200  0.698100  0.262700  1.0  -0.1342
  C  C125  1  0.601700  0.201400  0.630800  1.0  -0.1219
  C  C126  1  0.622700  0.839200  0.463500  1.0  0.1809
  C  C127  1  0.373500  0.474800  0.792600  1.0  0.1833
  C  C128  1  0.601700  0.298600  0.130800  1.0  -0.1202
  C  C129  1  0.066700  0.040200  0.466300  1.0  -0.0236
  C  C130  1  0.405700  0.767800  0.246700  1.0  -0.0247
  C  C131  1  0.607800  0.198100  0.237300  1.0  -0.1317
  C  C132  1  0.363100  0.258800  0.920200  1.0  -0.1134
  C  C133  1  0.355800  0.127500  0.224100  1.0  0.0398
  C  C134  1  0.643700  0.716400  0.645900  1.0  0.249
  C  C135  1  0.638000  0.832800  0.714200  1.0  -0.0807
  C  C136  1  0.398300  0.798600  0.369200  1.0  -0.1207
  C  C137  1  0.097800  0.985600  0.508400  1.0  -0.151
  C  C138  1  0.638600  0.768000  0.455500  1.0  -0.1105
  C  C139  1  0.588900  0.182300  0.700500  1.0  -0.0353
  C  C140  1  0.203100  0.971100  0.515100  1.0  0.6757
  C  C141  1  0.616100  0.320900  0.667700  1.0  -0.0194
  C  C142  1  0.602900  0.353400  0.074200  1.0  0.6955
  C  C143  1  0.066700  0.459800  0.966300  1.0  -0.0239
  C  C144  1  0.607800  0.301900  0.737300  1.0  -0.131
  C  C145  1  0.639300  0.943500  0.772200  1.0  -0.1043
  C  C146  1  0.353700  0.255300  0.783800  1.0  0.2757
  C  C147  1  0.626500  0.974800  0.707400  1.0  0.1831
  C  C148  1  0.397100  0.646600  0.925800  1.0  0.6948
  C  C149  1  0.613300  0.271600  0.614700  1.0  -0.0555
  C  C150  1  0.353700  0.244700  0.283800  1.0  0.2762
  C  C151  1  0.355800  0.372500  0.724100  1.0  0.0382
  C  C152  1  0.029400  0.554000  0.042000  1.0  -0.0543
  C  C153  1  0.355600  0.272000  0.484900  1.0  0.0281
  C  C154  1  0.362000  0.332800  0.785800  1.0  -0.0808
  C  C155  1  0.602900  0.146600  0.574200  1.0  0.6957
  C  C156  1  0.796900  0.028900  0.484900  1.0  0.6773
  C  C157  1  0.383900  0.679100  0.332300  1.0  -0.0187
  C  C158  1  0.386700  0.771600  0.885300  1.0  -0.0567
  C  C159  1  0.355600  0.228000  0.984900  1.0  0.0295
  C  C160  1  0.377300  0.339200  0.036500  1.0  0.182
  C  C161  1  0.902200  0.485600  0.991600  1.0  -0.151
  C  C162  1  0.029400  0.946000  0.542000  1.0  -0.0547
  C  C163  1  0.386000  0.855600  0.705100  1.0  0.7012
  C  C164  1  0.625800  0.868900  0.651100  1.0  0.1701
  C  C165  1  0.646300  0.744700  0.216200  1.0  0.2751
  C  C166  1  0.614000  0.144400  0.294900  1.0  0.7021
  C  C167  1  0.362000  0.167200  0.285800  1.0  -0.0808
  C  C168  1  0.626500  0.525200  0.207400  1.0  0.1833
  C  C169  1  0.397100  0.853400  0.425800  1.0  0.6954
  C  C170  1  0.639300  0.556500  0.272200  1.0  -0.1052
  C  C171  1  0.636900  0.758800  0.579800  1.0  -0.1115
  C  C172  1  0.374200  0.368900  0.848900  1.0  0.1701
  C  C173  1  0.360700  0.056500  0.227800  1.0  -0.1049
  C  C174  1  0.644400  0.728000  0.515100  1.0  0.0299
  C  C175  1  0.356300  0.283600  0.354100  1.0  0.251
  C  C176  1  0.594300  0.232200  0.753300  1.0  -0.0253
  C  C177  1  0.097800  0.514400  0.008400  1.0  -0.1506
  C  C178  1  0.970600  0.054000  0.458000  1.0  -0.0549
  C  C179  1  0.902200  0.014400  0.491600  1.0  -0.1509
  C  C180  1  0.383900  0.820900  0.832300  1.0  -0.0201
  C  C181  1  0.622700  0.660800  0.963500  1.0  0.1807
  C  C182  1  0.638600  0.732000  0.955500  1.0  -0.1109
  C  C183  1  0.644200  0.872500  0.775900  1.0  0.038
  C  C184  1  0.638000  0.667200  0.214200  1.0  -0.0809
  C  C185  1  0.203100  0.528900  0.015100  1.0  0.6757
  C  C186  1  0.796900  0.471100  0.984900  1.0  0.6772
  C  C187  1  0.360700  0.443500  0.727800  1.0  -0.1033
  C  C188  1  0.613300  0.228400  0.114700  1.0  -0.0551
  C  C189  1  0.375900  0.331400  0.916100  1.0  0.1037
  C  C190  1  0.361400  0.268000  0.044500  1.0  -0.1095
  C  C191  1  0.386700  0.728400  0.385300  1.0  -0.0567
  C  C192  1  0.644400  0.772000  0.015100  1.0  0.0299
  C  C193  1  0.374200  0.131100  0.348900  1.0  0.1702
  C  C194  1  0.636900  0.741200  0.079800  1.0  -0.1122
  C  C195  1  0.588900  0.317700  0.200500  1.0  -0.0394
  C  C196  1  0.624100  0.668600  0.083900  1.0  0.1046
  C  C197  1  0.377300  0.160800  0.536500  1.0  0.1816
  C  C198  1  0.616100  0.179100  0.167700  1.0  -0.0193
  C  C199  1  0.398300  0.701400  0.869200  1.0  -0.1222
  C  C200  1  0.624100  0.831400  0.583900  1.0  0.1037
  C  C201  1  0.392200  0.801900  0.762700  1.0  -0.1318
  C  C202  1  0.970600  0.446000  0.958000  1.0  -0.0548
  C  C203  1  0.614000  0.355600  0.794900  1.0  0.7007
  C  C204  1  0.646300  0.755300  0.716200  1.0  0.2764
  C  C205  1  0.375900  0.168600  0.416100  1.0  0.1038
  C  C206  1  0.363100  0.241200  0.420200  1.0  -0.113
  C  C207  1  0.386000  0.644400  0.205100  1.0  0.7015
  C  C208  1  0.644200  0.627500  0.275900  1.0  0.0393
  C  C209  1  0.625800  0.631100  0.151100  1.0  0.1693
  C  C210  1  0.643700  0.783600  0.145900  1.0  0.252
  C  C211  1  0.405700  0.732200  0.746700  1.0  -0.0248
  C  C212  1  0.411100  0.817700  0.299500  1.0  -0.0385
  C  C213  1  0.361400  0.232000  0.544500  1.0  -0.1105
  C  C214  1  0.594300  0.267800  0.253300  1.0  -0.0241
  C  C215  1  0.356300  0.216400  0.854100  1.0  0.2494
  C  C216  1  0.411100  0.682300  0.799500  1.0  -0.0394
  C  C217  1  0.875900  0.168600  0.083900  1.0  0.1041
  C  C218  1  0.873500  0.474800  0.707400  1.0  0.1832
  C  C219  1  0.136900  0.758800  0.920200  1.0  -0.1127
  C  C220  1  0.402200  0.485600  0.508400  1.0  -0.1511
  C  C221  1  0.125800  0.868900  0.848900  1.0  0.1693
  C  C222  1  0.529400  0.554000  0.458000  1.0  -0.0551
  C  C223  1  0.856300  0.216400  0.645900  1.0  0.252
  C  C224  1  0.088900  0.182300  0.799500  1.0  -0.0383
  C  C225  1  0.126500  0.525200  0.292600  1.0  0.1832
  C  C226  1  0.113300  0.271600  0.885300  1.0  -0.0566
  C  C227  1  0.886700  0.771600  0.614700  1.0  -0.0557
  C  C228  1  0.122700  0.660800  0.536500  1.0  0.1806
  C  C229  1  0.853700  0.244700  0.216200  1.0  0.2728
  C  C230  1  0.296900  0.028900  0.015100  1.0  0.6784
  C  C231  1  0.136900  0.741200  0.420200  1.0  -0.1119
  C  C232  1  0.861400  0.268000  0.455500  1.0  -0.1104
  C  C233  1  0.860700  0.056500  0.272200  1.0  -0.1051
  C  C234  1  0.433300  0.540200  0.466300  1.0  -0.0235
  C  C235  1  0.897100  0.646600  0.574200  1.0  0.6945
  C  C236  1  0.433300  0.959800  0.966300  1.0  -0.0239
  C  C237  1  0.124100  0.668600  0.416100  1.0  0.1042
  C  C238  1  0.886000  0.855600  0.794900  1.0  0.7013
  C  C239  1  0.107800  0.301900  0.762700  1.0  -0.1316
  C  C240  1  0.855800  0.127500  0.275900  1.0  0.0399
  C  C241  1  0.122700  0.839200  0.036500  1.0  0.1811
  C  C242  1  0.143700  0.783600  0.354100  1.0  0.2482
  C  C243  1  0.566700  0.040200  0.033700  1.0  -0.0238
  C  C244  1  0.905700  0.732200  0.753300  1.0  -0.0255
  C  C245  1  0.138600  0.732000  0.544500  1.0  -0.1101
  C  C246  1  0.088900  0.317700  0.299500  1.0  -0.0374
  C  C247  1  0.911100  0.817700  0.200500  1.0  -0.0407
  C  C248  1  0.853700  0.255300  0.716200  1.0  0.2757
  C  C249  1  0.897100  0.853400  0.074200  1.0  0.6956
  C  C250  1  0.126500  0.974800  0.792600  1.0  0.183
  C  C251  1  0.124100  0.831400  0.916100  1.0  0.1038
  C  C252  1  0.883900  0.820900  0.667700  1.0  -0.0207
  C  C253  1  0.146300  0.744700  0.283800  1.0  0.2737
  C  C254  1  0.101700  0.298600  0.369200  1.0  -0.122
  C  C255  1  0.138000  0.832800  0.785800  1.0  -0.0808
  C  C256  1  0.862000  0.332800  0.714200  1.0  -0.0807
  C  C257  1  0.402200  0.014400  0.008400  1.0  -0.1509
  C  C258  1  0.911100  0.682300  0.700500  1.0  -0.0364
  C  C259  1  0.116100  0.320900  0.832300  1.0  -0.0208
  C  C260  1  0.139300  0.556500  0.227800  1.0  -0.107
  C  C261  1  0.886000  0.644400  0.294900  1.0  0.7019
  C  C262  1  0.146300  0.755300  0.783800  1.0  0.2736
  C  C263  1  0.101700  0.201400  0.869200  1.0  -0.1225
  C  C264  1  0.877300  0.160800  0.963500  1.0  0.1834
  C  C265  1  0.703100  0.971100  0.984900  1.0  0.6761
  C  C266  1  0.296900  0.471100  0.515100  1.0  0.6775
  C  C267  1  0.139300  0.943500  0.727800  1.0  -0.1044
  C  C268  1  0.874200  0.368900  0.651100  1.0  0.1707
  C  C269  1  0.125800  0.631100  0.348900  1.0  0.1698
  C  C270  1  0.898300  0.798600  0.130800  1.0  -0.1202
  C  C271  1  0.860700  0.443500  0.772200  1.0  -0.1043
  C  C272  1  0.144400  0.728000  0.984900  1.0  0.0295
  C  C273  1  0.116100  0.179100  0.332300  1.0  -0.0249
  C  C274  1  0.470600  0.054000  0.042000  1.0  -0.055
  C  C275  1  0.861400  0.232000  0.955500  1.0  -0.1086
  C  C276  1  0.855600  0.228000  0.515100  1.0  0.0299
  C  C277  1  0.877300  0.339200  0.463500  1.0  0.1832
  C  C278  1  0.114000  0.355600  0.705100  1.0  0.7005
  C  C279  1  0.144200  0.872500  0.724100  1.0  0.037
  C  C280  1  0.855800  0.372500  0.775900  1.0  0.038
  C  C281  1  0.144200  0.627500  0.224100  1.0  0.0389
  C  C282  1  0.144400  0.772000  0.484900  1.0  0.0287
  C  C283  1  0.102900  0.146600  0.925800  1.0  0.695
  C  C284  1  0.529400  0.946000  0.958000  1.0  -0.0548
  C  C285  1  0.905700  0.767800  0.253300  1.0  -0.0243
  C  C286  1  0.863100  0.258800  0.579800  1.0  -0.1123
  C  C287  1  0.886700  0.728400  0.114700  1.0  -0.0552
  C  C288  1  0.892200  0.801900  0.737300  1.0  -0.1312
  C  C289  1  0.597800  0.985600  0.991600  1.0  -0.151
  C  C290  1  0.873500  0.025200  0.207400  1.0  0.1834
  C  C291  1  0.094300  0.267800  0.246700  1.0  -0.025
  C  C292  1  0.898300  0.701400  0.630800  1.0  -0.122
  C  C293  1  0.875900  0.331400  0.583900  1.0  0.1028
  C  C294  1  0.703100  0.528900  0.484900  1.0  0.6762
  C  C295  1  0.113300  0.228400  0.385300  1.0  -0.0566
  C  C296  1  0.863100  0.241200  0.079800  1.0  -0.1125
  C  C297  1  0.856300  0.283600  0.145900  1.0  0.2497
  C  C298  1  0.892200  0.698100  0.237300  1.0  -0.1317
  C  C299  1  0.874200  0.131100  0.151100  1.0  0.17
  C  C300  1  0.862000  0.167200  0.214200  1.0  -0.081
  C  C301  1  0.143700  0.716400  0.854100  1.0  0.2485
  C  C302  1  0.102900  0.353400  0.425800  1.0  0.6958
  C  C303  1  0.138000  0.667200  0.285800  1.0  -0.0807
  C  C304  1  0.470600  0.446000  0.542000  1.0  -0.0545
  C  C305  1  0.114000  0.144400  0.205100  1.0  0.6996
  C  C306  1  0.855600  0.272000  0.015100  1.0  0.0283
  C  C307  1  0.107800  0.198100  0.262700  1.0  -0.1333
  C  C308  1  0.597800  0.514400  0.491600  1.0  -0.1505
  C  C309  1  0.883900  0.679100  0.167700  1.0  -0.0224
  C  C310  1  0.094300  0.232200  0.746700  1.0  -0.0252
  C  C311  1  0.138600  0.768000  0.044500  1.0  -0.103
  C  C312  1  0.566700  0.459800  0.533700  1.0  -0.024
  N  N313  1  0.384300  0.370900  0.974600  1.0  -0.3593
  N  N314  1  0.384300  0.129100  0.474600  1.0  -0.3567
  N  N315  1  0.615700  0.870900  0.525400  1.0  -0.3587
  N  N316  1  0.619400  0.561000  0.147500  1.0  -0.3054
  N  N317  1  0.380600  0.061000  0.352500  1.0  -0.3053
  N  N318  1  0.619400  0.939000  0.647500  1.0  -0.3069
  N  N319  1  0.615700  0.629100  0.025400  1.0  -0.3575
  N  N320  1  0.380600  0.439000  0.852500  1.0  -0.3053
  N  N321  1  0.115700  0.629100  0.474600  1.0  -0.3571
  N  N322  1  0.884300  0.370900  0.525400  1.0  -0.3597
  N  N323  1  0.880600  0.439000  0.647500  1.0  -0.3067
  N  N324  1  0.119400  0.939000  0.852500  1.0  -0.3049
  N  N325  1  0.115700  0.870900  0.974600  1.0  -0.3587
  N  N326  1  0.880600  0.061000  0.147500  1.0  -0.3046
  N  N327  1  0.884300  0.129100  0.025400  1.0  -0.3585
  N  N328  1  0.119400  0.561000  0.352500  1.0  -0.3045
  O  O329  1  0.655100  0.778200  0.271000  1.0  -0.4128
  O  O330  1  0.620600  0.418500  0.779500  1.0  -0.5715
  O  O331  1  0.387300  0.667800  0.143100  1.0  -0.6053
  O  O332  1  0.409600  0.583770  0.908030  1.0  -0.5904
  O  O333  1  0.379400  0.581500  0.220500  1.0  -0.5696
  O  O334  1  0.612700  0.332200  0.856900  1.0  -0.6052
  O  O335  1  0.350400  0.151900  0.855000  1.0  -0.3816
  O  O336  1  0.387300  0.832200  0.643100  1.0  -0.6051
  O  O337  1  0.649600  0.651900  0.645000  1.0  -0.3802
  O  O338  1  0.228000  0.924530  0.559800  1.0  -0.5944
  O  O339  1  0.655100  0.721800  0.771000  1.0  -0.4119
  O  O340  1  0.590400  0.083770  0.591970  1.0  -0.5907
  O  O341  1  0.444500  0.980980  0.556270  1.0  -0.9315
  O  O342  1  0.555500  0.480980  0.943730  1.0  -0.9301
  O  O343  1  0.344900  0.278200  0.229000  1.0  -0.4145
  O  O344  1  0.741300  0.505800  0.022700  1.0  -0.5949
  O  O345  1  0.379400  0.918500  0.720500  1.0  -0.5712
  O  O346  1  0.772000  0.424530  0.940200  1.0  -0.5934
  O  O347  1  0.383000  0.667300  0.987730  1.0  -0.5941
  O  O348  1  0.228000  0.575470  0.059800  1.0  -0.5934
  O  O349  1  0.258700  0.005800  0.477300  1.0  -0.5946
  O  O350  1  0.590400  0.416230  0.091970  1.0  -0.5899
  O  O351  1  0.383000  0.832700  0.487730  1.0  -0.5934
  O  O352  1  0.772000  0.075470  0.440200  1.0  -0.5911
  O  O353  1  0.617000  0.332700  0.012270  1.0  -0.5946
  O  O354  1  0.350400  0.348100  0.355000  1.0  -0.38
  O  O355  1  0.649600  0.848100  0.145000  1.0  -0.3798
  O  O356  1  0.258700  0.494200  0.977300  1.0  -0.5945
  O  O357  1  0.741300  0.994200  0.522700  1.0  -0.595
  O  O358  1  0.620600  0.081500  0.279500  1.0  -0.5703
  O  O359  1  0.612700  0.167800  0.356900  1.0  -0.6052
  O  O360  1  0.555500  0.019020  0.443730  1.0  -0.9302
  O  O361  1  0.617000  0.167300  0.512270  1.0  -0.5957
  O  O362  1  0.444500  0.519020  0.056270  1.0  -0.9317
  O  O363  1  0.344900  0.221800  0.729000  1.0  -0.4144
  O  O364  1  0.409600  0.916230  0.408030  1.0  -0.5899
  O  O365  1  0.844900  0.278200  0.271000  1.0  -0.4137
  O  O366  1  0.758700  0.005800  0.022700  1.0  -0.5946
  O  O367  1  0.117000  0.332700  0.487730  1.0  -0.594
  O  O368  1  0.117000  0.167300  0.987730  1.0  -0.595
  O  O369  1  0.887300  0.667800  0.356900  1.0  -0.6063
  O  O370  1  0.149600  0.848100  0.355000  1.0  -0.3805
  O  O371  1  0.112700  0.167800  0.143100  1.0  -0.6048
  O  O372  1  0.909600  0.916230  0.091970  1.0  -0.5908
  O  O373  1  0.155100  0.721800  0.729000  1.0  -0.4138
  O  O374  1  0.879400  0.581500  0.279500  1.0  -0.5702
  O  O375  1  0.909600  0.583770  0.591970  1.0  -0.5899
  O  O376  1  0.090400  0.416230  0.408030  1.0  -0.5908
  O  O377  1  0.879400  0.918500  0.779500  1.0  -0.5711
  O  O378  1  0.844900  0.221800  0.771000  1.0  -0.4124
  O  O379  1  0.944500  0.980980  0.943730  1.0  -0.9302
  O  O380  1  0.090400  0.083770  0.908030  1.0  -0.5906
  O  O381  1  0.155100  0.778200  0.229000  1.0  -0.4138
  O  O382  1  0.758700  0.494200  0.522700  1.0  -0.5946
  O  O383  1  0.272000  0.424530  0.559800  1.0  -0.5938
  O  O384  1  0.241300  0.994200  0.977300  1.0  -0.5945
  O  O385  1  0.728000  0.575470  0.440200  1.0  -0.5913
  O  O386  1  0.850400  0.348100  0.145000  1.0  -0.3794
  O  O387  1  0.850400  0.151900  0.645000  1.0  -0.3804
  O  O388  1  0.112700  0.332200  0.643100  1.0  -0.6036
  O  O389  1  0.944500  0.519020  0.443730  1.0  -0.9307
  O  O390  1  0.241300  0.505800  0.477300  1.0  -0.5944
  O  O391  1  0.272000  0.075470  0.059800  1.0  -0.5932
  O  O392  1  0.055500  0.480980  0.556270  1.0  -0.9313
  O  O393  1  0.120600  0.418500  0.720500  1.0  -0.5715
  O  O394  1  0.120600  0.081500  0.220500  1.0  -0.5697
  O  O395  1  0.887300  0.832200  0.856900  1.0  -0.6062
  O  O396  1  0.883000  0.667300  0.512270  1.0  -0.5948
  O  O397  1  0.728000  0.924530  0.940200  1.0  -0.5917
  O  O398  1  0.055500  0.019020  0.056270  1.0  -0.9313
  O  O399  1  0.883000  0.832700  0.012270  1.0  -0.5943
  O  O400  1  0.149600  0.651900  0.855000  1.0  -0.3817
