# generated using pymatgen
data_AlPC2O3F
_symmetry_space_group_name_H-M   'P 1'
_cell_length_a   4.93920000
_cell_length_b   12.18670000
_cell_length_c   10.78300000
_cell_angle_alpha   90.00000000
_cell_angle_beta   94.76650000
_cell_angle_gamma   90.00000000
_symmetry_Int_Tables_number   1
_chemical_formula_structural   AlPC2O3F
_chemical_formula_sum   'Al4 P4 C8 O12 F4'
_cell_volume   646.81156501
_cell_formula_units_Z   4
loop_
 _symmetry_equiv_pos_site_id
 _symmetry_equiv_pos_as_xyz
  1  'x, y, z'
loop_
 _atom_site_type_symbol
 _atom_site_label
 _atom_site_symmetry_multiplicity
 _atom_site_fract_x
 _atom_site_fract_y
 _atom_site_fract_z
 _atom_site_occupancy
 _atom_site_charge
  Al  Al1  1  0.000000  0.500000  0.000000  1.0  1.8858
  Al  Al2  1  0.000000  0.000000  0.000000  1.0  1.886
  Al  Al3  1  0.243500  0.250000  0.898600  1.0  1.9532
  Al  Al4  1  0.756500  0.750000  0.101400  1.0  1.9537
  P  P5  1  0.535900  0.514000  0.181300  1.0  1.4972
  P  P6  1  0.464100  0.014000  0.818700  1.0  1.4968
  P  P7  1  0.464100  0.486000  0.818700  1.0  1.4973
  P  P8  1  0.535900  0.986000  0.181300  1.0  1.4971
  C  C9  1  0.470400  0.522100  0.432200  1.0  -0.0073
  C  C10  1  0.616800  0.463400  0.333400  1.0  -0.1075
  C  C11  1  0.529600  0.022100  0.567800  1.0  -0.0072
  C  C12  1  0.383200  0.963400  0.666667  1.0  -0.1065
  C  C13  1  0.529600  0.477900  0.567800  1.0  -0.0082
  C  C14  1  0.383200  0.536600  0.666667  1.0  -0.1074
  C  C15  1  0.470400  0.977900  0.432200  1.0  -0.0084
  C  C16  1  0.616800  0.036600  0.333400  1.0  -0.1072
  O  O17  1  0.701900  0.458800  0.083700  1.0  -0.8799
  O  O18  1  0.607300  0.636800  0.188900  1.0  -0.8523
  O  O19  1  0.226000  0.507100  0.143800  1.0  -0.9602
  O  O20  1  0.298100  0.958800  0.916300  1.0  -0.8798
  O  O21  1  0.392700  0.136800  0.811100  1.0  -0.851
  O  O22  1  0.774000  0.007100  0.856200  1.0  -0.9556
  O  O23  1  0.298100  0.541200  0.916300  1.0  -0.8799
  O  O24  1  0.392700  0.363200  0.811100  1.0  -0.851
  O  O25  1  0.774000  0.492900  0.856200  1.0  -0.9552
  O  O26  1  0.701900  0.041200  0.083700  1.0  -0.8799
  O  O27  1  0.607300  0.863200  0.188900  1.0  -0.8518
  O  O28  1  0.226000  0.992900  0.143800  1.0  -0.9601
  F  F29  1  0.066300  0.353300  0.983700  1.0  -0.6119
  F  F30  1  0.933700  0.853300  0.016300  1.0  -0.6113
  F  F31  1  0.933700  0.646700  0.016300  1.0  -0.613
  F  F32  1  0.066300  0.146700  0.983700  1.0  -0.6143
