# generated using pymatgen
data_LiH2(C2O)2
_symmetry_space_group_name_H-M   'P 1'
_cell_length_a   9.61960000
_cell_length_b   9.61960000
_cell_length_c   12.81700000
_cell_angle_alpha   90.00000000
_cell_angle_beta   90.00000000
_cell_angle_gamma   92.04700000
_symmetry_Int_Tables_number   1
_chemical_formula_structural   LiH2(C2O)2
_chemical_formula_sum   'Li8 H16 C32 O16'
_cell_volume   1185.28607881
_cell_formula_units_Z   8
loop_
 _symmetry_equiv_pos_site_id
 _symmetry_equiv_pos_as_xyz
  1  'x, y, z'
loop_
 _atom_site_type_symbol
 _atom_site_label
 _atom_site_symmetry_multiplicity
 _atom_site_fract_x
 _atom_site_fract_y
 _atom_site_fract_z
 _atom_site_occupancy
 _atom_site_charge
  Li  Li1  1  0.117700  0.039500  0.903400  1.0  0.9043
  Li  Li2  1  0.882300  0.960500  0.403400  1.0  0.9044
  Li  Li3  1  0.960500  0.882300  0.596600  1.0  0.9042
  Li  Li4  1  0.039500  0.117700  0.096600  1.0  0.9038
  Li  Li5  1  0.929000  0.071000  0.750000  1.0  0.8987
  Li  Li6  1  0.071000  0.929000  0.250000  1.0  0.898
  Li  Li7  1  0.730600  0.269400  0.750000  1.0  0.9439
  Li  Li8  1  0.269400  0.730600  0.250000  1.0  0.9432
  H  H9  1  0.371400  0.003200  0.360900  1.0  0.1039
  H  H10  1  0.195200  0.019800  0.482000  1.0  0.0977
  H  H11  1  0.480000  0.067400  0.709600  1.0  0.0911
  H  H12  1  0.598500  0.009900  0.413700  1.0  0.0928
  H  H13  1  0.628600  0.996800  0.860900  1.0  0.1036
  H  H14  1  0.804800  0.980200  0.982000  1.0  0.0973
  H  H15  1  0.520000  0.932600  0.209600  1.0  0.0912
  H  H16  1  0.401500  0.990100  0.913700  1.0  0.0929
  H  H17  1  0.996800  0.628600  0.139100  1.0  0.1036
  H  H18  1  0.980200  0.804800  0.018000  1.0  0.0971
  H  H19  1  0.932600  0.520000  0.790400  1.0  0.0911
  H  H20  1  0.990100  0.401500  0.086300  1.0  0.0915
  H  H21  1  0.003200  0.371400  0.639100  1.0  0.1031
  H  H22  1  0.019800  0.195200  0.518000  1.0  0.0979
  H  H23  1  0.067400  0.480000  0.290400  1.0  0.0911
  H  H24  1  0.009900  0.598500  0.586300  1.0  0.0911
  C  C25  1  0.392800  0.014000  0.431210  1.0  -0.1526
  C  C26  1  0.287600  0.024560  0.503500  1.0  0.0005
  C  C27  1  0.320000  0.042460  0.609500  1.0  -0.173
  C  C28  1  0.457760  0.052040  0.639830  1.0  0.0085
  C  C29  1  0.563580  0.038880  0.566880  1.0  -0.2109
  C  C30  1  0.528390  0.019390  0.462830  1.0  -0.0179
  C  C31  1  0.203130  0.050530  0.687710  1.0  0.7664
  C  C32  1  0.713380  0.038300  0.599950  1.0  0.8057
  C  C33  1  0.607200  0.986000  0.931210  1.0  -0.1515
  C  C34  1  0.712400  0.975440  0.003500  1.0  -0.0021
  C  C35  1  0.680000  0.957540  0.109500  1.0  -0.1737
  C  C36  1  0.542240  0.947960  0.139830  1.0  0.0079
  C  C37  1  0.436420  0.961120  0.066880  1.0  -0.2115
  C  C38  1  0.471610  0.980610  0.962830  1.0  -0.0187
  C  C39  1  0.796870  0.949470  0.187710  1.0  0.7615
  C  C40  1  0.286620  0.961700  0.099950  1.0  0.8063
  C  C41  1  0.986000  0.607200  0.068790  1.0  -0.1498
  C  C42  1  0.975440  0.712400  0.996500  1.0  -0.002
  C  C43  1  0.957540  0.680000  0.890500  1.0  -0.1684
  C  C44  1  0.947960  0.542240  0.860170  1.0  0.0089
  C  C45  1  0.961120  0.436420  0.933120  1.0  -0.2115
  C  C46  1  0.980610  0.471610  0.037170  1.0  -0.0215
  C  C47  1  0.949470  0.796870  0.812290  1.0  0.7652
  C  C48  1  0.961700  0.286620  0.900050  1.0  0.8031
  C  C49  1  0.014000  0.392800  0.568790  1.0  -0.1496
  C  C50  1  0.024560  0.287600  0.496500  1.0  -0.0017
  C  C51  1  0.042460  0.320000  0.390500  1.0  -0.1685
  C  C52  1  0.052040  0.457760  0.360170  1.0  0.0079
  C  C53  1  0.038880  0.563580  0.433120  1.0  -0.2107
  C  C54  1  0.019390  0.528390  0.537170  1.0  -0.02
  C  C55  1  0.050530  0.203130  0.312290  1.0  0.7662
  C  C56  1  0.038300  0.713380  0.400050  1.0  0.8052
  O  O57  1  0.233120  0.075660  0.780840  1.0  -0.7119
  O  O58  1  0.082180  0.033120  0.653190  1.0  -0.8409
  O  O59  1  0.744690  0.083810  0.688990  1.0  -0.8791
  O  O60  1  0.800090  0.985690  0.538950  1.0  -0.8055
  O  O61  1  0.766880  0.924340  0.280840  1.0  -0.7083
  O  O62  1  0.917820  0.966880  0.153190  1.0  -0.8417
  O  O63  1  0.255310  0.916190  0.188990  1.0  -0.8814
  O  O64  1  0.199910  0.014310  0.038950  1.0  -0.807
  O  O65  1  0.924340  0.766880  0.719160  1.0  -0.7
  O  O66  1  0.966880  0.917820  0.846810  1.0  -0.8406
  O  O67  1  0.916190  0.255310  0.811010  1.0  -0.8804
  O  O68  1  0.014310  0.199910  0.961050  1.0  -0.8058
  O  O69  1  0.075660  0.233120  0.219160  1.0  -0.7049
  O  O70  1  0.033120  0.082180  0.346810  1.0  -0.8417
  O  O71  1  0.083810  0.744690  0.311010  1.0  -0.8819
  O  O72  1  0.985690  0.800090  0.461050  1.0  -0.8044
