# generated using pymatgen
data_Eu3H40(C16O5)4
_symmetry_space_group_name_H-M   'P 1'
_cell_length_a   15.47240000
_cell_length_b   14.14590000
_cell_length_c   24.04000000
_cell_angle_alpha   90.00000000
_cell_angle_beta   90.18800000
_cell_angle_gamma   90.00000000
_symmetry_Int_Tables_number   1
_chemical_formula_structural   Eu3H40(C16O5)4
_chemical_formula_sum   'Eu6 H80 C128 O40'
_cell_volume   5261.63107223
_cell_formula_units_Z   2
loop_
 _symmetry_equiv_pos_site_id
 _symmetry_equiv_pos_as_xyz
  1  'x, y, z'
loop_
 _atom_site_type_symbol
 _atom_site_label
 _atom_site_symmetry_multiplicity
 _atom_site_fract_x
 _atom_site_fract_y
 _atom_site_fract_z
 _atom_site_occupancy
 _atom_site_charge
  Eu  Eu1  1  0.443980  0.873680  0.508450  1.0  2.1972
  Eu  Eu2  1  0.056020  0.373680  0.991550  1.0  2.1969
  Eu  Eu3  1  0.556020  0.126320  0.491550  1.0  2.1961
  Eu  Eu4  1  0.943980  0.626320  0.008450  1.0  2.1946
  Eu  Eu5  1  0.500000  0.500000  0.500000  1.0  1.9892
  Eu  Eu6  1  0.000000  0.000000  0.000000  1.0  1.9892
  H  H7  1  0.412500  0.170200  0.375100  1.0  0.116
  H  H8  1  0.362400  0.238000  0.296700  1.0  0.1176
  H  H9  1  0.250700  0.945100  0.356200  1.0  0.121
  H  H10  1  0.194200  0.286600  0.117200  1.0  0.0974
  H  H11  1  0.285400  0.277700  0.197900  1.0  0.1133
  H  H12  1  0.080300  0.038700  0.157500  1.0  0.1274
  H  H13  1  0.096600  0.018900  0.321400  1.0  0.1211
  H  H14  1  0.069200  0.933100  0.281700  1.0  0.1411
  H  H15  1  0.050100  0.039700  0.263100  1.0  0.1263
  H  H16  1  0.411600  0.827900  0.650100  1.0  0.1022
  H  H17  1  0.343100  0.835700  0.736100  1.0  0.1181
  H  H18  1  0.405300  0.544900  0.655900  1.0  0.1094
  H  H19  1  0.135600  0.748300  0.888900  1.0  0.1223
  H  H20  1  0.224600  0.809000  0.817900  1.0  0.1119
  H  H21  1  0.196700  0.482000  0.844000  1.0  0.1133
  H  H22  1  0.332900  0.399800  0.785400  1.0  0.1254
  H  H23  1  0.402200  0.480900  0.798300  1.0  0.1136
  H  H24  1  0.397600  0.434200  0.737800  1.0  0.1216
  H  H25  1  0.264200  0.911100  0.225000  1.0  0.1497
  H  H26  1  0.262600  0.457900  0.686800  1.0  0.2465
  H  H27  1  0.087500  0.670200  0.124900  1.0  0.116
  H  H28  1  0.137600  0.738000  0.203300  1.0  0.1177
  H  H29  1  0.249300  0.445100  0.143800  1.0  0.1207
  H  H30  1  0.305800  0.786600  0.382800  1.0  0.0968
  H  H31  1  0.214600  0.777700  0.302100  1.0  0.1142
  H  H32  1  0.419700  0.538700  0.342500  1.0  0.1277
  H  H33  1  0.403400  0.518900  0.178600  1.0  0.1233
  H  H34  1  0.430800  0.433100  0.218300  1.0  0.1414
  H  H35  1  0.449900  0.539700  0.236900  1.0  0.1257
  H  H36  1  0.088400  0.327900  0.849900  1.0  0.102
  H  H37  1  0.156900  0.335700  0.763900  1.0  0.1182
  H  H38  1  0.094700  0.044900  0.844100  1.0  0.1099
  H  H39  1  0.364400  0.248300  0.611100  1.0  0.1217
  H  H40  1  0.275400  0.309000  0.682100  1.0  0.113
  H  H41  1  0.303300  0.982000  0.656000  1.0  0.1134
  H  H42  1  0.167100  0.899800  0.714600  1.0  0.124
  H  H43  1  0.097800  0.980900  0.701700  1.0  0.1138
  H  H44  1  0.102400  0.934200  0.762200  1.0  0.1217
  H  H45  1  0.235800  0.411100  0.275000  1.0  0.1492
  H  H46  1  0.237400  0.957900  0.813200  1.0  0.2431
  H  H47  1  0.587500  0.829800  0.624900  1.0  0.1162
  H  H48  1  0.637600  0.762000  0.703300  1.0  0.1177
  H  H49  1  0.749300  0.054900  0.643800  1.0  0.1208
  H  H50  1  0.805800  0.713400  0.882800  1.0  0.0976
  H  H51  1  0.714600  0.722300  0.802100  1.0  0.1142
  H  H52  1  0.919700  0.961300  0.842500  1.0  0.1273
  H  H53  1  0.903400  0.981100  0.678600  1.0  0.1227
  H  H54  1  0.930800  0.066900  0.718300  1.0  0.1414
  H  H55  1  0.949900  0.960300  0.736900  1.0  0.1252
  H  H56  1  0.588400  0.172100  0.349900  1.0  0.102
  H  H57  1  0.656900  0.164300  0.263900  1.0  0.1177
  H  H58  1  0.594700  0.455100  0.344100  1.0  0.1092
  H  H59  1  0.864400  0.251700  0.111100  1.0  0.1217
  H  H60  1  0.775400  0.191000  0.182100  1.0  0.1129
  H  H61  1  0.803300  0.518000  0.156000  1.0  0.1134
  H  H62  1  0.667100  0.600200  0.214600  1.0  0.1245
  H  H63  1  0.597800  0.519100  0.201700  1.0  0.1141
  H  H64  1  0.602400  0.565800  0.262200  1.0  0.1216
  H  H65  1  0.735800  0.088900  0.775000  1.0  0.1488
  H  H66  1  0.737400  0.542100  0.313200  1.0  0.2435
  H  H67  1  0.912500  0.329800  0.875100  1.0  0.1168
  H  H68  1  0.862400  0.262000  0.796700  1.0  0.1175
  H  H69  1  0.750700  0.554900  0.856200  1.0  0.1204
  H  H70  1  0.694200  0.213400  0.617200  1.0  0.0977
  H  H71  1  0.785400  0.222300  0.697900  1.0  0.1138
  H  H72  1  0.580300  0.461300  0.657500  1.0  0.1273
  H  H73  1  0.596600  0.481100  0.821400  1.0  0.1214
  H  H74  1  0.569200  0.566900  0.781700  1.0  0.141
  H  H75  1  0.550100  0.460300  0.763100  1.0  0.1256
  H  H76  1  0.911600  0.672100  0.150100  1.0  0.1019
  H  H77  1  0.843100  0.664300  0.236100  1.0  0.1178
  H  H78  1  0.905300  0.955100  0.155900  1.0  0.1094
  H  H79  1  0.635600  0.751700  0.388900  1.0  0.1224
  H  H80  1  0.724600  0.691000  0.317900  1.0  0.1131
  H  H81  1  0.696700  0.018000  0.344000  1.0  0.1133
  H  H82  1  0.832900  0.100200  0.285400  1.0  0.1251
  H  H83  1  0.902200  0.019100  0.298300  1.0  0.1134
  H  H84  1  0.897600  0.065800  0.237800  1.0  0.1212
  H  H85  1  0.764200  0.588900  0.725000  1.0  0.1497
  H  H86  1  0.762600  0.042100  0.186800  1.0  0.247
  C  C87  1  0.371600  0.008400  0.425000  1.0  0.7007
  C  C88  1  0.335700  0.053300  0.373000  1.0  -0.1002
  C  C89  1  0.368500  0.139400  0.354200  1.0  -0.028
  C  C90  1  0.339800  0.178700  0.308200  1.0  -0.1241
  C  C91  1  0.275400  0.133800  0.275400  1.0  -0.0027
  C  C92  1  0.242500  0.047900  0.295200  1.0  -0.061
  C  C93  1  0.272400  0.004300  0.343900  1.0  -0.1115
  C  C94  1  0.074000  0.175100  0.077800  1.0  0.7474
  C  C95  1  0.130800  0.165300  0.127700  1.0  -0.131
  C  C96  1  0.189100  0.233700  0.141300  1.0  -0.0218
  C  C97  1  0.243500  0.230600  0.189900  1.0  -0.0839
  C  C98  1  0.230300  0.157200  0.222100  1.0  0.0181
  C  C99  1  0.172400  0.084600  0.209500  1.0  -0.0455
  C  C100  1  0.121400  0.087200  0.164600  1.0  -0.0923
  C  C101  1  0.176100  0.002600  0.255100  1.0  0.1394
  C  C102  1  0.090800  0.998200  0.282600  1.0  -0.3546
  C  C103  1  0.464300  0.681900  0.591500  1.0  0.7537
  C  C104  1  0.416500  0.686800  0.644800  1.0  -0.1593
  C  C105  1  0.395100  0.771100  0.668300  1.0  -0.0386
  C  C106  1  0.349900  0.776600  0.717900  1.0  -0.1131
  C  C107  1  0.315800  0.697600  0.740200  1.0  -0.0274
  C  C108  1  0.341500  0.607200  0.718200  1.0  0.0278
  C  C109  1  0.389600  0.604400  0.671200  1.0  -0.1097
  C  C110  1  0.105700  0.572500  0.919300  1.0  0.7437
  C  C111  1  0.161500  0.608100  0.872700  1.0  -0.1442
  C  C112  1  0.167200  0.706800  0.865500  1.0  -0.0409
  C  C113  1  0.219900  0.742800  0.823600  1.0  -0.0677
  C  C114  1  0.265600  0.679500  0.789800  1.0  -0.0451
  C  C115  1  0.253600  0.583700  0.794800  1.0  0.026
  C  C116  1  0.202200  0.548300  0.838700  1.0  -0.1123
  C  C117  1  0.297300  0.530400  0.751600  1.0  0.1784
  C  C118  1  0.363600  0.454300  0.770000  1.0  -0.3513
  C  C119  1  0.128400  0.508400  0.075000  1.0  0.701
  C  C120  1  0.164300  0.553300  0.127000  1.0  -0.099
  C  C121  1  0.131500  0.639400  0.145800  1.0  -0.028
  C  C122  1  0.160200  0.678700  0.191800  1.0  -0.1236
  C  C123  1  0.224600  0.633800  0.224600  1.0  -0.0029
  C  C124  1  0.257500  0.547900  0.204800  1.0  -0.0614
  C  C125  1  0.227600  0.504300  0.156100  1.0  -0.1114
  C  C126  1  0.426000  0.675100  0.422200  1.0  0.7485
  C  C127  1  0.369200  0.665300  0.372300  1.0  -0.1303
  C  C128  1  0.310900  0.733700  0.358700  1.0  -0.0219
  C  C129  1  0.256500  0.730600  0.310100  1.0  -0.084
  C  C130  1  0.269700  0.657200  0.277900  1.0  0.0175
  C  C131  1  0.327600  0.584600  0.290500  1.0  -0.046
  C  C132  1  0.378600  0.587200  0.335400  1.0  -0.092
  C  C133  1  0.323900  0.502600  0.244900  1.0  0.1397
  C  C134  1  0.409200  0.498200  0.217400  1.0  -0.356
  C  C135  1  0.035700  0.181900  0.908500  1.0  0.7537
  C  C136  1  0.083500  0.186800  0.855200  1.0  -0.159
  C  C137  1  0.104900  0.271100  0.831700  1.0  -0.0404
  C  C138  1  0.150100  0.276600  0.782100  1.0  -0.1113
  C  C139  1  0.184200  0.197600  0.759800  1.0  -0.0275
  C  C140  1  0.158500  0.107200  0.781800  1.0  0.0272
  C  C141  1  0.110400  0.104400  0.828800  1.0  -0.1108
  C  C142  1  0.394300  0.072500  0.580700  1.0  0.7405
  C  C143  1  0.338500  0.108100  0.627300  1.0  -0.1447
  C  C144  1  0.332800  0.206800  0.634500  1.0  -0.0416
  C  C145  1  0.280100  0.242800  0.676400  1.0  -0.0688
  C  C146  1  0.234400  0.179500  0.710200  1.0  -0.0435
  C  C147  1  0.246400  0.083700  0.705200  1.0  0.025
  C  C148  1  0.297800  0.048300  0.661300  1.0  -0.1128
  C  C149  1  0.202700  0.030400  0.748400  1.0  0.1765
  C  C150  1  0.136400  0.954300  0.730000  1.0  -0.3516
  C  C151  1  0.628400  0.991600  0.575000  1.0  0.7013
  C  C152  1  0.664300  0.946700  0.627000  1.0  -0.0993
  C  C153  1  0.631500  0.860600  0.645800  1.0  -0.0274
  C  C154  1  0.660200  0.821300  0.691800  1.0  -0.1216
  C  C155  1  0.724600  0.866200  0.724600  1.0  -0.0036
  C  C156  1  0.757500  0.952100  0.704800  1.0  -0.0617
  C  C157  1  0.727600  0.995700  0.656100  1.0  -0.1118
  C  C158  1  0.926000  0.824900  0.922200  1.0  0.748
  C  C159  1  0.869200  0.834700  0.872300  1.0  -0.1307
  C  C160  1  0.810900  0.766300  0.858700  1.0  -0.0209
  C  C161  1  0.756500  0.769400  0.810100  1.0  -0.0839
  C  C162  1  0.769700  0.842800  0.777900  1.0  0.0167
  C  C163  1  0.827600  0.915400  0.790500  1.0  -0.0465
  C  C164  1  0.878600  0.912800  0.835400  1.0  -0.0912
  C  C165  1  0.823900  0.997400  0.744900  1.0  0.1396
  C  C166  1  0.909200  0.001800  0.717400  1.0  -0.3562
  C  C167  1  0.535700  0.318100  0.408500  1.0  0.7551
  C  C168  1  0.583500  0.313200  0.355200  1.0  -0.1588
  C  C169  1  0.604900  0.228900  0.331700  1.0  -0.0404
  C  C170  1  0.650100  0.223400  0.282100  1.0  -0.11
  C  C171  1  0.684200  0.302400  0.259800  1.0  -0.0281
  C  C172  1  0.658500  0.392800  0.281800  1.0  0.0278
  C  C173  1  0.610400  0.395600  0.328800  1.0  -0.1107
  C  C174  1  0.894300  0.427500  0.080700  1.0  0.7401
  C  C175  1  0.838500  0.391900  0.127300  1.0  -0.145
  C  C176  1  0.832800  0.293200  0.134500  1.0  -0.0418
  C  C177  1  0.780100  0.257200  0.176400  1.0  -0.0684
  C  C178  1  0.734400  0.320500  0.210200  1.0  -0.0445
  C  C179  1  0.746400  0.416300  0.205200  1.0  0.0247
  C  C180  1  0.797800  0.451700  0.161300  1.0  -0.1122
  C  C181  1  0.702700  0.469600  0.248400  1.0  0.1765
  C  C182  1  0.636400  0.545700  0.230000  1.0  -0.3511
  C  C183  1  0.871600  0.491600  0.925000  1.0  0.7013
  C  C184  1  0.835700  0.446700  0.873000  1.0  -0.1004
  C  C185  1  0.868500  0.360600  0.854200  1.0  -0.0274
  C  C186  1  0.839800  0.321300  0.808200  1.0  -0.1227
  C  C187  1  0.775400  0.366200  0.775400  1.0  -0.0031
  C  C188  1  0.742500  0.452100  0.795200  1.0  -0.0615
  C  C189  1  0.772400  0.495700  0.843900  1.0  -0.1115
  C  C190  1  0.574000  0.324900  0.577800  1.0  0.7471
  C  C191  1  0.630800  0.334700  0.627700  1.0  -0.1303
  C  C192  1  0.689100  0.266300  0.641300  1.0  -0.0203
  C  C193  1  0.743500  0.269400  0.689900  1.0  -0.0836
  C  C194  1  0.730300  0.342800  0.722100  1.0  0.0177
  C  C195  1  0.672400  0.415400  0.709500  1.0  -0.0459
  C  C196  1  0.621400  0.412800  0.664600  1.0  -0.0913
  C  C197  1  0.676100  0.497400  0.755100  1.0  0.14
  C  C198  1  0.590800  0.501800  0.782600  1.0  -0.3545
  C  C199  1  0.964300  0.818100  0.091500  1.0  0.7548
  C  C200  1  0.916500  0.813200  0.144800  1.0  -0.1586
  C  C201  1  0.895100  0.728900  0.168300  1.0  -0.039
  C  C202  1  0.849900  0.723400  0.217900  1.0  -0.1116
  C  C203  1  0.815800  0.802400  0.240200  1.0  -0.0283
  C  C204  1  0.841500  0.892800  0.218200  1.0  0.0276
  C  C205  1  0.889600  0.895600  0.171200  1.0  -0.1102
  C  C206  1  0.605700  0.927500  0.419300  1.0  0.7438
  C  C207  1  0.661500  0.891900  0.372700  1.0  -0.1444
  C  C208  1  0.667200  0.793200  0.365500  1.0  -0.0418
  C  C209  1  0.719900  0.757200  0.323600  1.0  -0.0681
  C  C210  1  0.765600  0.820500  0.289800  1.0  -0.0456
  C  C211  1  0.753600  0.916300  0.294800  1.0  0.0256
  C  C212  1  0.702200  0.951700  0.338700  1.0  -0.1114
  C  C213  1  0.797300  0.969600  0.251600  1.0  0.1779
  C  C214  1  0.863600  0.045700  0.270000  1.0  -0.3518
  O  O215  1  0.339000  0.932000  0.443600  1.0  -0.6198
  O  O216  1  0.437400  0.042000  0.451200  1.0  -0.8481
  O  O217  1  0.085700  0.243400  0.046800  1.0  -0.7018
  O  O218  1  0.022500  0.112200  0.065700  1.0  -0.6508
  O  O219  1  0.202700  0.921700  0.232700  1.0  -0.5246
  O  O220  1  0.489100  0.757600  0.570000  1.0  -0.6459
  O  O221  1  0.476800  0.602500  0.568500  1.0  -0.7678
  O  O222  1  0.050200  0.627800  0.940100  1.0  -0.6583
  O  O223  1  0.116500  0.484800  0.931700  1.0  -0.7412
  O  O224  1  0.236400  0.490500  0.717400  1.0  -0.5122
  O  O225  1  0.161000  0.432000  0.056400  1.0  -0.6227
  O  O226  1  0.062600  0.542000  0.048800  1.0  -0.8467
  O  O227  1  0.414300  0.743400  0.453200  1.0  -0.7023
  O  O228  1  0.477500  0.612200  0.434300  1.0  -0.65
  O  O229  1  0.297300  0.421700  0.267300  1.0  -0.5226
  O  O230  1  0.010900  0.257600  0.930000  1.0  -0.6455
  O  O231  1  0.023200  0.102500  0.931500  1.0  -0.7665
  O  O232  1  0.449800  0.127800  0.559900  1.0  -0.6594
  O  O233  1  0.383500  0.984800  0.568300  1.0  -0.7436
  O  O234  1  0.263600  0.990500  0.782600  1.0  -0.5166
  O  O235  1  0.661000  0.068000  0.556400  1.0  -0.6215
  O  O236  1  0.562600  0.958000  0.548800  1.0  -0.8429
  O  O237  1  0.914300  0.756600  0.953200  1.0  -0.7024
  O  O238  1  0.977500  0.887800  0.934300  1.0  -0.6506
  O  O239  1  0.797300  0.078300  0.767300  1.0  -0.5233
  O  O240  1  0.510900  0.242400  0.430000  1.0  -0.6459
  O  O241  1  0.523200  0.397500  0.431500  1.0  -0.7658
  O  O242  1  0.949800  0.372200  0.059900  1.0  -0.6587
  O  O243  1  0.883500  0.515200  0.068300  1.0  -0.7428
  O  O244  1  0.763600  0.509500  0.282600  1.0  -0.5155
  O  O245  1  0.839000  0.568000  0.943600  1.0  -0.6211
  O  O246  1  0.937400  0.458000  0.951200  1.0  -0.846
  O  O247  1  0.585700  0.256600  0.546800  1.0  -0.7024
  O  O248  1  0.522500  0.387800  0.565700  1.0  -0.6504
  O  O249  1  0.702700  0.578300  0.732700  1.0  -0.525
  O  O250  1  0.989100  0.742400  0.070000  1.0  -0.6462
  O  O251  1  0.976800  0.897500  0.068500  1.0  -0.7678
  O  O252  1  0.550200  0.872200  0.440100  1.0  -0.6579
  O  O253  1  0.616500  0.015200  0.431700  1.0  -0.7417
  O  O254  1  0.736400  0.009500  0.217400  1.0  -0.5123
