# generated using pymatgen
data_CoH22C35(NO3)2
_symmetry_space_group_name_H-M   'P 1'
_cell_length_a   12.29300000
_cell_length_b   14.53800000
_cell_length_c   18.58300000
_cell_angle_alpha   90.00000000
_cell_angle_beta   90.00000000
_cell_angle_gamma   97.06300000
_symmetry_Int_Tables_number   1
_chemical_formula_structural   CoH22C35(NO3)2
_chemical_formula_sum   'Co4 H88 C140 N8 O24'
_cell_volume   3295.87083079
_cell_formula_units_Z   4
loop_
 _symmetry_equiv_pos_site_id
 _symmetry_equiv_pos_as_xyz
  1  'x, y, z'
loop_
 _atom_site_type_symbol
 _atom_site_label
 _atom_site_symmetry_multiplicity
 _atom_site_fract_x
 _atom_site_fract_y
 _atom_site_fract_z
 _atom_site_occupancy
 _atom_site_charge
  Co  Co1  1  0.000000  0.000000  0.000000  1.0  0.8867
  Co  Co2  1  0.500000  0.500000  0.500000  1.0  0.8356
  Co  Co3  1  0.000000  0.500000  0.500000  1.0  0.8867
  Co  Co4  1  0.500000  0.000000  0.000000  1.0  0.8356
  H  H5  1  0.399400  0.946200  0.270600  1.0  0.1375
  H  H6  1  0.737400  0.429200  0.959000  1.0  0.1391
  H  H7  1  0.960400  0.480200  0.330200  1.0  0.1017
  H  H8  1  0.600600  0.053800  0.729400  1.0  0.1376
  H  H9  1  0.844300  0.642800  0.470100  1.0  0.1046
  H  H10  1  0.338700  0.992600  0.453100  1.0  0.1405
  H  H11  1  0.583200  0.395300  0.772700  1.0  0.1405
  H  H12  1  0.893100  0.059600  0.263300  1.0  0.1263
  H  H13  1  0.661300  0.507400  0.953100  1.0  0.1417
  H  H14  1  0.341400  0.055600  0.752300  1.0  0.1325
  H  H15  1  0.833000  0.381100  0.065300  1.0  0.1245
  H  H16  1  0.883700  0.045900  0.671100  1.0  0.1319
  H  H17  1  0.833000  0.881100  0.434700  1.0  0.1242
  H  H18  1  0.771200  0.724500  0.381300  1.0  0.1254
  H  H19  1  0.748400  0.314800  0.211100  1.0  0.1246
  H  H20  1  0.518500  0.184300  0.364000  1.0  0.1133
  H  H21  1  0.268500  0.738200  0.599500  1.0  0.1251
  H  H22  1  0.213300  0.319100  0.808300  1.0  0.112
  H  H23  1  0.262600  0.070800  0.459000  1.0  0.1399
  H  H24  1  0.112300  0.605800  0.139400  1.0  0.1314
  H  H25  1  0.960400  0.980200  0.169800  1.0  0.1016
  H  H26  1  0.786700  0.180900  0.308300  1.0  0.1115
  H  H27  1  0.268500  0.238200  0.900500  1.0  0.1255
  H  H28  1  0.613700  0.108700  0.445900  1.0  0.1145
  H  H29  1  0.977900  0.273800  0.920900  1.0  0.1255
  H  H30  1  0.576300  0.020700  0.159200  1.0  0.0852
  H  H31  1  0.560300  0.701900  0.823000  1.0  0.1217
  H  H32  1  0.583200  0.895300  0.727300  1.0  0.1405
  H  H33  1  0.251600  0.685200  0.788900  1.0  0.1245
  H  H34  1  0.251600  0.185200  0.711100  1.0  0.1244
  H  H35  1  0.658600  0.944400  0.247700  1.0  0.1318
  H  H36  1  0.116300  0.454100  0.171100  1.0  0.1332
  H  H37  1  0.228800  0.275500  0.618700  1.0  0.1255
  H  H38  1  0.024100  0.658800  0.867200  1.0  0.1183
  H  H39  1  0.613700  0.608700  0.054100  1.0  0.115
  H  H40  1  0.439700  0.798100  0.323000  1.0  0.1212
  H  H41  1  0.844300  0.142800  0.029900  1.0  0.1045
  H  H42  1  0.167000  0.118900  0.565300  1.0  0.124
  H  H43  1  0.352000  0.657300  0.515200  1.0  0.0953
  H  H44  1  0.386300  0.391300  0.945900  1.0  0.1144
  H  H45  1  0.262600  0.570800  0.041000  1.0  0.1376
  H  H46  1  0.112300  0.105800  0.360600  1.0  0.1315
  H  H47  1  0.022100  0.226200  0.420900  1.0  0.1258
  H  H48  1  0.106900  0.440400  0.763300  1.0  0.1267
  H  H49  1  0.386300  0.891300  0.554100  1.0  0.1145
  H  H50  1  0.439700  0.298100  0.177000  1.0  0.1207
  H  H51  1  0.576300  0.520700  0.340800  1.0  0.0856
  H  H52  1  0.116300  0.954100  0.328900  1.0  0.1339
  H  H53  1  0.883700  0.545900  0.828900  1.0  0.1311
  H  H54  1  0.658600  0.444400  0.252300  1.0  0.1327
  H  H55  1  0.975900  0.341200  0.132800  1.0  0.1179
  H  H56  1  0.155700  0.857200  0.970100  1.0  0.1042
  H  H57  1  0.648000  0.842700  0.015200  1.0  0.0956
  H  H58  1  0.600600  0.553800  0.770600  1.0  0.1379
  H  H59  1  0.731500  0.261800  0.400500  1.0  0.1242
  H  H60  1  0.416800  0.604700  0.227300  1.0  0.1403
  H  H61  1  0.648000  0.342700  0.484800  1.0  0.095
  H  H62  1  0.887700  0.894200  0.639400  1.0  0.1317
  H  H63  1  0.167000  0.618900  0.934700  1.0  0.1237
  H  H64  1  0.423700  0.979300  0.840800  1.0  0.0851
  H  H65  1  0.155700  0.357200  0.529900  1.0  0.1043
  H  H66  1  0.399400  0.446200  0.229400  1.0  0.1382
  H  H67  1  0.352000  0.157300  0.984800  1.0  0.0949
  H  H68  1  0.771200  0.224500  0.118700  1.0  0.1251
  H  H69  1  0.661300  0.007400  0.546900  1.0  0.1416
  H  H70  1  0.887700  0.394200  0.860600  1.0  0.131
  H  H71  1  0.106900  0.940400  0.736700  1.0  0.1275
  H  H72  1  0.560300  0.201900  0.677000  1.0  0.1211
  H  H73  1  0.731500  0.761800  0.099500  1.0  0.1243
  H  H74  1  0.022100  0.726200  0.079100  1.0  0.1255
  H  H75  1  0.228800  0.775500  0.881300  1.0  0.1256
  H  H76  1  0.213300  0.819100  0.691700  1.0  0.1119
  H  H77  1  0.024100  0.158800  0.632800  1.0  0.1181
  H  H78  1  0.518500  0.684300  0.136000  1.0  0.1139
  H  H79  1  0.975900  0.841200  0.367200  1.0  0.1177
  H  H80  1  0.338700  0.492600  0.046900  1.0  0.1405
  H  H81  1  0.039600  0.019800  0.830200  1.0  0.1017
  H  H82  1  0.977900  0.773800  0.579100  1.0  0.1244
  H  H83  1  0.481500  0.315700  0.864000  1.0  0.1138
  H  H84  1  0.737400  0.929200  0.541000  1.0  0.1383
  H  H85  1  0.416800  0.104700  0.272700  1.0  0.1399
  H  H86  1  0.748400  0.814800  0.288900  1.0  0.1248
  H  H87  1  0.039600  0.519800  0.669800  1.0  0.1017
  H  H88  1  0.423700  0.479300  0.659200  1.0  0.0846
  H  H89  1  0.786700  0.680900  0.191700  1.0  0.1115
  H  H90  1  0.893100  0.559600  0.236700  1.0  0.1265
  H  H91  1  0.341400  0.555600  0.747700  1.0  0.1316
  H  H92  1  0.481500  0.815700  0.636000  1.0  0.1143
  C  C93  1  0.300830  0.686440  0.613380  1.0  -0.1714
  C  C94  1  0.427570  0.925070  0.589260  1.0  -0.1232
  C  C95  1  0.826820  0.154520  0.203370  1.0  0.1568
  C  C96  1  0.451980  0.072400  0.307080  1.0  -0.148
  C  C97  1  0.026030  0.597100  0.879700  1.0  -0.0941
  C  C98  1  0.893380  0.806220  0.993520  1.0  0.6875
  C  C99  1  0.253210  0.211640  0.756690  1.0  -0.1143
  C  C100  1  0.031710  0.818820  0.561700  1.0  -0.067
  C  C101  1  0.111740  0.573050  0.920430  1.0  -0.1098
  C  C102  1  0.746790  0.288360  0.256690  1.0  -0.1162
  C  C103  1  0.484730  0.379850  0.861400  1.0  -0.0678
  C  C104  1  0.943910  0.938830  0.624410  1.0  -0.1193
  C  C105  1  0.882910  0.578630  0.283780  1.0  -0.1436
  C  C106  1  0.058950  0.470780  0.143330  1.0  -0.1264
  C  C107  1  0.498890  0.428370  0.144060  1.0  0.0484
  C  C108  1  0.501110  0.571630  0.855940  1.0  0.0503
  C  C109  1  0.888260  0.926950  0.420430  1.0  -0.1088
  C  C110  1  0.350970  0.137060  0.937300  1.0  0.1871
  C  C111  1  0.572430  0.574930  0.089260  1.0  -0.1229
  C  C112  1  0.076170  0.469050  0.659330  1.0  0.1847
  C  C113  1  0.941050  0.029220  0.643330  1.0  -0.1274
  C  C114  1  0.030360  0.911600  0.582620  1.0  0.0318
  C  C115  1  0.388730  0.669160  0.956370  1.0  0.2032
  C  C116  1  0.026030  0.097100  0.620300  1.0  -0.0936
  C  C117  1  0.943910  0.438830  0.875590  1.0  -0.1281
  C  C118  1  0.117410  0.480300  0.940970  1.0  0.0249
  C  C119  1  0.106620  0.693780  0.493520  1.0  0.6848
  C  C120  1  0.427570  0.425070  0.910740  1.0  -0.1221
  C  C121  1  0.855120  0.626370  0.422560  1.0  0.1884
  C  C122  1  0.076170  0.969050  0.840670  1.0  0.185
  C  C123  1  0.484730  0.879850  0.638600  1.0  -0.0676
  C  C124  1  0.492300  0.321960  0.590830  1.0  0.6931
  C  C125  1  0.485330  0.330230  0.143110  1.0  -0.0785
  C  C126  1  0.797900  0.046360  0.486050  1.0  0.001
  C  C127  1  0.173180  0.345480  0.703370  1.0  0.1566
  C  C128  1  0.923830  0.030950  0.159330  1.0  0.1864
  C  C129  1  0.393020  0.532590  0.647030  1.0  0.1902
  C  C130  1  0.923830  0.530950  0.340670  1.0  0.1863
  C  C131  1  0.889540  0.706910  0.016250  1.0  -0.1331
  C  C132  1  0.855120  0.126370  0.077440  1.0  0.1886
  C  C133  1  0.606980  0.467410  0.352970  1.0  0.189
  C  C134  1  0.797900  0.546360  0.013950  1.0  0.0015
  C  C135  1  0.628790  0.926720  0.457500  1.0  0.0137
  C  C136  1  0.649030  0.362940  0.437300  1.0  0.1874
  C  C137  1  0.514670  0.169770  0.643110  1.0  -0.0776
  C  C138  1  0.371210  0.073280  0.542500  1.0  0.013
  C  C139  1  0.492300  0.821960  0.909170  1.0  0.6934
  C  C140  1  0.882910  0.078630  0.216220  1.0  -0.1439
  C  C141  1  0.785730  0.206700  0.262500  1.0  -0.1168
  C  C142  1  0.343910  0.078580  0.799010  1.0  -0.1817
  C  C143  1  0.973970  0.902900  0.379700  1.0  -0.0919
  C  C144  1  0.253210  0.711640  0.743310  1.0  -0.1152
  C  C145  1  0.202100  0.953640  0.513950  1.0  0.0002
  C  C146  1  0.515270  0.120150  0.361400  1.0  -0.0667
  C  C147  1  0.537640  0.281430  0.093680  1.0  -0.1635
  C  C148  1  0.811160  0.676410  0.369260  1.0  -0.1785
  C  C149  1  0.805000  0.637950  0.990780  1.0  0.1273
  C  C150  1  0.443030  0.978320  0.305490  1.0  -0.0922
  C  C151  1  0.811160  0.176410  0.130740  1.0  -0.1783
  C  C152  1  0.451980  0.572400  0.192920  1.0  -0.1473
  C  C153  1  0.785730  0.706700  0.237500  1.0  -0.1168
  C  C154  1  0.110460  0.293090  0.983750  1.0  -0.1341
  C  C155  1  0.388730  0.169160  0.543630  1.0  0.1956
  C  C156  1  0.889540  0.206910  0.483750  1.0  -0.134
  C  C157  1  0.498890  0.928370  0.355940  1.0  0.0486
  C  C158  1  0.393020  0.032590  0.852970  1.0  0.1881
  C  C159  1  0.969640  0.588400  0.082620  1.0  0.0319
  C  C160  1  0.941050  0.529220  0.856670  1.0  -0.1265
  C  C161  1  0.699170  0.813560  0.113380  1.0  -0.1715
  C  C162  1  0.110460  0.793090  0.516250  1.0  -0.1336
  C  C163  1  0.501110  0.071630  0.644060  1.0  0.049
  C  C164  1  0.298120  0.159630  0.814820  1.0  0.1302
  C  C165  1  0.030360  0.411600  0.917380  1.0  0.031
  C  C166  1  0.968290  0.681180  0.061700  1.0  -0.066
  C  C167  1  0.300830  0.186440  0.886620  1.0  -0.1718
  C  C168  1  0.656090  0.421420  0.299010  1.0  -0.1714
  C  C169  1  0.058950  0.970780  0.356670  1.0  -0.1279
  C  C170  1  0.031710  0.318820  0.938300  1.0  -0.071
  C  C171  1  0.569270  0.476630  0.091340  1.0  0.031
  C  C172  1  0.701880  0.840370  0.185180  1.0  0.13
  C  C173  1  0.826820  0.654520  0.296630  1.0  0.157
  C  C174  1  0.968290  0.181180  0.438300  1.0  -0.0726
  C  C175  1  0.195000  0.362050  0.009220  1.0  0.1276
  C  C176  1  0.973970  0.402900  0.120300  1.0  -0.0935
  C  C177  1  0.294830  0.524060  0.013720  1.0  -0.1463
  C  C178  1  0.882590  0.519700  0.059030  1.0  0.0242
  C  C179  1  0.117090  0.921370  0.783780  1.0  -0.1437
  C  C180  1  0.572430  0.074930  0.410740  1.0  -0.1229
  C  C181  1  0.705170  0.975940  0.513720  1.0  -0.147
  C  C182  1  0.611270  0.830840  0.456370  1.0  0.1963
  C  C183  1  0.298120  0.659630  0.685180  1.0  0.1301
  C  C184  1  0.556970  0.521680  0.805490  1.0  -0.0898
  C  C185  1  0.462360  0.218570  0.593680  1.0  -0.1634
  C  C186  1  0.485330  0.830230  0.356890  1.0  -0.0784
  C  C187  1  0.548020  0.427600  0.807080  1.0  -0.1472
  C  C188  1  0.628790  0.426720  0.042500  1.0  0.013
  C  C189  1  0.701880  0.340370  0.314820  1.0  0.1301
  C  C190  1  0.188840  0.823590  0.869260  1.0  -0.1797
  C  C191  1  0.173180  0.845480  0.796630  1.0  0.1558
  C  C192  1  0.144880  0.373630  0.577440  1.0  0.1884
  C  C193  1  0.195000  0.862050  0.490780  1.0  0.1281
  C  C194  1  0.188840  0.323590  0.630740  1.0  -0.1791
  C  C195  1  0.443030  0.478320  0.194510  1.0  -0.0888
  C  C196  1  0.350970  0.637060  0.562700  1.0  0.1867
  C  C197  1  0.202100  0.453640  0.986050  1.0  -0.0002
  C  C198  1  0.056090  0.561170  0.124410  1.0  -0.1205
  C  C199  1  0.343910  0.578580  0.700990  1.0  -0.1737
  C  C200  1  0.515270  0.620150  0.138600  1.0  -0.066
  C  C201  1  0.462360  0.718570  0.906320  1.0  -0.1635
  C  C202  1  0.294830  0.024060  0.486280  1.0  -0.1463
  C  C203  1  0.548020  0.927600  0.692920  1.0  -0.1476
  C  C204  1  0.144880  0.873630  0.922560  1.0  0.188
  C  C205  1  0.214270  0.793300  0.737500  1.0  -0.1161
  C  C206  1  0.507700  0.678040  0.409170  1.0  0.6943
  C  C207  1  0.556970  0.021680  0.694510  1.0  -0.0967
  C  C208  1  0.882590  0.019700  0.440970  1.0  0.0255
  C  C209  1  0.214270  0.293300  0.762500  1.0  -0.1156
  C  C210  1  0.537640  0.781430  0.406320  1.0  -0.163
  C  C211  1  0.117410  0.980300  0.559030  1.0  0.0239
  C  C212  1  0.106620  0.193780  0.006480  1.0  0.6863
  C  C213  1  0.514670  0.669770  0.856890  1.0  -0.0779
  C  C214  1  0.888260  0.426950  0.079570  1.0  -0.1092
  C  C215  1  0.111740  0.073050  0.579570  1.0  -0.1092
  C  C216  1  0.371210  0.573280  0.957500  1.0  0.0141
  C  C217  1  0.699170  0.313560  0.386620  1.0  -0.1718
  C  C218  1  0.705170  0.475940  0.986280  1.0  -0.1461
  C  C219  1  0.606980  0.967410  0.147030  1.0  0.188
  C  C220  1  0.430730  0.023370  0.591340  1.0  0.0334
  C  C221  1  0.430730  0.523370  0.908660  1.0  0.033
  C  C222  1  0.656090  0.921420  0.200990  1.0  -0.1837
  C  C223  1  0.611270  0.330840  0.043630  1.0  0.1978
  C  C224  1  0.746790  0.788360  0.243310  1.0  -0.116
  C  C225  1  0.893380  0.306220  0.506480  1.0  0.6871
  C  C226  1  0.969640  0.088400  0.417380  1.0  0.0321
  C  C227  1  0.649030  0.862940  0.062700  1.0  0.188
  C  C228  1  0.507700  0.178040  0.090830  1.0  0.6943
  C  C229  1  0.805000  0.137950  0.509220  1.0  0.1262
  C  C230  1  0.117090  0.421370  0.716220  1.0  -0.143
  C  C231  1  0.056090  0.061170  0.375590  1.0  -0.1294
  C  C232  1  0.569270  0.976630  0.408660  1.0  0.0307
  N  N233  1  0.601110  0.439480  0.421720  1.0  -0.3309
  N  N234  1  0.086940  0.945300  0.909810  1.0  -0.3184
  N  N235  1  0.398890  0.060520  0.921720  1.0  -0.3293
  N  N236  1  0.601110  0.939480  0.078280  1.0  -0.3319
  N  N237  1  0.086940  0.445300  0.590190  1.0  -0.3181
  N  N238  1  0.913060  0.054700  0.090190  1.0  -0.3188
  N  N239  1  0.913060  0.554700  0.409810  1.0  -0.3155
  N  N240  1  0.398890  0.560520  0.578280  1.0  -0.334
  O  O241  1  0.561590  0.359130  0.634410  1.0  -0.5576
  O  O242  1  0.272010  0.837970  0.444090  1.0  -0.523
  O  O243  1  0.446790  0.866110  0.958170  1.0  -0.6115
  O  O244  1  0.727990  0.162030  0.555910  1.0  -0.5216
  O  O245  1  0.553210  0.633890  0.458170  1.0  -0.6115
  O  O246  1  0.333640  0.718430  0.004600  1.0  -0.5567
  O  O247  1  0.045910  0.634370  0.528800  1.0  -0.5808
  O  O248  1  0.165450  0.176150  0.059810  1.0  -0.574
  O  O249  1  0.954090  0.365630  0.471200  1.0  -0.5811
  O  O250  1  0.954090  0.865630  0.028800  1.0  -0.5808
  O  O251  1  0.045910  0.134370  0.971200  1.0  -0.5815
  O  O252  1  0.666360  0.281570  0.995400  1.0  -0.5534
  O  O253  1  0.727990  0.662030  0.944090  1.0  -0.5238
  O  O254  1  0.446790  0.366110  0.541830  1.0  -0.6106
  O  O255  1  0.272010  0.337970  0.055910  1.0  -0.5222
  O  O256  1  0.666360  0.781570  0.504600  1.0  -0.5567
  O  O257  1  0.165450  0.676150  0.440190  1.0  -0.5722
  O  O258  1  0.834550  0.823850  0.940190  1.0  -0.5737
  O  O259  1  0.561590  0.859130  0.865590  1.0  -0.5559
  O  O260  1  0.333640  0.218430  0.495400  1.0  -0.5545
  O  O261  1  0.553210  0.133890  0.041830  1.0  -0.6108
  O  O262  1  0.438410  0.140870  0.134410  1.0  -0.5537
  O  O263  1  0.438410  0.640870  0.365590  1.0  -0.5552
  O  O264  1  0.834550  0.323850  0.559810  1.0  -0.5737
