# generated using pymatgen
data_Eu2ZnH18C36(NO2)6
_symmetry_space_group_name_H-M   'P 1'
_cell_length_a   17.07120000
_cell_length_b   16.98100000
_cell_length_c   20.38320000
_cell_angle_alpha   90.00000000
_cell_angle_beta   108.07300000
_cell_angle_gamma   90.00000000
_symmetry_Int_Tables_number   1
_chemical_formula_structural   Eu2ZnH18C36(NO2)6
_chemical_formula_sum   'Eu8 Zn4 H72 C144 N24 O48'
_cell_volume   5617.27681329
_cell_formula_units_Z   4
loop_
 _symmetry_equiv_pos_site_id
 _symmetry_equiv_pos_as_xyz
  1  'x, y, z'
loop_
 _atom_site_type_symbol
 _atom_site_label
 _atom_site_symmetry_multiplicity
 _atom_site_fract_x
 _atom_site_fract_y
 _atom_site_fract_z
 _atom_site_occupancy
 _atom_site_charge
  Eu  Eu1  1  0.494460  0.062270  0.582590  1.0  2.0981
  Eu  Eu2  1  0.994460  0.562270  0.582590  1.0  2.0981
  Eu  Eu3  1  0.505540  0.062270  0.917410  1.0  2.0983
  Eu  Eu4  1  0.005540  0.562270  0.917410  1.0  2.0983
  Eu  Eu5  1  0.505540  0.937730  0.417410  1.0  2.0988
  Eu  Eu6  1  0.005540  0.437730  0.417410  1.0  2.0988
  Eu  Eu7  1  0.494460  0.937730  0.082590  1.0  2.0982
  Eu  Eu8  1  0.994460  0.437730  0.082590  1.0  2.0982
  Zn  Zn9  1  0.500000  0.559940  0.750000  1.0  0.6953
  Zn  Zn10  1  0.000000  0.059940  0.750000  1.0  0.6953
  Zn  Zn11  1  0.500000  0.440060  0.250000  1.0  0.6956
  Zn  Zn12  1  0.000000  0.940060  0.250000  1.0  0.6956
  H  H13  1  0.391100  0.330300  0.603500  1.0  0.1099
  H  H14  1  0.638600  0.444400  0.719000  1.0  0.0721
  H  H15  1  0.637800  0.317200  0.678800  1.0  0.1125
  H  H16  1  0.296900  0.425200  0.553200  1.0  0.1014
  H  H17  1  0.202400  0.622500  0.605000  1.0  0.1168
  H  H18  1  0.324800  0.642600  0.690800  1.0  0.071
  H  H19  1  0.561200  0.604100  0.622000  1.0  0.0862
  H  H20  1  0.562200  0.714400  0.556000  1.0  0.1088
  H  H21  1  0.498900  0.843500  0.697000  1.0  0.1089
  H  H22  1  0.891100  0.830300  0.603500  1.0  0.1099
  H  H23  1  0.138600  0.944400  0.719000  1.0  0.0721
  H  H24  1  0.137800  0.817200  0.678800  1.0  0.1125
  H  H25  1  0.796900  0.925200  0.553200  1.0  0.1014
  H  H26  1  0.702400  0.122500  0.605000  1.0  0.1168
  H  H27  1  0.824800  0.142600  0.690800  1.0  0.071
  H  H28  1  0.061200  0.104100  0.622000  1.0  0.0862
  H  H29  1  0.062200  0.214400  0.556000  1.0  0.1088
  H  H30  1  0.998900  0.343500  0.697000  1.0  0.1089
  H  H31  1  0.608900  0.330300  0.896500  1.0  0.1094
  H  H32  1  0.361400  0.444400  0.781000  1.0  0.0715
  H  H33  1  0.362200  0.317200  0.821200  1.0  0.1133
  H  H34  1  0.703100  0.425200  0.946800  1.0  0.1016
  H  H35  1  0.797600  0.622500  0.895000  1.0  0.1166
  H  H36  1  0.675200  0.642600  0.809200  1.0  0.0712
  H  H37  1  0.438800  0.604100  0.878000  1.0  0.0862
  H  H38  1  0.437800  0.714400  0.944000  1.0  0.1093
  H  H39  1  0.501100  0.843500  0.803000  1.0  0.1099
  H  H40  1  0.108900  0.830300  0.896500  1.0  0.1094
  H  H41  1  0.861400  0.944400  0.781000  1.0  0.0715
  H  H42  1  0.862200  0.817200  0.821200  1.0  0.1133
  H  H43  1  0.203100  0.925200  0.946800  1.0  0.1016
  H  H44  1  0.297600  0.122500  0.895000  1.0  0.1166
  H  H45  1  0.175200  0.142600  0.809200  1.0  0.0712
  H  H46  1  0.938800  0.104100  0.878000  1.0  0.0862
  H  H47  1  0.937800  0.214400  0.944000  1.0  0.1093
  H  H48  1  0.001100  0.343500  0.803000  1.0  0.1099
  H  H49  1  0.608900  0.669700  0.396500  1.0  0.1094
  H  H50  1  0.361400  0.555600  0.281000  1.0  0.0716
  H  H51  1  0.362200  0.682800  0.321200  1.0  0.113
  H  H52  1  0.703100  0.574800  0.446800  1.0  0.1019
  H  H53  1  0.797600  0.377500  0.395000  1.0  0.1167
  H  H54  1  0.675200  0.357400  0.309200  1.0  0.0705
  H  H55  1  0.438800  0.395900  0.378000  1.0  0.086
  H  H56  1  0.437800  0.285600  0.444000  1.0  0.1091
  H  H57  1  0.501100  0.156500  0.303000  1.0  0.1094
  H  H58  1  0.108900  0.169700  0.396500  1.0  0.1094
  H  H59  1  0.861400  0.055600  0.281000  1.0  0.0716
  H  H60  1  0.862200  0.182800  0.321200  1.0  0.113
  H  H61  1  0.203100  0.074800  0.446800  1.0  0.1019
  H  H62  1  0.297600  0.877500  0.395000  1.0  0.1167
  H  H63  1  0.175200  0.857400  0.309200  1.0  0.0705
  H  H64  1  0.938800  0.895900  0.378000  1.0  0.086
  H  H65  1  0.937800  0.785600  0.444000  1.0  0.1091
  H  H66  1  0.001100  0.656500  0.303000  1.0  0.1094
  H  H67  1  0.391100  0.669700  0.103500  1.0  0.1097
  H  H68  1  0.638600  0.555600  0.219000  1.0  0.0722
  H  H69  1  0.637800  0.682800  0.178800  1.0  0.1128
  H  H70  1  0.296900  0.574800  0.053200  1.0  0.1017
  H  H71  1  0.202400  0.377500  0.105000  1.0  0.1167
  H  H72  1  0.324800  0.357400  0.190800  1.0  0.0709
  H  H73  1  0.561200  0.395900  0.122000  1.0  0.086
  H  H74  1  0.562200  0.285600  0.056000  1.0  0.1088
  H  H75  1  0.498900  0.156500  0.197000  1.0  0.11
  H  H76  1  0.891100  0.169700  0.103500  1.0  0.1097
  H  H77  1  0.138600  0.055600  0.219000  1.0  0.0722
  H  H78  1  0.137800  0.182800  0.178800  1.0  0.1128
  H  H79  1  0.796900  0.074800  0.053200  1.0  0.1017
  H  H80  1  0.702400  0.877500  0.105000  1.0  0.1167
  H  H81  1  0.824800  0.857400  0.190800  1.0  0.0709
  H  H82  1  0.061200  0.895900  0.122000  1.0  0.086
  H  H83  1  0.062200  0.785600  0.056000  1.0  0.1088
  H  H84  1  0.998900  0.656500  0.197000  1.0  0.11
  C  C85  1  0.512800  0.309300  0.638800  1.0  -0.1263
  C  C86  1  0.442100  0.352800  0.626100  1.0  -0.1166
  C  C87  1  0.447500  0.430600  0.647300  1.0  0.1726
  C  C88  1  0.588600  0.421200  0.695100  1.0  0.1431
  C  C89  1  0.588700  0.344500  0.672200  1.0  -0.1421
  C  C90  1  0.373400  0.482100  0.634400  1.0  0.113
  C  C91  1  0.301100  0.468700  0.581800  1.0  -0.0964
  C  C92  1  0.236000  0.518400  0.571300  1.0  -0.119
  C  C93  1  0.245100  0.586200  0.612300  1.0  -0.149
  C  C94  1  0.318400  0.597900  0.663400  1.0  0.1567
  C  C95  1  0.548100  0.652800  0.636600  1.0  0.1475
  C  C96  1  0.549600  0.718600  0.597100  1.0  -0.1286
  C  C97  1  0.531900  0.790100  0.620300  1.0  -0.167
  C  C98  1  0.511700  0.795200  0.681300  1.0  -0.0901
  C  C99  1  0.511300  0.727900  0.717500  1.0  0.1474
  C  C100  1  0.527700  0.864300  0.578000  1.0  0.7581
  C  C101  1  0.154900  0.499900  0.517600  1.0  0.7284
  C  C102  1  0.509200  0.224200  0.619600  1.0  0.6817
  C  C103  1  0.012800  0.809300  0.638800  1.0  -0.1263
  C  C104  1  0.942100  0.852800  0.626100  1.0  -0.1166
  C  C105  1  0.947500  0.930600  0.647300  1.0  0.1726
  C  C106  1  0.088600  0.921200  0.695100  1.0  0.1431
  C  C107  1  0.088700  0.844500  0.672200  1.0  -0.1421
  C  C108  1  0.873400  0.982100  0.634400  1.0  0.113
  C  C109  1  0.801100  0.968700  0.581800  1.0  -0.0964
  C  C110  1  0.736000  0.018400  0.571300  1.0  -0.119
  C  C111  1  0.745100  0.086200  0.612300  1.0  -0.149
  C  C112  1  0.818400  0.097900  0.663400  1.0  0.1567
  C  C113  1  0.048100  0.152800  0.636600  1.0  0.1475
  C  C114  1  0.049600  0.218600  0.597100  1.0  -0.1286
  C  C115  1  0.031900  0.290100  0.620300  1.0  -0.167
  C  C116  1  0.011700  0.295200  0.681300  1.0  -0.0901
  C  C117  1  0.011300  0.227900  0.717500  1.0  0.1474
  C  C118  1  0.027700  0.364300  0.578000  1.0  0.7581
  C  C119  1  0.654900  0.999900  0.517600  1.0  0.7284
  C  C120  1  0.009200  0.724200  0.619600  1.0  0.6817
  C  C121  1  0.487200  0.309300  0.861200  1.0  -0.1263
  C  C122  1  0.557900  0.352800  0.873900  1.0  -0.1175
  C  C123  1  0.552500  0.430600  0.852700  1.0  0.1721
  C  C124  1  0.411400  0.421200  0.804900  1.0  0.1403
  C  C125  1  0.411300  0.344500  0.827800  1.0  -0.1409
  C  C126  1  0.626600  0.482100  0.865600  1.0  0.1121
  C  C127  1  0.698900  0.468700  0.918200  1.0  -0.0994
  C  C128  1  0.764000  0.518400  0.928700  1.0  -0.1172
  C  C129  1  0.754900  0.586200  0.887700  1.0  -0.1489
  C  C130  1  0.681600  0.597900  0.836600  1.0  0.1573
  C  C131  1  0.451900  0.652800  0.863400  1.0  0.1458
  C  C132  1  0.450400  0.718600  0.902900  1.0  -0.1285
  C  C133  1  0.468100  0.790100  0.879700  1.0  -0.1675
  C  C134  1  0.488300  0.795200  0.818700  1.0  -0.0889
  C  C135  1  0.488700  0.727900  0.782500  1.0  0.1464
  C  C136  1  0.472300  0.864300  0.922000  1.0  0.7578
  C  C137  1  0.845100  0.499900  0.982400  1.0  0.7266
  C  C138  1  0.490800  0.224200  0.880400  1.0  0.682
  C  C139  1  0.987200  0.809300  0.861200  1.0  -0.1263
  C  C140  1  0.057900  0.852800  0.873900  1.0  -0.1175
  C  C141  1  0.052500  0.930600  0.852700  1.0  0.1721
  C  C142  1  0.911400  0.921200  0.804900  1.0  0.1403
  C  C143  1  0.911300  0.844500  0.827800  1.0  -0.1409
  C  C144  1  0.126600  0.982100  0.865600  1.0  0.1121
  C  C145  1  0.198900  0.968700  0.918200  1.0  -0.0994
  C  C146  1  0.264000  0.018400  0.928700  1.0  -0.1172
  C  C147  1  0.254900  0.086200  0.887700  1.0  -0.1489
  C  C148  1  0.181600  0.097900  0.836600  1.0  0.1573
  C  C149  1  0.951900  0.152800  0.863400  1.0  0.1458
  C  C150  1  0.950400  0.218600  0.902900  1.0  -0.1285
  C  C151  1  0.968100  0.290100  0.879700  1.0  -0.1675
  C  C152  1  0.988300  0.295200  0.818700  1.0  -0.0889
  C  C153  1  0.988700  0.227900  0.782500  1.0  0.1464
  C  C154  1  0.972300  0.364300  0.922000  1.0  0.7578
  C  C155  1  0.345100  0.999900  0.982400  1.0  0.7266
  C  C156  1  0.990800  0.724200  0.880400  1.0  0.682
  C  C157  1  0.487200  0.690700  0.361200  1.0  -0.1262
  C  C158  1  0.557900  0.647200  0.373900  1.0  -0.1175
  C  C159  1  0.552500  0.569400  0.352700  1.0  0.1728
  C  C160  1  0.411400  0.578800  0.304900  1.0  0.1403
  C  C161  1  0.411300  0.655500  0.327800  1.0  -0.1429
  C  C162  1  0.626600  0.517900  0.365600  1.0  0.1123
  C  C163  1  0.698900  0.531300  0.418200  1.0  -0.0993
  C  C164  1  0.764000  0.481600  0.428700  1.0  -0.1171
  C  C165  1  0.754900  0.413800  0.387700  1.0  -0.149
  C  C166  1  0.681600  0.402100  0.336600  1.0  0.1564
  C  C167  1  0.451900  0.347200  0.363400  1.0  0.1446
  C  C168  1  0.450400  0.281400  0.402900  1.0  -0.1291
  C  C169  1  0.468100  0.209900  0.379700  1.0  -0.1672
  C  C170  1  0.488300  0.204800  0.318700  1.0  -0.0886
  C  C171  1  0.488700  0.272100  0.282500  1.0  0.1458
  C  C172  1  0.472300  0.135700  0.422000  1.0  0.7574
  C  C173  1  0.845100  0.500100  0.482400  1.0  0.7267
  C  C174  1  0.490800  0.775800  0.380400  1.0  0.6805
  C  C175  1  0.987200  0.190700  0.361200  1.0  -0.1262
  C  C176  1  0.057900  0.147200  0.373900  1.0  -0.1175
  C  C177  1  0.052500  0.069400  0.352700  1.0  0.1728
  C  C178  1  0.911400  0.078800  0.304900  1.0  0.1403
  C  C179  1  0.911300  0.155500  0.327800  1.0  -0.1429
  C  C180  1  0.126600  0.017900  0.365600  1.0  0.1123
  C  C181  1  0.198900  0.031300  0.418200  1.0  -0.0993
  C  C182  1  0.264000  0.981600  0.428700  1.0  -0.1171
  C  C183  1  0.254900  0.913800  0.387700  1.0  -0.149
  C  C184  1  0.181600  0.902100  0.336600  1.0  0.1564
  C  C185  1  0.951900  0.847200  0.363400  1.0  0.1446
  C  C186  1  0.950400  0.781400  0.402900  1.0  -0.1291
  C  C187  1  0.968100  0.709900  0.379700  1.0  -0.1672
  C  C188  1  0.988300  0.704800  0.318700  1.0  -0.0886
  C  C189  1  0.988700  0.772100  0.282500  1.0  0.1458
  C  C190  1  0.972300  0.635700  0.422000  1.0  0.7574
  C  C191  1  0.345100  0.000100  0.482400  1.0  0.7267
  C  C192  1  0.990800  0.275800  0.380400  1.0  0.6805
  C  C193  1  0.512800  0.690700  0.138800  1.0  -0.1265
  C  C194  1  0.442100  0.647200  0.126100  1.0  -0.1165
  C  C195  1  0.447500  0.569400  0.147300  1.0  0.1718
  C  C196  1  0.588600  0.578800  0.195100  1.0  0.1424
  C  C197  1  0.588700  0.655500  0.172200  1.0  -0.1412
  C  C198  1  0.373400  0.517900  0.134400  1.0  0.1133
  C  C199  1  0.301100  0.531300  0.081800  1.0  -0.0976
  C  C200  1  0.236000  0.481600  0.071300  1.0  -0.1189
  C  C201  1  0.245100  0.413800  0.112300  1.0  -0.1482
  C  C202  1  0.318400  0.402100  0.163400  1.0  0.1567
  C  C203  1  0.548100  0.347200  0.136600  1.0  0.1466
  C  C204  1  0.549600  0.281400  0.097100  1.0  -0.1292
  C  C205  1  0.531900  0.209900  0.120300  1.0  -0.1676
  C  C206  1  0.511700  0.204800  0.181300  1.0  -0.09
  C  C207  1  0.511300  0.272100  0.217500  1.0  0.1476
  C  C208  1  0.527700  0.135700  0.078000  1.0  0.7577
  C  C209  1  0.154900  0.500100  0.017600  1.0  0.7285
  C  C210  1  0.509200  0.775800  0.119600  1.0  0.6803
  C  C211  1  0.012800  0.190700  0.138800  1.0  -0.1265
  C  C212  1  0.942100  0.147200  0.126100  1.0  -0.1165
  C  C213  1  0.947500  0.069400  0.147300  1.0  0.1718
  C  C214  1  0.088600  0.078800  0.195100  1.0  0.1424
  C  C215  1  0.088700  0.155500  0.172200  1.0  -0.1412
  C  C216  1  0.873400  0.017900  0.134400  1.0  0.1133
  C  C217  1  0.801100  0.031300  0.081800  1.0  -0.0976
  C  C218  1  0.736000  0.981600  0.071300  1.0  -0.1189
  C  C219  1  0.745100  0.913800  0.112300  1.0  -0.1482
  C  C220  1  0.818400  0.902100  0.163400  1.0  0.1567
  C  C221  1  0.048100  0.847200  0.136600  1.0  0.1466
  C  C222  1  0.049600  0.781400  0.097100  1.0  -0.1292
  C  C223  1  0.031900  0.709900  0.120300  1.0  -0.1676
  C  C224  1  0.011700  0.704800  0.181300  1.0  -0.09
  C  C225  1  0.011300  0.772100  0.217500  1.0  0.1476
  C  C226  1  0.027700  0.635700  0.078000  1.0  0.7577
  C  C227  1  0.654900  0.000100  0.017600  1.0  0.7285
  C  C228  1  0.009200  0.275800  0.119600  1.0  0.6803
  N  N229  1  0.519600  0.463400  0.684400  1.0  -0.3403
  N  N230  1  0.381100  0.546900  0.675000  1.0  -0.3466
  N  N231  1  0.528400  0.656700  0.695800  1.0  -0.3356
  N  N232  1  0.019600  0.963400  0.684400  1.0  -0.3403
  N  N233  1  0.881100  0.046900  0.675000  1.0  -0.3466
  N  N234  1  0.028400  0.156700  0.695800  1.0  -0.3356
  N  N235  1  0.480400  0.463400  0.815600  1.0  -0.3413
  N  N236  1  0.618900  0.546900  0.825000  1.0  -0.3469
  N  N237  1  0.471600  0.656700  0.804200  1.0  -0.3358
  N  N238  1  0.980400  0.963400  0.815600  1.0  -0.3413
  N  N239  1  0.118900  0.046900  0.825000  1.0  -0.3469
  N  N240  1  0.971600  0.156700  0.804200  1.0  -0.3358
  N  N241  1  0.480400  0.536600  0.315600  1.0  -0.3403
  N  N242  1  0.618900  0.453100  0.325000  1.0  -0.3457
  N  N243  1  0.471600  0.343300  0.304200  1.0  -0.3362
  N  N244  1  0.980400  0.036600  0.315600  1.0  -0.3403
  N  N245  1  0.118900  0.953100  0.325000  1.0  -0.3457
  N  N246  1  0.971600  0.843300  0.304200  1.0  -0.3362
  N  N247  1  0.519600  0.536600  0.184400  1.0  -0.3394
  N  N248  1  0.381100  0.453100  0.175000  1.0  -0.3451
  N  N249  1  0.528400  0.343300  0.195800  1.0  -0.3345
  N  N250  1  0.019600  0.036600  0.184400  1.0  -0.3394
  N  N251  1  0.881100  0.953100  0.175000  1.0  -0.3451
  N  N252  1  0.028400  0.843300  0.195800  1.0  -0.3345
  O  O253  1  0.571000  0.189900  0.612100  1.0  -0.6307
  O  O254  1  0.442100  0.188300  0.610800  1.0  -0.6659
  O  O255  1  0.155100  0.457000  0.467300  1.0  -0.6531
  O  O256  1  0.089800  0.525700  0.525200  1.0  -0.8149
  O  O257  1  0.511600  0.926900  0.604900  1.0  -0.7422
  O  O258  1  0.540500  0.858900  0.520800  1.0  -0.71
  O  O259  1  0.071000  0.689900  0.612100  1.0  -0.6314
  O  O260  1  0.942100  0.688300  0.610800  1.0  -0.6662
  O  O261  1  0.655100  0.957000  0.467300  1.0  -0.6531
  O  O262  1  0.589800  0.025700  0.525200  1.0  -0.8149
  O  O263  1  0.011600  0.426900  0.604900  1.0  -0.7422
  O  O264  1  0.040500  0.358900  0.520800  1.0  -0.71
  O  O265  1  0.429000  0.189900  0.887900  1.0  -0.6293
  O  O266  1  0.557900  0.188300  0.889200  1.0  -0.6656
  O  O267  1  0.844900  0.457000  0.032700  1.0  -0.6577
  O  O268  1  0.910200  0.525700  0.974800  1.0  -0.8155
  O  O269  1  0.488400  0.926900  0.895100  1.0  -0.7435
  O  O270  1  0.459500  0.858900  0.979200  1.0  -0.709
  O  O271  1  0.929000  0.689900  0.887900  1.0  -0.63
  O  O272  1  0.057900  0.688300  0.889200  1.0  -0.6658
  O  O273  1  0.344900  0.957000  0.032700  1.0  -0.6577
  O  O274  1  0.410200  0.025700  0.974800  1.0  -0.8155
  O  O275  1  0.988400  0.426900  0.895100  1.0  -0.7435
  O  O276  1  0.959500  0.358900  0.979200  1.0  -0.709
  O  O277  1  0.429000  0.810100  0.387900  1.0  -0.6293
  O  O278  1  0.557900  0.811700  0.389200  1.0  -0.667
  O  O279  1  0.844900  0.543000  0.532700  1.0  -0.6583
  O  O280  1  0.910200  0.474300  0.474800  1.0  -0.8144
  O  O281  1  0.488400  0.073100  0.395100  1.0  -0.7431
  O  O282  1  0.459500  0.141100  0.479200  1.0  -0.7095
  O  O283  1  0.929000  0.310100  0.387900  1.0  -0.6291
  O  O284  1  0.057900  0.311700  0.389200  1.0  -0.6668
  O  O285  1  0.344900  0.043000  0.532700  1.0  -0.6583
  O  O286  1  0.410200  0.974300  0.474800  1.0  -0.8144
  O  O287  1  0.988400  0.573100  0.395100  1.0  -0.7431
  O  O288  1  0.959500  0.641100  0.479200  1.0  -0.7095
  O  O289  1  0.571000  0.810100  0.112100  1.0  -0.6308
  O  O290  1  0.442100  0.811700  0.110800  1.0  -0.6671
  O  O291  1  0.155100  0.543000  0.967300  1.0  -0.6547
  O  O292  1  0.089800  0.474300  0.025200  1.0  -0.8141
  O  O293  1  0.511600  0.073100  0.104900  1.0  -0.7416
  O  O294  1  0.540500  0.141100  0.020800  1.0  -0.7091
  O  O295  1  0.071000  0.310100  0.112100  1.0  -0.6306
  O  O296  1  0.942100  0.311700  0.110800  1.0  -0.667
  O  O297  1  0.655100  0.043000  0.967300  1.0  -0.6547
  O  O298  1  0.589800  0.974300  0.025200  1.0  -0.8141
  O  O299  1  0.011600  0.573100  0.104900  1.0  -0.7416
  O  O300  1  0.040500  0.641100  0.020800  1.0  -0.7091
