# generated using pymatgen
data_Tb2ZnH18C36(NO2)6
_symmetry_space_group_name_H-M   'P 1'
_cell_length_a   17.07780000
_cell_length_b   16.92840000
_cell_length_c   20.33850000
_cell_angle_alpha   90.00000000
_cell_angle_beta   108.11500000
_cell_angle_gamma   90.00000000
_symmetry_Int_Tables_number   1
_chemical_formula_structural   Tb2ZnH18C36(NO2)6
_chemical_formula_sum   'Tb8 Zn4 H72 C144 N24 O48'
_cell_volume   5588.41803763
_cell_formula_units_Z   4
loop_
 _symmetry_equiv_pos_site_id
 _symmetry_equiv_pos_as_xyz
  1  'x, y, z'
loop_
 _atom_site_type_symbol
 _atom_site_label
 _atom_site_symmetry_multiplicity
 _atom_site_fract_x
 _atom_site_fract_y
 _atom_site_fract_z
 _atom_site_occupancy
 _atom_site_charge
  Tb  Tb1  1  0.494450  0.062050  0.582350  1.0  2.2001
  Tb  Tb2  1  0.994450  0.562050  0.582350  1.0  2.2049
  Tb  Tb3  1  0.505550  0.062050  0.917650  1.0  2.2005
  Tb  Tb4  1  0.005550  0.562050  0.917650  1.0  2.2061
  Tb  Tb5  1  0.505550  0.937950  0.417650  1.0  2.2061
  Tb  Tb6  1  0.005550  0.437950  0.417650  1.0  2.213
  Tb  Tb7  1  0.494450  0.937950  0.082350  1.0  2.2048
  Tb  Tb8  1  0.994450  0.437950  0.082350  1.0  2.2112
  Zn  Zn9  1  0.500000  0.559930  0.750000  1.0  0.6822
  Zn  Zn10  1  0.000000  0.059930  0.750000  1.0  0.6822
  Zn  Zn11  1  0.500000  0.440070  0.250000  1.0  0.6825
  Zn  Zn12  1  0.000000  0.940070  0.250000  1.0  0.6825
  H  H13  1  0.389800  0.330900  0.601000  1.0  0.1056
  H  H14  1  0.638500  0.443600  0.718000  1.0  0.0685
  H  H15  1  0.636300  0.316100  0.678300  1.0  0.107
  H  H16  1  0.296200  0.423600  0.552800  1.0  0.1072
  H  H17  1  0.202400  0.623000  0.606000  1.0  0.1131
  H  H18  1  0.325700  0.642700  0.690900  1.0  0.0687
  H  H19  1  0.560700  0.603800  0.622200  1.0  0.068
  H  H20  1  0.562600  0.713100  0.555800  1.0  0.1057
  H  H21  1  0.500700  0.844500  0.698000  1.0  0.0962
  H  H22  1  0.889800  0.830900  0.601000  1.0  0.1056
  H  H23  1  0.138500  0.943600  0.718000  1.0  0.0685
  H  H24  1  0.136300  0.816100  0.678300  1.0  0.107
  H  H25  1  0.796200  0.923600  0.552800  1.0  0.1072
  H  H26  1  0.702400  0.123000  0.606000  1.0  0.1131
  H  H27  1  0.825700  0.142700  0.690900  1.0  0.0687
  H  H28  1  0.060700  0.103800  0.622200  1.0  0.068
  H  H29  1  0.062600  0.213100  0.555800  1.0  0.1057
  H  H30  1  0.000700  0.344500  0.698000  1.0  0.0962
  H  H31  1  0.610200  0.330900  0.899000  1.0  0.1055
  H  H32  1  0.361500  0.443600  0.782000  1.0  0.0689
  H  H33  1  0.363700  0.316100  0.821700  1.0  0.1074
  H  H34  1  0.703800  0.423600  0.947200  1.0  0.1071
  H  H35  1  0.797600  0.623000  0.894000  1.0  0.113
  H  H36  1  0.674300  0.642700  0.809100  1.0  0.0692
  H  H37  1  0.439300  0.603800  0.877800  1.0  0.0684
  H  H38  1  0.437400  0.713100  0.944200  1.0  0.1064
  H  H39  1  0.499300  0.844500  0.802000  1.0  0.0972
  H  H40  1  0.110200  0.830900  0.899000  1.0  0.1055
  H  H41  1  0.861500  0.943600  0.782000  1.0  0.0689
  H  H42  1  0.863700  0.816100  0.821700  1.0  0.1074
  H  H43  1  0.203800  0.923600  0.947200  1.0  0.1071
  H  H44  1  0.297600  0.123000  0.894000  1.0  0.113
  H  H45  1  0.174300  0.142700  0.809100  1.0  0.0692
  H  H46  1  0.939300  0.103800  0.877800  1.0  0.0684
  H  H47  1  0.937400  0.213100  0.944200  1.0  0.1064
  H  H48  1  0.999300  0.344500  0.802000  1.0  0.0972
  H  H49  1  0.610200  0.669100  0.399000  1.0  0.1054
  H  H50  1  0.361500  0.556400  0.282000  1.0  0.0689
  H  H51  1  0.363700  0.683900  0.321700  1.0  0.107
  H  H52  1  0.703800  0.576400  0.447200  1.0  0.1069
  H  H53  1  0.797600  0.377000  0.394000  1.0  0.1132
  H  H54  1  0.674300  0.357300  0.309100  1.0  0.0688
  H  H55  1  0.439300  0.396200  0.377800  1.0  0.0681
  H  H56  1  0.437400  0.286900  0.444200  1.0  0.106
  H  H57  1  0.499300  0.155500  0.302000  1.0  0.0969
  H  H58  1  0.110200  0.169100  0.399000  1.0  0.1054
  H  H59  1  0.861500  0.056400  0.282000  1.0  0.0689
  H  H60  1  0.863700  0.183900  0.321700  1.0  0.107
  H  H61  1  0.203800  0.076400  0.447200  1.0  0.1069
  H  H62  1  0.297600  0.877000  0.394000  1.0  0.1132
  H  H63  1  0.174300  0.857300  0.309100  1.0  0.0688
  H  H64  1  0.939300  0.896200  0.377800  1.0  0.0681
  H  H65  1  0.937400  0.786900  0.444200  1.0  0.106
  H  H66  1  0.999300  0.655500  0.302000  1.0  0.0969
  H  H67  1  0.389800  0.669100  0.101000  1.0  0.1053
  H  H68  1  0.638500  0.556400  0.218000  1.0  0.0688
  H  H69  1  0.636300  0.683900  0.178300  1.0  0.1074
  H  H70  1  0.296200  0.576400  0.052800  1.0  0.1072
  H  H71  1  0.202400  0.377000  0.106000  1.0  0.113
  H  H72  1  0.325700  0.357300  0.190900  1.0  0.0689
  H  H73  1  0.560700  0.396200  0.122200  1.0  0.0677
  H  H74  1  0.562600  0.286900  0.055800  1.0  0.1056
  H  H75  1  0.500700  0.155500  0.198000  1.0  0.0972
  H  H76  1  0.889800  0.169100  0.101000  1.0  0.1053
  H  H77  1  0.138500  0.056400  0.218000  1.0  0.0688
  H  H78  1  0.136300  0.183900  0.178300  1.0  0.1074
  H  H79  1  0.796200  0.076400  0.052800  1.0  0.1072
  H  H80  1  0.702400  0.877000  0.106000  1.0  0.113
  H  H81  1  0.825700  0.857300  0.190900  1.0  0.0689
  H  H82  1  0.060700  0.896200  0.122200  1.0  0.0677
  H  H83  1  0.062600  0.786900  0.055800  1.0  0.1056
  H  H84  1  0.000700  0.655500  0.198000  1.0  0.0972
  C  C85  1  0.512200  0.308500  0.638500  1.0  -0.159
  C  C86  1  0.440700  0.352800  0.624700  1.0  -0.1101
  C  C87  1  0.446900  0.430700  0.647100  1.0  0.1722
  C  C88  1  0.588000  0.420700  0.694300  1.0  0.1464
  C  C89  1  0.587400  0.343700  0.671500  1.0  -0.1423
  C  C90  1  0.374000  0.482300  0.633800  1.0  0.1432
  C  C91  1  0.301100  0.467500  0.581300  1.0  -0.0792
  C  C92  1  0.236000  0.519100  0.572100  1.0  -0.1431
  C  C93  1  0.245000  0.586600  0.612800  1.0  -0.1553
  C  C94  1  0.318800  0.597800  0.663300  1.0  0.1489
  C  C95  1  0.547900  0.652800  0.636800  1.0  0.1293
  C  C96  1  0.549300  0.718100  0.596600  1.0  -0.1461
  C  C97  1  0.530300  0.792100  0.618700  1.0  -0.1659
  C  C98  1  0.511900  0.796200  0.681300  1.0  -0.0558
  C  C99  1  0.510800  0.727700  0.717500  1.0  0.1765
  C  C100  1  0.528100  0.866100  0.577200  1.0  0.7567
  C  C101  1  0.153900  0.500100  0.518400  1.0  0.7191
  C  C102  1  0.508200  0.222600  0.618600  1.0  0.6829
  C  C103  1  0.012200  0.808500  0.638500  1.0  -0.159
  C  C104  1  0.940700  0.852800  0.624700  1.0  -0.1101
  C  C105  1  0.946900  0.930700  0.647100  1.0  0.1722
  C  C106  1  0.088000  0.920700  0.694300  1.0  0.1464
  C  C107  1  0.087400  0.843700  0.671500  1.0  -0.1423
  C  C108  1  0.874000  0.982300  0.633800  1.0  0.1432
  C  C109  1  0.801100  0.967500  0.581300  1.0  -0.0792
  C  C110  1  0.736000  0.019100  0.572100  1.0  -0.1431
  C  C111  1  0.745000  0.086600  0.612800  1.0  -0.1553
  C  C112  1  0.818800  0.097800  0.663300  1.0  0.1489
  C  C113  1  0.047900  0.152800  0.636800  1.0  0.1293
  C  C114  1  0.049300  0.218100  0.596600  1.0  -0.1461
  C  C115  1  0.030300  0.292100  0.618700  1.0  -0.1659
  C  C116  1  0.011900  0.296200  0.681300  1.0  -0.0558
  C  C117  1  0.010800  0.227700  0.717500  1.0  0.1765
  C  C118  1  0.028100  0.366100  0.577200  1.0  0.7567
  C  C119  1  0.653900  0.000100  0.518400  1.0  0.7191
  C  C120  1  0.008200  0.722600  0.618600  1.0  0.6829
  C  C121  1  0.487800  0.308500  0.861500  1.0  -0.1588
  C  C122  1  0.559300  0.352800  0.875300  1.0  -0.1107
  C  C123  1  0.553100  0.430700  0.852900  1.0  0.1717
  C  C124  1  0.412000  0.420700  0.805700  1.0  0.1452
  C  C125  1  0.412600  0.343700  0.828500  1.0  -0.1415
  C  C126  1  0.626000  0.482300  0.866200  1.0  0.143
  C  C127  1  0.698900  0.467500  0.918700  1.0  -0.0806
  C  C128  1  0.764000  0.519100  0.927900  1.0  -0.1415
  C  C129  1  0.755000  0.586600  0.887200  1.0  -0.1544
  C  C130  1  0.681200  0.597800  0.836700  1.0  0.1493
  C  C131  1  0.452100  0.652800  0.863200  1.0  0.1285
  C  C132  1  0.450700  0.718100  0.903400  1.0  -0.1454
  C  C133  1  0.469700  0.792100  0.881300  1.0  -0.1655
  C  C134  1  0.488100  0.796200  0.818700  1.0  -0.0564
  C  C135  1  0.489200  0.727700  0.782500  1.0  0.1756
  C  C136  1  0.471900  0.866100  0.922800  1.0  0.7558
  C  C137  1  0.846100  0.500100  0.981600  1.0  0.7186
  C  C138  1  0.491800  0.222600  0.881400  1.0  0.6832
  C  C139  1  0.987800  0.808500  0.861500  1.0  -0.1588
  C  C140  1  0.059300  0.852800  0.875300  1.0  -0.1107
  C  C141  1  0.053100  0.930700  0.852900  1.0  0.1717
  C  C142  1  0.912000  0.920700  0.805700  1.0  0.1452
  C  C143  1  0.912600  0.843700  0.828500  1.0  -0.1415
  C  C144  1  0.126000  0.982300  0.866200  1.0  0.143
  C  C145  1  0.198900  0.967500  0.918700  1.0  -0.0806
  C  C146  1  0.264000  0.019100  0.927900  1.0  -0.1415
  C  C147  1  0.255000  0.086600  0.887200  1.0  -0.1544
  C  C148  1  0.181200  0.097800  0.836700  1.0  0.1493
  C  C149  1  0.952100  0.152800  0.863200  1.0  0.1285
  C  C150  1  0.950700  0.218100  0.903400  1.0  -0.1454
  C  C151  1  0.969700  0.292100  0.881300  1.0  -0.1655
  C  C152  1  0.988100  0.296200  0.818700  1.0  -0.0564
  C  C153  1  0.989200  0.227700  0.782500  1.0  0.1756
  C  C154  1  0.971900  0.366100  0.922800  1.0  0.7558
  C  C155  1  0.346100  0.000100  0.981600  1.0  0.7186
  C  C156  1  0.991800  0.722600  0.881400  1.0  0.6832
  C  C157  1  0.487800  0.691500  0.361500  1.0  -0.1587
  C  C158  1  0.559300  0.647200  0.375300  1.0  -0.1099
  C  C159  1  0.553100  0.569300  0.352900  1.0  0.1719
  C  C160  1  0.412000  0.579300  0.305700  1.0  0.1454
  C  C161  1  0.412600  0.656300  0.328500  1.0  -0.1428
  C  C162  1  0.626000  0.517700  0.366200  1.0  0.1431
  C  C163  1  0.698900  0.532500  0.418700  1.0  -0.0805
  C  C164  1  0.764000  0.480900  0.427900  1.0  -0.1412
  C  C165  1  0.755000  0.413400  0.387200  1.0  -0.1549
  C  C166  1  0.681200  0.402200  0.336700  1.0  0.1493
  C  C167  1  0.452100  0.347200  0.363200  1.0  0.128
  C  C168  1  0.450700  0.281900  0.403400  1.0  -0.1455
  C  C169  1  0.469700  0.207900  0.381300  1.0  -0.1645
  C  C170  1  0.488100  0.203800  0.318700  1.0  -0.0564
  C  C171  1  0.489200  0.272300  0.282500  1.0  0.1746
  C  C172  1  0.471900  0.133900  0.422800  1.0  0.7559
  C  C173  1  0.846100  0.499900  0.481600  1.0  0.7187
  C  C174  1  0.491800  0.777400  0.381400  1.0  0.6812
  C  C175  1  0.987800  0.191500  0.361500  1.0  -0.1587
  C  C176  1  0.059300  0.147200  0.375300  1.0  -0.1099
  C  C177  1  0.053100  0.069300  0.352900  1.0  0.1719
  C  C178  1  0.912000  0.079300  0.305700  1.0  0.1454
  C  C179  1  0.912600  0.156300  0.328500  1.0  -0.1428
  C  C180  1  0.126000  0.017700  0.366200  1.0  0.1431
  C  C181  1  0.198900  0.032500  0.418700  1.0  -0.0805
  C  C182  1  0.264000  0.980900  0.427900  1.0  -0.1412
  C  C183  1  0.255000  0.913400  0.387200  1.0  -0.1549
  C  C184  1  0.181200  0.902200  0.336700  1.0  0.1493
  C  C185  1  0.952100  0.847200  0.363200  1.0  0.128
  C  C186  1  0.950700  0.781900  0.403400  1.0  -0.1455
  C  C187  1  0.969700  0.707900  0.381300  1.0  -0.1645
  C  C188  1  0.988100  0.703800  0.318700  1.0  -0.0564
  C  C189  1  0.989200  0.772300  0.282500  1.0  0.1746
  C  C190  1  0.971900  0.633900  0.422800  1.0  0.7559
  C  C191  1  0.346100  0.999900  0.481600  1.0  0.7187
  C  C192  1  0.991800  0.277400  0.381400  1.0  0.6812
  C  C193  1  0.512200  0.691500  0.138500  1.0  -0.1588
  C  C194  1  0.440700  0.647200  0.124700  1.0  -0.1094
  C  C195  1  0.446900  0.569300  0.147100  1.0  0.1714
  C  C196  1  0.588000  0.579300  0.194300  1.0  0.1465
  C  C197  1  0.587400  0.656300  0.171500  1.0  -0.1414
  C  C198  1  0.374000  0.517700  0.133800  1.0  0.1435
  C  C199  1  0.301100  0.532500  0.081300  1.0  -0.0809
  C  C200  1  0.236000  0.480900  0.072100  1.0  -0.143
  C  C201  1  0.245000  0.413400  0.112800  1.0  -0.1548
  C  C202  1  0.318800  0.402200  0.163300  1.0  0.15
  C  C203  1  0.547900  0.347200  0.136800  1.0  0.1292
  C  C204  1  0.549300  0.281900  0.096600  1.0  -0.1461
  C  C205  1  0.530300  0.207900  0.118700  1.0  -0.1662
  C  C206  1  0.511900  0.203800  0.181300  1.0  -0.0575
  C  C207  1  0.510800  0.272300  0.217500  1.0  0.1754
  C  C208  1  0.528100  0.133900  0.077200  1.0  0.7568
  C  C209  1  0.153900  0.499900  0.018400  1.0  0.7192
  C  C210  1  0.508200  0.777400  0.118600  1.0  0.6809
  C  C211  1  0.012200  0.191500  0.138500  1.0  -0.1588
  C  C212  1  0.940700  0.147200  0.124700  1.0  -0.1094
  C  C213  1  0.946900  0.069300  0.147100  1.0  0.1714
  C  C214  1  0.088000  0.079300  0.194300  1.0  0.1465
  C  C215  1  0.087400  0.156300  0.171500  1.0  -0.1414
  C  C216  1  0.874000  0.017700  0.133800  1.0  0.1435
  C  C217  1  0.801100  0.032500  0.081300  1.0  -0.0809
  C  C218  1  0.736000  0.980900  0.072100  1.0  -0.143
  C  C219  1  0.745000  0.913400  0.112800  1.0  -0.1548
  C  C220  1  0.818800  0.902200  0.163300  1.0  0.15
  C  C221  1  0.047900  0.847200  0.136800  1.0  0.1292
  C  C222  1  0.049300  0.781900  0.096600  1.0  -0.1461
  C  C223  1  0.030300  0.707900  0.118700  1.0  -0.1662
  C  C224  1  0.011900  0.703800  0.181300  1.0  -0.0575
  C  C225  1  0.010800  0.772300  0.217500  1.0  0.1754
  C  C226  1  0.028100  0.633900  0.077200  1.0  0.7568
  C  C227  1  0.653900  0.999900  0.018400  1.0  0.7192
  C  C228  1  0.008200  0.277400  0.118600  1.0  0.6809
  N  N229  1  0.519400  0.464000  0.684000  1.0  -0.3686
  N  N230  1  0.381800  0.546600  0.674700  1.0  -0.3321
  N  N231  1  0.528800  0.656600  0.695900  1.0  -0.3432
  N  N232  1  0.019400  0.964000  0.684000  1.0  -0.3686
  N  N233  1  0.881800  0.046600  0.674700  1.0  -0.3321
  N  N234  1  0.028800  0.156600  0.695900  1.0  -0.3432
  N  N235  1  0.480600  0.464000  0.816000  1.0  -0.3693
  N  N236  1  0.618200  0.546600  0.825300  1.0  -0.3326
  N  N237  1  0.471200  0.656600  0.804100  1.0  -0.3433
  N  N238  1  0.980600  0.964000  0.816000  1.0  -0.3693
  N  N239  1  0.118200  0.046600  0.825300  1.0  -0.3326
  N  N240  1  0.971200  0.156600  0.804100  1.0  -0.3433
  N  N241  1  0.480600  0.536000  0.316000  1.0  -0.3682
  N  N242  1  0.618200  0.453400  0.325300  1.0  -0.3316
  N  N243  1  0.471200  0.343400  0.304100  1.0  -0.3428
  N  N244  1  0.980600  0.036000  0.316000  1.0  -0.3682
  N  N245  1  0.118200  0.953400  0.325300  1.0  -0.3316
  N  N246  1  0.971200  0.843400  0.304100  1.0  -0.3428
  N  N247  1  0.519400  0.536000  0.184000  1.0  -0.3673
  N  N248  1  0.381800  0.453400  0.174700  1.0  -0.3305
  N  N249  1  0.528800  0.343400  0.195900  1.0  -0.3422
  N  N250  1  0.019400  0.036000  0.184000  1.0  -0.3673
  N  N251  1  0.881800  0.953400  0.174700  1.0  -0.3305
  N  N252  1  0.028800  0.843400  0.195900  1.0  -0.3422
  O  O253  1  0.570600  0.189300  0.611200  1.0  -0.6751
  O  O254  1  0.441500  0.186200  0.610700  1.0  -0.6587
  O  O255  1  0.153500  0.457600  0.466700  1.0  -0.6601
  O  O256  1  0.089200  0.526500  0.525800  1.0  -0.8189
  O  O257  1  0.511300  0.927800  0.604300  1.0  -0.7359
  O  O258  1  0.540900  0.860700  0.519800  1.0  -0.7081
  O  O259  1  0.070600  0.689300  0.611200  1.0  -0.6751
  O  O260  1  0.941500  0.686200  0.610700  1.0  -0.6595
  O  O261  1  0.653500  0.957600  0.466700  1.0  -0.6601
  O  O262  1  0.589200  0.026500  0.525800  1.0  -0.8189
  O  O263  1  0.011300  0.427800  0.604300  1.0  -0.736
  O  O264  1  0.040900  0.360700  0.519800  1.0  -0.7081
  O  O265  1  0.429400  0.189300  0.888800  1.0  -0.6757
  O  O266  1  0.558500  0.186200  0.889300  1.0  -0.6588
  O  O267  1  0.846500  0.457600  0.033300  1.0  -0.6646
  O  O268  1  0.910800  0.526500  0.974200  1.0  -0.8189
  O  O269  1  0.488700  0.927800  0.895700  1.0  -0.7372
  O  O270  1  0.459100  0.860700  0.980200  1.0  -0.707
  O  O271  1  0.929400  0.689300  0.888800  1.0  -0.6756
  O  O272  1  0.058500  0.686200  0.889300  1.0  -0.6595
  O  O273  1  0.346500  0.957600  0.033300  1.0  -0.6646
  O  O274  1  0.410800  0.026500  0.974200  1.0  -0.8189
  O  O275  1  0.988700  0.427800  0.895700  1.0  -0.7372
  O  O276  1  0.959100  0.360700  0.980200  1.0  -0.707
  O  O277  1  0.429400  0.810700  0.388800  1.0  -0.6763
  O  O278  1  0.558500  0.813800  0.389300  1.0  -0.6596
  O  O279  1  0.846500  0.542400  0.533300  1.0  -0.6645
  O  O280  1  0.910800  0.473500  0.474200  1.0  -0.8186
  O  O281  1  0.488700  0.072200  0.395700  1.0  -0.7375
  O  O282  1  0.459100  0.139300  0.480200  1.0  -0.7075
  O  O283  1  0.929400  0.310700  0.388800  1.0  -0.6767
  O  O284  1  0.058500  0.313800  0.389300  1.0  -0.6598
  O  O285  1  0.346500  0.042400  0.533300  1.0  -0.6645
  O  O286  1  0.410800  0.973500  0.474200  1.0  -0.8186
  O  O287  1  0.988700  0.572200  0.395700  1.0  -0.7375
  O  O288  1  0.959100  0.639300  0.480200  1.0  -0.7075
  O  O289  1  0.570600  0.810700  0.111200  1.0  -0.6762
  O  O290  1  0.441500  0.813800  0.110700  1.0  -0.6603
  O  O291  1  0.153500  0.542400  0.966700  1.0  -0.6611
  O  O292  1  0.089200  0.473500  0.025800  1.0  -0.8188
  O  O293  1  0.511300  0.072200  0.104300  1.0  -0.7366
  O  O294  1  0.540900  0.139300  0.019800  1.0  -0.7072
  O  O295  1  0.070600  0.310700  0.111200  1.0  -0.6766
  O  O296  1  0.941500  0.313800  0.110700  1.0  -0.6605
  O  O297  1  0.653500  0.042400  0.966700  1.0  -0.6611
  O  O298  1  0.589200  0.973500  0.025800  1.0  -0.8188
  O  O299  1  0.011300  0.572200  0.104300  1.0  -0.7366
  O  O300  1  0.040900  0.639300  0.019800  1.0  -0.7072
