# generated using pymatgen
data_Tb2ZnH18C36(NO2)6
_symmetry_space_group_name_H-M   'P 1'
_cell_length_a   17.23160000
_cell_length_b   16.75850000
_cell_length_c   21.25670000
_cell_angle_alpha   90.00000000
_cell_angle_beta   106.99600000
_cell_angle_gamma   90.00000000
_symmetry_Int_Tables_number   1
_chemical_formula_structural   Tb2ZnH18C36(NO2)6
_chemical_formula_sum   'Tb8 Zn4 H72 C144 N24 O48'
_cell_volume   5870.32540514
_cell_formula_units_Z   4
loop_
 _symmetry_equiv_pos_site_id
 _symmetry_equiv_pos_as_xyz
  1  'x, y, z'
loop_
 _atom_site_type_symbol
 _atom_site_label
 _atom_site_symmetry_multiplicity
 _atom_site_fract_x
 _atom_site_fract_y
 _atom_site_fract_z
 _atom_site_occupancy
 _atom_site_charge
  Tb  Tb1  1  0.479420  0.565290  0.571090  1.0  2.2213
  Tb  Tb2  1  0.979420  0.065290  0.571090  1.0  2.2213
  Tb  Tb3  1  0.520580  0.565290  0.928910  1.0  2.2157
  Tb  Tb4  1  0.020580  0.065290  0.928910  1.0  2.2157
  Tb  Tb5  1  0.520580  0.434710  0.428910  1.0  2.2158
  Tb  Tb6  1  0.020580  0.934710  0.428910  1.0  2.2158
  Tb  Tb7  1  0.479420  0.434710  0.071090  1.0  2.221
  Tb  Tb8  1  0.979420  0.934710  0.071090  1.0  2.221
  Zn  Zn9  1  0.500000  0.059950  0.750000  1.0  0.6906
  Zn  Zn10  1  0.000000  0.559950  0.750000  1.0  0.6906
  Zn  Zn11  1  0.500000  0.940050  0.250000  1.0  0.6908
  Zn  Zn12  1  0.000000  0.440050  0.250000  1.0  0.6908
  H  H13  1  0.322800  0.137700  0.704300  1.0  0.0773
  H  H14  1  0.195300  0.110600  0.629500  1.0  0.1076
  H  H15  1  0.296700  0.923000  0.567500  1.0  0.0988
  H  H16  1  0.388300  0.830400  0.605300  1.0  0.116
  H  H17  1  0.632700  0.822200  0.666000  1.0  0.1123
  H  H18  1  0.632700  0.947100  0.710400  1.0  0.0695
  H  H19  1  0.541800  0.104500  0.619500  1.0  0.0739
  H  H20  1  0.541600  0.215100  0.556200  1.0  0.1095
  H  H21  1  0.493600  0.348700  0.695300  1.0  0.1096
  H  H22  1  0.822800  0.637700  0.704300  1.0  0.0773
  H  H23  1  0.695300  0.610600  0.629500  1.0  0.1076
  H  H24  1  0.796700  0.423000  0.567500  1.0  0.0988
  H  H25  1  0.888300  0.330400  0.605300  1.0  0.116
  H  H26  1  0.132700  0.322200  0.666000  1.0  0.1123
  H  H27  1  0.132700  0.447100  0.710400  1.0  0.0695
  H  H28  1  0.041800  0.604500  0.619500  1.0  0.0739
  H  H29  1  0.041600  0.715100  0.556200  1.0  0.1095
  H  H30  1  0.993600  0.848700  0.695300  1.0  0.1096
  H  H31  1  0.677200  0.137700  0.795700  1.0  0.0771
  H  H32  1  0.804700  0.110600  0.870500  1.0  0.1075
  H  H33  1  0.703300  0.923000  0.932500  1.0  0.0992
  H  H34  1  0.611700  0.830400  0.894700  1.0  0.116
  H  H35  1  0.367300  0.822200  0.834000  1.0  0.1125
  H  H36  1  0.367300  0.947100  0.789600  1.0  0.0692
  H  H37  1  0.458200  0.104500  0.880500  1.0  0.0744
  H  H38  1  0.458400  0.215100  0.943800  1.0  0.1096
  H  H39  1  0.506400  0.348700  0.804700  1.0  0.1111
  H  H40  1  0.177200  0.637700  0.795700  1.0  0.0771
  H  H41  1  0.304700  0.610600  0.870500  1.0  0.1075
  H  H42  1  0.203300  0.423000  0.932500  1.0  0.0992
  H  H43  1  0.111700  0.330400  0.894700  1.0  0.116
  H  H44  1  0.867300  0.322200  0.834000  1.0  0.1125
  H  H45  1  0.867300  0.447100  0.789600  1.0  0.0692
  H  H46  1  0.958200  0.604500  0.880500  1.0  0.0744
  H  H47  1  0.958400  0.715100  0.943800  1.0  0.1096
  H  H48  1  0.006400  0.848700  0.804700  1.0  0.1111
  H  H49  1  0.677200  0.862300  0.295700  1.0  0.0762
  H  H50  1  0.804700  0.889400  0.370500  1.0  0.1075
  H  H51  1  0.703300  0.077000  0.432500  1.0  0.0987
  H  H52  1  0.611700  0.169600  0.394700  1.0  0.1158
  H  H53  1  0.367300  0.177800  0.334000  1.0  0.112
  H  H54  1  0.367300  0.052900  0.289600  1.0  0.0691
  H  H55  1  0.458200  0.895500  0.380500  1.0  0.074
  H  H56  1  0.458400  0.784900  0.443800  1.0  0.109
  H  H57  1  0.506400  0.651300  0.304700  1.0  0.1095
  H  H58  1  0.177200  0.362300  0.295700  1.0  0.0762
  H  H59  1  0.304700  0.389400  0.370500  1.0  0.1075
  H  H60  1  0.203300  0.577000  0.432500  1.0  0.0987
  H  H61  1  0.111700  0.669600  0.394700  1.0  0.1158
  H  H62  1  0.867300  0.677800  0.334000  1.0  0.112
  H  H63  1  0.867300  0.552900  0.289600  1.0  0.0691
  H  H64  1  0.958200  0.395500  0.380500  1.0  0.074
  H  H65  1  0.958400  0.284900  0.443800  1.0  0.109
  H  H66  1  0.006400  0.151300  0.304700  1.0  0.1095
  H  H67  1  0.322800  0.862300  0.204300  1.0  0.0774
  H  H68  1  0.195300  0.889400  0.129500  1.0  0.1074
  H  H69  1  0.296700  0.077000  0.067500  1.0  0.0987
  H  H70  1  0.388300  0.169600  0.105300  1.0  0.116
  H  H71  1  0.632700  0.177800  0.166000  1.0  0.1124
  H  H72  1  0.632700  0.052900  0.210400  1.0  0.0694
  H  H73  1  0.541800  0.895500  0.119500  1.0  0.0733
  H  H74  1  0.541600  0.784900  0.056200  1.0  0.1091
  H  H75  1  0.493600  0.651300  0.195300  1.0  0.111
  H  H76  1  0.822800  0.362300  0.204300  1.0  0.0774
  H  H77  1  0.695300  0.389400  0.129500  1.0  0.1074
  H  H78  1  0.796700  0.577000  0.067500  1.0  0.0987
  H  H79  1  0.888300  0.669600  0.105300  1.0  0.116
  H  H80  1  0.132700  0.677800  0.166000  1.0  0.1124
  H  H81  1  0.132700  0.552900  0.210400  1.0  0.0694
  H  H82  1  0.041800  0.395500  0.119500  1.0  0.0733
  H  H83  1  0.041600  0.284900  0.056200  1.0  0.1091
  H  H84  1  0.993600  0.151300  0.195300  1.0  0.111
  C  C85  1  0.316200  0.092400  0.678000  1.0  0.1481
  C  C86  1  0.239300  0.077300  0.632000  1.0  -0.1191
  C  C87  1  0.231700  0.013400  0.591800  1.0  -0.1468
  C  C88  1  0.300000  0.965200  0.596600  1.0  -0.0629
  C  C89  1  0.371600  0.980500  0.644100  1.0  0.1391
  C  C90  1  0.155800  0.992600  0.538200  1.0  0.7132
  C  C91  1  0.444900  0.931500  0.652400  1.0  0.1897
  C  C92  1  0.438600  0.852800  0.626000  1.0  -0.1518
  C  C93  1  0.508900  0.811000  0.632100  1.0  -0.1388
  C  C94  1  0.584000  0.848000  0.663100  1.0  -0.1323
  C  C95  1  0.583300  0.923300  0.689000  1.0  0.1442
  C  C96  1  0.503400  0.727300  0.608600  1.0  0.6651
  C  C97  1  0.532900  0.154300  0.635600  1.0  0.1513
  C  C98  1  0.531700  0.219800  0.596700  1.0  -0.165
  C  C99  1  0.515600  0.292200  0.619500  1.0  -0.1623
  C  C100  1  0.503500  0.299100  0.679500  1.0  -0.0526
  C  C101  1  0.506100  0.229700  0.717400  1.0  0.1413
  C  C102  1  0.511500  0.368600  0.576700  1.0  0.7973
  C  C103  1  0.816200  0.592400  0.678000  1.0  0.1481
  C  C104  1  0.739300  0.577300  0.632000  1.0  -0.1191
  C  C105  1  0.731700  0.513400  0.591800  1.0  -0.1468
  C  C106  1  0.800000  0.465200  0.596600  1.0  -0.0629
  C  C107  1  0.871600  0.480500  0.644100  1.0  0.1391
  C  C108  1  0.655800  0.492600  0.538200  1.0  0.7132
  C  C109  1  0.944900  0.431500  0.652400  1.0  0.1897
  C  C110  1  0.938600  0.352800  0.626000  1.0  -0.1518
  C  C111  1  0.008900  0.311000  0.632100  1.0  -0.1388
  C  C112  1  0.084000  0.348000  0.663100  1.0  -0.1323
  C  C113  1  0.083300  0.423300  0.689000  1.0  0.1442
  C  C114  1  0.003400  0.227300  0.608600  1.0  0.6651
  C  C115  1  0.032900  0.654300  0.635600  1.0  0.1513
  C  C116  1  0.031700  0.719800  0.596700  1.0  -0.165
  C  C117  1  0.015600  0.792200  0.619500  1.0  -0.1623
  C  C118  1  0.003500  0.799100  0.679500  1.0  -0.0526
  C  C119  1  0.006100  0.729700  0.717400  1.0  0.1413
  C  C120  1  0.011500  0.868600  0.576700  1.0  0.7973
  C  C121  1  0.683800  0.092400  0.822000  1.0  0.1479
  C  C122  1  0.760700  0.077300  0.868000  1.0  -0.1178
  C  C123  1  0.768300  0.013400  0.908200  1.0  -0.1468
  C  C124  1  0.700000  0.965200  0.903400  1.0  -0.0646
  C  C125  1  0.628400  0.980500  0.855900  1.0  0.1376
  C  C126  1  0.844200  0.992600  0.961800  1.0  0.7149
  C  C127  1  0.555100  0.931500  0.847600  1.0  0.1896
  C  C128  1  0.561400  0.852800  0.874000  1.0  -0.152
  C  C129  1  0.491100  0.811000  0.867900  1.0  -0.1374
  C  C130  1  0.416000  0.848000  0.836900  1.0  -0.1326
  C  C131  1  0.416700  0.923300  0.811000  1.0  0.142
  C  C132  1  0.496600  0.727300  0.891400  1.0  0.665
  C  C133  1  0.467100  0.154300  0.864400  1.0  0.1518
  C  C134  1  0.468300  0.219800  0.903300  1.0  -0.1639
  C  C135  1  0.484400  0.292200  0.880500  1.0  -0.1624
  C  C136  1  0.496500  0.299100  0.820500  1.0  -0.0527
  C  C137  1  0.493900  0.229700  0.782600  1.0  0.1407
  C  C138  1  0.488500  0.368600  0.923300  1.0  0.7977
  C  C139  1  0.183800  0.592400  0.822000  1.0  0.1479
  C  C140  1  0.260700  0.577300  0.868000  1.0  -0.1178
  C  C141  1  0.268300  0.513400  0.908200  1.0  -0.1468
  C  C142  1  0.200000  0.465200  0.903400  1.0  -0.0646
  C  C143  1  0.128400  0.480500  0.855900  1.0  0.1376
  C  C144  1  0.344200  0.492600  0.961800  1.0  0.7149
  C  C145  1  0.055100  0.431500  0.847600  1.0  0.1896
  C  C146  1  0.061400  0.352800  0.874000  1.0  -0.152
  C  C147  1  0.991100  0.311000  0.867900  1.0  -0.1374
  C  C148  1  0.916000  0.348000  0.836900  1.0  -0.1326
  C  C149  1  0.916700  0.423300  0.811000  1.0  0.142
  C  C150  1  0.996600  0.227300  0.891400  1.0  0.665
  C  C151  1  0.967100  0.654300  0.864400  1.0  0.1518
  C  C152  1  0.968300  0.719800  0.903300  1.0  -0.1639
  C  C153  1  0.984400  0.792200  0.880500  1.0  -0.1624
  C  C154  1  0.996500  0.799100  0.820500  1.0  -0.0527
  C  C155  1  0.993900  0.729700  0.782600  1.0  0.1407
  C  C156  1  0.988500  0.868600  0.923300  1.0  0.7977
  C  C157  1  0.683800  0.907600  0.322000  1.0  0.1474
  C  C158  1  0.760700  0.922700  0.368000  1.0  -0.1186
  C  C159  1  0.768300  0.986600  0.408200  1.0  -0.1469
  C  C160  1  0.700000  0.034800  0.403400  1.0  -0.0645
  C  C161  1  0.628400  0.019500  0.355900  1.0  0.1376
  C  C162  1  0.844200  0.007400  0.461800  1.0  0.7149
  C  C163  1  0.555100  0.068500  0.347600  1.0  0.1891
  C  C164  1  0.561400  0.147200  0.374000  1.0  -0.1518
  C  C165  1  0.491100  0.189000  0.367900  1.0  -0.1367
  C  C166  1  0.416000  0.152000  0.336900  1.0  -0.1331
  C  C167  1  0.416700  0.076700  0.311000  1.0  0.1418
  C  C168  1  0.496600  0.272700  0.391400  1.0  0.6637
  C  C169  1  0.467100  0.845700  0.364400  1.0  0.151
  C  C170  1  0.468300  0.780200  0.403300  1.0  -0.1637
  C  C171  1  0.484400  0.707800  0.380500  1.0  -0.1617
  C  C172  1  0.496500  0.700900  0.320500  1.0  -0.0518
  C  C173  1  0.493900  0.770300  0.282600  1.0  0.1398
  C  C174  1  0.488500  0.631400  0.423300  1.0  0.7976
  C  C175  1  0.183800  0.407600  0.322000  1.0  0.1474
  C  C176  1  0.260700  0.422700  0.368000  1.0  -0.1186
  C  C177  1  0.268300  0.486600  0.408200  1.0  -0.1469
  C  C178  1  0.200000  0.534800  0.403400  1.0  -0.0645
  C  C179  1  0.128400  0.519500  0.355900  1.0  0.1376
  C  C180  1  0.344200  0.507400  0.461800  1.0  0.7149
  C  C181  1  0.055100  0.568500  0.347600  1.0  0.1891
  C  C182  1  0.061400  0.647200  0.374000  1.0  -0.1518
  C  C183  1  0.991100  0.689000  0.367900  1.0  -0.1367
  C  C184  1  0.916000  0.652000  0.336900  1.0  -0.1331
  C  C185  1  0.916700  0.576700  0.311000  1.0  0.1418
  C  C186  1  0.996600  0.772700  0.391400  1.0  0.6637
  C  C187  1  0.967100  0.345700  0.364400  1.0  0.151
  C  C188  1  0.968300  0.280200  0.403300  1.0  -0.1637
  C  C189  1  0.984400  0.207800  0.380500  1.0  -0.1617
  C  C190  1  0.996500  0.200900  0.320500  1.0  -0.0518
  C  C191  1  0.993900  0.270300  0.282600  1.0  0.1398
  C  C192  1  0.988500  0.131400  0.423300  1.0  0.7976
  C  C193  1  0.316200  0.907600  0.178000  1.0  0.1489
  C  C194  1  0.239300  0.922700  0.132000  1.0  -0.1185
  C  C195  1  0.231700  0.986600  0.091800  1.0  -0.1466
  C  C196  1  0.300000  0.034800  0.096600  1.0  -0.0644
  C  C197  1  0.371600  0.019500  0.144100  1.0  0.1389
  C  C198  1  0.155800  0.007400  0.038200  1.0  0.7133
  C  C199  1  0.444900  0.068500  0.152400  1.0  0.1896
  C  C200  1  0.438600  0.147200  0.126000  1.0  -0.1521
  C  C201  1  0.508900  0.189000  0.132100  1.0  -0.1386
  C  C202  1  0.584000  0.152000  0.163100  1.0  -0.1313
  C  C203  1  0.583300  0.076700  0.189000  1.0  0.1439
  C  C204  1  0.503400  0.272700  0.108600  1.0  0.6635
  C  C205  1  0.532900  0.845700  0.135600  1.0  0.1505
  C  C206  1  0.531700  0.780200  0.096700  1.0  -0.1655
  C  C207  1  0.515600  0.707800  0.119500  1.0  -0.1626
  C  C208  1  0.503500  0.700900  0.179500  1.0  -0.0532
  C  C209  1  0.506100  0.770300  0.217400  1.0  0.1404
  C  C210  1  0.511500  0.631400  0.076700  1.0  0.7973
  C  C211  1  0.816200  0.407600  0.178000  1.0  0.1489
  C  C212  1  0.739300  0.422700  0.132000  1.0  -0.1185
  C  C213  1  0.731700  0.486600  0.091800  1.0  -0.1466
  C  C214  1  0.800000  0.534800  0.096600  1.0  -0.0644
  C  C215  1  0.871600  0.519500  0.144100  1.0  0.1389
  C  C216  1  0.655800  0.507400  0.038200  1.0  0.7133
  C  C217  1  0.944900  0.568500  0.152400  1.0  0.1896
  C  C218  1  0.938600  0.647200  0.126000  1.0  -0.1521
  C  C219  1  0.008900  0.689000  0.132100  1.0  -0.1386
  C  C220  1  0.084000  0.652000  0.163100  1.0  -0.1313
  C  C221  1  0.083300  0.576700  0.189000  1.0  0.1439
  C  C222  1  0.003400  0.772700  0.108600  1.0  0.6635
  C  C223  1  0.032900  0.345700  0.135600  1.0  0.1505
  C  C224  1  0.031700  0.280200  0.096700  1.0  -0.1655
  C  C225  1  0.015600  0.207800  0.119500  1.0  -0.1626
  C  C226  1  0.003500  0.200900  0.179500  1.0  -0.0532
  C  C227  1  0.006100  0.270300  0.217400  1.0  0.1404
  C  C228  1  0.011500  0.131400  0.076700  1.0  0.7973
  N  N229  1  0.379000  0.043600  0.684600  1.0  -0.3502
  N  N230  1  0.515200  0.964000  0.684900  1.0  -0.3353
  N  N231  1  0.522100  0.157900  0.695000  1.0  -0.3311
  N  N232  1  0.879000  0.543600  0.684600  1.0  -0.3502
  N  N233  1  0.015200  0.464000  0.684900  1.0  -0.3353
  N  N234  1  0.022100  0.657900  0.695000  1.0  -0.3311
  N  N235  1  0.621000  0.043600  0.815400  1.0  -0.3503
  N  N236  1  0.484800  0.964000  0.815100  1.0  -0.3357
  N  N237  1  0.477900  0.157900  0.805000  1.0  -0.331
  N  N238  1  0.121000  0.543600  0.815400  1.0  -0.3503
  N  N239  1  0.984800  0.464000  0.815100  1.0  -0.3357
  N  N240  1  0.977900  0.657900  0.805000  1.0  -0.331
  N  N241  1  0.621000  0.956400  0.315400  1.0  -0.3499
  N  N242  1  0.484800  0.036000  0.315100  1.0  -0.3361
  N  N243  1  0.477900  0.842100  0.305000  1.0  -0.3312
  N  N244  1  0.121000  0.456400  0.315400  1.0  -0.3499
  N  N245  1  0.984800  0.536000  0.315100  1.0  -0.3361
  N  N246  1  0.977900  0.342100  0.305000  1.0  -0.3312
  N  N247  1  0.379000  0.956400  0.184600  1.0  -0.3491
  N  N248  1  0.515200  0.036000  0.184900  1.0  -0.3357
  N  N249  1  0.522100  0.842100  0.195000  1.0  -0.3303
  N  N250  1  0.879000  0.456400  0.184600  1.0  -0.3491
  N  N251  1  0.015200  0.536000  0.184900  1.0  -0.3357
  N  N252  1  0.022100  0.342100  0.195000  1.0  -0.3303
  O  O253  1  0.159100  0.943800  0.495600  1.0  -0.723
  O  O254  1  0.089900  0.026700  0.538400  1.0  -0.856
  O  O255  1  0.532600  0.360500  0.525700  1.0  -0.7248
  O  O256  1  0.489500  0.429600  0.598100  1.0  -0.7443
  O  O257  1  0.435400  0.692500  0.597100  1.0  -0.6615
  O  O258  1  0.564700  0.692000  0.601600  1.0  -0.6662
  O  O259  1  0.659100  0.443800  0.495600  1.0  -0.7241
  O  O260  1  0.589900  0.526700  0.538400  1.0  -0.856
  O  O261  1  0.032600  0.860500  0.525700  1.0  -0.7248
  O  O262  1  0.989500  0.929600  0.598100  1.0  -0.7448
  O  O263  1  0.935400  0.192500  0.597100  1.0  -0.6613
  O  O264  1  0.064700  0.192000  0.601600  1.0  -0.6671
  O  O265  1  0.840900  0.943800  0.004400  1.0  -0.7232
  O  O266  1  0.910100  0.026700  0.961600  1.0  -0.856
  O  O267  1  0.467400  0.360500  0.974300  1.0  -0.7249
  O  O268  1  0.510500  0.429600  0.901900  1.0  -0.7448
  O  O269  1  0.564600  0.692500  0.902900  1.0  -0.6635
  O  O270  1  0.435300  0.692000  0.898400  1.0  -0.6651
  O  O271  1  0.340900  0.443800  0.004400  1.0  -0.7241
  O  O272  1  0.410100  0.526700  0.961600  1.0  -0.856
  O  O273  1  0.967400  0.860500  0.974300  1.0  -0.7249
  O  O274  1  0.010500  0.929600  0.901900  1.0  -0.7451
  O  O275  1  0.064600  0.192500  0.902900  1.0  -0.6633
  O  O276  1  0.935300  0.192000  0.898400  1.0  -0.666
  O  O277  1  0.840900  0.056200  0.504400  1.0  -0.7226
  O  O278  1  0.910100  0.973300  0.461600  1.0  -0.8558
  O  O279  1  0.467400  0.639500  0.474300  1.0  -0.7252
  O  O280  1  0.510500  0.570400  0.401900  1.0  -0.7439
  O  O281  1  0.564600  0.307500  0.402900  1.0  -0.6631
  O  O282  1  0.435300  0.308000  0.398400  1.0  -0.6659
  O  O283  1  0.340900  0.556200  0.504400  1.0  -0.7229
  O  O284  1  0.410100  0.473300  0.461600  1.0  -0.8558
  O  O285  1  0.967400  0.139500  0.474300  1.0  -0.7252
  O  O286  1  0.010500  0.070400  0.401900  1.0  -0.744
  O  O287  1  0.064600  0.807500  0.402900  1.0  -0.6628
  O  O288  1  0.935300  0.808000  0.398400  1.0  -0.6667
  O  O289  1  0.159100  0.056200  0.995600  1.0  -0.7245
  O  O290  1  0.089900  0.973300  0.038400  1.0  -0.8557
  O  O291  1  0.532600  0.639500  0.025700  1.0  -0.7249
  O  O292  1  0.489500  0.570400  0.098100  1.0  -0.7439
  O  O293  1  0.435400  0.307500  0.097100  1.0  -0.6608
  O  O294  1  0.564700  0.308000  0.101600  1.0  -0.6669
  O  O295  1  0.659100  0.556200  0.995600  1.0  -0.725
  O  O296  1  0.589900  0.473300  0.038400  1.0  -0.8557
  O  O297  1  0.032600  0.139500  0.025700  1.0  -0.7249
  O  O298  1  0.989500  0.070400  0.098100  1.0  -0.7441
  O  O299  1  0.935400  0.807500  0.097100  1.0  -0.6605
  O  O300  1  0.064700  0.808000  0.101600  1.0  -0.6678
