# generated using pymatgen
data_NdC2SO8
_symmetry_space_group_name_H-M   'P 1'
_cell_length_a   8.52300000
_cell_length_b   28.62800000
_cell_length_c   9.30600000
_cell_angle_alpha   90.00000000
_cell_angle_beta   96.49700000
_cell_angle_gamma   90.00000000
_symmetry_Int_Tables_number   1
_chemical_formula_structural   NdC2SO8
_chemical_formula_sum   'Nd8 C16 S8 O64'
_cell_volume   2256.04842032
_cell_formula_units_Z   8
loop_
 _symmetry_equiv_pos_site_id
 _symmetry_equiv_pos_as_xyz
  1  'x, y, z'
loop_
 _atom_site_type_symbol
 _atom_site_label
 _atom_site_symmetry_multiplicity
 _atom_site_fract_x
 _atom_site_fract_y
 _atom_site_fract_z
 _atom_site_occupancy
 _atom_site_charge
  Nd  Nd1  1  0.747520  0.024800  0.715680  1.0  2.2585
  Nd  Nd2  1  0.319290  0.173870  0.871680  1.0  2.274
  Nd  Nd3  1  0.252480  0.524800  0.784320  1.0  2.2578
  Nd  Nd4  1  0.680710  0.673870  0.628320  1.0  2.2735
  Nd  Nd5  1  0.252480  0.975200  0.284320  1.0  2.2575
  Nd  Nd6  1  0.680710  0.826130  0.128320  1.0  2.2729
  Nd  Nd7  1  0.747520  0.475200  0.215680  1.0  2.2582
  Nd  Nd8  1  0.319290  0.326130  0.371680  1.0  2.2739
  C  C9  1  0.233100  0.244240  0.602100  1.0  0.6331
  C  C10  1  0.387900  0.264790  0.677800  1.0  0.63
  C  C11  1  0.033400  0.025490  0.505100  1.0  0.5983
  C  C12  1  0.033100  0.025050  0.000100  1.0  0.5953
  C  C13  1  0.766900  0.744240  0.897900  1.0  0.6298
  C  C14  1  0.612100  0.764790  0.822200  1.0  0.6304
  C  C15  1  0.966600  0.525490  0.994900  1.0  0.5979
  C  C16  1  0.966900  0.525050  0.499900  1.0  0.5952
  C  C17  1  0.766900  0.755760  0.397900  1.0  0.6302
  C  C18  1  0.612100  0.735210  0.322200  1.0  0.6314
  C  C19  1  0.966600  0.974510  0.494900  1.0  0.5996
  C  C20  1  0.966900  0.974950  0.999900  1.0  0.5944
  C  C21  1  0.233100  0.255760  0.102100  1.0  0.6334
  C  C22  1  0.387900  0.235210  0.177800  1.0  0.6305
  C  C23  1  0.033400  0.474510  0.005100  1.0  0.5998
  C  C24  1  0.033100  0.474950  0.500100  1.0  0.5943
  S  S25  1  0.401760  0.984180  0.676520  1.0  1.6713
  S  S26  1  0.644710  0.152720  0.749030  1.0  1.6317
  S  S27  1  0.598240  0.484180  0.823480  1.0  1.67
  S  S28  1  0.355290  0.652720  0.750970  1.0  1.6318
  S  S29  1  0.598240  0.015820  0.323480  1.0  1.6573
  S  S30  1  0.355290  0.847280  0.250970  1.0  1.6318
  S  S31  1  0.401760  0.515820  0.176520  1.0  1.6587
  S  S32  1  0.644710  0.347280  0.249030  1.0  1.6317
  O  O33  1  0.174000  0.210340  0.661600  1.0  -0.5819
  O  O34  1  0.435000  0.249970  0.800400  1.0  -0.5365
  O  O35  1  0.173300  0.264050  0.487900  1.0  -0.6127
  O  O36  1  0.454000  0.295080  0.608100  1.0  -0.6128
  O  O37  1  0.121200  0.037610  0.413000  1.0  -0.5613
  O  O38  1  0.145400  0.034450  0.093600  1.0  -0.575
  O  O39  1  0.988300  0.050590  0.604500  1.0  -0.5556
  O  O40  1  0.967800  0.052610  0.907300  1.0  -0.5499
  O  O41  1  0.448700  0.033090  0.646000  1.0  -0.8027
  O  O42  1  0.555100  0.959600  0.714800  1.0  -0.8042
  O  O43  1  0.316300  0.962290  0.547500  1.0  -0.7416
  O  O44  1  0.302800  0.982620  0.793100  1.0  -0.5846
  O  O45  1  0.593900  0.147640  0.895600  1.0  -0.7459
  O  O46  1  0.498700  0.165040  0.654000  1.0  -0.7417
  O  O47  1  0.765000  0.189060  0.748100  1.0  -0.5895
  O  O48  1  0.710500  0.108220  0.704700  1.0  -0.6841
  O  O49  1  0.826000  0.710340  0.838400  1.0  -0.5815
  O  O50  1  0.565000  0.749970  0.699600  1.0  -0.5366
  O  O51  1  0.826700  0.764050  0.012100  1.0  -0.614
  O  O52  1  0.546000  0.795080  0.891900  1.0  -0.6124
  O  O53  1  0.878800  0.537610  0.087000  1.0  -0.5622
  O  O54  1  0.854600  0.534450  0.406400  1.0  -0.5724
  O  O55  1  0.011700  0.550590  0.895500  1.0  -0.5558
  O  O56  1  0.032200  0.552610  0.592700  1.0  -0.5518
  O  O57  1  0.551300  0.533090  0.854000  1.0  -0.8006
  O  O58  1  0.444900  0.459600  0.785200  1.0  -0.8029
  O  O59  1  0.683700  0.462290  0.952500  1.0  -0.741
  O  O60  1  0.697200  0.482620  0.706900  1.0  -0.5829
  O  O61  1  0.406100  0.647640  0.604400  1.0  -0.7479
  O  O62  1  0.501300  0.665040  0.846000  1.0  -0.7459
  O  O63  1  0.235000  0.689060  0.751900  1.0  -0.59
  O  O64  1  0.289500  0.608220  0.795300  1.0  -0.6866
  O  O65  1  0.826000  0.789660  0.338400  1.0  -0.5812
  O  O66  1  0.565000  0.750030  0.199600  1.0  -0.5358
  O  O67  1  0.826700  0.735950  0.512100  1.0  -0.614
  O  O68  1  0.546000  0.704920  0.391900  1.0  -0.6128
  O  O69  1  0.878800  0.962390  0.587000  1.0  -0.5625
  O  O70  1  0.854600  0.965550  0.906400  1.0  -0.5723
  O  O71  1  0.011700  0.949410  0.395500  1.0  -0.5571
  O  O72  1  0.032200  0.947390  0.092700  1.0  -0.5516
  O  O73  1  0.551300  0.966910  0.354000  1.0  -0.7997
  O  O74  1  0.444900  0.040400  0.285200  1.0  -0.8033
  O  O75  1  0.683700  0.037710  0.452500  1.0  -0.7422
  O  O76  1  0.697200  0.017380  0.206900  1.0  -0.5831
  O  O77  1  0.406100  0.852360  0.104400  1.0  -0.7475
  O  O78  1  0.501300  0.834960  0.346000  1.0  -0.7462
  O  O79  1  0.235000  0.810940  0.251900  1.0  -0.5907
  O  O80  1  0.289500  0.891780  0.295300  1.0  -0.6852
  O  O81  1  0.174000  0.289660  0.161600  1.0  -0.5827
  O  O82  1  0.435000  0.250030  0.300400  1.0  -0.5353
  O  O83  1  0.173300  0.235950  0.987900  1.0  -0.6125
  O  O84  1  0.454000  0.204920  0.108100  1.0  -0.6133
  O  O85  1  0.121200  0.462390  0.913000  1.0  -0.5623
  O  O86  1  0.145400  0.465550  0.593600  1.0  -0.575
  O  O87  1  0.988300  0.449410  0.104500  1.0  -0.5558
  O  O88  1  0.967800  0.447390  0.407300  1.0  -0.551
  O  O89  1  0.448700  0.466910  0.146000  1.0  -0.8017
  O  O90  1  0.555100  0.540400  0.214800  1.0  -0.8045
  O  O91  1  0.316300  0.537710  0.047500  1.0  -0.7431
  O  O92  1  0.302800  0.517380  0.293100  1.0  -0.5857
  O  O93  1  0.593900  0.352360  0.395600  1.0  -0.7462
  O  O94  1  0.498700  0.334960  0.154000  1.0  -0.7415
  O  O95  1  0.765000  0.310940  0.248100  1.0  -0.5906
  O  O96  1  0.710500  0.391780  0.204700  1.0  -0.6833
