# generated using pymatgen
data_Co3H48C60(NO8)2
_symmetry_space_group_name_H-M   'P 1'
_cell_length_a   14.18700000
_cell_length_b   22.55000000
_cell_length_c   25.68100000
_cell_angle_alpha   92.09600000
_cell_angle_beta   90.00000000
_cell_angle_gamma   90.00000000
_symmetry_Int_Tables_number   1
_chemical_formula_structural   Co3H48C60(NO8)2
_chemical_formula_sum   'Co12 H192 C240 N8 O64'
_cell_volume   8210.28785051
_cell_formula_units_Z   4
loop_
 _symmetry_equiv_pos_site_id
 _symmetry_equiv_pos_as_xyz
  1  'x, y, z'
loop_
 _atom_site_type_symbol
 _atom_site_label
 _atom_site_symmetry_multiplicity
 _atom_site_fract_x
 _atom_site_fract_y
 _atom_site_fract_z
 _atom_site_occupancy
 _atom_site_charge
  Co  Co1  1  0.283240  0.908380  0.907240  1.0  1.0919
  Co  Co2  1  0.217220  0.585290  0.904390  1.0  1.1053
  Co  Co3  1  0.250130  0.746970  0.904730  1.0  1.1157
  Co  Co4  1  0.716760  0.908380  0.407240  1.0  1.0936
  Co  Co5  1  0.782780  0.585290  0.404390  1.0  1.104
  Co  Co6  1  0.749870  0.746970  0.404730  1.0  1.1156
  Co  Co7  1  0.283240  0.091620  0.592750  1.0  1.0919
  Co  Co8  1  0.217220  0.414710  0.595610  1.0  1.1047
  Co  Co9  1  0.250130  0.253030  0.595270  1.0  1.1156
  Co  Co10  1  0.716760  0.091620  0.092750  1.0  1.094
  Co  Co11  1  0.782780  0.414710  0.095610  1.0  1.1037
  Co  Co12  1  0.749870  0.253030  0.095270  1.0  1.1154
  H  H13  1  0.335300  0.116000  0.007200  1.0  0.0958
  H  H14  1  0.310400  0.217200  0.001400  1.0  0.101
  H  H15  1  0.213000  0.190800  0.855400  1.0  0.1018
  H  H16  1  0.237900  0.089600  0.861200  1.0  0.1013
  H  H17  1  0.168700  0.389100  0.006400  1.0  0.1015
  H  H18  1  0.195900  0.287600  0.003300  1.0  0.1045
  H  H19  1  0.284200  0.296700  0.855200  1.0  0.1077
  H  H20  1  0.256900  0.398200  0.858300  1.0  0.1052
  H  H21  1  0.939300  0.765200  0.524000  1.0  0.1023
  H  H22  1  0.020200  0.765300  0.602500  1.0  0.1137
  H  H23  1  0.910900  0.925100  0.641900  1.0  0.1075
  H  H24  1  0.829900  0.925000  0.563400  1.0  0.0959
  H  H25  1  0.010700  0.756000  0.692100  1.0  0.1068
  H  H26  1  0.090100  0.750000  0.767500  1.0  0.1246
  H  H27  1  0.132800  0.928300  0.767800  1.0  0.0949
  H  H28  1  0.049300  0.934000  0.688400  1.0  0.1278
  H  H29  1  0.901300  0.603600  0.870100  1.0  0.1152
  H  H30  1  0.754800  0.648700  0.864900  1.0  0.1005
  H  H31  1  0.873400  0.806900  0.900400  1.0  0.1099
  H  H32  1  0.019800  0.761800  0.905500  1.0  0.0998
  H  H33  1  0.631500  0.687700  0.904700  1.0  0.1055
  H  H34  1  0.481500  0.731300  0.913800  1.0  0.1082
  H  H35  1  0.595600  0.881500  0.869700  1.0  0.0919
  H  H36  1  0.742000  0.840600  0.862000  1.0  0.1223
  H  H37  1  0.635900  0.559100  0.254400  1.0  0.1067
  H  H38  1  0.555400  0.563100  0.175900  1.0  0.1142
  H  H39  1  0.500800  0.735900  0.205300  1.0  0.1188
  H  H40  1  0.581200  0.731900  0.283800  1.0  0.103
  H  H41  1  0.501600  0.735900  0.115100  1.0  0.133
  H  H42  1  0.426900  0.734700  0.035900  1.0  0.0986
  H  H43  1  0.327800  0.576000  0.058300  1.0  0.0785
  H  H44  1  0.404500  0.572500  0.137800  1.0  0.1143
  H  H45  1  0.664700  0.116000  0.507200  1.0  0.096
  H  H46  1  0.689600  0.217200  0.501400  1.0  0.1011
  H  H47  1  0.787000  0.190800  0.355400  1.0  0.1015
  H  H48  1  0.762100  0.089600  0.361200  1.0  0.101
  H  H49  1  0.831300  0.389100  0.506400  1.0  0.1015
  H  H50  1  0.804100  0.287600  0.503300  1.0  0.1044
  H  H51  1  0.715800  0.296700  0.355200  1.0  0.1074
  H  H52  1  0.743100  0.398200  0.358300  1.0  0.1053
  H  H53  1  0.060700  0.765200  0.024000  1.0  0.1028
  H  H54  1  0.979800  0.765300  0.102500  1.0  0.1142
  H  H55  1  0.089100  0.925100  0.141900  1.0  0.1075
  H  H56  1  0.170100  0.925000  0.063400  1.0  0.0958
  H  H57  1  0.989300  0.756000  0.192100  1.0  0.1065
  H  H58  1  0.909900  0.750000  0.267500  1.0  0.1244
  H  H59  1  0.867200  0.928300  0.267800  1.0  0.095
  H  H60  1  0.950700  0.934000  0.188400  1.0  0.1278
  H  H61  1  0.098700  0.603600  0.370100  1.0  0.1149
  H  H62  1  0.245200  0.648700  0.364900  1.0  0.0997
  H  H63  1  0.126600  0.806900  0.400400  1.0  0.1096
  H  H64  1  0.980200  0.761800  0.405500  1.0  0.1
  H  H65  1  0.368500  0.687700  0.404700  1.0  0.1058
  H  H66  1  0.518500  0.731300  0.413800  1.0  0.1082
  H  H67  1  0.404400  0.881500  0.369700  1.0  0.0915
  H  H68  1  0.258000  0.840600  0.362000  1.0  0.122
  H  H69  1  0.364100  0.559100  0.754400  1.0  0.1066
  H  H70  1  0.444600  0.563100  0.675900  1.0  0.114
  H  H71  1  0.499200  0.735900  0.705300  1.0  0.1191
  H  H72  1  0.418800  0.731900  0.783800  1.0  0.1028
  H  H73  1  0.498400  0.735900  0.615100  1.0  0.1334
  H  H74  1  0.573100  0.734700  0.535900  1.0  0.0984
  H  H75  1  0.672200  0.576000  0.558300  1.0  0.0782
  H  H76  1  0.595500  0.572500  0.637800  1.0  0.1137
  H  H77  1  0.335300  0.884000  0.492800  1.0  0.0958
  H  H78  1  0.310400  0.782800  0.498600  1.0  0.1014
  H  H79  1  0.213000  0.809200  0.644600  1.0  0.1019
  H  H80  1  0.237900  0.910400  0.638800  1.0  0.1025
  H  H81  1  0.168700  0.610900  0.493600  1.0  0.1016
  H  H82  1  0.195900  0.712400  0.496700  1.0  0.1044
  H  H83  1  0.284200  0.703300  0.644800  1.0  0.107
  H  H84  1  0.256900  0.601800  0.641700  1.0  0.107
  H  H85  1  0.939300  0.234800  0.976000  1.0  0.1016
  H  H86  1  0.020200  0.234700  0.897500  1.0  0.1131
  H  H87  1  0.910900  0.074900  0.858100  1.0  0.107
  H  H88  1  0.829900  0.075000  0.936600  1.0  0.0958
  H  H89  1  0.010700  0.244000  0.807900  1.0  0.1079
  H  H90  1  0.090100  0.250000  0.732500  1.0  0.1248
  H  H91  1  0.132800  0.071700  0.732200  1.0  0.0952
  H  H92  1  0.049300  0.066000  0.811600  1.0  0.1268
  H  H93  1  0.901300  0.396400  0.629900  1.0  0.1163
  H  H94  1  0.754800  0.351300  0.635100  1.0  0.0989
  H  H95  1  0.873400  0.193100  0.599600  1.0  0.11
  H  H96  1  0.019800  0.238200  0.594500  1.0  0.1003
  H  H97  1  0.631500  0.312300  0.595300  1.0  0.1058
  H  H98  1  0.481500  0.268700  0.586200  1.0  0.1081
  H  H99  1  0.595600  0.118500  0.630300  1.0  0.0909
  H  H100  1  0.742000  0.159400  0.638000  1.0  0.1222
  H  H101  1  0.635900  0.440900  0.245600  1.0  0.1071
  H  H102  1  0.555400  0.436900  0.324100  1.0  0.1135
  H  H103  1  0.500800  0.264100  0.294700  1.0  0.1186
  H  H104  1  0.581200  0.268100  0.216200  1.0  0.103
  H  H105  1  0.501600  0.264100  0.384900  1.0  0.1328
  H  H106  1  0.426900  0.265300  0.464100  1.0  0.0977
  H  H107  1  0.327800  0.424000  0.441700  1.0  0.0783
  H  H108  1  0.404500  0.427500  0.362200  1.0  0.1141
  H  H109  1  0.664700  0.884000  0.992800  1.0  0.0958
  H  H110  1  0.689600  0.782800  0.998600  1.0  0.1016
  H  H111  1  0.787000  0.809200  0.144600  1.0  0.1021
  H  H112  1  0.762100  0.910400  0.138800  1.0  0.1025
  H  H113  1  0.831300  0.610900  0.993600  1.0  0.1012
  H  H114  1  0.804100  0.712400  0.996700  1.0  0.1039
  H  H115  1  0.715800  0.703300  0.144800  1.0  0.107
  H  H116  1  0.743100  0.601800  0.141700  1.0  0.1058
  H  H117  1  0.060700  0.234800  0.476000  1.0  0.1015
  H  H118  1  0.979800  0.234700  0.397500  1.0  0.1138
  H  H119  1  0.089100  0.074900  0.358100  1.0  0.1079
  H  H120  1  0.170100  0.075000  0.436600  1.0  0.0958
  H  H121  1  0.989300  0.244000  0.307900  1.0  0.107
  H  H122  1  0.909900  0.250000  0.232500  1.0  0.1245
  H  H123  1  0.867200  0.071700  0.232200  1.0  0.095
  H  H124  1  0.950700  0.066000  0.311600  1.0  0.1269
  H  H125  1  0.098700  0.396400  0.129900  1.0  0.1161
  H  H126  1  0.245200  0.351300  0.135100  1.0  0.099
  H  H127  1  0.126600  0.193100  0.099600  1.0  0.1095
  H  H128  1  0.980200  0.238200  0.094500  1.0  0.1002
  H  H129  1  0.368500  0.312300  0.095300  1.0  0.1061
  H  H130  1  0.518500  0.268700  0.086200  1.0  0.108
  H  H131  1  0.404400  0.118500  0.130300  1.0  0.0909
  H  H132  1  0.258000  0.159400  0.138000  1.0  0.1213
  H  H133  1  0.364100  0.440900  0.745600  1.0  0.1072
  H  H134  1  0.444600  0.436900  0.824100  1.0  0.1134
  H  H135  1  0.499200  0.264100  0.794700  1.0  0.1189
  H  H136  1  0.418800  0.268100  0.716200  1.0  0.1027
  H  H137  1  0.498400  0.264100  0.884900  1.0  0.133
  H  H138  1  0.573100  0.265300  0.964100  1.0  0.0977
  H  H139  1  0.672200  0.424000  0.941700  1.0  0.0778
  H  H140  1  0.595500  0.427500  0.862200  1.0  0.1139
  H  H141  1  0.727000  0.499500  0.886500  1.0  0.1007
  H  H142  1  0.740400  0.565300  0.870100  1.0  0.1249
  H  H143  1  0.655700  0.527600  0.847900  1.0  0.108
  H  H144  1  0.489000  0.537100  0.927500  1.0  0.1229
  H  H145  1  0.510000  0.589800  0.891100  1.0  0.1164
  H  H146  1  0.510700  0.600400  0.951700  1.0  0.108
  H  H147  1  0.638800  0.529600  0.949000  1.0  0.2331
  H  H148  1  0.661300  0.590100  0.938100  1.0  0.2443
  H  H149  1  0.813700  0.979200  0.867800  1.0  0.1088
  H  H150  1  0.775900  0.981800  0.925200  1.0  0.1
  H  H151  1  0.770300  0.922400  0.891700  1.0  0.1272
  H  H152  1  0.896500  0.908600  0.939500  1.0  0.2137
  H  H153  1  0.925100  0.969800  0.940400  1.0  0.2445
  H  H154  1  0.034300  0.956500  0.882100  1.0  0.1156
  H  H155  1  0.974500  0.908600  0.851200  1.0  0.1133
  H  H156  1  0.029000  0.891500  0.901600  1.0  0.1184
  H  H157  1  0.727000  0.500500  0.613500  1.0  0.1006
  H  H158  1  0.740400  0.434700  0.629900  1.0  0.1192
  H  H159  1  0.655700  0.472400  0.652100  1.0  0.1086
  H  H160  1  0.489000  0.462900  0.572500  1.0  0.1229
  H  H161  1  0.510000  0.410200  0.608900  1.0  0.116
  H  H162  1  0.510700  0.399600  0.548300  1.0  0.1078
  H  H163  1  0.638800  0.470400  0.551000  1.0  0.2347
  H  H164  1  0.661300  0.409900  0.561900  1.0  0.2417
  H  H165  1  0.813700  0.020800  0.632200  1.0  0.1095
  H  H166  1  0.775900  0.018200  0.574800  1.0  0.1
  H  H167  1  0.770300  0.077600  0.608300  1.0  0.1266
  H  H168  1  0.896500  0.091400  0.560500  1.0  0.2156
  H  H169  1  0.925100  0.030200  0.559600  1.0  0.2459
  H  H170  1  0.034300  0.043500  0.617900  1.0  0.1149
  H  H171  1  0.974500  0.091400  0.648800  1.0  0.1132
  H  H172  1  0.029000  0.108500  0.598400  1.0  0.1194
  H  H173  1  0.273000  0.500500  0.113500  1.0  0.1007
  H  H174  1  0.259600  0.434700  0.129900  1.0  0.1205
  H  H175  1  0.344300  0.472400  0.152100  1.0  0.1084
  H  H176  1  0.511000  0.462900  0.072500  1.0  0.1223
  H  H177  1  0.490000  0.410200  0.108900  1.0  0.1156
  H  H178  1  0.489300  0.399600  0.048300  1.0  0.1078
  H  H179  1  0.361200  0.470400  0.051000  1.0  0.2352
  H  H180  1  0.338700  0.409900  0.061900  1.0  0.2424
  H  H181  1  0.186300  0.020800  0.132200  1.0  0.1081
  H  H182  1  0.224100  0.018200  0.074800  1.0  0.0994
  H  H183  1  0.229700  0.077600  0.108300  1.0  0.1251
  H  H184  1  0.103500  0.091400  0.060500  1.0  0.2155
  H  H185  1  0.074900  0.030200  0.059600  1.0  0.2461
  H  H186  1  0.965700  0.043500  0.117900  1.0  0.115
  H  H187  1  0.025500  0.091400  0.148800  1.0  0.1134
  H  H188  1  0.971000  0.108500  0.098400  1.0  0.1197
  H  H189  1  0.273000  0.499500  0.386500  1.0  0.1005
  H  H190  1  0.259600  0.565300  0.370100  1.0  0.1253
  H  H191  1  0.344300  0.527600  0.347900  1.0  0.1072
  H  H192  1  0.511000  0.537100  0.427500  1.0  0.1231
  H  H193  1  0.490000  0.589800  0.391100  1.0  0.1161
  H  H194  1  0.489300  0.600400  0.451700  1.0  0.1071
  H  H195  1  0.361200  0.529600  0.449000  1.0  0.2333
  H  H196  1  0.338700  0.590100  0.438100  1.0  0.2447
  H  H197  1  0.186300  0.979200  0.367800  1.0  0.1103
  H  H198  1  0.224100  0.981800  0.425200  1.0  0.1005
  H  H199  1  0.229700  0.922400  0.391700  1.0  0.1259
  H  H200  1  0.103500  0.908600  0.439500  1.0  0.2136
  H  H201  1  0.074900  0.969800  0.440400  1.0  0.2447
  H  H202  1  0.965700  0.956500  0.382100  1.0  0.1155
  H  H203  1  0.025500  0.908600  0.351200  1.0  0.1142
  H  H204  1  0.971000  0.891500  0.401600  1.0  0.1184
  C  C205  1  0.295850  0.028000  0.938240  1.0  0.7321
  C  C206  1  0.310760  0.130950  0.976770  1.0  -0.0217
  C  C207  1  0.295860  0.191600  0.973270  1.0  -0.1284
  C  C208  1  0.259240  0.214010  0.927800  1.0  0.0429
  C  C209  1  0.237530  0.175780  0.885830  1.0  -0.1086
  C  C210  1  0.252420  0.115130  0.889330  1.0  -0.0559
  C  C211  1  0.289040  0.092720  0.934800  1.0  -0.1535
  C  C212  1  0.210090  0.403720  0.932670  1.0  -0.1246
  C  C213  1  0.191820  0.370580  0.976120  1.0  -0.0541
  C  C214  1  0.208150  0.309760  0.974260  1.0  -0.1271
  C  C215  1  0.242740  0.282080  0.928940  1.0  0.0689
  C  C216  1  0.261010  0.315220  0.885480  1.0  -0.1038
  C  C217  1  0.244680  0.376040  0.887340  1.0  -0.0243
  C  C218  1  0.211840  0.471840  0.934130  1.0  0.4648
  C  C219  1  0.825640  0.845420  0.483710  1.0  0.7092
  C  C220  1  0.876580  0.845090  0.535920  1.0  -0.1349
  C  C221  1  0.933580  0.797240  0.547620  1.0  -0.0388
  C  C222  1  0.982090  0.797290  0.594650  1.0  -0.1769
  C  C223  1  0.973600  0.845180  0.629970  1.0  0.041
  C  C224  1  0.916600  0.893030  0.618270  1.0  -0.1256
  C  C225  1  0.868090  0.892980  0.571240  1.0  -0.0153
  C  C226  1  0.029250  0.843910  0.678370  1.0  0.038
  C  C227  1  0.038400  0.790260  0.706360  1.0  -0.1351
  C  C228  1  0.084230  0.786250  0.751770  1.0  -0.08
  C  C229  1  0.124570  0.840010  0.775840  1.0  -0.1013
  C  C230  1  0.109750  0.893610  0.751720  1.0  -0.0214
  C  C231  1  0.060370  0.897530  0.703060  1.0  -0.2093
  C  C232  1  0.178590  0.838910  0.826730  1.0  0.67
  C  C233  1  0.071770  0.649230  0.895460  1.0  0.6757
  C  C234  1  0.975080  0.678180  0.888270  1.0  -0.1298
  C  C235  1  0.895670  0.644310  0.876130  1.0  -0.0711
  C  C236  1  0.807910  0.671360  0.873070  1.0  -0.1633
  C  C237  1  0.799550  0.732280  0.882150  1.0  0.0414
  C  C238  1  0.878950  0.766150  0.894290  1.0  -0.1022
  C  C239  1  0.966710  0.739100  0.897350  1.0  -0.0063
  C  C240  1  0.701280  0.759950  0.883890  1.0  0.0332
  C  C241  1  0.623970  0.727700  0.898160  1.0  -0.0997
  C  C242  1  0.532940  0.753440  0.903290  1.0  -0.0708
  C  C243  1  0.523780  0.810980  0.892350  1.0  -0.115
  C  C244  1  0.602990  0.841750  0.877200  1.0  -0.0585
  C  C245  1  0.691060  0.818040  0.872520  1.0  -0.234
  C  C246  1  0.430220  0.842340  0.898320  1.0  0.6624
  C  C247  1  0.669850  0.645330  0.328760  1.0  0.6848
  C  C248  1  0.616510  0.645120  0.276850  1.0  -0.1419
  C  C249  1  0.608800  0.594530  0.244550  1.0  -0.0435
  C  C250  1  0.560610  0.596910  0.197550  1.0  -0.0975
  C  C251  1  0.520120  0.649880  0.182840  1.0  0.0542
  C  C252  1  0.527840  0.700470  0.215140  1.0  -0.1091
  C  C253  1  0.576030  0.698090  0.262140  1.0  -0.0196
  C  C254  1  0.465390  0.651750  0.132870  1.0  0.0561
  C  C255  1  0.468800  0.702350  0.103240  1.0  -0.1995
  C  C256  1  0.422570  0.701390  0.056170  1.0  -0.0292
  C  C257  1  0.370290  0.654000  0.037350  1.0  -0.1094
  C  C258  1  0.364810  0.608190  0.068980  1.0  -0.0458
  C  C259  1  0.411140  0.605390  0.117290  1.0  -0.2284
  C  C260  1  0.315420  0.657920  0.986970  1.0  0.6877
  C  C261  1  0.704150  0.028000  0.438240  1.0  0.7326
  C  C262  1  0.689240  0.130950  0.476770  1.0  -0.0208
  C  C263  1  0.704140  0.191600  0.473270  1.0  -0.1281
  C  C264  1  0.740760  0.214010  0.427800  1.0  0.0424
  C  C265  1  0.762470  0.175780  0.385830  1.0  -0.1092
  C  C266  1  0.747580  0.115130  0.389330  1.0  -0.0555
  C  C267  1  0.710960  0.092720  0.434800  1.0  -0.1544
  C  C268  1  0.789910  0.403720  0.432670  1.0  -0.1256
  C  C269  1  0.808180  0.370580  0.476120  1.0  -0.0571
  C  C270  1  0.791850  0.309760  0.474260  1.0  -0.127
  C  C271  1  0.757260  0.282080  0.428940  1.0  0.0693
  C  C272  1  0.738990  0.315220  0.385480  1.0  -0.1039
  C  C273  1  0.755320  0.376040  0.387340  1.0  -0.0238
  C  C274  1  0.788160  0.471840  0.434130  1.0  0.4657
  C  C275  1  0.174360  0.845420  0.983710  1.0  0.7094
  C  C276  1  0.123420  0.845090  0.035920  1.0  -0.135
  C  C277  1  0.066420  0.797240  0.047620  1.0  -0.038
  C  C278  1  0.017910  0.797290  0.094650  1.0  -0.1758
  C  C279  1  0.026400  0.845180  0.129970  1.0  0.039
  C  C280  1  0.083400  0.893030  0.118270  1.0  -0.1251
  C  C281  1  0.131910  0.892980  0.071240  1.0  -0.0146
  C  C282  1  0.970750  0.843910  0.178370  1.0  0.0376
  C  C283  1  0.961600  0.790260  0.206360  1.0  -0.1357
  C  C284  1  0.915770  0.786250  0.251770  1.0  -0.0809
  C  C285  1  0.875430  0.840010  0.275840  1.0  -0.101
  C  C286  1  0.890250  0.893610  0.251720  1.0  -0.0214
  C  C287  1  0.939630  0.897530  0.203060  1.0  -0.2088
  C  C288  1  0.821410  0.838910  0.326730  1.0  0.6705
  C  C289  1  0.928230  0.649230  0.395460  1.0  0.6752
  C  C290  1  0.024920  0.678180  0.388270  1.0  -0.1292
  C  C291  1  0.104330  0.644310  0.376130  1.0  -0.0691
  C  C292  1  0.192090  0.671360  0.373070  1.0  -0.1656
  C  C293  1  0.200450  0.732280  0.382150  1.0  0.0418
  C  C294  1  0.121050  0.766150  0.394290  1.0  -0.1021
  C  C295  1  0.033290  0.739100  0.397350  1.0  -0.0053
  C  C296  1  0.298720  0.759950  0.383890  1.0  0.0329
  C  C297  1  0.376030  0.727700  0.398160  1.0  -0.0994
  C  C298  1  0.467060  0.753440  0.403290  1.0  -0.07
  C  C299  1  0.476220  0.810980  0.392350  1.0  -0.1153
  C  C300  1  0.397010  0.841750  0.377200  1.0  -0.0599
  C  C301  1  0.308940  0.818040  0.372520  1.0  -0.2323
  C  C302  1  0.569780  0.842340  0.398320  1.0  0.6646
  C  C303  1  0.330150  0.645330  0.828760  1.0  0.6848
  C  C304  1  0.383490  0.645120  0.776850  1.0  -0.1415
  C  C305  1  0.391200  0.594530  0.744550  1.0  -0.0441
  C  C306  1  0.439390  0.596910  0.697550  1.0  -0.0967
  C  C307  1  0.479880  0.649880  0.682840  1.0  0.0522
  C  C308  1  0.472160  0.700470  0.715140  1.0  -0.1105
  C  C309  1  0.423970  0.698090  0.762140  1.0  -0.0194
  C  C310  1  0.534610  0.651750  0.632870  1.0  0.0559
  C  C311  1  0.531200  0.702350  0.603240  1.0  -0.1965
  C  C312  1  0.577430  0.701390  0.556170  1.0  -0.0283
  C  C313  1  0.629710  0.654000  0.537350  1.0  -0.1101
  C  C314  1  0.635190  0.608190  0.568980  1.0  -0.0458
  C  C315  1  0.588860  0.605390  0.617290  1.0  -0.2277
  C  C316  1  0.684580  0.657920  0.486970  1.0  0.6879
  C  C317  1  0.295850  0.972000  0.561760  1.0  0.7322
  C  C318  1  0.310760  0.869050  0.523230  1.0  -0.0206
  C  C319  1  0.295860  0.808400  0.526730  1.0  -0.1269
  C  C320  1  0.259240  0.785990  0.572200  1.0  0.0423
  C  C321  1  0.237530  0.824220  0.614170  1.0  -0.1078
  C  C322  1  0.252420  0.884870  0.610670  1.0  -0.0554
  C  C323  1  0.289040  0.907280  0.565200  1.0  -0.153
  C  C324  1  0.210090  0.596280  0.567330  1.0  -0.1251
  C  C325  1  0.191820  0.629420  0.523880  1.0  -0.0533
  C  C326  1  0.208150  0.690240  0.525740  1.0  -0.1266
  C  C327  1  0.242740  0.717920  0.571060  1.0  0.0689
  C  C328  1  0.261010  0.684780  0.614520  1.0  -0.1032
  C  C329  1  0.244680  0.623960  0.612660  1.0  -0.0253
  C  C330  1  0.211840  0.528160  0.565860  1.0  0.4672
  C  C331  1  0.825640  0.154580  0.016290  1.0  0.7096
  C  C332  1  0.876580  0.154910  0.964080  1.0  -0.1335
  C  C333  1  0.933580  0.202760  0.952380  1.0  -0.0403
  C  C334  1  0.982090  0.202710  0.905350  1.0  -0.1767
  C  C335  1  0.973600  0.154820  0.870030  1.0  0.0407
  C  C336  1  0.916600  0.106970  0.881730  1.0  -0.1241
  C  C337  1  0.868090  0.107020  0.928760  1.0  -0.0147
  C  C338  1  0.029250  0.156090  0.821630  1.0  0.0373
  C  C339  1  0.038400  0.209740  0.793640  1.0  -0.134
  C  C340  1  0.084230  0.213750  0.748230  1.0  -0.0804
  C  C341  1  0.124570  0.159990  0.724160  1.0  -0.1005
  C  C342  1  0.109750  0.106390  0.748280  1.0  -0.0208
  C  C343  1  0.060370  0.102470  0.796940  1.0  -0.2075
  C  C344  1  0.178590  0.161090  0.673270  1.0  0.6695
  C  C345  1  0.071770  0.350770  0.604540  1.0  0.6761
  C  C346  1  0.975080  0.321820  0.611730  1.0  -0.1295
  C  C347  1  0.895670  0.355690  0.623870  1.0  -0.0717
  C  C348  1  0.807910  0.328640  0.626930  1.0  -0.1648
  C  C349  1  0.799550  0.267720  0.617850  1.0  0.0431
  C  C350  1  0.878950  0.233850  0.605710  1.0  -0.1027
  C  C351  1  0.966710  0.260900  0.602650  1.0  -0.0051
  C  C352  1  0.701280  0.240050  0.616110  1.0  0.0355
  C  C353  1  0.623970  0.272300  0.601840  1.0  -0.0992
  C  C354  1  0.532940  0.246560  0.596710  1.0  -0.0718
  C  C355  1  0.523780  0.189020  0.607650  1.0  -0.1154
  C  C356  1  0.602990  0.158250  0.622800  1.0  -0.0591
  C  C357  1  0.691060  0.181960  0.627480  1.0  -0.2328
  C  C358  1  0.430220  0.157660  0.601680  1.0  0.6617
  C  C359  1  0.669850  0.354670  0.171240  1.0  0.6842
  C  C360  1  0.616510  0.354880  0.223150  1.0  -0.1425
  C  C361  1  0.608800  0.405470  0.255450  1.0  -0.0445
  C  C362  1  0.560610  0.403090  0.302450  1.0  -0.098
  C  C363  1  0.520120  0.350120  0.317160  1.0  0.0536
  C  C364  1  0.527840  0.299530  0.284860  1.0  -0.1089
  C  C365  1  0.576030  0.301910  0.237860  1.0  -0.0196
  C  C366  1  0.465390  0.348250  0.367130  1.0  0.0565
  C  C367  1  0.468800  0.297650  0.396760  1.0  -0.1983
  C  C368  1  0.422570  0.298610  0.443830  1.0  -0.029
  C  C369  1  0.370290  0.346000  0.462650  1.0  -0.1089
  C  C370  1  0.364810  0.391810  0.431020  1.0  -0.0471
  C  C371  1  0.411140  0.394610  0.382710  1.0  -0.2298
  C  C372  1  0.315420  0.342080  0.513030  1.0  0.6877
  C  C373  1  0.704150  0.972000  0.061760  1.0  0.7335
  C  C374  1  0.689240  0.869050  0.023230  1.0  -0.0201
  C  C375  1  0.704140  0.808400  0.026730  1.0  -0.1275
  C  C376  1  0.740760  0.785990  0.072200  1.0  0.0417
  C  C377  1  0.762470  0.824220  0.114170  1.0  -0.1085
  C  C378  1  0.747580  0.884870  0.110670  1.0  -0.0563
  C  C379  1  0.710960  0.907280  0.065200  1.0  -0.1532
  C  C380  1  0.789910  0.596280  0.067330  1.0  -0.1263
  C  C381  1  0.808180  0.629420  0.023880  1.0  -0.0567
  C  C382  1  0.791850  0.690240  0.025740  1.0  -0.1254
  C  C383  1  0.757260  0.717920  0.071060  1.0  0.069
  C  C384  1  0.738990  0.684780  0.114520  1.0  -0.1037
  C  C385  1  0.755320  0.623960  0.112660  1.0  -0.025
  C  C386  1  0.788160  0.528160  0.065860  1.0  0.4672
  C  C387  1  0.174360  0.154580  0.516290  1.0  0.7101
  C  C388  1  0.123420  0.154910  0.464080  1.0  -0.1351
  C  C389  1  0.066420  0.202760  0.452380  1.0  -0.0394
  C  C390  1  0.017910  0.202710  0.405350  1.0  -0.1767
  C  C391  1  0.026400  0.154820  0.370030  1.0  0.0393
  C  C392  1  0.083400  0.106970  0.381730  1.0  -0.1242
  C  C393  1  0.131910  0.107020  0.428760  1.0  -0.0141
  C  C394  1  0.970750  0.156090  0.321630  1.0  0.0368
  C  C395  1  0.961600  0.209740  0.293640  1.0  -0.136
  C  C396  1  0.915770  0.213750  0.248230  1.0  -0.0805
  C  C397  1  0.875430  0.159990  0.224160  1.0  -0.1006
  C  C398  1  0.890250  0.106390  0.248280  1.0  -0.0208
  C  C399  1  0.939630  0.102470  0.296940  1.0  -0.2071
  C  C400  1  0.821410  0.161090  0.173270  1.0  0.6699
  C  C401  1  0.928230  0.350770  0.104540  1.0  0.6747
  C  C402  1  0.024920  0.321820  0.111730  1.0  -0.1277
  C  C403  1  0.104330  0.355690  0.123870  1.0  -0.0711
  C  C404  1  0.192090  0.328640  0.126930  1.0  -0.1654
  C  C405  1  0.200450  0.267720  0.117850  1.0  0.0431
  C  C406  1  0.121050  0.233850  0.105710  1.0  -0.1032
  C  C407  1  0.033290  0.260900  0.102650  1.0  -0.0045
  C  C408  1  0.298720  0.240050  0.116110  1.0  0.0362
  C  C409  1  0.376030  0.272300  0.101840  1.0  -0.0994
  C  C410  1  0.467060  0.246560  0.096710  1.0  -0.071
  C  C411  1  0.476220  0.189020  0.107650  1.0  -0.1144
  C  C412  1  0.397010  0.158250  0.122800  1.0  -0.0598
  C  C413  1  0.308940  0.181960  0.127480  1.0  -0.2313
  C  C414  1  0.569780  0.157660  0.101680  1.0  0.6632
  C  C415  1  0.330150  0.354670  0.671240  1.0  0.6843
  C  C416  1  0.383490  0.354880  0.723150  1.0  -0.1425
  C  C417  1  0.391200  0.405470  0.755450  1.0  -0.045
  C  C418  1  0.439390  0.403090  0.802450  1.0  -0.0976
  C  C419  1  0.479880  0.350120  0.817160  1.0  0.0519
  C  C420  1  0.472160  0.299530  0.784860  1.0  -0.1106
  C  C421  1  0.423970  0.301910  0.737860  1.0  -0.0195
  C  C422  1  0.534610  0.348250  0.867130  1.0  0.0562
  C  C423  1  0.531200  0.297650  0.896760  1.0  -0.1965
  C  C424  1  0.577430  0.298610  0.943830  1.0  -0.028
  C  C425  1  0.629710  0.346000  0.962650  1.0  -0.1099
  C  C426  1  0.635190  0.391810  0.931020  1.0  -0.046
  C  C427  1  0.588860  0.394610  0.882710  1.0  -0.2294
  C  C428  1  0.684580  0.342080  0.013030  1.0  0.689
  C  C429  1  0.694940  0.535300  0.877800  1.0  -0.2719
  C  C430  1  0.525230  0.572610  0.923670  1.0  -0.2699
  C  C431  1  0.807030  0.957460  0.898990  1.0  -0.2832
  C  C432  1  0.994510  0.922390  0.885250  1.0  -0.2772
  C  C433  1  0.694940  0.464700  0.622200  1.0  -0.2716
  C  C434  1  0.525230  0.427390  0.576330  1.0  -0.27
  C  C435  1  0.807030  0.042540  0.601000  1.0  -0.2835
  C  C436  1  0.994510  0.077610  0.614750  1.0  -0.2769
  C  C437  1  0.305060  0.464700  0.122200  1.0  -0.2726
  C  C438  1  0.474770  0.427390  0.076330  1.0  -0.2715
  C  C439  1  0.192970  0.042540  0.101000  1.0  -0.2813
  C  C440  1  0.005490  0.077610  0.114750  1.0  -0.276
  C  C441  1  0.305060  0.535300  0.377800  1.0  -0.2716
  C  C442  1  0.474770  0.572610  0.423670  1.0  -0.2716
  C  C443  1  0.192970  0.957460  0.398990  1.0  -0.2811
  C  C444  1  0.005490  0.922390  0.385250  1.0  -0.2762
  N  N445  1  0.632590  0.557280  0.924870  1.0  -0.0569
  N  N446  1  0.906360  0.939520  0.919010  1.0  -0.1188
  N  N447  1  0.632590  0.442720  0.575130  1.0  -0.0571
  N  N448  1  0.906360  0.060480  0.580990  1.0  -0.119
  N  N449  1  0.367410  0.442720  0.075130  1.0  -0.0572
  N  N450  1  0.093640  0.060480  0.080990  1.0  -0.1193
  N  N451  1  0.367410  0.557280  0.424870  1.0  -0.0576
  N  N452  1  0.093640  0.939520  0.419010  1.0  -0.1194
  O  O453  1  0.143230  0.679370  0.902580  1.0  -0.6309
  O  O454  1  0.074630  0.594270  0.892430  1.0  -0.5704
  O  O455  1  0.359590  0.814230  0.908890  1.0  -0.6635
  O  O456  1  0.424110  0.897040  0.895720  1.0  -0.5846
  O  O457  1  0.196300  0.791120  0.842040  1.0  -0.6035
  O  O458  1  0.207930  0.887870  0.843380  1.0  -0.6013
  O  O459  1  0.836730  0.801900  0.453010  1.0  -0.6167
  O  O460  1  0.779490  0.890700  0.474510  1.0  -0.5844
  O  O461  1  0.266610  0.995690  0.902940  1.0  -0.5719
  O  O462  1  0.344040  0.008390  0.975880  1.0  -0.5145
  O  O463  1  0.711180  0.600550  0.338690  1.0  -0.5735
  O  O464  1  0.663860  0.692140  0.356600  1.0  -0.6239
  O  O465  1  0.279160  0.608300  0.972950  1.0  -0.6138
  O  O466  1  0.310910  0.703730  0.966700  1.0  -0.593
  O  O467  1  0.234000  0.499070  0.902800  1.0  -0.5492
  O  O468  1  0.148500  0.491950  0.972320  1.0  -0.5066
  O  O469  1  0.856770  0.679370  0.402580  1.0  -0.6308
  O  O470  1  0.925370  0.594270  0.392430  1.0  -0.5702
  O  O471  1  0.640410  0.814230  0.408890  1.0  -0.6642
  O  O472  1  0.575890  0.897040  0.395720  1.0  -0.5854
  O  O473  1  0.803700  0.791120  0.342040  1.0  -0.6038
  O  O474  1  0.792070  0.887870  0.343380  1.0  -0.6025
  O  O475  1  0.163270  0.801900  0.953010  1.0  -0.6166
  O  O476  1  0.220510  0.890700  0.974510  1.0  -0.5853
  O  O477  1  0.733390  0.995690  0.402940  1.0  -0.5718
  O  O478  1  0.655960  0.008390  0.475880  1.0  -0.509
  O  O479  1  0.288820  0.600550  0.838690  1.0  -0.572
  O  O480  1  0.336140  0.692140  0.856600  1.0  -0.6232
  O  O481  1  0.720840  0.608300  0.472950  1.0  -0.613
  O  O482  1  0.689090  0.703730  0.466700  1.0  -0.5923
  O  O483  1  0.766000  0.499070  0.402800  1.0  -0.5486
  O  O484  1  0.851500  0.491950  0.472320  1.0  -0.5081
  O  O485  1  0.143230  0.320630  0.597420  1.0  -0.6317
  O  O486  1  0.074630  0.405730  0.607570  1.0  -0.5696
  O  O487  1  0.359590  0.185770  0.591110  1.0  -0.6625
  O  O488  1  0.424110  0.102960  0.604280  1.0  -0.5843
  O  O489  1  0.196300  0.208880  0.657960  1.0  -0.6064
  O  O490  1  0.207930  0.112130  0.656620  1.0  -0.602
  O  O491  1  0.836730  0.198100  0.046990  1.0  -0.6186
  O  O492  1  0.779490  0.109300  0.025490  1.0  -0.5854
  O  O493  1  0.266610  0.004310  0.597060  1.0  -0.5721
  O  O494  1  0.344040  0.991610  0.524120  1.0  -0.508
  O  O495  1  0.711180  0.399450  0.161310  1.0  -0.5723
  O  O496  1  0.663860  0.307860  0.143400  1.0  -0.6236
  O  O497  1  0.279160  0.391700  0.527050  1.0  -0.6139
  O  O498  1  0.310910  0.296270  0.533300  1.0  -0.5904
  O  O499  1  0.234000  0.500930  0.597200  1.0  -0.5471
  O  O500  1  0.148500  0.508050  0.527680  1.0  -0.5077
  O  O501  1  0.856770  0.320630  0.097420  1.0  -0.6315
  O  O502  1  0.925370  0.405730  0.107570  1.0  -0.5696
  O  O503  1  0.640410  0.185770  0.091110  1.0  -0.6626
  O  O504  1  0.575890  0.102960  0.104280  1.0  -0.5844
  O  O505  1  0.803700  0.208880  0.157960  1.0  -0.606
  O  O506  1  0.792070  0.112130  0.156620  1.0  -0.6007
  O  O507  1  0.163270  0.198100  0.546990  1.0  -0.6186
  O  O508  1  0.220510  0.109300  0.525490  1.0  -0.5862
  O  O509  1  0.733390  0.004310  0.097060  1.0  -0.5709
  O  O510  1  0.655960  0.991610  0.024120  1.0  -0.5087
  O  O511  1  0.288820  0.399450  0.661310  1.0  -0.5721
  O  O512  1  0.336140  0.307860  0.643400  1.0  -0.6227
  O  O513  1  0.720840  0.391700  0.027050  1.0  -0.6132
  O  O514  1  0.689090  0.296270  0.033300  1.0  -0.5899
  O  O515  1  0.766000  0.500930  0.097200  1.0  -0.5465
  O  O516  1  0.851500  0.508050  0.027680  1.0  -0.5079
