# generated using pymatgen
data_CeH13(C3N2)4
_symmetry_space_group_name_H-M   'P 1'
_cell_length_a   14.02400000
_cell_length_b   23.25300000
_cell_length_c   23.45500000
_cell_angle_alpha   107.68000000
_cell_angle_beta   90.00000000
_cell_angle_gamma   90.00000000
_symmetry_Int_Tables_number   1
_chemical_formula_structural   CeH13(C3N2)4
_chemical_formula_sum   'Ce16 H208 C192 N128'
_cell_volume   7287.41143177
_cell_formula_units_Z   16
loop_
 _symmetry_equiv_pos_site_id
 _symmetry_equiv_pos_as_xyz
  1  'x, y, z'
loop_
 _atom_site_type_symbol
 _atom_site_label
 _atom_site_symmetry_multiplicity
 _atom_site_fract_x
 _atom_site_fract_y
 _atom_site_fract_z
 _atom_site_occupancy
 _atom_site_charge
  Ce  Ce1  1  0.557280  0.752500  0.207640  1.0  2.2331
  Ce  Ce2  1  0.797170  0.488880  0.226360  1.0  2.1205
  Ce  Ce3  1  0.442720  0.247500  0.792360  1.0  2.235
  Ce  Ce4  1  0.800490  0.223120  0.996380  1.0  2.2299
  Ce  Ce5  1  0.144700  0.257800  0.209240  1.0  2.1605
  Ce  Ce6  1  0.942720  0.252500  0.707640  1.0  2.2348
  Ce  Ce7  1  0.297170  0.011120  0.273650  1.0  2.1201
  Ce  Ce8  1  0.644700  0.242200  0.290760  1.0  2.1602
  Ce  Ce9  1  0.199510  0.776880  0.003620  1.0  2.2297
  Ce  Ce10  1  0.202830  0.511120  0.773650  1.0  2.1196
  Ce  Ce11  1  0.699510  0.723120  0.496390  1.0  2.23
  Ce  Ce12  1  0.855300  0.742200  0.790760  1.0  2.161
  Ce  Ce13  1  0.057280  0.747500  0.292360  1.0  2.2351
  Ce  Ce14  1  0.702830  0.988880  0.726350  1.0  2.1201
  Ce  Ce15  1  0.300490  0.276880  0.503620  1.0  2.2297
  Ce  Ce16  1  0.355300  0.757800  0.709240  1.0  2.1612
  H  H17  1  0.154800  0.273200  0.632500  1.0  0.0534
  H  H18  1  0.717600  0.135100  0.460500  1.0  0.2196
  H  H19  1  0.397100  0.599600  0.606500  1.0  0.0644
  H  H20  1  0.443400  0.427300  0.102600  1.0  0.0778
  H  H21  1  0.329500  0.367300  0.910900  1.0  0.0721
  H  H22  1  0.902600  0.304900  0.271900  1.0  0.05
  H  H23  1  0.363700  0.373900  0.745600  1.0  0.0654
  H  H24  1  0.726500  0.047800  0.609100  1.0  0.0535
  H  H25  1  0.273500  0.952200  0.390900  1.0  0.0538
  H  H26  1  0.678300  0.545300  0.605900  1.0  0.2772
  H  H27  1  0.370000  0.306800  0.035600  1.0  0.0695
  H  H28  1  0.735800  0.362000  0.110200  1.0  0.1217
  H  H29  1  0.422900  0.705600  0.466800  1.0  0.0715
  H  H30  1  0.905600  0.832100  0.533200  1.0  0.07
  H  H31  1  0.148100  0.629000  0.453600  1.0  0.1028
  H  H32  1  0.052200  0.172600  0.800400  1.0  0.0651
  H  H33  1  0.595500  0.110800  0.174800  1.0  0.0834
  H  H34  1  0.097700  0.154200  0.685800  1.0  0.1031
  H  H35  1  0.491400  0.788500  0.849100  1.0  0.082
  H  H36  1  0.991400  0.711500  0.650900  1.0  0.0818
  H  H37  1  0.535500  0.656100  0.041500  1.0  0.0494
  H  H38  1  0.314600  0.391600  0.652500  1.0  0.0623
  H  H39  1  0.464500  0.343900  0.958500  1.0  0.0528
  H  H40  1  0.685400  0.608400  0.347500  1.0  0.0631
  H  H41  1  0.958300  0.456100  0.094300  1.0  0.084
  H  H42  1  0.212200  0.195000  0.839300  1.0  0.0486
  H  H43  1  0.081300  0.108000  0.263100  1.0  0.0563
  H  H44  1  0.543700  0.064500  0.846300  1.0  0.0693
  H  H45  1  0.845200  0.726800  0.367500  1.0  0.0536
  H  H46  1  0.746500  0.639300  0.612700  1.0  0.0639
  H  H47  1  0.140700  0.771700  0.627600  1.0  0.0616
  H  H48  1  0.508600  0.211500  0.150900  1.0  0.0809
  H  H49  1  0.940100  0.506200  0.773100  1.0  0.0592
  H  H50  1  0.397200  0.510500  0.879400  1.0  0.0745
  H  H51  1  0.904500  0.610800  0.674800  1.0  0.0838
  H  H52  1  0.094400  0.167900  0.466800  1.0  0.0707
  H  H53  1  0.246500  0.860700  0.887300  1.0  0.0651
  H  H54  1  0.764200  0.862000  0.610200  1.0  0.1206
  H  H55  1  0.227100  0.737000  0.838500  1.0  0.0633
  H  H56  1  0.068700  0.761300  0.883700  1.0  0.0484
  H  H57  1  0.801600  0.874300  0.095400  1.0  0.1028
  H  H58  1  0.077100  0.205600  0.966800  1.0  0.0712
  H  H59  1  0.787800  0.805000  0.160700  1.0  0.0506
  H  H60  1  0.404500  0.889200  0.825200  1.0  0.0836
  H  H61  1  0.287800  0.695000  0.339300  1.0  0.0491
  H  H62  1  0.957600  0.305800  0.579800  1.0  0.0529
  H  H63  1  0.552200  0.327400  0.699600  1.0  0.065
  H  H64  1  0.170500  0.867300  0.410900  1.0  0.0722
  H  H65  1  0.136300  0.873900  0.245600  1.0  0.0656
  H  H66  1  0.947800  0.827400  0.199600  1.0  0.0654
  H  H67  1  0.064300  0.285300  0.452300  1.0  0.094
  H  H68  1  0.564300  0.214700  0.047700  1.0  0.0914
  H  H69  1  0.345200  0.773200  0.132500  1.0  0.0534
  H  H70  1  0.272900  0.237000  0.338500  1.0  0.0628
  H  H71  1  0.931300  0.238700  0.116300  1.0  0.0488
  H  H72  1  0.028400  0.865100  0.810400  1.0  0.0686
  H  H73  1  0.196200  0.858900  0.769600  1.0  0.0846
  H  H74  1  0.036100  0.651500  0.987300  1.0  0.0883
  H  H75  1  0.097400  0.695100  0.728100  1.0  0.05
  H  H76  1  0.831000  0.280300  0.861800  1.0  0.1066
  H  H77  1  0.435700  0.785300  0.952300  1.0  0.0917
  H  H78  1  0.935700  0.714700  0.547700  1.0  0.0934
  H  H79  1  0.274000  0.138400  0.703000  1.0  0.0635
  H  H80  1  0.235800  0.138000  0.389800  1.0  0.1212
  H  H81  1  0.597700  0.345800  0.814200  1.0  0.1037
  H  H82  1  0.282400  0.864900  0.539500  1.0  0.2188
  H  H83  1  0.594400  0.332100  0.033200  1.0  0.0703
  H  H84  1  0.195800  0.196600  0.049300  1.0  0.0759
  H  H85  1  0.390600  0.870900  0.272800  1.0  0.059
  H  H86  1  0.402600  0.195100  0.228100  1.0  0.0499
  H  H87  1  0.609400  0.129100  0.727200  1.0  0.058
  H  H88  1  0.698400  0.374300  0.595400  1.0  0.1032
  H  H89  1  0.541700  0.956100  0.594300  1.0  0.0845
  H  H90  1  0.829500  0.132700  0.589100  1.0  0.0732
  H  H91  1  0.087600  0.997200  0.974800  1.0  0.1932
  H  H92  1  0.701000  0.194800  0.713800  1.0  0.0513
  H  H93  1  0.301600  0.625700  0.404600  1.0  0.1026
  H  H94  1  0.581300  0.392000  0.236900  1.0  0.0553
  H  H95  1  0.058900  0.875200  0.680100  1.0  0.0658
  H  H96  1  0.008600  0.288500  0.349100  1.0  0.0815
  H  H97  1  0.198400  0.125700  0.904600  1.0  0.103
  H  H98  1  0.630000  0.693200  0.964400  1.0  0.0701
  H  H99  1  0.095500  0.389200  0.325200  1.0  0.0842
  H  H100  1  0.226500  0.452200  0.890900  1.0  0.0545
  H  H101  1  0.753500  0.139300  0.112700  1.0  0.0641
  H  H102  1  0.890600  0.629100  0.227200  1.0  0.0588
  H  H103  1  0.902300  0.845800  0.314200  1.0  0.1039
  H  H104  1  0.814600  0.108400  0.847500  1.0  0.0629
  H  H105  1  0.156500  0.004600  0.127800  1.0  0.0653
  H  H106  1  0.983300  0.156400  0.898500  1.0  0.0749
  H  H107  1  0.556600  0.572700  0.897400  1.0  0.0786
  H  H108  1  0.922900  0.794400  0.033200  1.0  0.0727
  H  H109  1  0.727100  0.763000  0.661500  1.0  0.063
  H  H110  1  0.635900  0.131500  0.374100  1.0  0.1286
  H  H111  1  0.303800  0.358900  0.269600  1.0  0.0844
  H  H112  1  0.264200  0.638000  0.889800  1.0  0.1202
  H  H113  1  0.431300  0.261300  0.383700  1.0  0.0481
  H  H114  1  0.471600  0.365100  0.310400  1.0  0.0663
  H  H115  1  0.897200  0.989500  0.620600  1.0  0.0743
  H  H116  1  0.267400  0.143100  0.245500  1.0  0.1248
  H  H117  1  0.135900  0.368500  0.125900  1.0  0.1288
  H  H118  1  0.943400  0.072700  0.397400  1.0  0.0789
  H  H119  1  0.963900  0.348500  0.012700  1.0  0.0867
  H  H120  1  0.941100  0.124800  0.319900  1.0  0.0663
  H  H121  1  0.528400  0.634900  0.689600  1.0  0.0672
  H  H122  1  0.964500  0.156100  0.541500  1.0  0.0509
  H  H123  1  0.559900  0.006200  0.273100  1.0  0.0589
  H  H124  1  0.542400  0.805800  0.079800  1.0  0.0527
  H  H125  1  0.863700  0.126100  0.754400  1.0  0.0663
  H  H126  1  0.767400  0.356900  0.254500  1.0  0.1254
  H  H127  1  0.897100  0.900400  0.893500  1.0  0.0649
  H  H128  1  0.558900  0.624800  0.819900  1.0  0.066
  H  H129  1  0.648100  0.871000  0.046400  1.0  0.1029
  H  H130  1  0.055800  0.543800  0.664700  1.0  0.0713
  H  H131  1  0.035500  0.843900  0.458500  1.0  0.0504
  H  H132  1  0.529900  0.860100  0.666200  1.0  0.0529
  H  H133  1  0.732600  0.856900  0.754500  1.0  0.1262
  H  H134  1  0.405600  0.667900  0.966800  1.0  0.0704
  H  H135  1  0.185400  0.891600  0.152500  1.0  0.0625
  H  H136  1  0.782400  0.635100  0.960500  1.0  0.2181
  H  H137  1  0.304200  0.696600  0.549300  1.0  0.0784
  H  H138  1  0.587600  0.502800  0.525200  1.0  0.1938
  H  H139  1  0.444200  0.043800  0.164700  1.0  0.0709
  H  H140  1  0.351900  0.129000  0.953600  1.0  0.1033
  H  H141  1  0.056600  0.927300  0.602600  1.0  0.0781
  H  H142  1  0.774000  0.361600  0.797000  1.0  0.0633
  H  H143  1  0.226000  0.638400  0.203000  1.0  0.063
  H  H144  1  0.516700  0.656400  0.398500  1.0  0.0749
  H  H145  1  0.041700  0.543900  0.905700  1.0  0.085
  H  H146  1  0.016700  0.843600  0.101500  1.0  0.075
  H  H147  1  0.669000  0.780300  0.361800  1.0  0.1055
  H  H148  1  0.636300  0.626100  0.254400  1.0  0.0659
  H  H149  1  0.364100  0.868500  0.625900  1.0  0.1282
  H  H150  1  0.470100  0.139900  0.333800  1.0  0.0531
  H  H151  1  0.087500  0.364700  0.551000  1.0  0.0783
  H  H152  1  0.670500  0.632700  0.089100  1.0  0.0739
  H  H153  1  0.842400  0.409300  0.738900  1.0  0.0689
  H  H154  1  0.602800  0.489500  0.120600  1.0  0.0738
  H  H155  1  0.577100  0.294400  0.533200  1.0  0.072
  H  H156  1  0.712200  0.305000  0.660700  1.0  0.0501
  H  H157  1  0.440100  0.993800  0.726900  1.0  0.0592
  H  H158  1  0.321700  0.454700  0.394100  1.0  0.2768
  H  H159  1  0.441100  0.375200  0.180100  1.0  0.0666
  H  H160  1  0.413300  0.423700  0.535500  1.0  0.0743
  H  H161  1  0.456300  0.935500  0.153700  1.0  0.0674
  H  H162  1  0.970100  0.360100  0.166200  1.0  0.0531
  H  H163  1  0.130000  0.806800  0.535600  1.0  0.0693
  H  H164  1  0.555800  0.956200  0.835300  1.0  0.071
  H  H165  1  0.657600  0.909300  0.238900  1.0  0.0653
  H  H166  1  0.086700  0.923700  0.035500  1.0  0.0743
  H  H167  1  0.299000  0.805200  0.286200  1.0  0.0509
  H  H168  1  0.232600  0.643100  0.745500  1.0  0.1246
  H  H169  1  0.587500  0.135300  0.949000  1.0  0.0788
  H  H170  1  0.447800  0.672600  0.300400  1.0  0.0652
  H  H171  1  0.109400  0.370900  0.772800  1.0  0.0584
  H  H172  1  0.029900  0.639900  0.833800  1.0  0.0528
  H  H173  1  0.536100  0.848500  0.512700  1.0  0.0869
  H  H174  1  0.799000  0.694800  0.213800  1.0  0.0511
  H  H175  1  0.568700  0.738700  0.616300  1.0  0.0491
  H  H176  1  0.157600  0.590700  0.261100  1.0  0.0684
  H  H177  1  0.912400  0.002800  0.025200  1.0  0.1939
  H  H178  1  0.418700  0.608000  0.763100  1.0  0.0561
  H  H179  1  0.971600  0.134900  0.189600  1.0  0.0668
  H  H180  1  0.343500  0.504600  0.627800  1.0  0.0654
  H  H181  1  0.640700  0.728300  0.872400  1.0  0.0618
  H  H182  1  0.253500  0.360700  0.387300  1.0  0.0654
  H  H183  1  0.851900  0.371000  0.546400  1.0  0.1029
  H  H184  1  0.457600  0.194200  0.920200  1.0  0.0566
  H  H185  1  0.772900  0.263000  0.161500  1.0  0.0622
  H  H186  1  0.864100  0.631500  0.874100  1.0  0.1282
  H  H187  1  0.859300  0.228300  0.372400  1.0  0.0615
  H  H188  1  0.483300  0.343600  0.601500  1.0  0.0747
  H  H189  1  0.043700  0.435500  0.653700  1.0  0.0676
  H  H190  1  0.458300  0.043900  0.405700  1.0  0.0846
  H  H191  1  0.402300  0.654200  0.185800  1.0  0.1042
  H  H192  1  0.331000  0.219700  0.638200  1.0  0.1063
  H  H193  1  0.956300  0.564500  0.346300  1.0  0.0665
  H  H194  1  0.059900  0.493800  0.226900  1.0  0.0589
  H  H195  1  0.843500  0.995400  0.872200  1.0  0.0648
  H  H196  1  0.602900  0.400400  0.393500  1.0  0.0652
  H  H197  1  0.217600  0.364900  0.039500  1.0  0.2193
  H  H198  1  0.870000  0.193200  0.464400  1.0  0.0696
  H  H199  1  0.726000  0.861600  0.297000  1.0  0.0633
  H  H200  1  0.913300  0.076300  0.964500  1.0  0.0743
  H  H201  1  0.821700  0.045300  0.105900  1.0  0.2775
  H  H202  1  0.169000  0.719700  0.138200  1.0  0.1057
  H  H203  1  0.586700  0.576300  0.464500  1.0  0.0741
  H  H204  1  0.597400  0.804900  0.771900  1.0  0.05
  H  H205  1  0.695800  0.303400  0.450700  1.0  0.0777
  H  H206  1  0.944200  0.456200  0.335300  1.0  0.0685
  H  H207  1  0.042400  0.694200  0.420200  1.0  0.0527
  H  H208  1  0.102900  0.099600  0.106500  1.0  0.0645
  H  H209  1  0.342400  0.090700  0.761100  1.0  0.0697
  H  H210  1  0.359300  0.271700  0.127600  1.0  0.0614
  H  H211  1  0.412500  0.864700  0.051000  1.0  0.0784
  H  H212  1  0.773500  0.547800  0.109100  1.0  0.0532
  H  H213  1  0.804200  0.803400  0.950700  1.0  0.0773
  H  H214  1  0.412400  0.497200  0.474800  1.0  0.194
  H  H215  1  0.178300  0.954700  0.894100  1.0  0.2761
  H  H216  1  0.656500  0.495400  0.372200  1.0  0.0649
  H  H217  1  0.696200  0.641100  0.730400  1.0  0.0863
  H  H218  1  0.912500  0.635300  0.449000  1.0  0.0789
  H  H219  1  0.918700  0.892000  0.736900  1.0  0.0549
  H  H220  1  0.463900  0.151500  0.487300  1.0  0.0874
  H  H221  1  0.102800  0.010500  0.379400  1.0  0.0743
  H  H222  1  0.201000  0.305200  0.786200  1.0  0.051
  H  H223  1  0.803800  0.141100  0.230400  1.0  0.0857
  H  H224  1  0.654800  0.226800  0.867500  1.0  0.0536
  C  C225  1  0.742900  0.814600  0.134000  1.0  -0.0538
  C  C226  1  0.264000  0.672720  0.216460  1.0  -0.1203
  C  C227  1  0.063500  0.211000  0.008170  1.0  -0.033
  C  C228  1  0.890200  0.310800  0.589100  1.0  0.1417
  C  C229  1  0.757100  0.314600  0.634000  1.0  -0.0538
  C  C230  1  0.515300  0.726920  0.588990  1.0  0.1887
  C  C231  1  0.468600  0.071310  0.199980  1.0  -0.0648
  C  C232  1  0.141700  0.181000  0.706320  1.0  -0.0503
  C  C233  1  0.751200  0.850200  0.098300  1.0  -0.157
  C  C234  1  0.090500  0.586550  0.252600  1.0  -0.0367
  C  C235  1  0.242900  0.685400  0.366000  1.0  -0.0545
  C  C236  1  0.584200  0.866490  0.543340  1.0  -0.0279
  C  C237  1  0.031400  0.571310  0.699980  1.0  -0.0641
  C  C238  1  0.047700  0.392600  0.295020  1.0  -0.0386
  C  C239  1  0.505700  0.692490  0.326650  1.0  -0.0495
  C  C240  1  0.142900  0.095180  0.136860  1.0  -0.0572
  C  C241  1  0.063400  0.830370  0.787210  1.0  -0.0815
  C  C242  1  0.432700  0.780100  0.862320  1.0  -0.0344
  C  C243  1  0.678800  0.682700  0.934700  1.0  -0.1129
  C  C244  1  0.235100  0.121720  0.213180  1.0  0.2091
  C  C245  1  0.844300  0.172220  0.232820  1.0  -0.0359
  C  C246  1  0.673200  0.455330  0.350930  1.0  -0.0446
  C  C247  1  0.090200  0.187770  0.511650  1.0  -0.0093
  C  C248  1  0.248800  0.149800  0.901700  1.0  -0.1581
  C  C249  1  0.484300  0.123740  0.292050  1.0  0.1863
  C  C250  1  0.672800  0.619520  0.126070  1.0  -0.0104
  C  C251  1  0.590200  0.312230  0.988350  1.0  -0.0094
  C  C252  1  0.257100  0.185400  0.866000  1.0  -0.0544
  C  C253  1  0.436600  0.330370  0.287210  1.0  -0.0805
  C  C254  1  0.117700  0.962700  0.969100  1.0  -0.0564
  C  C255  1  0.123200  0.747340  0.140520  1.0  0.3153
  C  C256  1  0.936500  0.789000  0.991830  1.0  -0.0333
  C  C257  1  0.075700  0.040600  0.359200  1.0  -0.0261
  C  C258  1  0.827200  0.119520  0.626070  1.0  -0.0104
  C  C259  1  0.124100  0.210600  0.053100  1.0  -0.0022
  C  C260  1  0.653600  0.614180  0.214850  1.0  0.2539
  C  C261  1  0.817000  0.202800  0.385900  1.0  -0.0559
  C  C262  1  0.172800  0.880480  0.373930  1.0  -0.0104
  C  C263  1  0.461000  0.316090  0.622420  1.0  -0.0587
  C  C264  1  0.586600  0.922090  0.585520  1.0  -0.0331
  C  C265  1  0.628100  0.119810  0.916860  1.0  -0.0074
  C  C266  1  0.317000  0.297200  0.114100  1.0  -0.0552
  C  C267  1  0.992700  0.071400  0.368900  1.0  -0.0895
  C  C268  1  0.321200  0.317300  0.065300  1.0  -0.113
  C  C269  1  0.268600  0.424790  0.866450  1.0  -0.0147
  C  C270  1  0.735100  0.378280  0.286820  1.0  0.2098
  C  C271  1  0.436500  0.711000  0.508170  1.0  -0.0325
  C  C272  1  0.641700  0.319000  0.793680  1.0  -0.0502
  C  C273  1  0.878300  0.754290  0.399980  1.0  0.2084
  C  C274  1  0.399500  0.237660  0.245050  1.0  0.163
  C  C275  1  0.764000  0.827280  0.283540  1.0  -0.121
  C  C276  1  0.808700  0.650600  0.884100  1.0  0.1064
  C  C277  1  0.731400  0.575210  0.133550  1.0  -0.0132
  C  C278  1  0.909800  0.812230  0.488350  1.0  -0.0098
  C  C279  1  0.041600  0.533600  0.231000  1.0  -0.0528
  C  C280  1  0.007300  0.928600  0.631100  1.0  -0.089
  C  C281  1  0.378300  0.745710  0.100020  1.0  0.2079
  C  C282  1  0.371900  0.880190  0.083140  1.0  -0.0058
  C  C283  1  0.015300  0.773080  0.911010  1.0  0.189
  C  C284  1  0.882300  0.037300  0.030900  1.0  -0.0572
  C  C285  1  0.876800  0.252660  0.859480  1.0  0.3175
  C  C286  1  0.424300  0.540600  0.859200  1.0  -0.026
  C  C287  1  0.551800  0.106360  0.730770  1.0  0.1675
  C  C288  1  0.251200  0.649800  0.401700  1.0  -0.1572
  C  C289  1  0.390200  0.189200  0.910900  1.0  0.1429
  C  C290  1  0.876700  0.077900  0.999900  1.0  -0.0113
  C  C291  1  0.086600  0.577910  0.914480  1.0  -0.0343
  C  C292  1  0.231400  0.924790  0.366450  1.0  -0.0149
  C  C293  1  0.205300  0.887200  0.920400  1.0  0.1225
  C  C294  1  0.198000  0.264250  0.761980  1.0  0.1556
  C  C295  1  0.768600  0.075210  0.633550  1.0  -0.0105
  C  C296  1  0.567300  0.219900  0.137680  1.0  -0.0331
  C  C297  1  0.698000  0.235750  0.738020  1.0  0.1554
  C  C298  1  0.236000  0.172720  0.716460  1.0  -0.1205
  C  C299  1  0.104400  0.419140  0.637340  1.0  -0.0792
  C  C300  1  0.794700  0.112800  0.079600  1.0  0.1237
  C  C301  1  0.015700  0.623740  0.792050  1.0  0.1856
  C  C302  1  0.590500  0.913450  0.247400  1.0  -0.0363
  C  C303  1  0.913400  0.422090  0.085520  1.0  -0.0338
  C  C304  1  0.531400  0.928690  0.800020  1.0  -0.0631
  C  C305  1  0.623300  0.577900  0.499900  1.0  -0.0121
  C  C306  1  0.039000  0.816090  0.122420  1.0  -0.0592
  C  C307  1  0.875900  0.789400  0.946900  1.0  -0.0035
  C  C308  1  0.183000  0.797200  0.614100  1.0  -0.0563
  C  C309  1  0.492700  0.428600  0.131100  1.0  -0.0892
  C  C310  1  0.109800  0.689200  0.410900  1.0  0.1411
  C  C311  1  0.600500  0.762340  0.754950  1.0  0.1618
  C  C312  1  0.288300  0.750160  0.855960  1.0  0.2006
  C  C313  1  0.327200  0.380480  0.873930  1.0  -0.0104
  C  C314  1  0.932700  0.719900  0.637680  1.0  -0.0346
  C  C315  1  0.520800  0.318960  0.949810  1.0  -0.0324
  C  C316  1  0.494300  0.307510  0.673350  1.0  -0.0492
  C  C317  1  0.344300  0.327780  0.267180  1.0  -0.0365
  C  C318  1  0.415800  0.133510  0.456660  1.0  -0.0261
  C  C319  1  0.952300  0.607400  0.704980  1.0  -0.0421
  C  C320  1  0.857100  0.904820  0.863140  1.0  -0.0578
  C  C321  1  0.623200  0.752660  0.359480  1.0  0.3172
  C  C322  1  0.788300  0.749840  0.644040  1.0  0.201
  C  C323  1  0.376800  0.247340  0.640520  1.0  0.3166
  C  C324  1  0.846400  0.114180  0.714850  1.0  0.2543
  C  C325  1  0.802000  0.735750  0.238020  1.0  0.1555
  C  C326  1  0.705300  0.612800  0.579600  1.0  0.1185
  C  C327  1  0.904100  0.723370  0.583070  1.0  -0.0182
  C  C328  1  0.871900  0.619810  0.416860  1.0  -0.0074
  C  C329  1  0.069100  0.088700  0.294200  1.0  0.1319
  C  C330  1  0.452300  0.892600  0.795020  1.0  -0.0412
  C  C331  1  0.821200  0.182700  0.434700  1.0  -0.1124
  C  C332  1  0.302000  0.764250  0.261980  1.0  0.1557
  C  C333  1  0.051800  0.393640  0.769230  1.0  0.1696
  C  C334  1  0.357100  0.595180  0.636860  1.0  -0.0569
  C  C335  1  0.764900  0.878280  0.786820  1.0  0.2108
  C  C336  1  0.005700  0.807510  0.173350  1.0  -0.0499
  C  C337  1  0.736000  0.327280  0.783540  1.0  -0.1218
  C  C338  1  0.289000  0.127540  0.404680  1.0  0.251
  C  C339  1  0.020800  0.181040  0.550190  1.0  -0.034
  C  C340  1  0.346400  0.385820  0.785150  1.0  0.2534
  C  C341  1  0.358300  0.681000  0.206320  1.0  -0.051
  C  C342  1  0.211000  0.627540  0.904680  1.0  0.2509
  C  C343  1  0.264900  0.621720  0.713180  1.0  0.2097
  C  C344  1  0.968600  0.428690  0.300020  1.0  -0.0638
  C  C345  1  0.655700  0.672220  0.732820  1.0  -0.0359
  C  C346  1  0.123300  0.922100  0.000100  1.0  -0.0122
  C  C347  1  0.541600  0.966400  0.269000  1.0  -0.0529
  C  C348  1  0.979200  0.818960  0.449810  1.0  -0.0287
  C  C349  1  0.084200  0.633510  0.956660  1.0  -0.0282
  C  C350  1  0.936600  0.169630  0.212790  1.0  -0.0797
  C  C351  1  0.858300  0.819000  0.293680  1.0  -0.0492
  C  C352  1  0.155700  0.827780  0.767180  1.0  -0.0365
  C  C353  1  0.899500  0.262340  0.254950  1.0  0.1617
  C  C354  1  0.609800  0.810800  0.089100  1.0  0.1401
  C  C355  1  0.294700  0.387200  0.420400  1.0  0.1217
  C  C356  1  0.711000  0.872460  0.595320  1.0  0.251
  C  C357  1  0.789000  0.372460  0.095320  1.0  0.2508
  C  C358  1  0.395600  0.919140  0.137340  1.0  -0.078
  C  C359  1  0.326800  0.544670  0.649070  1.0  -0.046
  C  C360  1  0.895600  0.580860  0.362660  1.0  -0.0779
  C  C361  1  0.128100  0.380190  0.583140  1.0  -0.0057
  C  C362  1  0.624100  0.289400  0.446900  1.0  -0.003
  C  C363  1  0.067300  0.280100  0.362320  1.0  -0.0334
  C  C364  1  0.409500  0.086550  0.752600  1.0  -0.0375
  C  C365  1  0.375900  0.710600  0.553100  1.0  -0.003
  C  C366  1  0.507300  0.571400  0.868900  1.0  -0.0893
  C  C367  1  0.121700  0.245710  0.600020  1.0  0.2076
  C  C368  1  0.547700  0.107400  0.204980  1.0  -0.0411
  C  C369  1  0.382300  0.462700  0.469100  1.0  -0.055
  C  C370  1  0.563500  0.289000  0.491830  1.0  -0.0325
  C  C371  1  0.515700  0.876260  0.707950  1.0  0.1845
  C  C372  1  0.683000  0.702800  0.885900  1.0  -0.0574
  C  C373  1  0.604400  0.080860  0.862660  1.0  -0.0786
  C  C374  1  0.100500  0.737660  0.745050  1.0  0.1628
  C  C375  1  0.711700  0.249840  0.144040  1.0  0.2001
  C  C376  1  0.211700  0.250160  0.355960  1.0  0.1995
  C  C377  1  0.409800  0.687770  0.011650  1.0  -0.0098
  C  C378  1  0.984300  0.376260  0.207950  1.0  0.1847
  C  C379  1  0.617700  0.537300  0.530900  1.0  -0.0583
  C  C380  1  0.430900  0.588700  0.794200  1.0  0.1313
  C  C381  1  0.448200  0.893640  0.269230  1.0  0.1674
  C  C382  1  0.376700  0.422100  0.500100  1.0  -0.0105
  C  C383  1  0.479200  0.681040  0.050190  1.0  -0.0358
  C  C384  1  0.251700  0.395540  0.638230  1.0  0.2231
  C  C385  1  0.539000  0.683910  0.377580  1.0  -0.0589
  C  C386  1  0.642900  0.404820  0.363140  1.0  -0.058
  C  C387  1  0.248300  0.895540  0.138230  1.0  0.223
  C  C388  1  0.621700  0.254290  0.899980  1.0  0.2079
  C  C389  1  0.458400  0.033600  0.731000  1.0  -0.0531
  C  C390  1  0.751700  0.104460  0.861770  1.0  0.2227
  C  C391  1  0.173200  0.044670  0.149070  1.0  -0.0462
  C  C392  1  0.178800  0.817300  0.565300  1.0  -0.1132
  C  C393  1  0.909500  0.413450  0.747400  1.0  -0.0377
  C  C394  1  0.826800  0.955330  0.850930  1.0  -0.0442
  C  C395  1  0.563400  0.669630  0.712790  1.0  -0.0806
  C  C396  1  0.961000  0.183910  0.877580  1.0  -0.0581
  C  C397  1  0.915800  0.366490  0.043340  1.0  -0.0284
  C  C398  1  0.958400  0.466400  0.769000  1.0  -0.0527
  C  C399  1  0.095900  0.276630  0.416930  1.0  -0.0096
  C  C400  1  0.575700  0.459400  0.140800  1.0  -0.0262
  C  C401  1  0.948200  0.606360  0.230770  1.0  0.1657
  C  C402  1  0.748800  0.350200  0.598300  1.0  -0.1581
  C  C403  1  0.153600  0.885820  0.285150  1.0  0.2532
  C  C404  1  0.413400  0.077910  0.414480  1.0  -0.0326
  C  C405  1  0.930900  0.911300  0.705800  1.0  0.1328
  C  C406  1  0.595900  0.223370  0.083070  1.0  -0.0104
  C  C407  1  0.308700  0.849400  0.615900  1.0  0.1082
  C  C408  1  0.484700  0.273080  0.411010  1.0  0.1881
  C  C409  1  0.984700  0.226920  0.088990  1.0  0.1881
  C  C410  1  0.994300  0.192490  0.826650  1.0  -0.0488
  C  C411  1  0.404100  0.776630  0.916930  1.0  -0.0093
  C  C412  1  0.748300  0.604460  0.361770  1.0  0.2236
  C  C413  1  0.924300  0.959400  0.640800  1.0  -0.0269
  C  C414  1  0.191300  0.349400  0.115900  1.0  0.108
  C  C415  1  0.569100  0.411300  0.205800  1.0  0.133
  C  C416  1  0.691300  0.150600  0.384100  1.0  0.1084
  N  N417  1  0.652500  0.789600  0.128310  1.0  -0.4311
  N  N418  1  0.740800  0.148710  0.432450  1.0  -0.3138
  N  N419  1  0.184700  0.429650  0.673390  1.0  -0.4793
  N  N420  1  0.622300  0.644360  0.178230  1.0  -0.4696
  N  N421  1  0.266800  0.561140  0.698410  1.0  -0.4701
  N  N422  1  0.727700  0.774000  0.247400  1.0  -0.4633
  N  N423  1  0.315300  0.929650  0.173390  1.0  -0.4795
  N  N424  1  0.169700  0.939790  0.918760  1.0  -0.3823
  N  N425  1  0.720000  0.571770  0.190840  1.0  -0.4722
  N  N426  1  0.489600  0.398230  0.173000  1.0  -0.2678
  N  N427  1  0.027900  0.772660  0.772870  1.0  -0.4578
  N  N428  1  0.071600  0.581560  0.755760  1.0  -0.4622
  N  N429  1  0.678500  0.626090  0.531110  1.0  -0.4188
  N  N430  1  0.642000  0.237180  0.177690  1.0  -0.4793
  N  N431  1  0.222900  0.364410  0.582850  1.0  -0.4715
  N  N432  1  0.616700  0.259710  0.764700  1.0  -0.4678
  N  N433  1  0.817900  0.854520  0.821610  1.0  -0.5008
  N  N434  1  0.320000  0.268390  0.239920  1.0  -0.4334
  N  N435  1  0.152500  0.710400  0.371690  1.0  -0.4316
  N  N436  1  0.530800  0.865760  0.247690  1.0  -0.4986
  N  N437  1  0.311100  0.758000  0.913220  1.0  -0.4781
  N  N438  1  0.240800  0.351290  0.067550  1.0  -0.3142
  N  N439  1  0.960400  0.781310  0.392670  1.0  -0.4898
  N  N440  1  0.811100  0.742000  0.586780  1.0  -0.4779
  N  N441  1  0.449600  0.954060  0.283230  1.0  -0.4906
  N  N442  1  0.664200  0.834310  0.549390  1.0  -0.5029
  N  N443  1  0.347500  0.210400  0.871690  1.0  -0.4323
  N  N444  1  0.780000  0.071770  0.690840  1.0  -0.4734
  N  N445  1  0.557600  0.141370  0.264080  1.0  -0.4888
  N  N446  1  0.969200  0.365760  0.747690  1.0  -0.5
  N  N447  1  0.334000  0.152370  0.930320  1.0  -0.3551
  N  N448  1  0.233200  0.061140  0.198410  1.0  -0.4699
  N  N449  1  0.939800  0.237610  0.814010  1.0  -0.5227
  N  N450  1  0.733200  0.438860  0.301590  1.0  -0.4711
  N  N451  1  0.182100  0.145480  0.178390  1.0  -0.4991
  N  N452  1  0.527200  0.721410  0.530790  1.0  -0.4704
  N  N453  1  0.331500  0.073930  0.380370  1.0  -0.4964
  N  N454  1  0.844300  0.770750  0.456330  1.0  -0.4784
  N  N455  1  0.925800  0.779140  0.894390  1.0  -0.489
  N  N456  1  0.122300  0.855640  0.321770  1.0  -0.4703
  N  N457  1  0.030800  0.634240  0.252310  1.0  -0.4965
  N  N458  1  0.734700  0.182450  0.353980  1.0  -0.4163
  N  N459  1  0.539600  0.281310  0.892670  1.0  -0.489
  N  N460  1  0.227700  0.726000  0.252600  1.0  -0.463
  N  N461  1  0.834000  0.347630  0.569680  1.0  -0.3539
  N  N462  1  0.765300  0.682450  0.853980  1.0  -0.416
  N  N463  1  0.560200  0.737610  0.314010  1.0  -0.5218
  N  N464  1  0.330300  0.439790  0.418760  1.0  -0.383
  N  N465  1  0.116700  0.240290  0.735300  1.0  -0.4684
  N  N466  1  0.766800  0.938860  0.801590  1.0  -0.4709
  N  N467  1  0.180000  0.768390  0.739920  1.0  -0.4334
  N  N468  1  0.472800  0.278590  0.469210  1.0  -0.4694
  N  N469  1  0.759200  0.648710  0.932450  1.0  -0.315
  N  N470  1  0.439800  0.262390  0.685990  1.0  -0.5201
  N  N471  1  0.164200  0.665690  0.950610  1.0  -0.5019
  N  N472  1  0.624400  0.448340  0.187730  1.0  -0.4345
  N  N473  1  0.883300  0.759710  0.264700  1.0  -0.4674
  N  N474  1  0.830300  0.060210  0.081240  1.0  -0.3801
  N  N475  1  0.571600  0.918440  0.744240  1.0  -0.4633
  N  N476  1  0.722900  0.135590  0.917150  1.0  -0.4697
  N  N477  1  0.668500  0.926070  0.619630  1.0  -0.4972
  N  N478  1  0.772300  0.274000  0.747400  1.0  -0.4634
  N  N479  1  0.280000  0.428230  0.809160  1.0  -0.4743
  N  N480  1  0.386500  0.277200  0.600580  1.0  -0.4621
  N  N481  1  0.875600  0.948340  0.687730  1.0  -0.4316
  N  N482  1  0.317900  0.645480  0.678390  1.0  -0.5001
  N  N483  1  0.469200  0.134240  0.752310  1.0  -0.4986
  N  N484  1  0.472100  0.272660  0.272870  1.0  -0.458
  N  N485  1  0.039600  0.218690  0.607330  1.0  -0.4876
  N  N486  1  0.377700  0.355640  0.821770  1.0  -0.4695
  N  N487  1  0.682100  0.354520  0.321610  1.0  -0.4996
  N  N488  1  0.858000  0.737180  0.677690  1.0  -0.479
  N  N489  1  0.831500  0.426070  0.119630  1.0  -0.4976
  N  N490  1  0.113500  0.777200  0.100580  1.0  -0.4618
  N  N491  1  0.574200  0.279140  0.394390  1.0  -0.489
  N  N492  1  0.428400  0.081560  0.255760  1.0  -0.4619
  N  N493  1  0.821500  0.126090  0.031110  1.0  -0.4192
  N  N494  1  0.124400  0.051660  0.312270  1.0  -0.4345
  N  N495  1  0.688900  0.242000  0.086780  1.0  -0.4779
  N  N496  1  0.272300  0.226000  0.752600  1.0  -0.4634
  N  N497  1  0.942400  0.641370  0.764080  1.0  -0.4887
  N  N498  1  0.989600  0.101770  0.327000  1.0  -0.2667
  N  N499  1  0.886500  0.222800  0.899420  1.0  -0.4612
  N  N500  1  0.820000  0.231610  0.260080  1.0  -0.4329
  N  N501  1  0.847500  0.289600  0.628310  1.0  -0.4321
  N  N502  1  0.383300  0.740290  0.235300  1.0  -0.4679
  N  N503  1  0.510400  0.601770  0.827000  1.0  -0.2658
  N  N504  1  0.178500  0.873910  0.968890  1.0  -0.4191
  N  N505  1  0.972800  0.221410  0.030790  1.0  -0.4685
  N  N506  1  0.684700  0.070350  0.826610  1.0  -0.48
  N  N507  1  0.321500  0.373910  0.468890  1.0  -0.419
  N  N508  1  0.666000  0.847630  0.069680  1.0  -0.3522
  N  N509  1  0.277100  0.864410  0.082850  1.0  -0.4716
  N  N510  1  0.358000  0.762820  0.822310  1.0  -0.4814
  N  N511  1  0.425800  0.720860  0.605610  1.0  -0.49
  N  N512  1  0.344300  0.729250  0.043670  1.0  -0.4765
  N  N513  1  0.877700  0.144360  0.678230  1.0  -0.47
  N  N514  1  0.265300  0.817550  0.646020  1.0  -0.4159
  N  N515  1  0.949600  0.545940  0.216770  1.0  -0.4902
  N  N516  1  0.027200  0.778590  0.969210  1.0  -0.4704
  N  N517  1  0.168500  0.573930  0.880370  1.0  -0.4955
  N  N518  1  0.460400  0.718690  0.107330  1.0  -0.488
  N  N519  1  0.060200  0.762390  0.185990  1.0  -0.52
  N  N520  1  0.335800  0.165690  0.450610  1.0  -0.5019
  N  N521  1  0.680000  0.731610  0.760080  1.0  -0.4325
  N  N522  1  0.669700  0.560210  0.581240  1.0  -0.3799
  N  N523  1  0.234700  0.317550  0.146020  1.0  -0.416
  N  N524  1  0.010400  0.898230  0.673000  1.0  -0.2662
  N  N525  1  0.815300  0.570350  0.326610  1.0  -0.4802
  N  N526  1  0.375600  0.551660  0.812270  1.0  -0.4318
  N  N527  1  0.155700  0.229250  0.543670  1.0  -0.4778
  N  N528  1  0.166000  0.652370  0.430320  1.0  -0.3535
  N  N529  1  0.613500  0.722800  0.399420  1.0  -0.4609
  N  N530  1  0.527900  0.727340  0.727130  1.0  -0.4573
  N  N531  1  0.142000  0.262820  0.322310  1.0  -0.4812
  N  N532  1  0.259200  0.851290  0.567550  1.0  -0.3149
  N  N533  1  0.777100  0.635590  0.417150  1.0  -0.4709
  N  N534  1  0.188900  0.258000  0.413220  1.0  -0.4779
  N  N535  1  0.074200  0.220860  0.105610  1.0  -0.4889
  N  N536  1  0.050400  0.454060  0.783230  1.0  -0.4915
  N  N537  1  0.928400  0.418440  0.244240  1.0  -0.462
  N  N538  1  0.835800  0.334310  0.049390  1.0  -0.5034
  N  N539  1  0.057600  0.358630  0.235920  1.0  -0.4888
  N  N540  1  0.220000  0.928230  0.309160  1.0  -0.4736
  N  N541  1  0.550400  0.045940  0.716770  1.0  -0.4916
  N  N542  1  0.442400  0.858630  0.735920  1.0  -0.4894
  N  N543  1  0.972100  0.227340  0.227130  1.0  -0.4579
  N  N544  1  0.655700  0.270750  0.956330  1.0  -0.4789
