# generated using pymatgen
data_Mn2H31(C11O5)2
_symmetry_space_group_name_H-M   'P 1'
_cell_length_a   13.08500000
_cell_length_b   14.10600000
_cell_length_c   18.17500000
_cell_angle_alpha   90.00000000
_cell_angle_beta   90.00000000
_cell_angle_gamma   90.00000000
_symmetry_Int_Tables_number   1
_chemical_formula_structural   Mn2H31(C11O5)2
_chemical_formula_sum   'Mn8 H124 C88 O40'
_cell_volume   3354.68715675
_cell_formula_units_Z   4
loop_
 _symmetry_equiv_pos_site_id
 _symmetry_equiv_pos_as_xyz
  1  'x, y, z'
loop_
 _atom_site_type_symbol
 _atom_site_label
 _atom_site_symmetry_multiplicity
 _atom_site_fract_x
 _atom_site_fract_y
 _atom_site_fract_z
 _atom_site_occupancy
 _atom_site_charge
  Mn  Mn1  1  0.240240  0.486190  0.420180  1.0  1.0997
  Mn  Mn2  1  0.283060  0.510690  0.583290  1.0  1.1176
  Mn  Mn3  1  0.259760  0.513810  0.920180  1.0  1.0996
  Mn  Mn4  1  0.216940  0.489310  0.083290  1.0  1.1169
  Mn  Mn5  1  0.759760  0.986190  0.079820  1.0  1.1001
  Mn  Mn6  1  0.716940  0.010690  0.916710  1.0  1.1155
  Mn  Mn7  1  0.740240  0.013810  0.579820  1.0  1.1003
  Mn  Mn8  1  0.783060  0.989310  0.416710  1.0  1.1159
  H  H9  1  0.726000  0.277500  0.348300  1.0  0.1175
  H  H10  1  0.816500  0.308400  0.399500  1.0  0.1157
  H  H11  1  0.729700  0.380800  0.380000  1.0  0.1193
  H  H12  1  0.708300  0.307500  0.568000  1.0  0.0799
  H  H13  1  0.783000  0.367000  0.518100  1.0  0.0803
  H  H14  1  0.674400  0.485500  0.514600  1.0  0.0853
  H  H15  1  0.606500  0.431000  0.572200  1.0  0.0837
  H  H16  1  0.582100  0.441200  0.420900  1.0  0.1114
  H  H17  1  0.531500  0.206500  0.365700  1.0  0.1231
  H  H18  1  0.561900  0.306800  0.335600  1.0  0.1168
  H  H19  1  0.453600  0.290700  0.370300  1.0  0.1225
  H  H20  1  0.511800  0.178100  0.494500  1.0  0.1226
  H  H21  1  0.435300  0.263000  0.502400  1.0  0.1185
  H  H22  1  0.531500  0.257000  0.553500  1.0  0.1185
  H  H23  1  0.923600  0.461700  0.578000  1.0  0.1226
  H  H24  1  0.846400  0.541400  0.600900  1.0  0.1204
  H  H25  1  0.953800  0.535300  0.638800  1.0  0.1182
  H  H26  1  0.940400  0.597500  0.421600  1.0  0.0881
  H  H27  1  0.868500  0.522800  0.459800  1.0  0.0795
  H  H28  1  0.749800  0.628200  0.476300  1.0  0.0781
  H  H29  1  0.813700  0.696600  0.425500  1.0  0.0797
  H  H30  1  0.799400  0.696000  0.576800  1.0  0.1044
  H  H31  1  0.969800  0.788100  0.642500  1.0  0.1243
  H  H32  1  0.044700  0.701500  0.645700  1.0  0.1256
  H  H33  1  0.928800  0.687700  0.664800  1.0  0.116
  H  H34  1  0.022300  0.822300  0.520200  1.0  0.126
  H  H35  1  0.007600  0.748300  0.456600  1.0  0.1131
  H  H36  1  0.095100  0.734400  0.514500  1.0  0.1186
  H  H37  1  0.357500  0.530500  0.195100  1.0  0.1517
  H  H38  1  0.386800  0.478800  0.268500  1.0  0.1462
  H  H39  1  0.341000  0.581500  0.270900  1.0  0.15
  H  H40  1  0.774000  0.722500  0.848300  1.0  0.1164
  H  H41  1  0.683500  0.691600  0.899500  1.0  0.1161
  H  H42  1  0.770300  0.619200  0.880000  1.0  0.119
  H  H43  1  0.791700  0.692500  0.068000  1.0  0.0796
  H  H44  1  0.717000  0.633000  0.018100  1.0  0.0778
  H  H45  1  0.825600  0.514500  0.014600  1.0  0.0874
  H  H46  1  0.893500  0.569000  0.072200  1.0  0.0832
  H  H47  1  0.917900  0.558800  0.920900  1.0  0.1092
  H  H48  1  0.968500  0.793500  0.865700  1.0  0.1246
  H  H49  1  0.938100  0.693200  0.835600  1.0  0.1162
  H  H50  1  0.046400  0.709300  0.870300  1.0  0.1223
  H  H51  1  0.988200  0.821900  0.994500  1.0  0.1257
  H  H52  1  0.064700  0.737000  0.002400  1.0  0.12
  H  H53  1  0.968500  0.743000  0.053500  1.0  0.1185
  H  H54  1  0.576400  0.538300  0.078000  1.0  0.1234
  H  H55  1  0.653600  0.458600  0.100900  1.0  0.1192
  H  H56  1  0.546200  0.464700  0.138800  1.0  0.116
  H  H57  1  0.559600  0.402500  0.921600  1.0  0.088
  H  H58  1  0.631500  0.477200  0.959800  1.0  0.0794
  H  H59  1  0.750200  0.371800  0.976300  1.0  0.0783
  H  H60  1  0.686300  0.303400  0.925500  1.0  0.0786
  H  H61  1  0.700600  0.304000  0.076800  1.0  0.1054
  H  H62  1  0.530200  0.211900  0.142500  1.0  0.124
  H  H63  1  0.455300  0.298500  0.145700  1.0  0.1281
  H  H64  1  0.571200  0.312300  0.164800  1.0  0.1161
  H  H65  1  0.477700  0.177700  0.020200  1.0  0.1246
  H  H66  1  0.492400  0.251700  0.956600  1.0  0.1126
  H  H67  1  0.404900  0.265600  0.014500  1.0  0.1205
  H  H68  1  0.142500  0.469500  0.695100  1.0  0.1525
  H  H69  1  0.113200  0.521200  0.768500  1.0  0.146
  H  H70  1  0.159000  0.418500  0.770900  1.0  0.1496
  H  H71  1  0.274000  0.777500  0.151700  1.0  0.1183
  H  H72  1  0.183500  0.808400  0.100500  1.0  0.1181
  H  H73  1  0.270300  0.880800  0.120000  1.0  0.1175
  H  H74  1  0.291700  0.807500  0.932000  1.0  0.0785
  H  H75  1  0.217000  0.867000  0.981900  1.0  0.0784
  H  H76  1  0.325600  0.985500  0.985400  1.0  0.0861
  H  H77  1  0.393500  0.931000  0.927800  1.0  0.0835
  H  H78  1  0.417900  0.941200  0.079100  1.0  0.1102
  H  H79  1  0.468500  0.706500  0.134300  1.0  0.1239
  H  H80  1  0.438100  0.806800  0.164400  1.0  0.1175
  H  H81  1  0.546400  0.790700  0.129700  1.0  0.1208
  H  H82  1  0.488200  0.678100  0.005500  1.0  0.1232
  H  H83  1  0.564700  0.763000  0.997600  1.0  0.1202
  H  H84  1  0.468500  0.757000  0.946500  1.0  0.1189
  H  H85  1  0.076400  0.961700  0.922000  1.0  0.1234
  H  H86  1  0.153600  0.041400  0.899100  1.0  0.1197
  H  H87  1  0.046200  0.035300  0.861200  1.0  0.1156
  H  H88  1  0.059600  0.097500  0.078400  1.0  0.0886
  H  H89  1  0.131500  0.022800  0.040200  1.0  0.0812
  H  H90  1  0.250200  0.128200  0.023700  1.0  0.0775
  H  H91  1  0.186300  0.196600  0.074500  1.0  0.0803
  H  H92  1  0.200600  0.196000  0.923200  1.0  0.1069
  H  H93  1  0.030200  0.288100  0.857500  1.0  0.1251
  H  H94  1  0.955300  0.201500  0.854300  1.0  0.1271
  H  H95  1  0.071200  0.187700  0.835200  1.0  0.1145
  H  H96  1  0.977700  0.322300  0.979800  1.0  0.127
  H  H97  1  0.992400  0.248300  0.043400  1.0  0.1123
  H  H98  1  0.904900  0.234400  0.985500  1.0  0.1216
  H  H99  1  0.642500  0.030500  0.304900  1.0  0.1548
  H  H100  1  0.613200  0.978800  0.231500  1.0  0.1466
  H  H101  1  0.659000  0.081500  0.229100  1.0  0.1499
  H  H102  1  0.226000  0.222500  0.651700  1.0  0.1182
  H  H103  1  0.316500  0.191600  0.600500  1.0  0.1149
  H  H104  1  0.229700  0.119200  0.620000  1.0  0.1221
  H  H105  1  0.208300  0.192500  0.432000  1.0  0.0787
  H  H106  1  0.283000  0.133000  0.481900  1.0  0.0809
  H  H107  1  0.174400  0.014500  0.485400  1.0  0.088
  H  H108  1  0.106500  0.069000  0.427800  1.0  0.0823
  H  H109  1  0.082100  0.058800  0.579100  1.0  0.1102
  H  H110  1  0.031500  0.293500  0.634300  1.0  0.124
  H  H111  1  0.061900  0.193200  0.664400  1.0  0.1175
  H  H112  1  0.953600  0.209300  0.629700  1.0  0.1231
  H  H113  1  0.011800  0.321900  0.505500  1.0  0.1262
  H  H114  1  0.935300  0.237000  0.497600  1.0  0.1184
  H  H115  1  0.031500  0.243000  0.446500  1.0  0.1198
  H  H116  1  0.423600  0.038300  0.422000  1.0  0.1244
  H  H117  1  0.346400  0.958600  0.399100  1.0  0.1193
  H  H118  1  0.453800  0.964700  0.361200  1.0  0.1168
  H  H119  1  0.440400  0.902500  0.578400  1.0  0.0887
  H  H120  1  0.368500  0.977200  0.540200  1.0  0.0799
  H  H121  1  0.249800  0.871800  0.523700  1.0  0.0771
  H  H122  1  0.313700  0.803400  0.574500  1.0  0.0806
  H  H123  1  0.299400  0.804000  0.423200  1.0  0.1058
  H  H124  1  0.469800  0.711900  0.357500  1.0  0.1241
  H  H125  1  0.544700  0.798500  0.354300  1.0  0.1266
  H  H126  1  0.428800  0.812300  0.335200  1.0  0.1144
  H  H127  1  0.522300  0.677700  0.479800  1.0  0.1266
  H  H128  1  0.507600  0.751700  0.543400  1.0  0.1133
  H  H129  1  0.595100  0.765600  0.485500  1.0  0.1197
  H  H130  1  0.857500  0.969500  0.804900  1.0  0.1559
  H  H131  1  0.886800  0.021200  0.731500  1.0  0.1456
  H  H132  1  0.841000  0.918500  0.729100  1.0  0.148
  C  C133  1  0.708800  0.178500  0.470200  1.0  0.6474
  C  C134  1  0.453300  0.441600  0.480900  1.0  0.6771
  C  C135  1  0.744700  0.315400  0.390000  1.0  -0.3526
  C  C136  1  0.684400  0.283200  0.456900  1.0  0.0058
  C  C137  1  0.713400  0.344100  0.523000  1.0  -0.1468
  C  C138  1  0.638900  0.426500  0.524400  1.0  -0.0974
  C  C139  1  0.559200  0.408100  0.465300  1.0  -0.1987
  C  C140  1  0.567100  0.300600  0.449200  1.0  0.1815
  C  C141  1  0.524500  0.273600  0.373000  1.0  -0.3803
  C  C142  1  0.505800  0.244600  0.505000  1.0  -0.3876
  C  C143  1  0.072600  0.559800  0.522500  1.0  0.6692
  C  C144  1  0.815400  0.824500  0.526900  1.0  0.6912
  C  C145  1  0.917300  0.526400  0.593500  1.0  -0.3506
  C  C146  1  0.962000  0.591900  0.534290  1.0  0.0031
  C  C147  1  0.898100  0.585500  0.464400  1.0  -0.1601
  C  C148  1  0.815800  0.658400  0.469900  1.0  -0.0893
  C  C149  1  0.840700  0.719600  0.535700  1.0  -0.1693
  C  C150  1  0.954300  0.699800  0.555600  1.0  0.1781
  C  C151  1  0.976400  0.721100  0.634100  1.0  -0.3813
  C  C152  1  0.026500  0.756400  0.507300  1.0  -0.362
  C  C153  1  0.234600  0.481300  0.250300  1.0  0.7034
  C  C154  1  0.339200  0.521600  0.245800  1.0  -0.4861
  C  C155  1  0.791200  0.821500  0.970200  1.0  0.6497
  C  C156  1  0.046700  0.558400  0.980900  1.0  0.6741
  C  C157  1  0.755300  0.684600  0.890000  1.0  -0.354
  C  C158  1  0.815600  0.716800  0.956900  1.0  0.0056
  C  C159  1  0.786600  0.655900  0.023000  1.0  -0.1471
  C  C160  1  0.861100  0.573500  0.024400  1.0  -0.0964
  C  C161  1  0.940800  0.591900  0.965300  1.0  -0.1962
  C  C162  1  0.932900  0.699400  0.949200  1.0  0.1817
  C  C163  1  0.975500  0.726400  0.873000  1.0  -0.3799
  C  C164  1  0.994200  0.755400  0.005000  1.0  -0.3877
  C  C165  1  0.427400  0.440200  0.022500  1.0  0.6697
  C  C166  1  0.684600  0.175500  0.026900  1.0  0.6902
  C  C167  1  0.582700  0.473600  0.093500  1.0  -0.3518
  C  C168  1  0.538000  0.408100  0.034290  1.0  0.003
  C  C169  1  0.601900  0.414500  0.964400  1.0  -0.1583
  C  C170  1  0.684200  0.341600  0.969900  1.0  -0.0917
  C  C171  1  0.659300  0.280400  0.035700  1.0  -0.1688
  C  C172  1  0.545700  0.300200  0.055600  1.0  0.1765
  C  C173  1  0.523600  0.278900  0.134100  1.0  -0.3811
  C  C174  1  0.473500  0.243600  0.007300  1.0  -0.3629
  C  C175  1  0.265400  0.518700  0.750300  1.0  0.7039
  C  C176  1  0.160800  0.478400  0.745800  1.0  -0.4867
  C  C177  1  0.291200  0.678500  0.029800  1.0  0.6479
  C  C178  1  0.546700  0.941600  0.019100  1.0  0.675
  C  C179  1  0.255300  0.815400  0.110000  1.0  -0.3533
  C  C180  1  0.315600  0.783200  0.043100  1.0  0.0049
  C  C181  1  0.286600  0.844100  0.977000  1.0  -0.1445
  C  C182  1  0.361100  0.926500  0.975600  1.0  -0.0976
  C  C183  1  0.440800  0.908100  0.034700  1.0  -0.1984
  C  C184  1  0.432900  0.800600  0.050800  1.0  0.1816
  C  C185  1  0.475500  0.773600  0.127000  1.0  -0.3795
  C  C186  1  0.494200  0.744600  0.995000  1.0  -0.3866
  C  C187  1  0.927400  0.059800  0.977500  1.0  0.668
  C  C188  1  0.184600  0.324500  0.973100  1.0  0.6904
  C  C189  1  0.082700  0.026400  0.906500  1.0  -0.351
  C  C190  1  0.038000  0.091900  0.965710  1.0  0.0028
  C  C191  1  0.101900  0.085500  0.035600  1.0  -0.1593
  C  C192  1  0.184200  0.158400  0.030100  1.0  -0.0915
  C  C193  1  0.159300  0.219600  0.964300  1.0  -0.1683
  C  C194  1  0.045700  0.199800  0.944400  1.0  0.1781
  C  C195  1  0.023600  0.221100  0.865900  1.0  -0.3824
  C  C196  1  0.973500  0.256400  0.992700  1.0  -0.3637
  C  C197  1  0.765400  0.981300  0.249700  1.0  0.7045
  C  C198  1  0.660800  0.021600  0.254200  1.0  -0.4864
  C  C199  1  0.208800  0.321500  0.529800  1.0  0.6478
  C  C200  1  0.953300  0.058400  0.519100  1.0  0.6756
  C  C201  1  0.244700  0.184600  0.610000  1.0  -0.351
  C  C202  1  0.184400  0.216800  0.543100  1.0  0.0066
  C  C203  1  0.213400  0.155900  0.477000  1.0  -0.1447
  C  C204  1  0.138900  0.073500  0.475600  1.0  -0.0985
  C  C205  1  0.059200  0.091900  0.534700  1.0  -0.1966
  C  C206  1  0.067100  0.199400  0.550800  1.0  0.1814
  C  C207  1  0.024500  0.226400  0.627000  1.0  -0.3807
  C  C208  1  0.005800  0.255400  0.495000  1.0  -0.3869
  C  C209  1  0.572600  0.940200  0.477500  1.0  0.6699
  C  C210  1  0.315400  0.675500  0.473100  1.0  0.691
  C  C211  1  0.417300  0.973600  0.406500  1.0  -0.3504
  C  C212  1  0.462000  0.908100  0.465710  1.0  0.0035
  C  C213  1  0.398100  0.914500  0.535600  1.0  -0.1599
  C  C214  1  0.315800  0.841600  0.530100  1.0  -0.0893
  C  C215  1  0.340700  0.780400  0.464300  1.0  -0.1683
  C  C216  1  0.454300  0.800200  0.444400  1.0  0.1769
  C  C217  1  0.476400  0.778900  0.365900  1.0  -0.3836
  C  C218  1  0.526500  0.743600  0.492700  1.0  -0.3637
  C  C219  1  0.734600  0.018700  0.749700  1.0  0.704
  C  C220  1  0.839200  0.978400  0.754200  1.0  -0.4855
  O  O221  1  0.725000  0.127540  0.415380  1.0  -0.5675
  O  O222  1  0.711500  0.149520  0.535580  1.0  -0.5911
  O  O223  1  0.427300  0.456700  0.546450  1.0  -0.6094
  O  O224  1  0.394890  0.452200  0.427860  1.0  -0.5808
  O  O225  1  0.097960  0.530800  0.460690  1.0  -0.5838
  O  O226  1  0.130540  0.562200  0.577450  1.0  -0.582
  O  O227  1  0.785000  0.868420  0.581800  1.0  -0.5777
  O  O228  1  0.826300  0.859580  0.464270  1.0  -0.5864
  O  O229  1  0.196260  0.462900  0.312280  1.0  -0.6132
  O  O230  1  0.184810  0.466520  0.193400  1.0  -0.6051
  O  O231  1  0.775000  0.872460  0.915380  1.0  -0.5672
  O  O232  1  0.788500  0.850480  0.035580  1.0  -0.5928
  O  O233  1  0.072700  0.543300  0.046450  1.0  -0.6097
  O  O234  1  0.105110  0.547800  0.927860  1.0  -0.5796
  O  O235  1  0.402040  0.469200  0.960690  1.0  -0.5851
  O  O236  1  0.369460  0.437800  0.077450  1.0  -0.5827
  O  O237  1  0.715000  0.131580  0.081800  1.0  -0.5753
  O  O238  1  0.673700  0.140420  0.964270  1.0  -0.5857
  O  O239  1  0.303740  0.537100  0.812280  1.0  -0.6108
  O  O240  1  0.315190  0.533480  0.693400  1.0  -0.6033
  O  O241  1  0.275000  0.627540  0.084620  1.0  -0.5669
  O  O242  1  0.288500  0.649520  0.964420  1.0  -0.5909
  O  O243  1  0.572700  0.956700  0.953550  1.0  -0.6111
  O  O244  1  0.605110  0.952200  0.072140  1.0  -0.5789
  O  O245  1  0.902040  0.030800  0.039310  1.0  -0.5833
  O  O246  1  0.869460  0.062200  0.922550  1.0  -0.5828
  O  O247  1  0.215000  0.368420  0.918200  1.0  -0.5777
  O  O248  1  0.173700  0.359580  0.035730  1.0  -0.5847
  O  O249  1  0.803740  0.962900  0.187720  1.0  -0.6127
  O  O250  1  0.815190  0.966520  0.306600  1.0  -0.6017
  O  O251  1  0.225000  0.372460  0.584620  1.0  -0.5667
  O  O252  1  0.211500  0.350480  0.464420  1.0  -0.5915
  O  O253  1  0.927300  0.043300  0.453550  1.0  -0.611
  O  O254  1  0.894890  0.047800  0.572140  1.0  -0.5798
  O  O255  1  0.597960  0.969200  0.539310  1.0  -0.5831
  O  O256  1  0.630540  0.937800  0.422550  1.0  -0.582
  O  O257  1  0.285000  0.631580  0.418200  1.0  -0.5786
  O  O258  1  0.326300  0.640420  0.535730  1.0  -0.5831
  O  O259  1  0.696260  0.037100  0.687720  1.0  -0.6134
  O  O260  1  0.684810  0.033480  0.806600  1.0  -0.6054
