# generated using pymatgen
data_Co2H31(C11O5)2
_symmetry_space_group_name_H-M   'P 1'
_cell_length_a   13.39500000
_cell_length_b   13.51190000
_cell_length_c   17.62000000
_cell_angle_alpha   90.00000000
_cell_angle_beta   90.00000000
_cell_angle_gamma   90.00000000
_symmetry_Int_Tables_number   1
_chemical_formula_structural   Co2H31(C11O5)2
_chemical_formula_sum   'Co8 H124 C88 O40'
_cell_volume   3189.07728681
_cell_formula_units_Z   4
loop_
 _symmetry_equiv_pos_site_id
 _symmetry_equiv_pos_as_xyz
  1  'x, y, z'
loop_
 _atom_site_type_symbol
 _atom_site_label
 _atom_site_symmetry_multiplicity
 _atom_site_fract_x
 _atom_site_fract_y
 _atom_site_fract_z
 _atom_site_occupancy
 _atom_site_charge
  Co  Co1  1  0.233660  0.489360  0.424490  1.0  0.9991
  Co  Co2  1  0.269450  0.509040  0.583300  1.0  0.9856
  Co  Co3  1  0.266340  0.510640  0.924490  1.0  0.9974
  Co  Co4  1  0.230550  0.490960  0.083300  1.0  0.986
  Co  Co5  1  0.766340  0.989360  0.075510  1.0  0.9967
  Co  Co6  1  0.730550  0.009040  0.916700  1.0  0.9855
  Co  Co7  1  0.733660  0.010640  0.575510  1.0  0.9972
  Co  Co8  1  0.769450  0.990960  0.416700  1.0  0.9836
  H  H9  1  0.921100  0.453900  0.595400  1.0  0.125
  H  H10  1  0.851600  0.542800  0.617400  1.0  0.1315
  H  H11  1  0.958800  0.534700  0.652500  1.0  0.1228
  H  H12  1  0.867900  0.498900  0.476700  1.0  0.0912
  H  H13  1  0.943500  0.560900  0.427600  1.0  0.0861
  H  H14  1  0.832700  0.680400  0.416000  1.0  0.084
  H  H15  1  0.755600  0.616600  0.462700  1.0  0.0823
  H  H16  1  0.795300  0.685700  0.572000  1.0  0.1014
  H  H17  1  0.038800  0.741200  0.644600  1.0  0.1183
  H  H18  1  0.939700  0.691200  0.672300  1.0  0.1262
  H  H19  1  0.938400  0.800800  0.643200  1.0  0.117
  H  H20  1  0.085100  0.749500  0.524700  1.0  0.1279
  H  H21  1  0.999800  0.824500  0.504400  1.0  0.1247
  H  H22  1  0.015900  0.729800  0.454500  1.0  0.1262
  H  H23  1  0.805600  0.336800  0.420200  1.0  0.1273
  H  H24  1  0.715500  0.399100  0.389600  1.0  0.1176
  H  H25  1  0.733900  0.291700  0.359000  1.0  0.1189
  H  H26  1  0.668300  0.316600  0.583300  1.0  0.1093
  H  H27  1  0.752700  0.378500  0.543100  1.0  0.0983
  H  H28  1  0.652500  0.501200  0.522600  1.0  0.1024
  H  H29  1  0.577800  0.449200  0.578900  1.0  0.1045
  H  H30  1  0.567300  0.455000  0.420300  1.0  0.0954
  H  H31  1  0.465700  0.308700  0.358600  1.0  0.1264
  H  H32  1  0.531200  0.212700  0.362300  1.0  0.1254
  H  H33  1  0.578800  0.313000  0.336000  1.0  0.1184
  H  H34  1  0.425200  0.256900  0.494400  1.0  0.126
  H  H35  1  0.511900  0.257700  0.554200  1.0  0.1278
  H  H36  1  0.507300  0.174100  0.492600  1.0  0.1205
  H  H37  1  0.171100  0.396600  0.784200  1.0  0.1429
  H  H38  1  0.153200  0.437500  0.702100  1.0  0.1523
  H  H39  1  0.120200  0.499900  0.772700  1.0  0.1567
  H  H40  1  0.578900  0.546100  0.095400  1.0  0.1253
  H  H41  1  0.648400  0.457200  0.117400  1.0  0.1288
  H  H42  1  0.541200  0.465300  0.152500  1.0  0.1222
  H  H43  1  0.632100  0.501100  0.976700  1.0  0.091
  H  H44  1  0.556500  0.439100  0.927600  1.0  0.087
  H  H45  1  0.667300  0.319600  0.916000  1.0  0.0831
  H  H46  1  0.744400  0.383400  0.962700  1.0  0.0825
  H  H47  1  0.704700  0.314300  0.072000  1.0  0.1014
  H  H48  1  0.461200  0.258800  0.144600  1.0  0.12
  H  H49  1  0.560300  0.308800  0.172300  1.0  0.1256
  H  H50  1  0.561600  0.199200  0.143200  1.0  0.1171
  H  H51  1  0.414900  0.250500  0.024700  1.0  0.1268
  H  H52  1  0.500200  0.175500  0.004400  1.0  0.124
  H  H53  1  0.484100  0.270200  0.954500  1.0  0.1257
  H  H54  1  0.694400  0.663200  0.920200  1.0  0.1265
  H  H55  1  0.784500  0.600900  0.889600  1.0  0.1186
  H  H56  1  0.766100  0.708300  0.859000  1.0  0.1176
  H  H57  1  0.831700  0.683400  0.083300  1.0  0.1093
  H  H58  1  0.747300  0.621500  0.043100  1.0  0.0978
  H  H59  1  0.847500  0.498800  0.022600  1.0  0.106
  H  H60  1  0.922200  0.550800  0.078900  1.0  0.1043
  H  H61  1  0.932700  0.545000  0.920300  1.0  0.0937
  H  H62  1  0.034300  0.691300  0.858600  1.0  0.1272
  H  H63  1  0.968800  0.787300  0.862300  1.0  0.1261
  H  H64  1  0.921200  0.687000  0.836000  1.0  0.1171
  H  H65  1  0.074800  0.743100  0.994400  1.0  0.1278
  H  H66  1  0.988100  0.742300  0.054200  1.0  0.1271
  H  H67  1  0.992700  0.825900  0.992600  1.0  0.1239
  H  H68  1  0.328900  0.603400  0.284200  1.0  0.1403
  H  H69  1  0.346800  0.562500  0.202100  1.0  0.1515
  H  H70  1  0.379800  0.500100  0.272700  1.0  0.1575
  H  H71  1  0.078900  0.953900  0.904600  1.0  0.1262
  H  H72  1  0.148400  0.042800  0.882600  1.0  0.1294
  H  H73  1  0.041200  0.034700  0.847500  1.0  0.121
  H  H74  1  0.132100  0.998900  0.023300  1.0  0.0905
  H  H75  1  0.056500  0.060900  0.072400  1.0  0.0879
  H  H76  1  0.167300  0.180400  0.084000  1.0  0.0846
  H  H77  1  0.244400  0.116600  0.037300  1.0  0.0807
  H  H78  1  0.204700  0.185700  0.928000  1.0  0.103
  H  H79  1  0.961200  0.241200  0.855400  1.0  0.1189
  H  H80  1  0.060300  0.191200  0.827700  1.0  0.1256
  H  H81  1  0.061600  0.300800  0.856800  1.0  0.1178
  H  H82  1  0.914900  0.249500  0.975300  1.0  0.1273
  H  H83  1  0.000200  0.324500  0.995600  1.0  0.1241
  H  H84  1  0.984100  0.229800  0.045500  1.0  0.1268
  H  H85  1  0.194400  0.836800  0.079800  1.0  0.1262
  H  H86  1  0.284500  0.899100  0.110400  1.0  0.1173
  H  H87  1  0.266100  0.791700  0.141000  1.0  0.1202
  H  H88  1  0.331700  0.816600  0.916700  1.0  0.1073
  H  H89  1  0.247300  0.878500  0.956900  1.0  0.0956
  H  H90  1  0.347500  0.001200  0.977400  1.0  0.1037
  H  H91  1  0.422200  0.949200  0.921100  1.0  0.1041
  H  H92  1  0.432700  0.955000  0.079700  1.0  0.0955
  H  H93  1  0.534300  0.808700  0.141400  1.0  0.1271
  H  H94  1  0.468800  0.712700  0.137700  1.0  0.1291
  H  H95  1  0.421200  0.813000  0.164000  1.0  0.118
  H  H96  1  0.574800  0.756900  0.005600  1.0  0.1279
  H  H97  1  0.488100  0.757700  0.945800  1.0  0.1268
  H  H98  1  0.492700  0.674100  0.007400  1.0  0.122
  H  H99  1  0.828900  0.896600  0.715800  1.0  0.1422
  H  H100  1  0.846800  0.937500  0.797900  1.0  0.1524
  H  H101  1  0.879800  0.999900  0.727300  1.0  0.1565
  H  H102  1  0.421100  0.046100  0.404600  1.0  0.126
  H  H103  1  0.351600  0.957200  0.382600  1.0  0.1295
  H  H104  1  0.458800  0.965300  0.347500  1.0  0.1198
  H  H105  1  0.367900  0.001100  0.523300  1.0  0.0909
  H  H106  1  0.443500  0.939100  0.572400  1.0  0.0875
  H  H107  1  0.332700  0.819600  0.584000  1.0  0.0845
  H  H108  1  0.255600  0.883400  0.537300  1.0  0.0824
  H  H109  1  0.295300  0.814300  0.428000  1.0  0.1024
  H  H110  1  0.538800  0.758800  0.355400  1.0  0.1192
  H  H111  1  0.439700  0.808800  0.327700  1.0  0.1252
  H  H112  1  0.438400  0.699200  0.356800  1.0  0.1166
  H  H113  1  0.585100  0.750500  0.475300  1.0  0.1279
  H  H114  1  0.499800  0.675500  0.495600  1.0  0.1235
  H  H115  1  0.515900  0.770200  0.545500  1.0  0.1268
  H  H116  1  0.305600  0.163200  0.579800  1.0  0.1253
  H  H117  1  0.215500  0.100900  0.610400  1.0  0.1202
  H  H118  1  0.233900  0.208300  0.641000  1.0  0.1193
  H  H119  1  0.168300  0.183400  0.416700  1.0  0.1075
  H  H120  1  0.252700  0.121500  0.456900  1.0  0.0985
  H  H121  1  0.152500  0.998800  0.477400  1.0  0.1049
  H  H122  1  0.077800  0.050800  0.421100  1.0  0.1039
  H  H123  1  0.067300  0.045000  0.579700  1.0  0.0957
  H  H124  1  0.965700  0.191300  0.641400  1.0  0.1282
  H  H125  1  0.031200  0.287300  0.637700  1.0  0.1263
  H  H126  1  0.078800  0.187000  0.664000  1.0  0.1197
  H  H127  1  0.925200  0.243100  0.505600  1.0  0.1255
  H  H128  1  0.011900  0.242300  0.445800  1.0  0.1271
  H  H129  1  0.007300  0.325900  0.507400  1.0  0.1246
  H  H130  1  0.671100  0.103400  0.215800  1.0  0.1405
  H  H131  1  0.653200  0.062500  0.297900  1.0  0.1523
  H  H132  1  0.620200  0.000100  0.227300  1.0  0.1569
  C  C133  1  0.068400  0.557500  0.530300  1.0  0.6424
  C  C134  1  0.804500  0.820100  0.518000  1.0  0.6457
  C  C135  1  0.919300  0.523100  0.607900  1.0  -0.3438
  C  C136  1  0.961600  0.583500  0.541600  1.0  0.0766
  C  C137  1  0.900600  0.562700  0.471900  1.0  -0.1702
  C  C138  1  0.822300  0.644400  0.463000  1.0  -0.1129
  C  C139  1  0.836400  0.712000  0.530700  1.0  -0.2035
  C  C140  1  0.947700  0.699600  0.554900  1.0  0.1739
  C  C141  1  0.968100  0.736700  0.636500  1.0  -0.3701
  C  C142  1  0.018500  0.755900  0.505200  1.0  -0.3692
  C  C143  1  0.698100  0.186000  0.478100  1.0  0.6758
  C  C144  1  0.431700  0.448000  0.478000  1.0  0.638
  C  C145  1  0.737800  0.333800  0.402800  1.0  -0.3307
  C  C146  1  0.671500  0.292100  0.465800  1.0  0.0076
  C  C147  1  0.684300  0.355600  0.538700  1.0  -0.1481
  C  C148  1  0.615300  0.440900  0.532200  1.0  -0.1313
  C  C149  1  0.543100  0.418700  0.464800  1.0  -0.1798
  C  C150  1  0.557600  0.306200  0.449300  1.0  0.1868
  C  C151  1  0.531000  0.283100  0.369500  1.0  -0.3716
  C  C152  1  0.494700  0.242900  0.502600  1.0  -0.3605
  C  C153  1  0.269000  0.503600  0.755000  1.0  0.6852
  C  C154  1  0.169600  0.455100  0.753400  1.0  -0.4271
  C  C155  1  0.431600  0.442500  0.030300  1.0  0.6394
  C  C156  1  0.695500  0.179900  0.018000  1.0  0.6454
  C  C157  1  0.580700  0.476900  0.107900  1.0  -0.3438
  C  C158  1  0.538400  0.416500  0.041600  1.0  0.075
  C  C159  1  0.599400  0.437300  0.971900  1.0  -0.1689
  C  C160  1  0.677700  0.355600  0.963000  1.0  -0.1143
  C  C161  1  0.663600  0.288000  0.030700  1.0  -0.2017
  C  C162  1  0.552300  0.300400  0.054900  1.0  0.1738
  C  C163  1  0.531900  0.263300  0.136500  1.0  -0.3696
  C  C164  1  0.481500  0.244100  0.005200  1.0  -0.3694
  C  C165  1  0.801900  0.814000  0.978100  1.0  0.6778
  C  C166  1  0.068300  0.552000  0.978000  1.0  0.6351
  C  C167  1  0.762200  0.666200  0.902800  1.0  -0.3324
  C  C168  1  0.828500  0.707900  0.965800  1.0  0.0079
  C  C169  1  0.815700  0.644400  0.038700  1.0  -0.1488
  C  C170  1  0.884700  0.559100  0.032200  1.0  -0.1284
  C  C171  1  0.956900  0.581300  0.964800  1.0  -0.1756
  C  C172  1  0.942400  0.693800  0.949300  1.0  0.1869
  C  C173  1  0.969000  0.716900  0.869500  1.0  -0.3728
  C  C174  1  0.005300  0.757100  0.002600  1.0  -0.3606
  C  C175  1  0.231000  0.496400  0.255000  1.0  0.6852
  C  C176  1  0.330400  0.544900  0.253400  1.0  -0.4271
  C  C177  1  0.931600  0.057500  0.969700  1.0  0.6402
  C  C178  1  0.195500  0.320100  0.982000  1.0  0.6456
  C  C179  1  0.080700  0.023100  0.892100  1.0  -0.3443
  C  C180  1  0.038400  0.083500  0.958400  1.0  0.0746
  C  C181  1  0.099400  0.062700  0.028100  1.0  -0.171
  C  C182  1  0.177700  0.144400  0.037000  1.0  -0.1144
  C  C183  1  0.163600  0.212000  0.969300  1.0  -0.2007
  C  C184  1  0.052300  0.199600  0.945100  1.0  0.174
  C  C185  1  0.031900  0.236700  0.863500  1.0  -0.368
  C  C186  1  0.981500  0.255900  0.994800  1.0  -0.3709
  C  C187  1  0.301900  0.686000  0.021900  1.0  0.6764
  C  C188  1  0.568300  0.948000  0.022000  1.0  0.6366
  C  C189  1  0.262200  0.833800  0.097200  1.0  -0.3323
  C  C190  1  0.328500  0.792100  0.034200  1.0  0.0074
  C  C191  1  0.315700  0.855600  0.961300  1.0  -0.1457
  C  C192  1  0.384700  0.940900  0.967800  1.0  -0.1267
  C  C193  1  0.456900  0.918700  0.035200  1.0  -0.1789
  C  C194  1  0.442400  0.806200  0.050700  1.0  0.1858
  C  C195  1  0.469000  0.783100  0.130500  1.0  -0.3734
  C  C196  1  0.505300  0.742900  0.997400  1.0  -0.3601
  C  C197  1  0.731000  0.003600  0.745000  1.0  0.687
  C  C198  1  0.830400  0.955100  0.746600  1.0  -0.4273
  C  C199  1  0.568400  0.942500  0.469700  1.0  0.6425
  C  C200  1  0.304500  0.679900  0.482000  1.0  0.646
  C  C201  1  0.419300  0.976900  0.392100  1.0  -0.343
  C  C202  1  0.461600  0.916500  0.458400  1.0  0.0763
  C  C203  1  0.400600  0.937300  0.528100  1.0  -0.1704
  C  C204  1  0.322300  0.855600  0.537000  1.0  -0.1126
  C  C205  1  0.336400  0.788000  0.469300  1.0  -0.2036
  C  C206  1  0.447700  0.800400  0.445100  1.0  0.1727
  C  C207  1  0.468100  0.763300  0.363500  1.0  -0.3699
  C  C208  1  0.518500  0.744100  0.494800  1.0  -0.3693
  C  C209  1  0.198100  0.314000  0.521900  1.0  0.6769
  C  C210  1  0.931700  0.052000  0.522000  1.0  0.6374
  C  C211  1  0.237800  0.166200  0.597200  1.0  -0.3286
  C  C212  1  0.171500  0.207900  0.534200  1.0  0.0079
  C  C213  1  0.184300  0.144400  0.461300  1.0  -0.1459
  C  C214  1  0.115300  0.059100  0.467800  1.0  -0.1265
  C  C215  1  0.043100  0.081300  0.535200  1.0  -0.1777
  C  C216  1  0.057600  0.193800  0.550700  1.0  0.1861
  C  C217  1  0.031000  0.216900  0.630500  1.0  -0.3734
  C  C218  1  0.994700  0.257100  0.497400  1.0  -0.3591
  C  C219  1  0.769000  0.996400  0.245000  1.0  0.6854
  C  C220  1  0.669600  0.044900  0.246600  1.0  -0.4272
  O  O221  1  0.126400  0.559300  0.589000  1.0  -0.5799
  O  O222  1  0.098200  0.531000  0.467200  1.0  -0.5785
  O  O223  1  0.774800  0.864600  0.575600  1.0  -0.5552
  O  O224  1  0.811900  0.853300  0.451300  1.0  -0.5678
  O  O225  1  0.703800  0.152800  0.544500  1.0  -0.5812
  O  O226  1  0.717400  0.132700  0.420800  1.0  -0.6068
  O  O227  1  0.404500  0.459700  0.546600  1.0  -0.5877
  O  O228  1  0.379300  0.452500  0.421600  1.0  -0.5395
  O  O229  1  0.313400  0.522600  0.692700  1.0  -0.6288
  O  O230  1  0.309500  0.525000  0.816300  1.0  -0.6051
  O  O231  1  0.373600  0.440700  0.089000  1.0  -0.5809
  O  O232  1  0.401800  0.469000  0.967200  1.0  -0.5783
  O  O233  1  0.725200  0.135400  0.075600  1.0  -0.5544
  O  O234  1  0.688100  0.146700  0.951300  1.0  -0.5679
  O  O235  1  0.796200  0.847200  0.044500  1.0  -0.5824
  O  O236  1  0.782600  0.867300  0.920800  1.0  -0.6071
  O  O237  1  0.095500  0.540300  0.046600  1.0  -0.5869
  O  O238  1  0.120700  0.547500  0.921600  1.0  -0.5394
  O  O239  1  0.186600  0.477400  0.192700  1.0  -0.6319
  O  O240  1  0.190500  0.475000  0.316300  1.0  -0.6084
  O  O241  1  0.873600  0.059300  0.911000  1.0  -0.58
  O  O242  1  0.901800  0.031000  0.032800  1.0  -0.5807
  O  O243  1  0.225200  0.364600  0.924400  1.0  -0.5548
  O  O244  1  0.188100  0.353300  0.048700  1.0  -0.57
  O  O245  1  0.296200  0.652800  0.955500  1.0  -0.5807
  O  O246  1  0.282600  0.632700  0.079200  1.0  -0.6061
  O  O247  1  0.595500  0.959700  0.953400  1.0  -0.5868
  O  O248  1  0.620700  0.952500  0.078400  1.0  -0.5392
  O  O249  1  0.686600  0.022600  0.807300  1.0  -0.6317
  O  O250  1  0.690500  0.025000  0.683700  1.0  -0.6077
  O  O251  1  0.626400  0.940700  0.411000  1.0  -0.581
  O  O252  1  0.598200  0.969000  0.532800  1.0  -0.5801
  O  O253  1  0.274800  0.635400  0.424400  1.0  -0.555
  O  O254  1  0.311900  0.646700  0.548700  1.0  -0.5699
  O  O255  1  0.203800  0.347200  0.455500  1.0  -0.5805
  O  O256  1  0.217400  0.367300  0.579200  1.0  -0.6059
  O  O257  1  0.904500  0.040300  0.453400  1.0  -0.5859
  O  O258  1  0.879300  0.047500  0.578400  1.0  -0.5397
  O  O259  1  0.813400  0.977400  0.307300  1.0  -0.6288
  O  O260  1  0.809500  0.975000  0.183700  1.0  -0.6043
