# generated using pymatgen
data_Cu2H24C25(NO)4
_symmetry_space_group_name_H-M   'P 1'
_cell_length_a   9.80400000
_cell_length_b   16.83860000
_cell_length_c   16.83860000
_cell_angle_alpha   85.13840000
_cell_angle_beta   73.07520000
_cell_angle_gamma   73.07530000
_symmetry_Int_Tables_number   1
_chemical_formula_structural   Cu2H24C25(NO)4
_chemical_formula_sum   'Cu4 H48 C50 N8 O8'
_cell_volume   2544.22692440
_cell_formula_units_Z   2
loop_
 _symmetry_equiv_pos_site_id
 _symmetry_equiv_pos_as_xyz
  1  'x, y, z'
loop_
 _atom_site_type_symbol
 _atom_site_label
 _atom_site_symmetry_multiplicity
 _atom_site_fract_x
 _atom_site_fract_y
 _atom_site_fract_z
 _atom_site_occupancy
 _atom_site_charge
  Cu  Cu1  1  0.000000  0.500000  0.500000  1.0  0.1956
  Cu  Cu2  1  0.500000  0.000000  0.000000  1.0  0.1975
  Cu  Cu3  1  0.500000  0.500000  0.000000  1.0  0.1975
  Cu  Cu4  1  0.500000  0.000000  0.500000  1.0  0.1956
  H  H5  1  0.275700  0.520800  0.385200  1.0  0.0497
  H  H6  1  0.514200  0.446400  0.323400  1.0  0.1185
  H  H7  1  0.406700  0.241300  0.421900  1.0  0.1194
  H  H8  1  0.169600  0.322000  0.476200  1.0  0.0622
  H  H9  1  0.698100  0.348900  0.236700  1.0  0.0478
  H  H10  1  0.754600  0.361100  0.312100  1.0  0.0606
  H  H11  1  0.681700  0.979200  0.114800  1.0  0.0561
  H  H12  1  0.784000  0.053600  0.176600  1.0  0.1176
  H  H13  1  0.569900  0.258700  0.078100  1.0  0.1184
  H  H14  1  0.467800  0.178000  0.023800  1.0  0.0608
  H  H15  1  0.783700  0.151100  0.263300  1.0  0.0468
  H  H16  1  0.927800  0.138900  0.187900  1.0  0.06
  H  H17  1  0.660900  0.614800  0.020800  1.0  0.0593
  H  H18  1  0.837600  0.676600  0.946400  1.0  0.1192
  H  H19  1  0.828600  0.578100  0.741300  1.0  0.1206
  H  H20  1  0.645800  0.523800  0.822000  1.0  0.0595
  H  H21  1  0.934800  0.763300  0.848900  1.0  0.0476
  H  H22  1  0.066700  0.687900  0.861100  1.0  0.0607
  H  H23  1  0.796500  0.885200  0.479200  1.0  0.0585
  H  H24  1  0.960600  0.823400  0.553600  1.0  0.1192
  H  H25  1  0.648000  0.921900  0.758700  1.0  0.1214
  H  H26  1  0.491600  0.976200  0.678000  1.0  0.0583
  H  H27  1  0.047000  0.736700  0.651100  1.0  0.0471
  H  H28  1  0.115700  0.812100  0.638900  1.0  0.0619
  H  H29  1  0.724300  0.479200  0.614800  1.0  0.0561
  H  H30  1  0.485800  0.553600  0.676600  1.0  0.1178
  H  H31  1  0.593300  0.758700  0.578100  1.0  0.1199
  H  H32  1  0.830400  0.678000  0.523800  1.0  0.0617
  H  H33  1  0.301900  0.651100  0.763300  1.0  0.0471
  H  H34  1  0.245400  0.638900  0.687900  1.0  0.0592
  H  H35  1  0.318300  0.020800  0.885200  1.0  0.05
  H  H36  1  0.216000  0.946400  0.823400  1.0  0.1191
  H  H37  1  0.430100  0.741300  0.921900  1.0  0.1191
  H  H38  1  0.532200  0.822000  0.976200  1.0  0.0616
  H  H39  1  0.216300  0.848900  0.736700  1.0  0.0472
  H  H40  1  0.072200  0.861100  0.812100  1.0  0.0595
  H  H41  1  0.339100  0.385200  0.979200  1.0  0.0579
  H  H42  1  0.162400  0.323400  0.053600  1.0  0.1178
  H  H43  1  0.171400  0.421900  0.258700  1.0  0.1208
  H  H44  1  0.354200  0.476200  0.178000  1.0  0.0577
  H  H45  1  0.065200  0.236700  0.151100  1.0  0.0467
  H  H46  1  0.933300  0.312100  0.138900  1.0  0.0609
  H  H47  1  0.203500  0.114800  0.520800  1.0  0.0594
  H  H48  1  0.039400  0.176600  0.446400  1.0  0.1196
  H  H49  1  0.352000  0.078100  0.241300  1.0  0.1209
  H  H50  1  0.508400  0.023800  0.322000  1.0  0.0603
  H  H51  1  0.953000  0.263300  0.348900  1.0  0.0473
  H  H52  1  0.884300  0.187900  0.361100  1.0  0.0608
  C  C53  1  0.303190  0.463650  0.392810  1.0  0.1335
  C  C54  1  0.446280  0.419720  0.356000  1.0  -0.3419
  C  C55  1  0.487520  0.336080  0.367860  1.0  0.3367
  C  C56  1  0.382460  0.298480  0.413640  1.0  -0.2867
  C  C57  1  0.241460  0.347480  0.446640  1.0  0.1639
  C  C58  1  0.734160  0.320910  0.282470  1.0  0.0871
  C  C59  1  0.659650  0.036350  0.107190  1.0  0.1324
  C  C60  1  0.722000  0.080280  0.144000  1.0  -0.346
  C  C61  1  0.691460  0.163920  0.132140  1.0  0.3359
  C  C62  1  0.594580  0.201520  0.086360  1.0  -0.2872
  C  C63  1  0.535580  0.152520  0.053360  1.0  0.1661
  C  C64  1  0.837540  0.179090  0.217530  1.0  0.0836
  C  C65  1  0.696000  0.607190  0.963650  1.0  0.1323
  C  C66  1  0.802280  0.644000  0.919720  1.0  -0.3374
  C  C67  1  0.855380  0.632140  0.836080  1.0  0.3377
  C  C68  1  0.796100  0.586360  0.798480  1.0  -0.2836
  C  C69  1  0.688100  0.553360  0.847480  1.0  0.1673
  C  C70  1  0.016630  0.717530  0.820910  1.0  0.0759
  C  C71  1  0.766840  0.892810  0.536350  1.0  0.1356
  C  C72  1  0.866000  0.856000  0.580280  1.0  -0.3412
  C  C73  1  0.823600  0.867860  0.663920  1.0  0.3401
  C  C74  1  0.680940  0.913640  0.701520  1.0  -0.285
  C  C75  1  0.588940  0.946640  0.652520  1.0  0.1653
  C  C76  1  0.055070  0.782470  0.679090  1.0  0.0776
  C  C77  1  0.696810  0.536350  0.607190  1.0  0.1337
  C  C78  1  0.553720  0.580280  0.644000  1.0  -0.3452
  C  C79  1  0.512480  0.663920  0.632140  1.0  0.336
  C  C80  1  0.617540  0.701520  0.586360  1.0  -0.2886
  C  C81  1  0.758540  0.652520  0.553360  1.0  0.1631
  C  C82  1  0.265840  0.679090  0.717530  1.0  0.0863
  C  C83  1  0.340350  0.963650  0.892810  1.0  0.1327
  C  C84  1  0.278000  0.919720  0.856000  1.0  -0.3434
  C  C85  1  0.308540  0.836080  0.867860  1.0  0.3359
  C  C86  1  0.405420  0.798480  0.913640  1.0  -0.2869
  C  C87  1  0.464420  0.847480  0.946640  1.0  0.1641
  C  C88  1  0.162460  0.820910  0.782470  1.0  0.0847
  C  C89  1  0.304000  0.392810  0.036350  1.0  0.135
  C  C90  1  0.197720  0.356000  0.080280  1.0  -0.3403
  C  C91  1  0.144620  0.367860  0.163920  1.0  0.3391
  C  C92  1  0.203900  0.413640  0.201520  1.0  -0.2849
  C  C93  1  0.311900  0.446640  0.152520  1.0  0.1664
  C  C94  1  0.983370  0.282470  0.179090  1.0  0.0773
  C  C95  1  0.233160  0.107190  0.463650  1.0  0.1332
  C  C96  1  0.134000  0.144000  0.419720  1.0  -0.3409
  C  C97  1  0.176400  0.132140  0.336080  1.0  0.34
  C  C98  1  0.319060  0.086360  0.298480  1.0  -0.2827
  C  C99  1  0.411060  0.053360  0.347480  1.0  0.165
  C  C100  1  0.944930  0.217530  0.320910  1.0  0.0763
  C  C101  1  0.875000  0.250000  0.250000  1.0  -0.0542
  C  C102  1  0.125000  0.750000  0.750000  1.0  -0.0544
  N  N103  1  0.202090  0.428600  0.438780  1.0  -0.3508
  N  N104  1  0.569470  0.071400  0.061220  1.0  -0.3513
  N  N105  1  0.640870  0.561220  0.928600  1.0  -0.3494
  N  N106  1  0.630690  0.938780  0.571400  1.0  -0.3516
  N  N107  1  0.797910  0.571400  0.561220  1.0  -0.3515
  N  N108  1  0.430530  0.928600  0.938780  1.0  -0.3506
  N  N109  1  0.359130  0.438780  0.071400  1.0  -0.3518
  N  N110  1  0.369310  0.061220  0.428600  1.0  -0.347
  O  O111  1  0.625800  0.285090  0.337110  1.0  -0.2875
  O  O112  1  0.748000  0.214910  0.162890  1.0  -0.2858
  O  O113  1  0.962910  0.662890  0.785090  1.0  -0.2845
  O  O114  1  0.910890  0.837110  0.714910  1.0  -0.2864
  O  O115  1  0.374200  0.714910  0.662890  1.0  -0.2874
  O  O116  1  0.252000  0.785090  0.837110  1.0  -0.2873
  O  O117  1  0.037090  0.337110  0.214910  1.0  -0.2859
  O  O118  1  0.089110  0.162890  0.285090  1.0  -0.2863
