# generated using pymatgen
data_CuBH40C49N4(OF)4
_symmetry_space_group_name_H-M   'P 1'
_cell_length_a   13.22350000
_cell_length_b   15.21410000
_cell_length_c   15.21410000
_cell_angle_alpha   90.00000000
_cell_angle_beta   90.00000000
_cell_angle_gamma   90.00000000
_symmetry_Int_Tables_number   1
_chemical_formula_structural   CuBH40C49N4(OF)4
_chemical_formula_sum   'Cu2 B2 H80 C98 N8 O8 F8'
_cell_volume   3060.82819000
_cell_formula_units_Z   2
loop_
 _symmetry_equiv_pos_site_id
 _symmetry_equiv_pos_as_xyz
  1  'x, y, z'
loop_
 _atom_site_type_symbol
 _atom_site_label
 _atom_site_symmetry_multiplicity
 _atom_site_fract_x
 _atom_site_fract_y
 _atom_site_fract_z
 _atom_site_occupancy
 _atom_site_charge
  Cu  Cu1  1  0.000000  0.750000  0.250000  1.0  0.489
  Cu  Cu2  1  0.000000  0.250000  0.750000  1.0  0.489
  B  B3  1  0.759000  0.750000  0.750000  1.0  0.6975
  B  B4  1  0.241000  0.250000  0.250000  1.0  0.6937
  H  H5  1  0.028500  0.692800  0.065400  1.0  0.0744
  H  H6  1  0.963800  0.595400  0.964900  1.0  0.1298
  H  H7  1  0.735700  0.548200  0.133100  1.0  0.1234
  H  H8  1  0.806000  0.647100  0.227800  1.0  0.0795
  H  H9  1  0.838000  0.559600  0.862000  1.0  0.1043
  H  H10  1  0.749200  0.472200  0.764100  1.0  0.1175
  H  H11  1  0.654800  0.320200  0.966600  1.0  0.1303
  H  H12  1  0.741000  0.410800  0.063200  1.0  0.1117
  H  H13  1  0.601900  0.230300  0.852100  1.0  0.0685
  H  H14  1  0.522700  0.306100  0.873000  1.0  0.0604
  H  H15  1  0.028500  0.807200  0.434600  1.0  0.075
  H  H16  1  0.963800  0.904600  0.535100  1.0  0.1297
  H  H17  1  0.735700  0.951800  0.366900  1.0  0.1232
  H  H18  1  0.806000  0.852900  0.272200  1.0  0.0804
  H  H19  1  0.838000  0.940400  0.638000  1.0  0.1041
  H  H20  1  0.749200  0.027800  0.735900  1.0  0.1175
  H  H21  1  0.654800  0.179800  0.533400  1.0  0.1306
  H  H22  1  0.741000  0.089200  0.436800  1.0  0.1118
  H  H23  1  0.601900  0.269700  0.647900  1.0  0.0676
  H  H24  1  0.522700  0.193900  0.627000  1.0  0.061
  H  H25  1  0.971500  0.565400  0.307200  1.0  0.0742
  H  H26  1  0.036200  0.464900  0.404600  1.0  0.1296
  H  H27  1  0.264300  0.633100  0.451800  1.0  0.123
  H  H28  1  0.194000  0.727800  0.352900  1.0  0.0794
  H  H29  1  0.162000  0.362000  0.440400  1.0  0.1035
  H  H30  1  0.250800  0.264100  0.527800  1.0  0.117
  H  H31  1  0.345200  0.466600  0.679800  1.0  0.1298
  H  H32  1  0.259000  0.563200  0.589200  1.0  0.1113
  H  H33  1  0.398100  0.352100  0.769700  1.0  0.0668
  H  H34  1  0.477300  0.373000  0.693900  1.0  0.0613
  H  H35  1  0.971500  0.934600  0.192800  1.0  0.074
  H  H36  1  0.036200  0.035100  0.095400  1.0  0.13
  H  H37  1  0.264300  0.866900  0.048200  1.0  0.1227
  H  H38  1  0.194000  0.772200  0.147100  1.0  0.0797
  H  H39  1  0.162000  0.138000  0.059600  1.0  0.1037
  H  H40  1  0.250800  0.235900  0.972200  1.0  0.1163
  H  H41  1  0.345200  0.033400  0.820200  1.0  0.1297
  H  H42  1  0.259000  0.936800  0.910800  1.0  0.111
  H  H43  1  0.398100  0.147900  0.730300  1.0  0.066
  H  H44  1  0.477300  0.127000  0.806100  1.0  0.0607
  H  H45  1  0.028500  0.434600  0.692800  1.0  0.0741
  H  H46  1  0.963800  0.535100  0.595400  1.0  0.1301
  H  H47  1  0.735700  0.366900  0.548200  1.0  0.1224
  H  H48  1  0.806000  0.272200  0.647100  1.0  0.0795
  H  H49  1  0.838000  0.638000  0.559600  1.0  0.1038
  H  H50  1  0.749200  0.735900  0.472200  1.0  0.1164
  H  H51  1  0.654800  0.533400  0.320200  1.0  0.1295
  H  H52  1  0.741000  0.436800  0.410800  1.0  0.111
  H  H53  1  0.601900  0.647900  0.230300  1.0  0.0661
  H  H54  1  0.522700  0.627000  0.306100  1.0  0.0607
  H  H55  1  0.028500  0.065400  0.807200  1.0  0.0739
  H  H56  1  0.963800  0.964900  0.904600  1.0  0.1299
  H  H57  1  0.735700  0.133100  0.951800  1.0  0.1227
  H  H58  1  0.806000  0.227800  0.852900  1.0  0.0796
  H  H59  1  0.838000  0.862000  0.940400  1.0  0.1038
  H  H60  1  0.749200  0.764100  0.027800  1.0  0.117
  H  H61  1  0.654800  0.966600  0.179800  1.0  0.13
  H  H62  1  0.741000  0.063200  0.089200  1.0  0.1115
  H  H63  1  0.601900  0.852100  0.269700  1.0  0.0667
  H  H64  1  0.522700  0.873000  0.193900  1.0  0.0617
  H  H65  1  0.971500  0.307200  0.934600  1.0  0.0749
  H  H66  1  0.036200  0.404600  0.035100  1.0  0.1298
  H  H67  1  0.264300  0.451800  0.866900  1.0  0.1237
  H  H68  1  0.194000  0.352900  0.772200  1.0  0.0803
  H  H69  1  0.162000  0.440400  0.138000  1.0  0.104
  H  H70  1  0.250800  0.527800  0.235900  1.0  0.1172
  H  H71  1  0.345200  0.679800  0.033400  1.0  0.1306
  H  H72  1  0.259000  0.589200  0.936800  1.0  0.1117
  H  H73  1  0.398100  0.769700  0.147900  1.0  0.0679
  H  H74  1  0.477300  0.693900  0.127000  1.0  0.0604
  H  H75  1  0.971500  0.192800  0.565400  1.0  0.0746
  H  H76  1  0.036200  0.095400  0.464900  1.0  0.1298
  H  H77  1  0.264300  0.048200  0.633100  1.0  0.123
  H  H78  1  0.194000  0.147100  0.727800  1.0  0.0797
  H  H79  1  0.162000  0.059600  0.362000  1.0  0.1044
  H  H80  1  0.250800  0.972200  0.264100  1.0  0.1173
  H  H81  1  0.345200  0.820200  0.466600  1.0  0.1305
  H  H82  1  0.259000  0.910800  0.563200  1.0  0.1113
  H  H83  1  0.398100  0.730300  0.352100  1.0  0.0682
  H  H84  1  0.477300  0.806100  0.373000  1.0  0.0601
  C  C85  1  0.968400  0.662900  0.079300  1.0  0.1762
  C  C86  1  0.930000  0.604400  0.018500  1.0  -0.2174
  C  C87  1  0.841600  0.559000  0.036600  1.0  0.1104
  C  C88  1  0.796000  0.576900  0.117500  1.0  -0.2114
  C  C89  1  0.838700  0.636100  0.174100  1.0  0.1806
  C  C90  1  0.795400  0.496800  0.973500  1.0  0.053
  C  C91  1  0.799100  0.512500  0.883400  1.0  -0.0952
  C  C92  1  0.746600  0.460300  0.824700  1.0  -0.2428
  C  C93  1  0.689700  0.389700  0.856000  1.0  0.2686
  C  C94  1  0.689800  0.369800  0.945500  1.0  -0.2981
  C  C95  1  0.741800  0.423800  0.002800  1.0  -0.1373
  C  C96  1  0.565300  0.280300  0.827000  1.0  0.0672
  C  C97  1  0.968400  0.837100  0.420700  1.0  0.1758
  C  C98  1  0.930000  0.895600  0.481500  1.0  -0.2177
  C  C99  1  0.841600  0.941000  0.463400  1.0  0.1105
  C  C100  1  0.796000  0.923100  0.382500  1.0  -0.2116
  C  C101  1  0.838700  0.863900  0.325900  1.0  0.1803
  C  C102  1  0.795400  0.003200  0.526500  1.0  0.0531
  C  C103  1  0.799100  0.987500  0.616600  1.0  -0.0974
  C  C104  1  0.746600  0.039700  0.675300  1.0  -0.2427
  C  C105  1  0.689700  0.110300  0.644000  1.0  0.2678
  C  C106  1  0.689800  0.130200  0.554500  1.0  -0.2962
  C  C107  1  0.741800  0.076200  0.497200  1.0  -0.136
  C  C108  1  0.565300  0.219700  0.673000  1.0  0.0666
  C  C109  1  0.031600  0.579300  0.337100  1.0  0.1754
  C  C110  1  0.070000  0.518500  0.395600  1.0  -0.2199
  C  C111  1  0.158400  0.536600  0.441000  1.0  0.1105
  C  C112  1  0.204000  0.617500  0.423100  1.0  -0.2129
  C  C113  1  0.161300  0.674100  0.363900  1.0  0.1815
  C  C114  1  0.204600  0.473500  0.503200  1.0  0.0533
  C  C115  1  0.200900  0.383400  0.487500  1.0  -0.0949
  C  C116  1  0.253400  0.324700  0.539700  1.0  -0.2417
  C  C117  1  0.310300  0.356000  0.610300  1.0  0.2666
  C  C118  1  0.310200  0.445500  0.630200  1.0  -0.2984
  C  C119  1  0.258200  0.502800  0.576200  1.0  -0.1465
  C  C120  1  0.434700  0.327000  0.719700  1.0  0.0746
  C  C121  1  0.031600  0.920700  0.162900  1.0  0.1762
  C  C122  1  0.070000  0.981500  0.104400  1.0  -0.2195
  C  C123  1  0.158400  0.963400  0.059000  1.0  0.1102
  C  C124  1  0.204000  0.882500  0.076900  1.0  -0.2116
  C  C125  1  0.161300  0.825900  0.136100  1.0  0.1815
  C  C126  1  0.204600  0.026500  0.996800  1.0  0.0537
  C  C127  1  0.200900  0.116600  0.012500  1.0  -0.096
  C  C128  1  0.253400  0.175300  0.960300  1.0  -0.2417
  C  C129  1  0.310300  0.144000  0.889700  1.0  0.2668
  C  C130  1  0.310200  0.054500  0.869800  1.0  -0.2979
  C  C131  1  0.258200  0.997200  0.923800  1.0  -0.1458
  C  C132  1  0.434700  0.173000  0.780300  1.0  0.075
  C  C133  1  0.500000  0.250000  0.750000  1.0  -0.0467
  C  C134  1  0.968400  0.420700  0.662900  1.0  0.1763
  C  C135  1  0.930000  0.481500  0.604400  1.0  -0.2199
  C  C136  1  0.841600  0.463400  0.559000  1.0  0.1104
  C  C137  1  0.796000  0.382500  0.576900  1.0  -0.212
  C  C138  1  0.838700  0.325900  0.636100  1.0  0.1814
  C  C139  1  0.795400  0.526500  0.496800  1.0  0.0532
  C  C140  1  0.799100  0.616600  0.512500  1.0  -0.096
  C  C141  1  0.746600  0.675300  0.460300  1.0  -0.2417
  C  C142  1  0.689700  0.644000  0.389700  1.0  0.2667
  C  C143  1  0.689800  0.554500  0.369800  1.0  -0.3002
  C  C144  1  0.741800  0.497200  0.423800  1.0  -0.1455
  C  C145  1  0.565300  0.673000  0.280300  1.0  0.0746
  C  C146  1  0.968400  0.079300  0.837100  1.0  0.1753
  C  C147  1  0.930000  0.018500  0.895600  1.0  -0.2202
  C  C148  1  0.841600  0.036600  0.941000  1.0  0.1104
  C  C149  1  0.796000  0.117500  0.923100  1.0  -0.2121
  C  C150  1  0.838700  0.174100  0.863900  1.0  0.1814
  C  C151  1  0.795400  0.973500  0.003200  1.0  0.0529
  C  C152  1  0.799100  0.883400  0.987500  1.0  -0.095
  C  C153  1  0.746600  0.824700  0.039700  1.0  -0.2412
  C  C154  1  0.689700  0.856000  0.110300  1.0  0.2658
  C  C155  1  0.689800  0.945500  0.130200  1.0  -0.3005
  C  C156  1  0.741800  0.002800  0.076200  1.0  -0.1464
  C  C157  1  0.565300  0.827000  0.219700  1.0  0.0745
  C  C158  1  0.031600  0.337100  0.920700  1.0  0.176
  C  C159  1  0.070000  0.395600  0.981500  1.0  -0.2168
  C  C160  1  0.158400  0.441000  0.963400  1.0  0.1103
  C  C161  1  0.204000  0.423100  0.882500  1.0  -0.2118
  C  C162  1  0.161300  0.363900  0.825900  1.0  0.1804
  C  C163  1  0.204600  0.503200  0.026500  1.0  0.0535
  C  C164  1  0.200900  0.487500  0.116600  1.0  -0.0971
  C  C165  1  0.253400  0.539700  0.175300  1.0  -0.2425
  C  C166  1  0.310300  0.610300  0.144000  1.0  0.2687
  C  C167  1  0.310200  0.630200  0.054500  1.0  -0.2949
  C  C168  1  0.258200  0.576200  0.997200  1.0  -0.1375
  C  C169  1  0.434700  0.719700  0.173000  1.0  0.0667
  C  C170  1  0.031600  0.162900  0.579300  1.0  0.1758
  C  C171  1  0.070000  0.104400  0.518500  1.0  -0.2175
  C  C172  1  0.158400  0.059000  0.536600  1.0  0.1104
  C  C173  1  0.204000  0.076900  0.617500  1.0  -0.2117
  C  C174  1  0.161300  0.136100  0.674100  1.0  0.1807
  C  C175  1  0.204600  0.996800  0.473500  1.0  0.0535
  C  C176  1  0.200900  0.012500  0.383400  1.0  -0.0951
  C  C177  1  0.253400  0.960300  0.324700  1.0  -0.2432
  C  C178  1  0.310300  0.889700  0.356000  1.0  0.2695
  C  C179  1  0.310200  0.869800  0.445500  1.0  -0.2952
  C  C180  1  0.258200  0.923800  0.502800  1.0  -0.1368
  C  C181  1  0.434700  0.780300  0.327000  1.0  0.0675
  C  C182  1  0.500000  0.750000  0.250000  1.0  -0.0467
  N  N183  1  0.925100  0.679400  0.156800  1.0  -0.3324
  N  N184  1  0.925100  0.820600  0.343200  1.0  -0.3331
  N  N185  1  0.074900  0.656800  0.320600  1.0  -0.3325
  N  N186  1  0.074900  0.843200  0.179400  1.0  -0.3321
  N  N187  1  0.925100  0.343200  0.679400  1.0  -0.3315
  N  N188  1  0.925100  0.156800  0.820600  1.0  -0.3323
  N  N189  1  0.074900  0.320600  0.843200  1.0  -0.3334
  N  N190  1  0.074900  0.179400  0.656800  1.0  -0.3329
  O  O191  1  0.635300  0.344500  0.794800  1.0  -0.2636
  O  O192  1  0.635300  0.155500  0.705200  1.0  -0.2626
  O  O193  1  0.364700  0.294800  0.655500  1.0  -0.2642
  O  O194  1  0.364700  0.205200  0.844500  1.0  -0.2664
  O  O195  1  0.635300  0.705200  0.344500  1.0  -0.2651
  O  O196  1  0.635300  0.794800  0.155500  1.0  -0.2629
  O  O197  1  0.364700  0.655500  0.205200  1.0  -0.2635
  O  O198  1  0.364700  0.844500  0.294800  1.0  -0.2644
  F  F199  1  0.795000  0.822000  0.782000  1.0  -0.335
  F  F200  1  0.795000  0.678000  0.718000  1.0  -0.3386
  F  F201  1  0.795000  0.718000  0.822000  1.0  -0.3359
  F  F202  1  0.795000  0.782000  0.678000  1.0  -0.3371
  F  F203  1  0.205000  0.178000  0.218000  1.0  -0.3386
  F  F204  1  0.205000  0.322000  0.282000  1.0  -0.3355
  F  F205  1  0.205000  0.282000  0.178000  1.0  -0.337
  F  F206  1  0.205000  0.218000  0.322000  1.0  -0.3358
