# generated using pymatgen
data_Cu2B3H48C50N8(O2F3)4
_symmetry_space_group_name_H-M   'P 1'
_cell_length_a   14.18380000
_cell_length_b   14.18380000
_cell_length_c   21.64000000
_cell_angle_alpha   93.55270000
_cell_angle_beta   93.55270000
_cell_angle_gamma   119.58800000
_symmetry_Int_Tables_number   1
_chemical_formula_structural   Cu2B3H48C50N8(O2F3)4
_chemical_formula_sum   'Cu4 B6 H96 C100 N16 O16 F24'
_cell_volume   3757.00505484
_cell_formula_units_Z   2
loop_
 _symmetry_equiv_pos_site_id
 _symmetry_equiv_pos_as_xyz
  1  'x, y, z'
loop_
 _atom_site_type_symbol
 _atom_site_label
 _atom_site_symmetry_multiplicity
 _atom_site_fract_x
 _atom_site_fract_y
 _atom_site_fract_z
 _atom_site_occupancy
 _atom_site_charge
  Cu  Cu1  1  0.232870  0.985210  0.429600  1.0  0.3692
  Cu  Cu2  1  0.014790  0.767130  0.070400  1.0  0.3686
  Cu  Cu3  1  0.767130  0.014790  0.570400  1.0  0.3703
  Cu  Cu4  1  0.985210  0.232870  0.929600  1.0  0.3699
  B  B5  1  0.723390  0.111410  0.306900  1.0  0.9202
  B  B6  1  0.888590  0.276610  0.193100  1.0  0.9206
  B  B7  1  0.276610  0.888590  0.693100  1.0  0.9193
  B  B8  1  0.111410  0.723390  0.806900  1.0  0.92
  B  B9  1  0.427870  0.572130  0.250000  1.0  0.9579
  B  B10  1  0.572130  0.427870  0.750000  1.0  0.9598
  H  H11  1  0.512300  0.883300  0.208200  1.0  0.0597
  H  H12  1  0.401700  0.769900  0.194100  1.0  0.0417
  H  H13  1  0.405400  0.832800  0.288500  1.0  0.0863
  H  H14  1  0.349800  0.867600  0.377900  1.0  0.0448
  H  H15  1  0.224800  0.025800  0.298900  1.0  0.0666
  H  H16  1  0.275800  0.992000  0.202200  1.0  0.1034
  H  H17  1  0.531700  0.747100  0.064200  1.0  0.0563
  H  H18  1  0.509900  0.714700  0.133100  1.0  0.0616
  H  H19  1  0.841100  0.988300  0.134200  1.0  0.1096
  H  H20  1  0.978400  0.958600  0.106000  1.0  0.0585
  H  H21  1  0.772100  0.644100  0.067200  1.0  0.0746
  H  H22  1  0.633900  0.672900  0.097000  1.0  0.0866
  H  H23  1  0.592700  0.992100  0.118200  1.0  0.0591
  H  H24  1  0.478500  0.975500  0.089700  1.0  0.0641
  H  H25  1  0.697800  0.116200  0.078800  1.0  0.0958
  H  H26  1  0.864400  0.225400  0.043100  1.0  0.0526
  H  H27  1  0.800200  0.011000  0.902700  1.0  0.065
  H  H28  1  0.637300  0.893700  0.935500  1.0  0.1229
  H  H29  1  0.373000  0.755800  0.029000  1.0  0.0538
  H  H30  1  0.313100  0.791700  0.077100  1.0  0.0624
  H  H31  1  0.224100  0.462500  0.118700  1.0  0.1075
  H  H32  1  0.086900  0.314300  0.063200  1.0  0.0579
  H  H33  1  0.077800  0.478400  0.927200  1.0  0.0769
  H  H34  1  0.206800  0.634000  0.984600  1.0  0.0759
  H  H35  1  0.116700  0.487700  0.291800  1.0  0.0602
  H  H36  1  0.230100  0.598300  0.305900  1.0  0.0405
  H  H37  1  0.167200  0.594600  0.211500  1.0  0.0868
  H  H38  1  0.132400  0.650200  0.122100  1.0  0.0445
  H  H39  1  0.974200  0.775200  0.201100  1.0  0.0671
  H  H40  1  0.008000  0.724200  0.297800  1.0  0.1027
  H  H41  1  0.252900  0.468300  0.435800  1.0  0.058
  H  H42  1  0.285300  0.490100  0.366900  1.0  0.0596
  H  H43  1  0.011700  0.158900  0.365800  1.0  0.1111
  H  H44  1  0.041400  0.021600  0.394000  1.0  0.0581
  H  H45  1  0.355900  0.227900  0.432800  1.0  0.0732
  H  H46  1  0.327100  0.366100  0.403000  1.0  0.0874
  H  H47  1  0.007900  0.407300  0.381800  1.0  0.0597
  H  H48  1  0.024500  0.521500  0.410300  1.0  0.0643
  H  H49  1  0.883800  0.302200  0.421200  1.0  0.0961
  H  H50  1  0.774600  0.135600  0.456900  1.0  0.0523
  H  H51  1  0.989000  0.199800  0.597300  1.0  0.0661
  H  H52  1  0.106300  0.362700  0.564500  1.0  0.1222
  H  H53  1  0.244200  0.627000  0.471000  1.0  0.0553
  H  H54  1  0.208300  0.686900  0.422900  1.0  0.0667
  H  H55  1  0.537500  0.775900  0.381300  1.0  0.1078
  H  H56  1  0.685700  0.913100  0.436800  1.0  0.0582
  H  H57  1  0.521600  0.922200  0.572800  1.0  0.0754
  H  H58  1  0.366000  0.793200  0.515400  1.0  0.0758
  H  H59  1  0.487700  0.116700  0.791800  1.0  0.0604
  H  H60  1  0.598300  0.230100  0.805900  1.0  0.0396
  H  H61  1  0.594600  0.167200  0.711500  1.0  0.0869
  H  H62  1  0.650200  0.132400  0.622100  1.0  0.0448
  H  H63  1  0.775200  0.974200  0.701100  1.0  0.0665
  H  H64  1  0.724200  0.008000  0.797800  1.0  0.1033
  H  H65  1  0.468300  0.252900  0.935800  1.0  0.0563
  H  H66  1  0.490100  0.285300  0.866900  1.0  0.0606
  H  H67  1  0.158900  0.011700  0.865800  1.0  0.11
  H  H68  1  0.021600  0.041400  0.894000  1.0  0.058
  H  H69  1  0.227900  0.355900  0.932800  1.0  0.0734
  H  H70  1  0.366100  0.327100  0.903000  1.0  0.0872
  H  H71  1  0.407300  0.007900  0.881800  1.0  0.0596
  H  H72  1  0.521500  0.024500  0.910300  1.0  0.0649
  H  H73  1  0.302200  0.883800  0.921200  1.0  0.0956
  H  H74  1  0.135600  0.774600  0.956900  1.0  0.0535
  H  H75  1  0.199800  0.989000  0.097300  1.0  0.0663
  H  H76  1  0.362700  0.106300  0.064500  1.0  0.1244
  H  H77  1  0.627000  0.244200  0.971000  1.0  0.0531
  H  H78  1  0.686900  0.208300  0.922900  1.0  0.0638
  H  H79  1  0.775900  0.537500  0.881300  1.0  0.1076
  H  H80  1  0.913100  0.685700  0.936800  1.0  0.0579
  H  H81  1  0.922200  0.521600  0.072800  1.0  0.0773
  H  H82  1  0.793200  0.366000  0.015400  1.0  0.0762
  H  H83  1  0.883300  0.512300  0.708200  1.0  0.0597
  H  H84  1  0.769900  0.401700  0.694100  1.0  0.0414
  H  H85  1  0.832800  0.405400  0.788500  1.0  0.0864
  H  H86  1  0.867600  0.349800  0.877900  1.0  0.045
  H  H87  1  0.025800  0.224800  0.798900  1.0  0.0673
  H  H88  1  0.992000  0.275800  0.702200  1.0  0.1043
  H  H89  1  0.747100  0.531700  0.564200  1.0  0.0572
  H  H90  1  0.714700  0.509900  0.633100  1.0  0.0613
  H  H91  1  0.988300  0.841100  0.634200  1.0  0.1111
  H  H92  1  0.958600  0.978400  0.606000  1.0  0.0575
  H  H93  1  0.644100  0.772100  0.567200  1.0  0.0741
  H  H94  1  0.672900  0.633900  0.597000  1.0  0.0868
  H  H95  1  0.992100  0.592700  0.618200  1.0  0.0601
  H  H96  1  0.975500  0.478500  0.589700  1.0  0.0654
  H  H97  1  0.116200  0.697800  0.578800  1.0  0.0964
  H  H98  1  0.225400  0.864400  0.543100  1.0  0.0523
  H  H99  1  0.011000  0.800200  0.402700  1.0  0.0668
  H  H100  1  0.893700  0.637300  0.435500  1.0  0.1224
  H  H101  1  0.755800  0.373000  0.529000  1.0  0.0561
  H  H102  1  0.791700  0.313100  0.577100  1.0  0.0646
  H  H103  1  0.462500  0.224100  0.618700  1.0  0.1078
  H  H104  1  0.314300  0.086900  0.563200  1.0  0.0578
  H  H105  1  0.478400  0.077800  0.427200  1.0  0.0752
  H  H106  1  0.634000  0.206800  0.484600  1.0  0.0749
  C  C107  1  0.469320  0.833020  0.112160  1.0  -0.0157
  C  C108  1  0.444170  0.842710  0.180510  1.0  0.0464
  C  C109  1  0.349460  0.914840  0.238440  1.0  0.2924
  C  C110  1  0.368900  0.873000  0.289860  1.0  -0.2675
  C  C111  1  0.333530  0.892290  0.341590  1.0  0.1561
  C  C112  1  0.259830  0.984470  0.295910  1.0  0.1828
  C  C113  1  0.292530  0.967790  0.238510  1.0  -0.1709
  C  C114  1  0.536790  0.775590  0.107420  1.0  0.0243
  C  C115  1  0.722100  0.831580  0.114830  1.0  0.3218
  C  C116  1  0.825780  0.917720  0.120020  1.0  -0.2761
  C  C117  1  0.907700  0.898060  0.103890  1.0  0.1301
  C  C118  1  0.788320  0.715020  0.081400  1.0  0.1019
  C  C119  1  0.704670  0.732790  0.097920  1.0  -0.225
  C  C120  1  0.525900  0.943520  0.090720  1.0  0.0416
  C  C121  1  0.648560  0.994280  0.009490  1.0  0.2442
  C  C122  1  0.717090  0.092910  0.042520  1.0  -0.2084
  C  C123  1  0.816960  0.157520  0.020210  1.0  0.1538
  C  C124  1  0.780450  0.033130  0.939200  1.0  0.1494
  C  C125  1  0.681840  0.962760  0.957750  1.0  -0.261
  C  C126  1  0.361590  0.761370  0.072930  1.0  0.0607
  C  C127  1  0.233070  0.569470  0.057810  1.0  0.2674
  C  C128  1  0.194350  0.468690  0.080180  1.0  -0.2162
  C  C129  1  0.114490  0.381090  0.046070  1.0  0.1583
  C  C130  1  0.106060  0.474720  0.966790  1.0  0.0978
  C  C131  1  0.184570  0.567270  0.001080  1.0  -0.1549
  C  C132  1  0.166980  0.530680  0.387840  1.0  -0.016
  C  C133  1  0.157290  0.555830  0.319490  1.0  0.0466
  C  C134  1  0.085160  0.650540  0.261560  1.0  0.2902
  C  C135  1  0.127000  0.631100  0.210140  1.0  -0.2685
  C  C136  1  0.107710  0.666470  0.158410  1.0  0.1554
  C  C137  1  0.015530  0.740170  0.204090  1.0  0.183
  C  C138  1  0.032210  0.707470  0.261490  1.0  -0.1716
  C  C139  1  0.224410  0.463210  0.392580  1.0  0.0228
  C  C140  1  0.168420  0.277900  0.385170  1.0  0.3212
  C  C141  1  0.082280  0.174220  0.379980  1.0  -0.2758
  C  C142  1  0.101940  0.092300  0.396110  1.0  0.1321
  C  C143  1  0.284980  0.211680  0.418600  1.0  0.1013
  C  C144  1  0.267210  0.295330  0.402080  1.0  -0.2225
  C  C145  1  0.056480  0.474100  0.409280  1.0  0.0426
  C  C146  1  0.005720  0.351440  0.490510  1.0  0.2458
  C  C147  1  0.907090  0.282910  0.457480  1.0  -0.209
  C  C148  1  0.842480  0.183040  0.479790  1.0  0.1531
  C  C149  1  0.966870  0.219550  0.560800  1.0  0.1491
  C  C150  1  0.037240  0.318160  0.542250  1.0  -0.2614
  C  C151  1  0.238630  0.638410  0.427070  1.0  0.0609
  C  C152  1  0.430530  0.766930  0.442190  1.0  0.2704
  C  C153  1  0.531310  0.805650  0.419820  1.0  -0.2183
  C  C154  1  0.618910  0.885510  0.453930  1.0  0.16
  C  C155  1  0.525280  0.893940  0.533210  1.0  0.0961
  C  C156  1  0.432730  0.815430  0.498920  1.0  -0.1536
  C  C157  1  0.530680  0.166980  0.887840  1.0  -0.0159
  C  C158  1  0.555830  0.157290  0.819490  1.0  0.0465
  C  C159  1  0.650540  0.085160  0.761560  1.0  0.2922
  C  C160  1  0.631100  0.127000  0.710140  1.0  -0.2688
  C  C161  1  0.666470  0.107710  0.658410  1.0  0.1564
  C  C162  1  0.740170  0.015530  0.704090  1.0  0.1839
  C  C163  1  0.707470  0.032210  0.761490  1.0  -0.172
  C  C164  1  0.463210  0.224410  0.892580  1.0  0.0232
  C  C165  1  0.277900  0.168420  0.885170  1.0  0.3218
  C  C166  1  0.174220  0.082280  0.879980  1.0  -0.2756
  C  C167  1  0.092300  0.101940  0.896110  1.0  0.1313
  C  C168  1  0.211680  0.284980  0.918600  1.0  0.1001
  C  C169  1  0.295330  0.267210  0.902080  1.0  -0.2256
  C  C170  1  0.474100  0.056480  0.909280  1.0  0.0414
  C  C171  1  0.351440  0.005720  0.990510  1.0  0.2439
  C  C172  1  0.282910  0.907090  0.957480  1.0  -0.2085
  C  C173  1  0.183040  0.842480  0.979790  1.0  0.1526
  C  C174  1  0.219550  0.966870  0.060800  1.0  0.1484
  C  C175  1  0.318160  0.037240  0.042250  1.0  -0.2617
  C  C176  1  0.638410  0.238630  0.927070  1.0  0.0605
  C  C177  1  0.766930  0.430530  0.942190  1.0  0.2685
  C  C178  1  0.805650  0.531310  0.919820  1.0  -0.2174
  C  C179  1  0.885510  0.618910  0.953930  1.0  0.16
  C  C180  1  0.893940  0.525280  0.033210  1.0  0.0971
  C  C181  1  0.815430  0.432730  0.998920  1.0  -0.1542
  C  C182  1  0.833020  0.469320  0.612160  1.0  -0.0164
  C  C183  1  0.842710  0.444170  0.680510  1.0  0.0473
  C  C184  1  0.914840  0.349460  0.738440  1.0  0.2897
  C  C185  1  0.873000  0.368900  0.789860  1.0  -0.2673
  C  C186  1  0.892290  0.333530  0.841590  1.0  0.1562
  C  C187  1  0.984470  0.259830  0.795910  1.0  0.185
  C  C188  1  0.967790  0.292530  0.738510  1.0  -0.1697
  C  C189  1  0.775590  0.536790  0.607420  1.0  0.022
  C  C190  1  0.831580  0.722100  0.614830  1.0  0.3206
  C  C191  1  0.917720  0.825780  0.620020  1.0  -0.2706
  C  C192  1  0.898060  0.907700  0.603890  1.0  0.1304
  C  C193  1  0.715020  0.788320  0.581400  1.0  0.103
  C  C194  1  0.732790  0.704670  0.597920  1.0  -0.2241
  C  C195  1  0.943520  0.525900  0.590720  1.0  0.0417
  C  C196  1  0.994280  0.648560  0.509490  1.0  0.2443
  C  C197  1  0.092910  0.717090  0.542520  1.0  -0.2099
  C  C198  1  0.157520  0.816960  0.520210  1.0  0.1541
  C  C199  1  0.033130  0.780450  0.439200  1.0  0.1491
  C  C200  1  0.962760  0.681840  0.457750  1.0  -0.2637
  C  C201  1  0.761370  0.361590  0.572930  1.0  0.0596
  C  C202  1  0.569470  0.233070  0.557810  1.0  0.2701
  C  C203  1  0.468690  0.194350  0.580180  1.0  -0.2166
  C  C204  1  0.381090  0.114490  0.546070  1.0  0.1593
  C  C205  1  0.474720  0.106060  0.466790  1.0  0.0967
  C  C206  1  0.567270  0.184570  0.501080  1.0  -0.1566
  N  N207  1  0.276870  0.943570  0.346540  1.0  -0.3355
  N  N208  1  0.895260  0.800200  0.085540  1.0  -0.3715
  N  N209  1  0.851640  0.131640  0.968880  1.0  -0.3663
  N  N210  1  0.069630  0.379850  0.989070  1.0  -0.3513
  N  N211  1  0.056430  0.723130  0.153460  1.0  -0.3348
  N  N212  1  0.199800  0.104740  0.414460  1.0  -0.3723
  N  N213  1  0.868360  0.148360  0.531120  1.0  -0.3673
  N  N214  1  0.620150  0.930370  0.510930  1.0  -0.3534
  N  N215  1  0.723130  0.056430  0.653460  1.0  -0.3356
  N  N216  1  0.104740  0.199800  0.914460  1.0  -0.3698
  N  N217  1  0.148360  0.868360  0.031120  1.0  -0.3674
  N  N218  1  0.930370  0.620150  0.010930  1.0  -0.3515
  N  N219  1  0.943570  0.276870  0.846540  1.0  -0.332
  N  N220  1  0.800200  0.895260  0.585540  1.0  -0.3713
  N  N221  1  0.131640  0.851640  0.468880  1.0  -0.3664
  N  N222  1  0.379850  0.069630  0.489070  1.0  -0.3512
  O  O223  1  0.384110  0.898190  0.182970  1.0  -0.292
  O  O224  1  0.649530  0.856930  0.129610  1.0  -0.3451
  O  O225  1  0.551140  0.925840  0.028310  1.0  -0.3007
  O  O226  1  0.315250  0.656550  0.095520  1.0  -0.2777
  O  O227  1  0.101810  0.615890  0.317030  1.0  -0.2887
  O  O228  1  0.143070  0.350470  0.370390  1.0  -0.3464
  O  O229  1  0.074160  0.448860  0.471690  1.0  -0.2995
  O  O230  1  0.343450  0.684750  0.404480  1.0  -0.2752
  O  O231  1  0.615890  0.101810  0.817030  1.0  -0.2917
  O  O232  1  0.350470  0.143070  0.870390  1.0  -0.3474
  O  O233  1  0.448860  0.074160  0.971690  1.0  -0.302
  O  O234  1  0.684750  0.343450  0.904480  1.0  -0.2761
  O  O235  1  0.898190  0.384110  0.682970  1.0  -0.2885
  O  O236  1  0.856930  0.649530  0.629610  1.0  -0.3464
  O  O237  1  0.925840  0.551140  0.528310  1.0  -0.2992
  O  O238  1  0.656550  0.315250  0.595520  1.0  -0.2757
  F  F239  1  0.808740  0.208300  0.307690  1.0  -0.2753
  F  F240  1  0.659660  0.114400  0.347160  1.0  -0.2447
  F  F241  1  0.670510  0.080070  0.251230  1.0  -0.2684
  F  F242  1  0.754270  0.041890  0.321250  1.0  -0.2377
  F  F243  1  0.791700  0.191260  0.192310  1.0  -0.2739
  F  F244  1  0.885600  0.340340  0.152840  1.0  -0.2479
  F  F245  1  0.919930  0.329490  0.248770  1.0  -0.2703
  F  F246  1  0.958110  0.245730  0.178750  1.0  -0.2367
  F  F247  1  0.191260  0.791700  0.692310  1.0  -0.2743
  F  F248  1  0.340340  0.885600  0.652840  1.0  -0.2474
  F  F249  1  0.329490  0.919930  0.748770  1.0  -0.2696
  F  F250  1  0.245730  0.958110  0.678750  1.0  -0.2378
  F  F251  1  0.208300  0.808740  0.807690  1.0  -0.2732
  F  F252  1  0.114400  0.659660  0.847160  1.0  -0.2444
  F  F253  1  0.080070  0.670510  0.751230  1.0  -0.2699
  F  F254  1  0.041890  0.754270  0.821250  1.0  -0.2386
  F  F255  1  0.486780  0.567480  0.203900  1.0  -0.2218
  F  F256  1  0.468300  0.676400  0.272690  1.0  -0.2621
  F  F257  1  0.432520  0.513220  0.296100  1.0  -0.2228
  F  F258  1  0.323600  0.531700  0.227310  1.0  -0.2633
  F  F259  1  0.513220  0.432520  0.796100  1.0  -0.219
  F  F260  1  0.531700  0.323600  0.727310  1.0  -0.2624
  F  F261  1  0.567480  0.486780  0.703900  1.0  -0.2213
  F  F262  1  0.676400  0.468300  0.772690  1.0  -0.2641
