# generated using pymatgen
data_CuH40C49(N3O5)2
_symmetry_space_group_name_H-M   'P 1'
_cell_length_a   15.03100000
_cell_length_b   39.95200000
_cell_length_c   16.25300000
_cell_angle_alpha   90.00000000
_cell_angle_beta   90.00000000
_cell_angle_gamma   90.00000000
_symmetry_Int_Tables_number   1
_chemical_formula_structural   CuH40C49(N3O5)2
_chemical_formula_sum   'Cu4 H160 C196 N24 O40'
_cell_volume   9760.22737554
_cell_formula_units_Z   4
loop_
 _symmetry_equiv_pos_site_id
 _symmetry_equiv_pos_as_xyz
  1  'x, y, z'
loop_
 _atom_site_type_symbol
 _atom_site_label
 _atom_site_symmetry_multiplicity
 _atom_site_fract_x
 _atom_site_fract_y
 _atom_site_fract_z
 _atom_site_occupancy
 _atom_site_charge
  Cu  Cu1  1  0.750000  0.250000  0.500000  1.0  0.3757
  Cu  Cu2  1  0.250000  0.750000  0.000000  1.0  0.4721
  Cu  Cu3  1  0.250000  0.750000  0.500000  1.0  0.3757
  Cu  Cu4  1  0.750000  0.250000  0.000000  1.0  0.4721
  H  H5  1  0.400500  0.595100  0.380400  1.0  0.1301
  H  H6  1  0.384900  0.640500  0.293800  1.0  0.1023
  H  H7  1  0.143300  0.611300  0.233700  1.0  0.1157
  H  H8  1  0.155500  0.564800  0.315900  1.0  0.138
  H  H9  1  0.358400  0.688200  0.243900  1.0  0.1283
  H  H10  1  0.209500  0.512800  0.379600  1.0  0.0843
  H  H11  1  0.169700  0.540100  0.440600  1.0  0.0716
  H  H12  1  0.347400  0.730300  0.148700  1.0  0.0795
  H  H13  1  0.146000  0.689100  0.044000  1.0  0.0963
  H  H14  1  0.152300  0.644100  0.134000  1.0  0.1294
  H  H15  1  0.184500  0.471500  0.574600  1.0  0.0678
  H  H16  1  0.118100  0.497000  0.531300  1.0  0.0895
  H  H17  1  0.047700  0.445700  0.576800  1.0  0.1198
  H  H18  1  0.967500  0.396900  0.593700  1.0  0.1325
  H  H19  1  0.073300  0.361400  0.384000  1.0  0.1246
  H  H20  1  0.154200  0.409700  0.370600  1.0  0.1291
  H  H21  1  0.881500  0.357600  0.592600  1.0  0.1089
  H  H22  1  0.791200  0.310700  0.599400  1.0  0.1046
  H  H23  1  0.917000  0.271000  0.411500  1.0  0.0955
  H  H24  1  0.009100  0.316600  0.402300  1.0  0.1179
  H  H25  1  0.099500  0.904900  0.380400  1.0  0.1297
  H  H26  1  0.115100  0.859500  0.293800  1.0  0.1025
  H  H27  1  0.356700  0.888700  0.233700  1.0  0.1169
  H  H28  1  0.344500  0.935200  0.315900  1.0  0.141
  H  H29  1  0.141600  0.811800  0.243900  1.0  0.1284
  H  H30  1  0.290500  0.987200  0.379600  1.0  0.0852
  H  H31  1  0.330300  0.959900  0.440600  1.0  0.0726
  H  H32  1  0.152600  0.769700  0.148700  1.0  0.0795
  H  H33  1  0.354000  0.810900  0.044000  1.0  0.0965
  H  H34  1  0.347700  0.855900  0.134000  1.0  0.1304
  H  H35  1  0.315500  0.028500  0.574600  1.0  0.0673
  H  H36  1  0.381900  0.003000  0.531300  1.0  0.091
  H  H37  1  0.452300  0.054300  0.576800  1.0  0.1204
  H  H38  1  0.532500  0.103100  0.593700  1.0  0.1325
  H  H39  1  0.426700  0.138600  0.384000  1.0  0.1242
  H  H40  1  0.345800  0.090300  0.370600  1.0  0.1287
  H  H41  1  0.618500  0.142400  0.592600  1.0  0.1085
  H  H42  1  0.708800  0.189300  0.599400  1.0  0.1045
  H  H43  1  0.583000  0.229000  0.411500  1.0  0.0956
  H  H44  1  0.490900  0.183400  0.402300  1.0  0.117
  H  H45  1  0.400500  0.904900  0.619600  1.0  0.13
  H  H46  1  0.384900  0.859500  0.706200  1.0  0.1034
  H  H47  1  0.143300  0.888700  0.766300  1.0  0.1165
  H  H48  1  0.155500  0.935200  0.684100  1.0  0.1406
  H  H49  1  0.358400  0.811800  0.756100  1.0  0.1289
  H  H50  1  0.209500  0.987200  0.620400  1.0  0.0856
  H  H51  1  0.169700  0.959900  0.559400  1.0  0.0707
  H  H52  1  0.347400  0.769700  0.851300  1.0  0.0799
  H  H53  1  0.146000  0.810900  0.956000  1.0  0.0964
  H  H54  1  0.152300  0.855900  0.866000  1.0  0.1301
  H  H55  1  0.184500  0.028500  0.425400  1.0  0.0675
  H  H56  1  0.118100  0.003000  0.468700  1.0  0.0894
  H  H57  1  0.047700  0.054300  0.423200  1.0  0.1195
  H  H58  1  0.967500  0.103100  0.406300  1.0  0.1324
  H  H59  1  0.073300  0.138600  0.616000  1.0  0.1247
  H  H60  1  0.154200  0.090300  0.629400  1.0  0.1287
  H  H61  1  0.881500  0.142400  0.407400  1.0  0.1094
  H  H62  1  0.791200  0.189300  0.400600  1.0  0.1048
  H  H63  1  0.917000  0.229000  0.588500  1.0  0.0957
  H  H64  1  0.009100  0.183400  0.597700  1.0  0.1178
  H  H65  1  0.099500  0.595100  0.619600  1.0  0.1307
  H  H66  1  0.115100  0.640500  0.706200  1.0  0.1025
  H  H67  1  0.356700  0.611300  0.766300  1.0  0.1153
  H  H68  1  0.344500  0.564800  0.684100  1.0  0.1388
  H  H69  1  0.141600  0.688200  0.756100  1.0  0.1293
  H  H70  1  0.290500  0.512800  0.620400  1.0  0.0858
  H  H71  1  0.330300  0.540100  0.559400  1.0  0.0719
  H  H72  1  0.152600  0.730300  0.851300  1.0  0.0794
  H  H73  1  0.354000  0.689100  0.956000  1.0  0.096
  H  H74  1  0.347700  0.644100  0.866000  1.0  0.1295
  H  H75  1  0.315500  0.471500  0.425400  1.0  0.0675
  H  H76  1  0.381900  0.497000  0.468700  1.0  0.0917
  H  H77  1  0.452300  0.445700  0.423200  1.0  0.1197
  H  H78  1  0.532500  0.396900  0.406300  1.0  0.1315
  H  H79  1  0.426700  0.361400  0.616000  1.0  0.1248
  H  H80  1  0.345800  0.409700  0.629400  1.0  0.1296
  H  H81  1  0.618500  0.357600  0.407400  1.0  0.1093
  H  H82  1  0.708800  0.310700  0.400600  1.0  0.1047
  H  H83  1  0.583000  0.271000  0.588500  1.0  0.0959
  H  H84  1  0.490900  0.316600  0.597700  1.0  0.1167
  H  H85  1  0.599500  0.404900  0.619600  1.0  0.1302
  H  H86  1  0.615100  0.359500  0.706200  1.0  0.1031
  H  H87  1  0.856700  0.388700  0.766300  1.0  0.1161
  H  H88  1  0.844500  0.435200  0.684100  1.0  0.1392
  H  H89  1  0.641600  0.311800  0.756100  1.0  0.1289
  H  H90  1  0.790500  0.487200  0.620400  1.0  0.0847
  H  H91  1  0.830300  0.459900  0.559400  1.0  0.0716
  H  H92  1  0.652600  0.269700  0.851300  1.0  0.0795
  H  H93  1  0.854000  0.310900  0.956000  1.0  0.0959
  H  H94  1  0.847700  0.355900  0.866000  1.0  0.13
  H  H95  1  0.815500  0.528500  0.425400  1.0  0.0683
  H  H96  1  0.881900  0.503000  0.468700  1.0  0.0916
  H  H97  1  0.952300  0.554300  0.423200  1.0  0.1195
  H  H98  1  0.032500  0.603100  0.406300  1.0  0.1314
  H  H99  1  0.926700  0.638600  0.616000  1.0  0.1245
  H  H100  1  0.845800  0.590300  0.629400  1.0  0.1294
  H  H101  1  0.118500  0.642400  0.407400  1.0  0.1093
  H  H102  1  0.208800  0.689300  0.400600  1.0  0.1046
  H  H103  1  0.083000  0.729000  0.588500  1.0  0.0959
  H  H104  1  0.990900  0.683400  0.597700  1.0  0.1167
  H  H105  1  0.900500  0.095100  0.619600  1.0  0.1304
  H  H106  1  0.884900  0.140500  0.706200  1.0  0.1027
  H  H107  1  0.643300  0.111300  0.766300  1.0  0.1164
  H  H108  1  0.655500  0.064800  0.684100  1.0  0.1396
  H  H109  1  0.858400  0.188200  0.756100  1.0  0.1291
  H  H110  1  0.709500  0.012800  0.620400  1.0  0.0857
  H  H111  1  0.669700  0.040100  0.559400  1.0  0.0717
  H  H112  1  0.847400  0.230300  0.851300  1.0  0.0797
  H  H113  1  0.646000  0.189100  0.956000  1.0  0.0964
  H  H114  1  0.652300  0.144100  0.866000  1.0  0.13
  H  H115  1  0.684500  0.971500  0.425400  1.0  0.0671
  H  H116  1  0.618100  0.997000  0.468700  1.0  0.0897
  H  H117  1  0.547700  0.945700  0.423200  1.0  0.1198
  H  H118  1  0.467500  0.896900  0.406300  1.0  0.1324
  H  H119  1  0.573300  0.861400  0.616000  1.0  0.1247
  H  H120  1  0.654200  0.909700  0.629400  1.0  0.1283
  H  H121  1  0.381500  0.857600  0.407400  1.0  0.11
  H  H122  1  0.291200  0.810700  0.400600  1.0  0.1045
  H  H123  1  0.417000  0.771000  0.588500  1.0  0.0958
  H  H124  1  0.509100  0.816600  0.597700  1.0  0.1176
  H  H125  1  0.599500  0.095100  0.380400  1.0  0.1299
  H  H126  1  0.615100  0.140500  0.293800  1.0  0.1022
  H  H127  1  0.856700  0.111300  0.233700  1.0  0.1167
  H  H128  1  0.844500  0.064800  0.315900  1.0  0.1403
  H  H129  1  0.641600  0.188200  0.243900  1.0  0.1284
  H  H130  1  0.790500  0.012800  0.379600  1.0  0.0853
  H  H131  1  0.830300  0.040100  0.440600  1.0  0.0724
  H  H132  1  0.652600  0.230300  0.148700  1.0  0.0794
  H  H133  1  0.854000  0.189100  0.044000  1.0  0.0963
  H  H134  1  0.847700  0.144100  0.134000  1.0  0.13
  H  H135  1  0.815500  0.971500  0.574600  1.0  0.0676
  H  H136  1  0.881900  0.997000  0.531300  1.0  0.0909
  H  H137  1  0.952300  0.945700  0.576800  1.0  0.1203
  H  H138  1  0.032500  0.896900  0.593700  1.0  0.1328
  H  H139  1  0.926700  0.861400  0.384000  1.0  0.1238
  H  H140  1  0.845800  0.909700  0.370600  1.0  0.1289
  H  H141  1  0.118500  0.857600  0.592600  1.0  0.1098
  H  H142  1  0.208800  0.810700  0.599400  1.0  0.1048
  H  H143  1  0.083000  0.771000  0.411500  1.0  0.0953
  H  H144  1  0.990900  0.816600  0.402300  1.0  0.1166
  H  H145  1  0.900500  0.404900  0.380400  1.0  0.1301
  H  H146  1  0.884900  0.359500  0.293800  1.0  0.1027
  H  H147  1  0.643300  0.388700  0.233700  1.0  0.1149
  H  H148  1  0.655500  0.435200  0.315900  1.0  0.1398
  H  H149  1  0.858400  0.311800  0.243900  1.0  0.1284
  H  H150  1  0.709500  0.487200  0.379600  1.0  0.0845
  H  H151  1  0.669700  0.459900  0.440600  1.0  0.0707
  H  H152  1  0.847400  0.269700  0.148700  1.0  0.0797
  H  H153  1  0.646000  0.310900  0.044000  1.0  0.0966
  H  H154  1  0.652300  0.355900  0.134000  1.0  0.1298
  H  H155  1  0.684500  0.528500  0.574600  1.0  0.0671
  H  H156  1  0.618100  0.503000  0.531300  1.0  0.0893
  H  H157  1  0.547700  0.554300  0.576800  1.0  0.12
  H  H158  1  0.467500  0.603100  0.593700  1.0  0.1326
  H  H159  1  0.573300  0.638600  0.384000  1.0  0.1251
  H  H160  1  0.654200  0.590300  0.370600  1.0  0.1291
  H  H161  1  0.381500  0.642400  0.592600  1.0  0.1096
  H  H162  1  0.291200  0.689300  0.599400  1.0  0.1047
  H  H163  1  0.417000  0.729000  0.411500  1.0  0.0956
  H  H164  1  0.509100  0.683400  0.402300  1.0  0.1182
  C  C165  1  0.279700  0.575400  0.357600  1.0  0.3177
  C  C166  1  0.347500  0.598000  0.350500  1.0  -0.2478
  C  C167  1  0.337300  0.625400  0.298700  1.0  -0.096
  C  C168  1  0.262400  0.631500  0.254900  1.0  0.0165
  C  C169  1  0.196300  0.608100  0.263500  1.0  -0.1196
  C  C170  1  0.202600  0.580200  0.312700  1.0  -0.2797
  C  C171  1  0.256600  0.660100  0.199800  1.0  0.0688
  C  C172  1  0.314300  0.687100  0.203000  1.0  -0.207
  C  C173  1  0.223000  0.527100  0.427100  1.0  0.0883
  C  C174  1  0.306400  0.712500  0.145300  1.0  0.1854
  C  C175  1  0.190700  0.688800  0.084400  1.0  0.1602
  C  C176  1  0.193900  0.661600  0.139200  1.0  -0.1742
  C  C177  1  0.171800  0.483500  0.523300  1.0  0.088
  C  C178  1  0.109900  0.432400  0.473400  1.0  0.3075
  C  C179  1  0.053800  0.428400  0.538000  1.0  -0.2122
  C  C180  1  0.005200  0.399200  0.547900  1.0  -0.1051
  C  C181  1  0.011600  0.373000  0.490300  1.0  0.0635
  C  C182  1  0.067900  0.378100  0.424300  1.0  -0.1268
  C  C183  1  0.116200  0.407100  0.416100  1.0  -0.2172
  C  C184  1  0.954700  0.342700  0.498300  1.0  0.052
  C  C185  1  0.890200  0.340100  0.554800  1.0  -0.1219
  C  C186  1  0.835500  0.311900  0.558700  1.0  0.1525
  C  C187  1  0.909400  0.288700  0.448800  1.0  0.1608
  C  C188  1  0.964700  0.315900  0.443000  1.0  -0.1864
  C  C189  1  0.220300  0.924600  0.357600  1.0  0.3178
  C  C190  1  0.152500  0.902000  0.350500  1.0  -0.2492
  C  C191  1  0.162700  0.874600  0.298700  1.0  -0.097
  C  C192  1  0.237600  0.868500  0.254900  1.0  0.0175
  C  C193  1  0.303700  0.891900  0.263500  1.0  -0.1226
  C  C194  1  0.297400  0.919800  0.312700  1.0  -0.2792
  C  C195  1  0.243400  0.839900  0.199800  1.0  0.0698
  C  C196  1  0.185700  0.812900  0.203000  1.0  -0.2069
  C  C197  1  0.277000  0.972900  0.427100  1.0  0.0871
  C  C198  1  0.193600  0.787500  0.145300  1.0  0.1869
  C  C199  1  0.309300  0.811200  0.084400  1.0  0.1605
  C  C200  1  0.306100  0.838400  0.139200  1.0  -0.1698
  C  C201  1  0.328200  0.016500  0.523300  1.0  0.0883
  C  C202  1  0.390100  0.067600  0.473400  1.0  0.3078
  C  C203  1  0.446200  0.071600  0.538000  1.0  -0.2132
  C  C204  1  0.494800  0.100800  0.547900  1.0  -0.1054
  C  C205  1  0.488400  0.127000  0.490300  1.0  0.0678
  C  C206  1  0.432100  0.121900  0.424300  1.0  -0.1275
  C  C207  1  0.383800  0.092900  0.416100  1.0  -0.2177
  C  C208  1  0.545300  0.157300  0.498300  1.0  0.0523
  C  C209  1  0.609800  0.159900  0.554800  1.0  -0.1223
  C  C210  1  0.664500  0.188100  0.558700  1.0  0.1525
  C  C211  1  0.590600  0.211300  0.448800  1.0  0.1625
  C  C212  1  0.535300  0.184100  0.443000  1.0  -0.1861
  C  C213  1  0.279700  0.924600  0.642400  1.0  0.3189
  C  C214  1  0.347500  0.902000  0.649500  1.0  -0.2474
  C  C215  1  0.337300  0.874600  0.701300  1.0  -0.0953
  C  C216  1  0.262400  0.868500  0.745100  1.0  0.0196
  C  C217  1  0.196300  0.891900  0.736500  1.0  -0.1186
  C  C218  1  0.202600  0.919800  0.687300  1.0  -0.2804
  C  C219  1  0.256600  0.839900  0.800200  1.0  0.0694
  C  C220  1  0.314300  0.812900  0.797000  1.0  -0.2066
  C  C221  1  0.223000  0.972900  0.572900  1.0  0.0894
  C  C222  1  0.306400  0.787500  0.854700  1.0  0.1867
  C  C223  1  0.190700  0.811200  0.915600  1.0  0.1601
  C  C224  1  0.193900  0.838400  0.860800  1.0  -0.1731
  C  C225  1  0.171800  0.016500  0.476700  1.0  0.0857
  C  C226  1  0.109900  0.067600  0.526600  1.0  0.3069
  C  C227  1  0.053800  0.071600  0.462000  1.0  -0.212
  C  C228  1  0.005200  0.100800  0.452100  1.0  -0.1046
  C  C229  1  0.011600  0.127000  0.509700  1.0  0.0647
  C  C230  1  0.067900  0.121900  0.575700  1.0  -0.1276
  C  C231  1  0.116200  0.092900  0.583900  1.0  -0.2168
  C  C232  1  0.954700  0.157300  0.501700  1.0  0.0519
  C  C233  1  0.890200  0.159900  0.445200  1.0  -0.1227
  C  C234  1  0.835500  0.188100  0.441300  1.0  0.1544
  C  C235  1  0.909400  0.211300  0.551200  1.0  0.1615
  C  C236  1  0.964700  0.184100  0.557000  1.0  -0.1874
  C  C237  1  0.220300  0.575400  0.642400  1.0  0.3186
  C  C238  1  0.152500  0.598000  0.649500  1.0  -0.2524
  C  C239  1  0.162700  0.625400  0.701300  1.0  -0.0978
  C  C240  1  0.237600  0.631500  0.745100  1.0  0.0183
  C  C241  1  0.303700  0.608100  0.736500  1.0  -0.1193
  C  C242  1  0.297400  0.580200  0.687300  1.0  -0.2777
  C  C243  1  0.243400  0.660100  0.800200  1.0  0.0699
  C  C244  1  0.185700  0.687100  0.797000  1.0  -0.207
  C  C245  1  0.277000  0.527100  0.572900  1.0  0.089
  C  C246  1  0.193600  0.712500  0.854700  1.0  0.1859
  C  C247  1  0.309300  0.688800  0.915600  1.0  0.1591
  C  C248  1  0.306100  0.661600  0.860800  1.0  -0.1702
  C  C249  1  0.328200  0.483500  0.476700  1.0  0.0856
  C  C250  1  0.390100  0.432400  0.526600  1.0  0.3073
  C  C251  1  0.446200  0.428400  0.462000  1.0  -0.2134
  C  C252  1  0.494800  0.399200  0.452100  1.0  -0.1054
  C  C253  1  0.488400  0.373000  0.509700  1.0  0.0664
  C  C254  1  0.432100  0.378100  0.575700  1.0  -0.1272
  C  C255  1  0.383800  0.407100  0.583900  1.0  -0.2175
  C  C256  1  0.545300  0.342700  0.501700  1.0  0.052
  C  C257  1  0.609800  0.340100  0.445200  1.0  -0.1226
  C  C258  1  0.664500  0.311900  0.441300  1.0  0.1539
  C  C259  1  0.590600  0.288700  0.551200  1.0  0.1617
  C  C260  1  0.535300  0.315900  0.557000  1.0  -0.1856
  C  C261  1  0.250000  0.505700  0.500000  1.0  -0.0335
  C  C262  1  0.250000  0.994300  0.500000  1.0  -0.0341
  C  C263  1  0.720300  0.424600  0.642400  1.0  0.3185
  C  C264  1  0.652500  0.402000  0.649500  1.0  -0.2515
  C  C265  1  0.662700  0.374600  0.701300  1.0  -0.0975
  C  C266  1  0.737600  0.368500  0.745100  1.0  0.0197
  C  C267  1  0.803700  0.391900  0.736500  1.0  -0.1192
  C  C268  1  0.797400  0.419800  0.687300  1.0  -0.2774
  C  C269  1  0.743400  0.339900  0.800200  1.0  0.0701
  C  C270  1  0.685700  0.312900  0.797000  1.0  -0.2073
  C  C271  1  0.777000  0.472900  0.572900  1.0  0.088
  C  C272  1  0.693600  0.287500  0.854700  1.0  0.1868
  C  C273  1  0.809300  0.311200  0.915600  1.0  0.1595
  C  C274  1  0.806100  0.338400  0.860800  1.0  -0.1694
  C  C275  1  0.828200  0.516500  0.476700  1.0  0.0868
  C  C276  1  0.890100  0.567600  0.526600  1.0  0.3073
  C  C277  1  0.946200  0.571600  0.462000  1.0  -0.2128
  C  C278  1  0.994800  0.600800  0.452100  1.0  -0.1056
  C  C279  1  0.988400  0.627000  0.509700  1.0  0.0679
  C  C280  1  0.932100  0.621900  0.575700  1.0  -0.1279
  C  C281  1  0.883800  0.592900  0.583900  1.0  -0.2176
  C  C282  1  0.045300  0.657300  0.501700  1.0  0.0522
  C  C283  1  0.109800  0.659900  0.445200  1.0  -0.1225
  C  C284  1  0.164500  0.688100  0.441300  1.0  0.1549
  C  C285  1  0.090600  0.711300  0.551200  1.0  0.1618
  C  C286  1  0.035300  0.684100  0.557000  1.0  -0.1864
  C  C287  1  0.779700  0.075400  0.642400  1.0  0.3192
  C  C288  1  0.847500  0.098000  0.649500  1.0  -0.2484
  C  C289  1  0.837300  0.125400  0.701300  1.0  -0.0954
  C  C290  1  0.762400  0.131500  0.745100  1.0  0.0183
  C  C291  1  0.696300  0.108100  0.736500  1.0  -0.1185
  C  C292  1  0.702600  0.080200  0.687300  1.0  -0.2808
  C  C293  1  0.756600  0.160100  0.800200  1.0  0.0693
  C  C294  1  0.814300  0.187100  0.797000  1.0  -0.2068
  C  C295  1  0.723000  0.027100  0.572900  1.0  0.0882
  C  C296  1  0.806400  0.212500  0.854700  1.0  0.1858
  C  C297  1  0.690700  0.188800  0.915600  1.0  0.1601
  C  C298  1  0.693900  0.161600  0.860800  1.0  -0.1737
  C  C299  1  0.671800  0.983500  0.476700  1.0  0.0861
  C  C300  1  0.609900  0.932400  0.526600  1.0  0.307
  C  C301  1  0.553800  0.928400  0.462000  1.0  -0.2122
  C  C302  1  0.505200  0.899200  0.452100  1.0  -0.1043
  C  C303  1  0.511600  0.873000  0.509700  1.0  0.0633
  C  C304  1  0.567900  0.878100  0.575700  1.0  -0.1276
  C  C305  1  0.616200  0.907100  0.583900  1.0  -0.2167
  C  C306  1  0.454700  0.842700  0.501700  1.0  0.052
  C  C307  1  0.390200  0.840100  0.445200  1.0  -0.1224
  C  C308  1  0.335500  0.811900  0.441300  1.0  0.1541
  C  C309  1  0.409400  0.788700  0.551200  1.0  0.1615
  C  C310  1  0.464700  0.815900  0.557000  1.0  -0.1867
  C  C311  1  0.720300  0.075400  0.357600  1.0  0.317
  C  C312  1  0.652500  0.098000  0.350500  1.0  -0.2502
  C  C313  1  0.662700  0.125400  0.298700  1.0  -0.0977
  C  C314  1  0.737600  0.131500  0.254900  1.0  0.017
  C  C315  1  0.803700  0.108100  0.263500  1.0  -0.1222
  C  C316  1  0.797400  0.080200  0.312700  1.0  -0.278
  C  C317  1  0.743400  0.160100  0.199800  1.0  0.0697
  C  C318  1  0.685700  0.187100  0.203000  1.0  -0.2067
  C  C319  1  0.777000  0.027100  0.427100  1.0  0.0884
  C  C320  1  0.693600  0.212500  0.145300  1.0  0.1857
  C  C321  1  0.809300  0.188800  0.084400  1.0  0.1604
  C  C322  1  0.806100  0.161600  0.139200  1.0  -0.1707
  C  C323  1  0.828200  0.983500  0.523300  1.0  0.0873
  C  C324  1  0.890100  0.932400  0.473400  1.0  0.3075
  C  C325  1  0.946200  0.928400  0.538000  1.0  -0.2134
  C  C326  1  0.994800  0.899200  0.547900  1.0  -0.1051
  C  C327  1  0.988400  0.873000  0.490300  1.0  0.0677
  C  C328  1  0.932100  0.878100  0.424300  1.0  -0.1274
  C  C329  1  0.883800  0.907100  0.416100  1.0  -0.2175
  C  C330  1  0.045300  0.842700  0.498300  1.0  0.0519
  C  C331  1  0.109800  0.840100  0.554800  1.0  -0.1224
  C  C332  1  0.164500  0.811900  0.558700  1.0  0.1522
  C  C333  1  0.090600  0.788700  0.448800  1.0  0.1612
  C  C334  1  0.035300  0.815900  0.443000  1.0  -0.1853
  C  C335  1  0.779700  0.424600  0.357600  1.0  0.3184
  C  C336  1  0.847500  0.402000  0.350500  1.0  -0.2466
  C  C337  1  0.837300  0.374600  0.298700  1.0  -0.0956
  C  C338  1  0.762400  0.368500  0.254900  1.0  0.0172
  C  C339  1  0.696300  0.391900  0.263500  1.0  -0.1198
  C  C340  1  0.702600  0.419800  0.312700  1.0  -0.28
  C  C341  1  0.756600  0.339900  0.199800  1.0  0.069
  C  C342  1  0.814300  0.312900  0.203000  1.0  -0.2067
  C  C343  1  0.723000  0.472900  0.427100  1.0  0.0892
  C  C344  1  0.806400  0.287500  0.145300  1.0  0.1868
  C  C345  1  0.690700  0.311200  0.084400  1.0  0.1598
  C  C346  1  0.693900  0.338400  0.139200  1.0  -0.1729
  C  C347  1  0.671800  0.516500  0.523300  1.0  0.0873
  C  C348  1  0.609900  0.567600  0.473400  1.0  0.3076
  C  C349  1  0.553800  0.571600  0.538000  1.0  -0.2122
  C  C350  1  0.505200  0.600800  0.547900  1.0  -0.1051
  C  C351  1  0.511600  0.627000  0.490300  1.0  0.0633
  C  C352  1  0.567900  0.621900  0.424300  1.0  -0.1264
  C  C353  1  0.616200  0.592900  0.416100  1.0  -0.2174
  C  C354  1  0.454700  0.657300  0.498300  1.0  0.0517
  C  C355  1  0.390200  0.659900  0.554800  1.0  -0.1222
  C  C356  1  0.335500  0.688100  0.558700  1.0  0.1523
  C  C357  1  0.409400  0.711300  0.448800  1.0  0.1619
  C  C358  1  0.464700  0.684100  0.443000  1.0  -0.1871
  C  C359  1  0.750000  0.494300  0.500000  1.0  -0.0341
  C  C360  1  0.750000  0.005700  0.500000  1.0  -0.0335
  N  N361  1  0.247400  0.714000  0.086900  1.0  -0.2897
  N  N362  1  0.844900  0.286400  0.505400  1.0  -0.2914
  N  N363  1  0.252600  0.786000  0.086900  1.0  -0.2901
  N  N364  1  0.655100  0.213600  0.505400  1.0  -0.2914
  N  N365  1  0.247400  0.786000  0.913100  1.0  -0.29
  N  N366  1  0.844900  0.213600  0.494600  1.0  -0.2925
  N  N367  1  0.252600  0.714000  0.913100  1.0  -0.2904
  N  N368  1  0.655100  0.286400  0.494600  1.0  -0.2906
  N  N369  1  0.752600  0.286000  0.913100  1.0  -0.2899
  N  N370  1  0.155100  0.713600  0.494600  1.0  -0.2914
  N  N371  1  0.747400  0.214000  0.913100  1.0  -0.2901
  N  N372  1  0.344900  0.786400  0.494600  1.0  -0.2919
  N  N373  1  0.752600  0.214000  0.086900  1.0  -0.29
  N  N374  1  0.155100  0.786400  0.505400  1.0  -0.2899
  N  N375  1  0.747400  0.286000  0.086900  1.0  -0.29
  N  N376  1  0.344900  0.713600  0.505400  1.0  -0.2923
  N  N377  1  0.083300  0.304600  0.268000  1.0  0.6832
  N  N378  1  0.416700  0.195400  0.268000  1.0  0.6827
  N  N379  1  0.083300  0.195400  0.732000  1.0  0.6833
  N  N380  1  0.416700  0.304600  0.732000  1.0  0.6838
  N  N381  1  0.916700  0.695400  0.732000  1.0  0.6832
  N  N382  1  0.583300  0.804600  0.732000  1.0  0.6839
  N  N383  1  0.916700  0.804600  0.268000  1.0  0.683
  N  N384  1  0.583300  0.695400  0.268000  1.0  0.6829
  O  O385  1  0.158900  0.460300  0.457300  1.0  -0.2614
  O  O386  1  0.294600  0.549000  0.407900  1.0  -0.2621
  O  O387  1  0.341100  0.039700  0.457300  1.0  -0.2598
  O  O388  1  0.205400  0.951000  0.407900  1.0  -0.2616
  O  O389  1  0.158900  0.039700  0.542700  1.0  -0.2621
  O  O390  1  0.294600  0.951000  0.592100  1.0  -0.2597
  O  O391  1  0.341100  0.460300  0.542700  1.0  -0.2593
  O  O392  1  0.205400  0.549000  0.592100  1.0  -0.259
  O  O393  1  0.841100  0.539700  0.542700  1.0  -0.2596
  O  O394  1  0.705400  0.451000  0.592100  1.0  -0.2595
  O  O395  1  0.658900  0.960300  0.542700  1.0  -0.2616
  O  O396  1  0.794600  0.049000  0.592100  1.0  -0.2595
  O  O397  1  0.841100  0.960300  0.457300  1.0  -0.2601
  O  O398  1  0.705400  0.049000  0.407900  1.0  -0.2605
  O  O399  1  0.658900  0.539700  0.457300  1.0  -0.2609
  O  O400  1  0.794600  0.451000  0.407900  1.0  -0.263
  O  O401  1  0.038000  0.277700  0.260000  1.0  -0.5355
  O  O402  1  0.157000  0.304200  0.307000  1.0  -0.5128
  O  O403  1  0.055000  0.331900  0.237000  1.0  -0.4708
  O  O404  1  0.462000  0.222300  0.260000  1.0  -0.5377
  O  O405  1  0.343000  0.195800  0.307000  1.0  -0.5132
  O  O406  1  0.445000  0.168100  0.237000  1.0  -0.473
  O  O407  1  0.038000  0.222300  0.740000  1.0  -0.5347
  O  O408  1  0.157000  0.195800  0.693000  1.0  -0.5119
  O  O409  1  0.055000  0.168100  0.763000  1.0  -0.4693
  O  O410  1  0.462000  0.277700  0.740000  1.0  -0.5328
  O  O411  1  0.343000  0.304200  0.693000  1.0  -0.5139
  O  O412  1  0.445000  0.331900  0.763000  1.0  -0.4693
  O  O413  1  0.962000  0.722300  0.740000  1.0  -0.5357
  O  O414  1  0.843000  0.695800  0.693000  1.0  -0.5144
  O  O415  1  0.945000  0.668100  0.763000  1.0  -0.4686
  O  O416  1  0.538000  0.777700  0.740000  1.0  -0.5353
  O  O417  1  0.657000  0.804200  0.693000  1.0  -0.5124
  O  O418  1  0.555000  0.831900  0.763000  1.0  -0.4677
  O  O419  1  0.962000  0.777700  0.260000  1.0  -0.5347
  O  O420  1  0.843000  0.804200  0.307000  1.0  -0.5132
  O  O421  1  0.945000  0.831900  0.237000  1.0  -0.4734
  O  O422  1  0.538000  0.722300  0.260000  1.0  -0.5354
  O  O423  1  0.657000  0.695800  0.307000  1.0  -0.5119
  O  O424  1  0.555000  0.668100  0.237000  1.0  -0.4715
