# generated using pymatgen
data_Cu4H72C69(NO5)4
_symmetry_space_group_name_H-M   'P 1'
_cell_length_a   7.42300000
_cell_length_b   30.33700000
_cell_length_c   30.33700000
_cell_angle_alpha   90.00000000
_cell_angle_beta   90.00000000
_cell_angle_gamma   90.00000000
_symmetry_Int_Tables_number   1
_chemical_formula_structural   Cu4H72C69(NO5)4
_chemical_formula_sum   'Cu8 H144 C138 N8 O40'
_cell_volume   6831.63608269
_cell_formula_units_Z   2
loop_
 _symmetry_equiv_pos_site_id
 _symmetry_equiv_pos_as_xyz
  1  'x, y, z'
loop_
 _atom_site_type_symbol
 _atom_site_label
 _atom_site_symmetry_multiplicity
 _atom_site_fract_x
 _atom_site_fract_y
 _atom_site_fract_z
 _atom_site_occupancy
 _atom_site_charge
  Cu  Cu1  1  0.903350  0.525900  0.525810  1.0  0.8166
  Cu  Cu2  1  0.903350  0.974100  0.974190  1.0  0.8163
  Cu  Cu3  1  0.403350  0.474190  0.025910  1.0  0.8179
  Cu  Cu4  1  0.403350  0.025810  0.474100  1.0  0.8167
  Cu  Cu5  1  0.096650  0.474090  0.474190  1.0  0.8162
  Cu  Cu6  1  0.096650  0.025900  0.025810  1.0  0.8166
  Cu  Cu7  1  0.596650  0.525810  0.974100  1.0  0.8166
  Cu  Cu8  1  0.596650  0.974190  0.525910  1.0  0.8178
  H  H9  1  0.511500  0.540100  0.539800  1.0  0.0776
  H  H10  1  0.296200  0.578000  0.578500  1.0  0.1145
  H  H11  1  0.697000  0.639600  0.639500  1.0  0.1057
  H  H12  1  0.894600  0.600800  0.600600  1.0  0.0737
  H  H13  1  0.275500  0.556700  0.658700  1.0  0.1166
  H  H14  1  0.195500  0.568500  0.705600  1.0  0.1075
  H  H15  1  0.064500  0.561200  0.665000  1.0  0.1131
  H  H16  1  0.969200  0.626600  0.702900  1.0  0.1193
  H  H17  1  0.218600  0.738300  0.660800  1.0  0.1202
  H  H18  1  0.425900  0.694700  0.624000  1.0  0.0759
  H  H19  1  0.810200  0.687000  0.731800  1.0  0.0803
  H  H20  1  0.965600  0.709400  0.759600  1.0  0.0682
  H  H21  1  0.273800  0.482200  0.629400  1.0  0.1261
  H  H22  1  0.435500  0.473100  0.596600  1.0  0.1215
  H  H23  1  0.296700  0.435000  0.607700  1.0  0.1347
  H  H24  1  0.723000  0.370500  0.517600  1.0  0.1254
  H  H25  1  0.707500  0.391800  0.565100  1.0  0.1329
  H  H26  1  0.563500  0.403500  0.528400  1.0  0.1381
  H  H27  1  0.511500  0.959900  0.960200  1.0  0.0778
  H  H28  1  0.296200  0.922000  0.921500  1.0  0.1145
  H  H29  1  0.697000  0.860400  0.860500  1.0  0.106
  H  H30  1  0.894600  0.899200  0.899400  1.0  0.0738
  H  H31  1  0.275500  0.943300  0.841300  1.0  0.1176
  H  H32  1  0.195500  0.931500  0.794400  1.0  0.108
  H  H33  1  0.064500  0.938800  0.835000  1.0  0.1109
  H  H34  1  0.969200  0.873400  0.797100  1.0  0.1192
  H  H35  1  0.218600  0.761700  0.839200  1.0  0.1211
  H  H36  1  0.425900  0.805300  0.876000  1.0  0.0768
  H  H37  1  0.810200  0.813000  0.768200  1.0  0.0805
  H  H38  1  0.965600  0.790600  0.740400  1.0  0.0688
  H  H39  1  0.273800  0.017800  0.870600  1.0  0.1233
  H  H40  1  0.435500  0.026900  0.903400  1.0  0.1235
  H  H41  1  0.296700  0.065000  0.892300  1.0  0.1325
  H  H42  1  0.723000  0.129500  0.982400  1.0  0.1295
  H  H43  1  0.707500  0.108200  0.934900  1.0  0.1319
  H  H44  1  0.563500  0.096500  0.971600  1.0  0.1379
  H  H45  1  0.011500  0.460200  0.040100  1.0  0.0776
  H  H46  1  0.796200  0.421500  0.078000  1.0  0.1151
  H  H47  1  0.197000  0.360500  0.139600  1.0  0.1055
  H  H48  1  0.394600  0.399400  0.100800  1.0  0.0744
  H  H49  1  0.775500  0.341300  0.056700  1.0  0.1155
  H  H50  1  0.695500  0.294400  0.068500  1.0  0.1053
  H  H51  1  0.564500  0.335000  0.061200  1.0  0.1114
  H  H52  1  0.469200  0.297100  0.126600  1.0  0.1193
  H  H53  1  0.718600  0.339200  0.238300  1.0  0.1214
  H  H54  1  0.925900  0.376000  0.194700  1.0  0.0758
  H  H55  1  0.310200  0.268200  0.187000  1.0  0.0806
  H  H56  1  0.465600  0.240400  0.209400  1.0  0.0683
  H  H57  1  0.773800  0.370600  0.982200  1.0  0.1225
  H  H58  1  0.935500  0.403400  0.973100  1.0  0.1208
  H  H59  1  0.796700  0.392300  0.935000  1.0  0.1329
  H  H60  1  0.223000  0.482400  0.870500  1.0  0.1324
  H  H61  1  0.207500  0.434900  0.891800  1.0  0.1345
  H  H62  1  0.063500  0.471600  0.903500  1.0  0.1386
  H  H63  1  0.011500  0.039800  0.459900  1.0  0.0783
  H  H64  1  0.796200  0.078500  0.422000  1.0  0.115
  H  H65  1  0.197000  0.139500  0.360400  1.0  0.1056
  H  H66  1  0.394600  0.100600  0.399200  1.0  0.0746
  H  H67  1  0.775500  0.158700  0.443300  1.0  0.1176
  H  H68  1  0.695500  0.205600  0.431500  1.0  0.1075
  H  H69  1  0.564500  0.165000  0.438800  1.0  0.1137
  H  H70  1  0.469200  0.202900  0.373400  1.0  0.1194
  H  H71  1  0.718600  0.160800  0.261700  1.0  0.1217
  H  H72  1  0.925900  0.124000  0.305300  1.0  0.0757
  H  H73  1  0.310200  0.231800  0.313000  1.0  0.0807
  H  H74  1  0.465600  0.259600  0.290600  1.0  0.0682
  H  H75  1  0.773800  0.129400  0.517800  1.0  0.1241
  H  H76  1  0.935500  0.096600  0.526900  1.0  0.1223
  H  H77  1  0.796700  0.107700  0.565000  1.0  0.134
  H  H78  1  0.223000  0.017600  0.629500  1.0  0.132
  H  H79  1  0.207500  0.065100  0.608200  1.0  0.1339
  H  H80  1  0.063500  0.028400  0.596500  1.0  0.1402
  H  H81  1  0.488500  0.459900  0.460200  1.0  0.078
  H  H82  1  0.703800  0.422000  0.421500  1.0  0.1159
  H  H83  1  0.303000  0.360400  0.360500  1.0  0.1062
  H  H84  1  0.105400  0.399200  0.399400  1.0  0.0758
  H  H85  1  0.724500  0.443300  0.341300  1.0  0.1166
  H  H86  1  0.804500  0.431500  0.294400  1.0  0.1081
  H  H87  1  0.935500  0.438800  0.335000  1.0  0.1149
  H  H88  1  0.030800  0.373400  0.297100  1.0  0.1196
  H  H89  1  0.781400  0.261700  0.339200  1.0  0.1219
  H  H90  1  0.574100  0.305300  0.376000  1.0  0.076
  H  H91  1  0.189800  0.313000  0.268200  1.0  0.0802
  H  H92  1  0.034400  0.290600  0.240400  1.0  0.0698
  H  H93  1  0.726200  0.517800  0.370600  1.0  0.1232
  H  H94  1  0.564500  0.526900  0.403400  1.0  0.1268
  H  H95  1  0.703300  0.565000  0.392300  1.0  0.1324
  H  H96  1  0.277000  0.629500  0.482400  1.0  0.1286
  H  H97  1  0.292500  0.608200  0.434900  1.0  0.132
  H  H98  1  0.436500  0.596500  0.471600  1.0  0.1334
  H  H99  1  0.488500  0.040100  0.039800  1.0  0.0778
  H  H100  1  0.703800  0.078000  0.078500  1.0  0.1156
  H  H101  1  0.303000  0.139600  0.139500  1.0  0.1058
  H  H102  1  0.105400  0.100800  0.100600  1.0  0.0761
  H  H103  1  0.724500  0.056700  0.158700  1.0  0.1169
  H  H104  1  0.804500  0.068500  0.205600  1.0  0.1073
  H  H105  1  0.935500  0.061200  0.165000  1.0  0.114
  H  H106  1  0.030800  0.126600  0.202900  1.0  0.1193
  H  H107  1  0.781400  0.238300  0.160800  1.0  0.1204
  H  H108  1  0.574100  0.194700  0.124000  1.0  0.0755
  H  H109  1  0.189800  0.187000  0.231800  1.0  0.0805
  H  H110  1  0.034400  0.209400  0.259600  1.0  0.0685
  H  H111  1  0.726200  0.982200  0.129400  1.0  0.1256
  H  H112  1  0.564500  0.973100  0.096600  1.0  0.128
  H  H113  1  0.703300  0.935000  0.107700  1.0  0.135
  H  H114  1  0.277000  0.870500  0.017600  1.0  0.1247
  H  H115  1  0.292500  0.891800  0.065100  1.0  0.1327
  H  H116  1  0.436500  0.903500  0.028400  1.0  0.1309
  H  H117  1  0.988500  0.539800  0.959900  1.0  0.0785
  H  H118  1  0.203800  0.578500  0.922000  1.0  0.1162
  H  H119  1  0.803000  0.639500  0.860400  1.0  0.1058
  H  H120  1  0.605400  0.600600  0.899200  1.0  0.0769
  H  H121  1  0.224500  0.658700  0.943300  1.0  0.1172
  H  H122  1  0.304500  0.705600  0.931500  1.0  0.1073
  H  H123  1  0.435500  0.665000  0.938800  1.0  0.114
  H  H124  1  0.530800  0.702900  0.873400  1.0  0.12
  H  H125  1  0.281400  0.660800  0.761700  1.0  0.1218
  H  H126  1  0.074100  0.624000  0.805300  1.0  0.0757
  H  H127  1  0.689800  0.731800  0.813000  1.0  0.081
  H  H128  1  0.534400  0.759600  0.790600  1.0  0.069
  H  H129  1  0.226200  0.629400  0.017800  1.0  0.1234
  H  H130  1  0.064500  0.596600  0.026900  1.0  0.1282
  H  H131  1  0.203300  0.607700  0.065000  1.0  0.1339
  H  H132  1  0.777000  0.517600  0.129500  1.0  0.1316
  H  H133  1  0.792500  0.565100  0.108200  1.0  0.1339
  H  H134  1  0.936500  0.528400  0.096500  1.0  0.1326
  H  H135  1  0.988500  0.960200  0.540100  1.0  0.0778
  H  H136  1  0.203800  0.921500  0.578000  1.0  0.1165
  H  H137  1  0.803000  0.860500  0.639600  1.0  0.1057
  H  H138  1  0.605400  0.899400  0.600800  1.0  0.0766
  H  H139  1  0.224500  0.841300  0.556700  1.0  0.115
  H  H140  1  0.304500  0.794400  0.568500  1.0  0.1053
  H  H141  1  0.435500  0.835000  0.561200  1.0  0.1149
  H  H142  1  0.530800  0.797100  0.626600  1.0  0.1198
  H  H143  1  0.281400  0.839200  0.738300  1.0  0.1217
  H  H144  1  0.074100  0.876000  0.694700  1.0  0.076
  H  H145  1  0.689800  0.768200  0.687000  1.0  0.0805
  H  H146  1  0.534400  0.740400  0.709400  1.0  0.0692
  H  H147  1  0.226200  0.870600  0.482200  1.0  0.1226
  H  H148  1  0.064500  0.903400  0.473100  1.0  0.1251
  H  H149  1  0.203300  0.892300  0.435000  1.0  0.1327
  H  H150  1  0.777000  0.982400  0.370500  1.0  0.1316
  H  H151  1  0.792500  0.934900  0.391800  1.0  0.1344
  H  H152  1  0.936500  0.971600  0.403500  1.0  0.1355
  C  C153  1  0.466800  0.613210  0.613740  1.0  0.0973
  C  C154  1  0.549400  0.560840  0.560890  1.0  0.1731
  C  C155  1  0.418800  0.583540  0.583930  1.0  -0.1745
  C  C156  1  0.654400  0.618890  0.619000  1.0  -0.2177
  C  C157  1  0.771200  0.595830  0.595830  1.0  0.1974
  C  C158  1  0.330300  0.639600  0.639420  1.0  0.1521
  C  C159  1  0.074800  0.685830  0.685800  1.0  0.1011
  C  C160  1  0.192100  0.619400  0.663430  1.0  0.0511
  C  C161  1  0.181000  0.572500  0.674100  1.0  -0.338
  C  C162  1  0.060400  0.641300  0.687200  1.0  -0.1521
  C  C163  1  0.210900  0.707400  0.661900  1.0  -0.2256
  C  C164  1  0.333400  0.680700  0.639800  1.0  -0.1213
  C  C165  1  0.877800  0.714400  0.736000  1.0  0.0255
  C  C166  1  0.310400  0.466500  0.603060  1.0  -0.4524
  C  C167  1  0.197800  0.480250  0.566050  1.0  0.7399
  C  C168  1  0.801100  0.433860  0.519410  1.0  0.7427
  C  C169  1  0.689300  0.396800  0.533900  1.0  -0.4513
  C  C170  1  0.466800  0.886790  0.886260  1.0  0.097
  C  C171  1  0.549400  0.939160  0.939110  1.0  0.1739
  C  C172  1  0.418800  0.916460  0.916070  1.0  -0.1741
  C  C173  1  0.654400  0.881110  0.881000  1.0  -0.2192
  C  C174  1  0.771200  0.904170  0.904170  1.0  0.198
  C  C175  1  0.330300  0.860400  0.860580  1.0  0.1534
  C  C176  1  0.074800  0.814170  0.814200  1.0  0.1021
  C  C177  1  0.192100  0.880600  0.836570  1.0  0.0499
  C  C178  1  0.181000  0.927500  0.825900  1.0  -0.3379
  C  C179  1  0.060400  0.858700  0.812800  1.0  -0.152
  C  C180  1  0.210900  0.792600  0.838100  1.0  -0.2238
  C  C181  1  0.333400  0.819300  0.860200  1.0  -0.1178
  C  C182  1  0.877800  0.785600  0.764000  1.0  0.0258
  C  C183  1  0.310400  0.033500  0.896940  1.0  -0.4527
  C  C184  1  0.197800  0.019750  0.933950  1.0  0.74
  C  C185  1  0.801100  0.066140  0.980590  1.0  0.7432
  C  C186  1  0.689300  0.103200  0.966100  1.0  -0.4534
  C  C187  1  0.966800  0.386260  0.113210  1.0  0.0967
  C  C188  1  0.049400  0.439110  0.060840  1.0  0.1741
  C  C189  1  0.918800  0.416070  0.083540  1.0  -0.1736
  C  C190  1  0.154400  0.381000  0.118890  1.0  -0.2212
  C  C191  1  0.271200  0.404170  0.095830  1.0  0.1988
  C  C192  1  0.830300  0.360580  0.139600  1.0  0.1518
  C  C193  1  0.574800  0.314200  0.185830  1.0  0.1014
  C  C194  1  0.692100  0.336570  0.119400  1.0  0.0508
  C  C195  1  0.681000  0.325900  0.072500  1.0  -0.3357
  C  C196  1  0.560400  0.312800  0.141300  1.0  -0.1516
  C  C197  1  0.710900  0.338100  0.207400  1.0  -0.2221
  C  C198  1  0.833400  0.360200  0.180700  1.0  -0.1205
  C  C199  1  0.377800  0.264000  0.214400  1.0  0.0247
  C  C200  1  0.810400  0.396940  0.966500  1.0  -0.4534
  C  C201  1  0.697800  0.433950  0.980250  1.0  0.738
  C  C202  1  0.301100  0.480590  0.933860  1.0  0.7464
  C  C203  1  0.189300  0.466100  0.896800  1.0  -0.4503
  C  C204  1  0.966800  0.113740  0.386790  1.0  0.0964
  C  C205  1  0.049400  0.060890  0.439160  1.0  0.1742
  C  C206  1  0.918800  0.083930  0.416460  1.0  -0.1739
  C  C207  1  0.154400  0.119000  0.381110  1.0  -0.22
  C  C208  1  0.271200  0.095830  0.404170  1.0  0.1985
  C  C209  1  0.830300  0.139420  0.360400  1.0  0.1509
  C  C210  1  0.574800  0.185800  0.314170  1.0  0.1017
  C  C211  1  0.692100  0.163430  0.380600  1.0  0.0516
  C  C212  1  0.681000  0.174100  0.427500  1.0  -0.3364
  C  C213  1  0.560400  0.187200  0.358700  1.0  -0.1505
  C  C214  1  0.710900  0.161900  0.292600  1.0  -0.2189
  C  C215  1  0.833400  0.139800  0.319300  1.0  -0.1207
  C  C216  1  0.377800  0.236000  0.285600  1.0  0.0228
  C  C217  1  0.810400  0.103060  0.533500  1.0  -0.455
  C  C218  1  0.697800  0.066050  0.519750  1.0  0.7362
  C  C219  1  0.301100  0.019410  0.566140  1.0  0.7427
  C  C220  1  0.189300  0.033900  0.603200  1.0  -0.4539
  C  C221  1  0.533200  0.386790  0.386260  1.0  0.0969
  C  C222  1  0.450600  0.439160  0.439110  1.0  0.1756
  C  C223  1  0.581200  0.416460  0.416070  1.0  -0.175
  C  C224  1  0.345600  0.381110  0.381000  1.0  -0.2197
  C  C225  1  0.228800  0.404170  0.404170  1.0  0.1969
  C  C226  1  0.669700  0.360400  0.360580  1.0  0.1536
  C  C227  1  0.925200  0.314170  0.314200  1.0  0.1021
  C  C228  1  0.807900  0.380600  0.336570  1.0  0.0506
  C  C229  1  0.819000  0.427500  0.325900  1.0  -0.3375
  C  C230  1  0.939600  0.358700  0.312800  1.0  -0.1523
  C  C231  1  0.789100  0.292600  0.338100  1.0  -0.2231
  C  C232  1  0.666667  0.319300  0.360200  1.0  -0.1192
  C  C233  1  0.122200  0.285600  0.264000  1.0  0.0259
  C  C234  1  0.689600  0.533500  0.396940  1.0  -0.4528
  C  C235  1  0.802200  0.519750  0.433950  1.0  0.7417
  C  C236  1  0.198900  0.566140  0.480590  1.0  0.7427
  C  C237  1  0.310700  0.603200  0.466100  1.0  -0.4536
  C  C238  1  0.533200  0.113210  0.113740  1.0  0.0969
  C  C239  1  0.450600  0.060840  0.060890  1.0  0.1747
  C  C240  1  0.581200  0.083540  0.083930  1.0  -0.175
  C  C241  1  0.345600  0.118890  0.119000  1.0  -0.2182
  C  C242  1  0.228800  0.095830  0.095830  1.0  0.1962
  C  C243  1  0.669700  0.139600  0.139420  1.0  0.1518
  C  C244  1  0.925200  0.185830  0.185800  1.0  0.1013
  C  C245  1  0.807900  0.119400  0.163430  1.0  0.052
  C  C246  1  0.819000  0.072500  0.174100  1.0  -0.338
  C  C247  1  0.939600  0.141300  0.187200  1.0  -0.1521
  C  C248  1  0.789100  0.207400  0.161900  1.0  -0.2251
  C  C249  1  0.666667  0.180700  0.139800  1.0  -0.1222
  C  C250  1  0.122200  0.214400  0.236000  1.0  0.0256
  C  C251  1  0.689600  0.966500  0.103060  1.0  -0.4524
  C  C252  1  0.802200  0.980250  0.066050  1.0  0.7404
  C  C253  1  0.198900  0.933860  0.019410  1.0  0.7424
  C  C254  1  0.310700  0.896800  0.033900  1.0  -0.4518
  C  C255  1  0.033200  0.613740  0.886790  1.0  0.0962
  C  C256  1  0.950600  0.560890  0.939160  1.0  0.1759
  C  C257  1  0.081200  0.583930  0.916460  1.0  -0.175
  C  C258  1  0.845600  0.619000  0.881110  1.0  -0.2203
  C  C259  1  0.728800  0.595830  0.904170  1.0  0.1971
  C  C260  1  0.169700  0.639420  0.860400  1.0  0.1507
  C  C261  1  0.425200  0.685800  0.814170  1.0  0.1017
  C  C262  1  0.307900  0.663430  0.880600  1.0  0.0516
  C  C263  1  0.319000  0.674100  0.927500  1.0  -0.336
  C  C264  1  0.439600  0.687200  0.858700  1.0  -0.1506
  C  C265  1  0.289100  0.661900  0.792600  1.0  -0.2201
  C  C266  1  0.166600  0.639800  0.819300  1.0  -0.1219
  C  C267  1  0.622200  0.736000  0.785600  1.0  0.0234
  C  C268  1  0.189600  0.603060  0.033500  1.0  -0.455
  C  C269  1  0.302200  0.566050  0.019750  1.0  0.7374
  C  C270  1  0.698900  0.519410  0.066140  1.0  0.7427
  C  C271  1  0.810700  0.533900  0.103200  1.0  -0.4537
  C  C272  1  0.033200  0.886260  0.613210  1.0  0.0967
  C  C273  1  0.950600  0.939110  0.560840  1.0  0.1758
  C  C274  1  0.081200  0.916070  0.583540  1.0  -0.1742
  C  C275  1  0.845600  0.881000  0.618890  1.0  -0.2218
  C  C276  1  0.728800  0.904170  0.595830  1.0  0.1975
  C  C277  1  0.169700  0.860580  0.639600  1.0  0.1516
  C  C278  1  0.425200  0.814200  0.685830  1.0  0.1016
  C  C279  1  0.307900  0.836570  0.619400  1.0  0.0509
  C  C280  1  0.319000  0.825900  0.572500  1.0  -0.3357
  C  C281  1  0.439600  0.812800  0.641300  1.0  -0.1511
  C  C282  1  0.289100  0.838100  0.707400  1.0  -0.223
  C  C283  1  0.166600  0.860200  0.680700  1.0  -0.1226
  C  C284  1  0.622200  0.764000  0.714400  1.0  0.0245
  C  C285  1  0.189600  0.896940  0.466500  1.0  -0.4526
  C  C286  1  0.302200  0.933950  0.480250  1.0  0.7391
  C  C287  1  0.698900  0.980590  0.433860  1.0  0.7461
  C  C288  1  0.810700  0.966100  0.396800  1.0  -0.4509
  C  C289  1  0.750000  0.750000  0.750000  1.0  0.0571
  C  C290  1  0.250000  0.250000  0.250000  1.0  0.0571
  N  N291  1  0.724800  0.566380  0.566490  1.0  -0.3129
  N  N292  1  0.724800  0.933620  0.933510  1.0  -0.3116
  N  N293  1  0.224800  0.433510  0.066380  1.0  -0.3113
  N  N294  1  0.224800  0.066490  0.433620  1.0  -0.3104
  N  N295  1  0.275200  0.433620  0.433510  1.0  -0.3129
  N  N296  1  0.275200  0.066380  0.066490  1.0  -0.3132
  N  N297  1  0.775200  0.566490  0.933620  1.0  -0.3116
  N  N298  1  0.775200  0.933510  0.566380  1.0  -0.3117
  O  O299  1  0.766800  0.470570  0.536510  1.0  -0.5649
  O  O300  1  0.075300  0.508240  0.572270  1.0  -0.5717
  O  O301  1  0.924900  0.427810  0.491680  1.0  -0.5833
  O  O302  1  0.234600  0.463410  0.529150  1.0  -0.5688
  O  O303  1  0.968400  0.724000  0.697900  1.0  -0.3388
  O  O304  1  0.766800  0.029430  0.963490  1.0  -0.5653
  O  O305  1  0.075300  0.991760  0.927730  1.0  -0.5718
  O  O306  1  0.924900  0.072190  0.008320  1.0  -0.5834
  O  O307  1  0.234600  0.036590  0.970850  1.0  -0.5688
  O  O308  1  0.968400  0.776000  0.802100  1.0  -0.3377
  O  O309  1  0.266800  0.463490  0.970570  1.0  -0.5664
  O  O310  1  0.575300  0.427730  0.008240  1.0  -0.5715
  O  O311  1  0.424900  0.508320  0.927810  1.0  -0.5831
  O  O312  1  0.734600  0.470850  0.963410  1.0  -0.5662
  O  O313  1  0.468400  0.302100  0.224000  1.0  -0.3374
  O  O314  1  0.266800  0.036510  0.529430  1.0  -0.5664
  O  O315  1  0.575300  0.072270  0.491760  1.0  -0.5714
  O  O316  1  0.424900  0.991680  0.572190  1.0  -0.5823
  O  O317  1  0.734600  0.029150  0.536590  1.0  -0.567
  O  O318  1  0.468400  0.197900  0.276000  1.0  -0.3404
  O  O319  1  0.233200  0.529430  0.463490  1.0  -0.5658
  O  O320  1  0.924700  0.491760  0.427730  1.0  -0.571
  O  O321  1  0.075100  0.572190  0.508320  1.0  -0.5829
  O  O322  1  0.765400  0.536590  0.470850  1.0  -0.5684
  O  O323  1  0.031600  0.276000  0.302100  1.0  -0.3399
  O  O324  1  0.233200  0.970570  0.036510  1.0  -0.5654
  O  O325  1  0.924700  0.008240  0.072270  1.0  -0.5707
  O  O326  1  0.075100  0.927810  0.991680  1.0  -0.5839
  O  O327  1  0.765400  0.963410  0.029150  1.0  -0.5692
  O  O328  1  0.031600  0.224000  0.197900  1.0  -0.3377
  O  O329  1  0.733200  0.536510  0.029430  1.0  -0.5669
  O  O330  1  0.424700  0.572270  0.991760  1.0  -0.5701
  O  O331  1  0.575100  0.491680  0.072190  1.0  -0.5825
  O  O332  1  0.265400  0.529150  0.036590  1.0  -0.5665
  O  O333  1  0.531600  0.697900  0.776000  1.0  -0.3425
  O  O334  1  0.733200  0.963490  0.470570  1.0  -0.5667
  O  O335  1  0.424700  0.927730  0.508240  1.0  -0.5701
  O  O336  1  0.575100  0.008320  0.427810  1.0  -0.582
  O  O337  1  0.265400  0.970850  0.463410  1.0  -0.5662
  O  O338  1  0.531600  0.802100  0.724000  1.0  -0.3362
