# generated using pymatgen
data_CoH14C12O5
_symmetry_space_group_name_H-M   'P 1'
_cell_length_a   8.05760000
_cell_length_b   22.11380000
_cell_length_c   22.11380000
_cell_angle_alpha   90.00000000
_cell_angle_beta   90.00000000
_cell_angle_gamma   90.00000000
_symmetry_Int_Tables_number   1
_chemical_formula_structural   CoH14C12O5
_chemical_formula_sum   'Co8 H112 C96 O40'
_cell_volume   3940.32876419
_cell_formula_units_Z   8
loop_
 _symmetry_equiv_pos_site_id
 _symmetry_equiv_pos_as_xyz
  1  'x, y, z'
loop_
 _atom_site_type_symbol
 _atom_site_label
 _atom_site_symmetry_multiplicity
 _atom_site_fract_x
 _atom_site_fract_y
 _atom_site_fract_z
 _atom_site_occupancy
 _atom_site_charge
  Co  Co1  1  0.242330  0.744800  0.244640  1.0  1.0609
  Co  Co2  1  0.242330  0.255200  0.755370  1.0  1.0822
  Co  Co3  1  0.757670  0.244640  0.255200  1.0  1.063
  Co  Co4  1  0.757670  0.755370  0.744800  1.0  1.0808
  Co  Co5  1  0.257670  0.755200  0.744630  1.0  1.0797
  Co  Co6  1  0.257670  0.244800  0.255370  1.0  1.0609
  Co  Co7  1  0.742330  0.255370  0.755200  1.0  1.085
  Co  Co8  1  0.742330  0.744630  0.244800  1.0  1.0768
  H  H9  1  0.992200  0.815500  0.222600  1.0  0.4161
  H  H10  1  0.992200  0.765800  0.173600  1.0  0.4158
  H  H11  1  0.362000  0.743600  0.494400  1.0  0.1071
  H  H12  1  0.000400  0.831000  0.585000  1.0  0.1003
  H  H13  1  0.989200  0.823200  0.403600  1.0  0.1007
  H  H14  1  0.665200  0.792200  0.487400  1.0  0.1215
  H  H15  1  0.563000  0.849900  0.469600  1.0  0.1103
  H  H16  1  0.691600  0.822500  0.424000  1.0  0.1079
  H  H17  1  0.723700  0.947500  0.451100  1.0  0.1124
  H  H18  1  0.912300  0.950400  0.468300  1.0  0.1068
  H  H19  1  0.854800  0.912300  0.412400  1.0  0.1051
  H  H20  1  0.738300  0.857600  0.581400  1.0  0.1129
  H  H21  1  0.835000  0.918300  0.571300  1.0  0.1098
  H  H22  1  0.648200  0.913200  0.552100  1.0  0.1122
  H  H23  1  0.992200  0.184500  0.777400  1.0  0.4157
  H  H24  1  0.992200  0.234200  0.826400  1.0  0.417
  H  H25  1  0.362000  0.256400  0.505600  1.0  0.1073
  H  H26  1  0.000400  0.169000  0.415000  1.0  0.1022
  H  H27  1  0.989200  0.176800  0.596400  1.0  0.1004
  H  H28  1  0.665200  0.207800  0.512600  1.0  0.1216
  H  H29  1  0.563000  0.150100  0.530400  1.0  0.1098
  H  H30  1  0.691600  0.177500  0.576000  1.0  0.1083
  H  H31  1  0.723700  0.052500  0.548900  1.0  0.112
  H  H32  1  0.912300  0.049600  0.531700  1.0  0.1068
  H  H33  1  0.854800  0.087700  0.587600  1.0  0.105
  H  H34  1  0.738300  0.142400  0.418600  1.0  0.1125
  H  H35  1  0.835000  0.081700  0.428700  1.0  0.1096
  H  H36  1  0.648200  0.086800  0.447900  1.0  0.1133
  H  H37  1  0.007800  0.222600  0.184500  1.0  0.4151
  H  H38  1  0.007800  0.173600  0.234200  1.0  0.4175
  H  H39  1  0.638000  0.494400  0.256400  1.0  0.1073
  H  H40  1  0.999600  0.585000  0.169000  1.0  0.1004
  H  H41  1  0.010800  0.403600  0.176800  1.0  0.1006
  H  H42  1  0.334800  0.487400  0.207800  1.0  0.1195
  H  H43  1  0.437000  0.469600  0.150100  1.0  0.1128
  H  H44  1  0.308400  0.424000  0.177500  1.0  0.1094
  H  H45  1  0.276300  0.451100  0.052500  1.0  0.1126
  H  H46  1  0.087700  0.468300  0.049600  1.0  0.1061
  H  H47  1  0.145200  0.412400  0.087700  1.0  0.1061
  H  H48  1  0.261700  0.581400  0.142400  1.0  0.1133
  H  H49  1  0.165000  0.571300  0.081700  1.0  0.1092
  H  H50  1  0.351800  0.552100  0.086800  1.0  0.113
  H  H51  1  0.007800  0.777400  0.815500  1.0  0.4163
  H  H52  1  0.007800  0.826400  0.765800  1.0  0.418
  H  H53  1  0.638000  0.505600  0.743600  1.0  0.1074
  H  H54  1  0.999600  0.415000  0.831000  1.0  0.1008
  H  H55  1  0.010800  0.596400  0.823200  1.0  0.1005
  H  H56  1  0.334800  0.512600  0.792200  1.0  0.1191
  H  H57  1  0.437000  0.530400  0.849900  1.0  0.1132
  H  H58  1  0.308400  0.576000  0.822500  1.0  0.11
  H  H59  1  0.276300  0.548900  0.947500  1.0  0.1124
  H  H60  1  0.087700  0.531700  0.950400  1.0  0.1052
  H  H61  1  0.145200  0.587600  0.912300  1.0  0.1049
  H  H62  1  0.261700  0.418600  0.857600  1.0  0.1134
  H  H63  1  0.165000  0.428700  0.918300  1.0  0.1086
  H  H64  1  0.351800  0.447900  0.913200  1.0  0.1133
  H  H65  1  0.507800  0.684500  0.722600  1.0  0.415
  H  H66  1  0.507800  0.734200  0.673600  1.0  0.4167
  H  H67  1  0.138000  0.756400  0.994400  1.0  0.1065
  H  H68  1  0.499600  0.669000  0.085000  1.0  0.1003
  H  H69  1  0.510800  0.676800  0.903600  1.0  0.1012
  H  H70  1  0.834800  0.707800  0.987400  1.0  0.121
  H  H71  1  0.937000  0.650100  0.969600  1.0  0.1114
  H  H72  1  0.808400  0.677500  0.924000  1.0  0.1095
  H  H73  1  0.776300  0.552500  0.951100  1.0  0.1122
  H  H74  1  0.587700  0.549600  0.968300  1.0  0.1059
  H  H75  1  0.645200  0.587700  0.912400  1.0  0.1055
  H  H76  1  0.761700  0.642400  0.081400  1.0  0.112
  H  H77  1  0.665000  0.581700  0.071300  1.0  0.1093
  H  H78  1  0.851800  0.586800  0.052100  1.0  0.113
  H  H79  1  0.507800  0.315500  0.277400  1.0  0.4156
  H  H80  1  0.507800  0.265800  0.326400  1.0  0.4167
  H  H81  1  0.138000  0.243600  0.005600  1.0  0.1061
  H  H82  1  0.499600  0.331000  0.915000  1.0  0.101
  H  H83  1  0.510800  0.323200  0.096400  1.0  0.1
  H  H84  1  0.834800  0.292200  0.012600  1.0  0.1211
  H  H85  1  0.937000  0.349900  0.030400  1.0  0.1116
  H  H86  1  0.808400  0.322500  0.076000  1.0  0.1085
  H  H87  1  0.776300  0.447500  0.048900  1.0  0.1127
  H  H88  1  0.587700  0.450400  0.031700  1.0  0.1068
  H  H89  1  0.645200  0.412300  0.087600  1.0  0.105
  H  H90  1  0.761700  0.357600  0.918600  1.0  0.1118
  H  H91  1  0.665000  0.418300  0.928700  1.0  0.1096
  H  H92  1  0.851800  0.413200  0.947900  1.0  0.1137
  H  H93  1  0.492200  0.277400  0.684500  1.0  0.4159
  H  H94  1  0.492200  0.326400  0.734200  1.0  0.4174
  H  H95  1  0.862000  0.005600  0.756400  1.0  0.1061
  H  H96  1  0.500400  0.915000  0.669000  1.0  0.1017
  H  H97  1  0.489200  0.096400  0.676800  1.0  0.1007
  H  H98  1  0.165200  0.012600  0.707800  1.0  0.1194
  H  H99  1  0.063000  0.030400  0.650100  1.0  0.1118
  H  H100  1  0.191600  0.076000  0.677500  1.0  0.1086
  H  H101  1  0.223700  0.048900  0.552500  1.0  0.1121
  H  H102  1  0.412300  0.031700  0.549600  1.0  0.1061
  H  H103  1  0.354800  0.087600  0.587700  1.0  0.1055
  H  H104  1  0.238300  0.918600  0.642400  1.0  0.1145
  H  H105  1  0.335000  0.928700  0.581700  1.0  0.1085
  H  H106  1  0.148200  0.947900  0.586800  1.0  0.1118
  H  H107  1  0.492200  0.722600  0.315500  1.0  0.4175
  H  H108  1  0.492200  0.673600  0.265800  1.0  0.4172
  H  H109  1  0.862000  0.994400  0.243600  1.0  0.1061
  H  H110  1  0.500400  0.085000  0.331000  1.0  0.101
  H  H111  1  0.489200  0.903600  0.323200  1.0  0.1001
  H  H112  1  0.165200  0.987400  0.292200  1.0  0.1194
  H  H113  1  0.063000  0.969600  0.349900  1.0  0.1101
  H  H114  1  0.191600  0.924000  0.322500  1.0  0.1094
  H  H115  1  0.223700  0.951100  0.447500  1.0  0.112
  H  H116  1  0.412300  0.968300  0.450400  1.0  0.1057
  H  H117  1  0.354800  0.912400  0.412300  1.0  0.1056
  H  H118  1  0.238300  0.081400  0.357600  1.0  0.114
  H  H119  1  0.335000  0.071300  0.418300  1.0  0.1082
  H  H120  1  0.148200  0.052100  0.413200  1.0  0.112
  C  C121  1  0.185500  0.780140  0.440010  1.0  -0.1595
  C  C122  1  0.263650  0.765620  0.494370  1.0  0.0009
  C  C123  1  0.192720  0.784520  0.548840  1.0  -0.1491
  C  C124  1  0.046040  0.818520  0.548420  1.0  -0.066
  C  C125  1  0.966370  0.834180  0.494340  1.0  -0.0069
  C  C126  1  0.039680  0.813840  0.440260  1.0  -0.0494
  C  C127  1  0.261260  0.759120  0.381520  1.0  0.6979
  C  C128  1  0.275340  0.768320  0.607650  1.0  0.7016
  C  C129  1  0.804430  0.870210  0.492750  1.0  0.2241
  C  C130  1  0.668300  0.829950  0.465940  1.0  -0.3791
  C  C131  1  0.825800  0.925130  0.452450  1.0  -0.382
  C  C132  1  0.751600  0.891800  0.555140  1.0  -0.3901
  C  C133  1  0.185500  0.219860  0.559990  1.0  -0.1601
  C  C134  1  0.263650  0.234380  0.505630  1.0  0.0019
  C  C135  1  0.192720  0.215480  0.451160  1.0  -0.1498
  C  C136  1  0.046040  0.181480  0.451580  1.0  -0.0665
  C  C137  1  0.966370  0.165820  0.505660  1.0  -0.0094
  C  C138  1  0.039680  0.186160  0.559740  1.0  -0.048
  C  C139  1  0.261260  0.240880  0.618480  1.0  0.6979
  C  C140  1  0.275340  0.231680  0.392350  1.0  0.7026
  C  C141  1  0.804430  0.129790  0.507250  1.0  0.2246
  C  C142  1  0.668300  0.170050  0.534060  1.0  -0.3807
  C  C143  1  0.825800  0.074870  0.547550  1.0  -0.3809
  C  C144  1  0.751600  0.108200  0.444860  1.0  -0.3896
  C  C145  1  0.814500  0.440010  0.219860  1.0  -0.1586
  C  C146  1  0.736350  0.494370  0.234380  1.0  0.0016
  C  C147  1  0.807280  0.548840  0.215480  1.0  -0.1511
  C  C148  1  0.953960  0.548420  0.181480  1.0  -0.0691
  C  C149  1  0.033630  0.494340  0.165820  1.0  -0.0143
  C  C150  1  0.960320  0.440260  0.186160  1.0  -0.0507
  C  C151  1  0.738740  0.381520  0.240880  1.0  0.6967
  C  C152  1  0.724660  0.607650  0.231680  1.0  0.7027
  C  C153  1  0.195570  0.492750  0.129790  1.0  0.2252
  C  C154  1  0.331700  0.465940  0.170050  1.0  -0.3799
  C  C155  1  0.174200  0.452450  0.074870  1.0  -0.3814
  C  C156  1  0.248400  0.555140  0.108200  1.0  -0.3882
  C  C157  1  0.814500  0.559990  0.780140  1.0  -0.1573
  C  C158  1  0.736350  0.505630  0.765620  1.0  0.0003
  C  C159  1  0.807280  0.451160  0.784520  1.0  -0.1503
  C  C160  1  0.953960  0.451580  0.818520  1.0  -0.071
  C  C161  1  0.033630  0.505660  0.834180  1.0  -0.0144
  C  C162  1  0.960320  0.559740  0.813840  1.0  -0.0508
  C  C163  1  0.738740  0.618480  0.759120  1.0  0.6982
  C  C164  1  0.724660  0.392350  0.768320  1.0  0.7026
  C  C165  1  0.195570  0.507250  0.870210  1.0  0.2243
  C  C166  1  0.331700  0.534060  0.829950  1.0  -0.3808
  C  C167  1  0.174200  0.547550  0.925130  1.0  -0.3811
  C  C168  1  0.248400  0.444860  0.891800  1.0  -0.389
  C  C169  1  0.314500  0.719860  0.940010  1.0  -0.1594
  C  C170  1  0.236350  0.734380  0.994370  1.0  0.0002
  C  C171  1  0.307280  0.715480  0.048840  1.0  -0.1492
  C  C172  1  0.453960  0.681480  0.048420  1.0  -0.0674
  C  C173  1  0.533630  0.665820  0.994340  1.0  -0.0109
  C  C174  1  0.460320  0.686160  0.940260  1.0  -0.049
  C  C175  1  0.238740  0.740880  0.881520  1.0  0.7
  C  C176  1  0.224660  0.731680  0.107650  1.0  0.7005
  C  C177  1  0.695570  0.629790  0.992750  1.0  0.2244
  C  C178  1  0.831700  0.670050  0.965940  1.0  -0.381
  C  C179  1  0.674200  0.574870  0.952450  1.0  -0.3812
  C  C180  1  0.748400  0.608200  0.055140  1.0  -0.3897
  C  C181  1  0.314500  0.280140  0.059990  1.0  -0.1594
  C  C182  1  0.236350  0.265620  0.005630  1.0  0.0009
  C  C183  1  0.307280  0.284520  0.951160  1.0  -0.1488
  C  C184  1  0.453960  0.318520  0.951580  1.0  -0.067
  C  C185  1  0.533630  0.334180  0.005660  1.0  -0.0083
  C  C186  1  0.460320  0.313840  0.059740  1.0  -0.0509
  C  C187  1  0.238740  0.259120  0.118480  1.0  0.6973
  C  C188  1  0.224660  0.268320  0.892350  1.0  0.7014
  C  C189  1  0.695570  0.370210  0.007250  1.0  0.2244
  C  C190  1  0.831700  0.329950  0.034060  1.0  -0.3809
  C  C191  1  0.674200  0.425130  0.047550  1.0  -0.3803
  C  C192  1  0.748400  0.391800  0.944860  1.0  -0.3903
  C  C193  1  0.685500  0.059990  0.719860  1.0  -0.16
  C  C194  1  0.763650  0.005630  0.734380  1.0  0.0031
  C  C195  1  0.692720  0.951160  0.715480  1.0  -0.151
  C  C196  1  0.546040  0.951580  0.681480  1.0  -0.0673
  C  C197  1  0.466370  0.005660  0.665820  1.0  -0.0116
  C  C198  1  0.539680  0.059740  0.686160  1.0  -0.0491
  C  C199  1  0.761260  0.118480  0.740880  1.0  0.6975
  C  C200  1  0.775340  0.892350  0.731680  1.0  0.7014
  C  C201  1  0.304430  0.007250  0.629790  1.0  0.2248
  C  C202  1  0.168300  0.034060  0.670050  1.0  -0.3804
  C  C203  1  0.325800  0.047550  0.574870  1.0  -0.3816
  C  C204  1  0.251600  0.944860  0.608200  1.0  -0.3878
  C  C205  1  0.685500  0.940010  0.280140  1.0  -0.16
  C  C206  1  0.763650  0.994370  0.265620  1.0  0.0005
  C  C207  1  0.692720  0.048840  0.284520  1.0  -0.1485
  C  C208  1  0.546040  0.048420  0.318520  1.0  -0.068
  C  C209  1  0.466370  0.994340  0.334180  1.0  -0.013
  C  C210  1  0.539680  0.940260  0.313840  1.0  -0.0504
  C  C211  1  0.761260  0.881520  0.259120  1.0  0.6973
  C  C212  1  0.775340  0.107650  0.268320  1.0  0.7009
  C  C213  1  0.304430  0.992750  0.370210  1.0  0.2244
  C  C214  1  0.168300  0.965940  0.329950  1.0  -0.3796
  C  C215  1  0.325800  0.952450  0.425130  1.0  -0.3811
  C  C216  1  0.251600  0.055140  0.391800  1.0  -0.3887
  O  O217  1  0.174500  0.764700  0.333550  1.0  -0.6425
  O  O218  1  0.404400  0.737390  0.382220  1.0  -0.5642
  O  O219  1  0.188800  0.773920  0.655590  1.0  -0.645
  O  O220  1  0.421380  0.750160  0.606700  1.0  -0.5694
  O  O221  1  0.992210  0.772000  0.216980  1.0  -0.8277
  O  O222  1  0.174500  0.235300  0.666450  1.0  -0.645
  O  O223  1  0.404400  0.262610  0.617780  1.0  -0.5678
  O  O224  1  0.188800  0.226080  0.344410  1.0  -0.6442
  O  O225  1  0.421380  0.249840  0.393300  1.0  -0.5697
  O  O226  1  0.992210  0.228000  0.783020  1.0  -0.8298
  O  O227  1  0.825500  0.333550  0.235300  1.0  -0.6428
  O  O228  1  0.595600  0.382220  0.262610  1.0  -0.5647
  O  O229  1  0.811200  0.655590  0.226080  1.0  -0.6468
  O  O230  1  0.578620  0.606700  0.249840  1.0  -0.5687
  O  O231  1  0.007790  0.216980  0.228000  1.0  -0.8269
  O  O232  1  0.825500  0.666450  0.764700  1.0  -0.6446
  O  O233  1  0.595600  0.617780  0.737390  1.0  -0.5639
  O  O234  1  0.811200  0.344410  0.773920  1.0  -0.6453
  O  O235  1  0.578620  0.393300  0.750160  1.0  -0.5665
  O  O236  1  0.007790  0.783020  0.772000  1.0  -0.8288
  O  O237  1  0.325500  0.735300  0.833550  1.0  -0.6453
  O  O238  1  0.095600  0.762610  0.882220  1.0  -0.5664
  O  O239  1  0.311200  0.726080  0.155590  1.0  -0.6437
  O  O240  1  0.078620  0.749840  0.106700  1.0  -0.5687
  O  O241  1  0.507790  0.728000  0.716980  1.0  -0.8281
  O  O242  1  0.325500  0.264700  0.166450  1.0  -0.6425
  O  O243  1  0.095600  0.237390  0.117780  1.0  -0.565
  O  O244  1  0.311200  0.273920  0.844410  1.0  -0.6454
  O  O245  1  0.078620  0.250160  0.893300  1.0  -0.5691
  O  O246  1  0.507790  0.272000  0.283020  1.0  -0.8267
  O  O247  1  0.674500  0.166450  0.735300  1.0  -0.6457
  O  O248  1  0.904400  0.117780  0.762610  1.0  -0.565
  O  O249  1  0.688800  0.844410  0.726080  1.0  -0.645
  O  O250  1  0.921380  0.893300  0.749840  1.0  -0.5689
  O  O251  1  0.492210  0.283020  0.728000  1.0  -0.8288
  O  O252  1  0.674500  0.833550  0.264700  1.0  -0.644
  O  O253  1  0.904400  0.882220  0.237390  1.0  -0.5652
  O  O254  1  0.688800  0.155590  0.273920  1.0  -0.645
  O  O255  1  0.921380  0.106700  0.250160  1.0  -0.5675
  O  O256  1  0.492210  0.716980  0.272000  1.0  -0.829
