# generated using pymatgen
data_CdH20C21O4
_symmetry_space_group_name_H-M   'P 1'
_cell_length_a   20.55110000
_cell_length_b   21.50040000
_cell_length_c   14.06810000
_cell_angle_alpha   90.00000000
_cell_angle_beta   130.54700000
_cell_angle_gamma   90.00000000
_symmetry_Int_Tables_number   1
_chemical_formula_structural   CdH20C21O4
_chemical_formula_sum   'Cd8 H160 C168 O32'
_cell_volume   4723.43618201
_cell_formula_units_Z   8
loop_
 _symmetry_equiv_pos_site_id
 _symmetry_equiv_pos_as_xyz
  1  'x, y, z'
loop_
 _atom_site_type_symbol
 _atom_site_label
 _atom_site_symmetry_multiplicity
 _atom_site_fract_x
 _atom_site_fract_y
 _atom_site_fract_z
 _atom_site_occupancy
 _atom_site_charge
  Cd  Cd1  1  0.000000  0.041310  0.250000  1.0  1.0169
  Cd  Cd2  1  0.500000  0.541310  0.250000  1.0  1.0169
  Cd  Cd3  1  0.000000  0.958690  0.750000  1.0  1.0162
  Cd  Cd4  1  0.500000  0.458690  0.750000  1.0  1.0162
  Cd  Cd5  1  0.000000  0.000000  0.000000  1.0  1.0927
  Cd  Cd6  1  0.500000  0.500000  0.000000  1.0  1.0927
  Cd  Cd7  1  0.000000  0.000000  0.500000  1.0  1.0927
  Cd  Cd8  1  0.500000  0.500000  0.500000  1.0  1.0927
  H  H9  1  0.875000  0.887500  0.907600  1.0  0.1126
  H  H10  1  0.764900  0.888900  0.062500  1.0  0.1047
  H  H11  1  0.674500  0.807700  0.932300  1.0  0.1148
  H  H12  1  0.582100  0.718100  0.753900  1.0  0.1172
  H  H13  1  0.522100  0.646800  0.593900  1.0  0.0905
  H  H14  1  0.681400  0.703200  0.536400  1.0  0.1152
  H  H15  1  0.853800  0.730700  0.731900  1.0  0.0757
  H  H16  1  0.906700  0.783100  0.832100  1.0  0.0818
  H  H17  1  0.836700  0.683300  0.860300  1.0  0.0749
  H  H18  1  0.896500  0.734100  0.962100  1.0  0.0756
  H  H19  1  0.976800  0.644200  0.001800  1.0  0.1157
  H  H20  1  0.010600  0.700400  0.973700  1.0  0.1149
  H  H21  1  0.951000  0.650500  0.870000  1.0  0.1105
  H  H22  1  0.809800  0.863800  0.678900  1.0  0.0782
  H  H23  1  0.759900  0.811400  0.577500  1.0  0.0817
  H  H24  1  0.686300  0.897900  0.626600  1.0  0.0644
  H  H25  1  0.635800  0.844900  0.526300  1.0  0.0718
  H  H26  1  0.623200  0.939700  0.425300  1.0  0.1205
  H  H27  1  0.671700  0.890400  0.409400  1.0  0.115
  H  H28  1  0.723100  0.943100  0.510000  1.0  0.1166
  H  H29  1  0.375000  0.387500  0.907600  1.0  0.1126
  H  H30  1  0.264900  0.388900  0.062500  1.0  0.1047
  H  H31  1  0.174500  0.307700  0.932300  1.0  0.1148
  H  H32  1  0.082100  0.218100  0.753900  1.0  0.1172
  H  H33  1  0.022100  0.146800  0.593900  1.0  0.0905
  H  H34  1  0.181400  0.203200  0.536400  1.0  0.1152
  H  H35  1  0.353800  0.230700  0.731900  1.0  0.0757
  H  H36  1  0.406700  0.283100  0.832100  1.0  0.0818
  H  H37  1  0.336700  0.183300  0.860300  1.0  0.0749
  H  H38  1  0.396500  0.234100  0.962100  1.0  0.0756
  H  H39  1  0.476800  0.144200  0.001800  1.0  0.1157
  H  H40  1  0.510600  0.200400  0.973700  1.0  0.1149
  H  H41  1  0.451000  0.150500  0.870000  1.0  0.1105
  H  H42  1  0.309800  0.363800  0.678900  1.0  0.0782
  H  H43  1  0.259900  0.311400  0.577500  1.0  0.0817
  H  H44  1  0.186300  0.397900  0.626600  1.0  0.0644
  H  H45  1  0.135800  0.344900  0.526300  1.0  0.0718
  H  H46  1  0.123200  0.439700  0.425300  1.0  0.1205
  H  H47  1  0.171700  0.390400  0.409400  1.0  0.115
  H  H48  1  0.223100  0.443100  0.510000  1.0  0.1166
  H  H49  1  0.125000  0.887500  0.592400  1.0  0.1126
  H  H50  1  0.235100  0.888900  0.437500  1.0  0.1048
  H  H51  1  0.325500  0.807700  0.567700  1.0  0.1151
  H  H52  1  0.417900  0.718100  0.746100  1.0  0.1174
  H  H53  1  0.477900  0.646800  0.906100  1.0  0.0893
  H  H54  1  0.318600  0.703200  0.963600  1.0  0.1156
  H  H55  1  0.146200  0.730700  0.768100  1.0  0.0772
  H  H56  1  0.093300  0.783100  0.667900  1.0  0.0812
  H  H57  1  0.163300  0.683300  0.639700  1.0  0.0739
  H  H58  1  0.103500  0.734100  0.537900  1.0  0.0739
  H  H59  1  0.023200  0.644200  0.498200  1.0  0.1147
  H  H60  1  0.989400  0.700400  0.526300  1.0  0.1133
  H  H61  1  0.049000  0.650500  0.630000  1.0  0.1101
  H  H62  1  0.190200  0.863800  0.821100  1.0  0.0791
  H  H63  1  0.240100  0.811400  0.922500  1.0  0.0819
  H  H64  1  0.313700  0.897900  0.873400  1.0  0.0671
  H  H65  1  0.364200  0.844900  0.973700  1.0  0.0696
  H  H66  1  0.376800  0.939700  0.074700  1.0  0.1224
  H  H67  1  0.328300  0.890400  0.090600  1.0  0.1155
  H  H68  1  0.276900  0.943100  0.990000  1.0  0.1175
  H  H69  1  0.625000  0.387500  0.592400  1.0  0.1126
  H  H70  1  0.735100  0.388900  0.437500  1.0  0.1048
  H  H71  1  0.825500  0.307700  0.567700  1.0  0.1151
  H  H72  1  0.917900  0.218100  0.746100  1.0  0.1174
  H  H73  1  0.977900  0.146800  0.906100  1.0  0.0893
  H  H74  1  0.818600  0.203200  0.963600  1.0  0.1156
  H  H75  1  0.646200  0.230700  0.768100  1.0  0.0772
  H  H76  1  0.593300  0.283100  0.667900  1.0  0.0812
  H  H77  1  0.663300  0.183300  0.639700  1.0  0.0739
  H  H78  1  0.603500  0.234100  0.537900  1.0  0.0739
  H  H79  1  0.523200  0.144200  0.498200  1.0  0.1147
  H  H80  1  0.489400  0.200400  0.526300  1.0  0.1133
  H  H81  1  0.549000  0.150500  0.630000  1.0  0.1101
  H  H82  1  0.690200  0.363800  0.821100  1.0  0.0791
  H  H83  1  0.740100  0.311400  0.922500  1.0  0.0819
  H  H84  1  0.813700  0.397900  0.873400  1.0  0.0671
  H  H85  1  0.864200  0.344900  0.973700  1.0  0.0696
  H  H86  1  0.876800  0.439700  0.074700  1.0  0.1224
  H  H87  1  0.828300  0.390400  0.090600  1.0  0.1155
  H  H88  1  0.776900  0.443100  0.990000  1.0  0.1175
  H  H89  1  0.125000  0.112500  0.092400  1.0  0.1131
  H  H90  1  0.235100  0.111100  0.937500  1.0  0.1046
  H  H91  1  0.325500  0.192300  0.067700  1.0  0.1145
  H  H92  1  0.417900  0.281900  0.246100  1.0  0.1176
  H  H93  1  0.477900  0.353200  0.406100  1.0  0.0894
  H  H94  1  0.318600  0.296800  0.463600  1.0  0.1153
  H  H95  1  0.146200  0.269300  0.268100  1.0  0.0767
  H  H96  1  0.093300  0.216900  0.167900  1.0  0.0821
  H  H97  1  0.163300  0.316700  0.139700  1.0  0.0744
  H  H98  1  0.103500  0.265900  0.037900  1.0  0.0747
  H  H99  1  0.023200  0.355800  0.998200  1.0  0.1143
  H  H100  1  0.989400  0.299600  0.026300  1.0  0.1116
  H  H101  1  0.049000  0.349500  0.130000  1.0  0.1099
  H  H102  1  0.190200  0.136200  0.321100  1.0  0.0788
  H  H103  1  0.240100  0.188600  0.422500  1.0  0.0821
  H  H104  1  0.313700  0.102100  0.373400  1.0  0.0671
  H  H105  1  0.364200  0.155100  0.473700  1.0  0.0689
  H  H106  1  0.376800  0.060300  0.574700  1.0  0.1227
  H  H107  1  0.328300  0.109600  0.590600  1.0  0.1153
  H  H108  1  0.276900  0.056900  0.490000  1.0  0.1174
  H  H109  1  0.625000  0.612500  0.092400  1.0  0.1131
  H  H110  1  0.735100  0.611100  0.937500  1.0  0.1046
  H  H111  1  0.825500  0.692300  0.067700  1.0  0.1145
  H  H112  1  0.917900  0.781900  0.246100  1.0  0.1176
  H  H113  1  0.977900  0.853200  0.406100  1.0  0.0894
  H  H114  1  0.818600  0.796800  0.463600  1.0  0.1153
  H  H115  1  0.646200  0.769300  0.268100  1.0  0.0767
  H  H116  1  0.593300  0.716900  0.167900  1.0  0.0821
  H  H117  1  0.663300  0.816700  0.139700  1.0  0.0744
  H  H118  1  0.603500  0.765900  0.037900  1.0  0.0747
  H  H119  1  0.523200  0.855800  0.998200  1.0  0.1143
  H  H120  1  0.489400  0.799600  0.026300  1.0  0.1116
  H  H121  1  0.549000  0.849500  0.130000  1.0  0.1099
  H  H122  1  0.690200  0.636200  0.321100  1.0  0.0788
  H  H123  1  0.740100  0.688600  0.422500  1.0  0.0821
  H  H124  1  0.813700  0.602100  0.373400  1.0  0.0671
  H  H125  1  0.864200  0.655100  0.473700  1.0  0.0689
  H  H126  1  0.876800  0.560300  0.574700  1.0  0.1227
  H  H127  1  0.828300  0.609600  0.590600  1.0  0.1153
  H  H128  1  0.776900  0.556900  0.490000  1.0  0.1174
  H  H129  1  0.875000  0.112500  0.407600  1.0  0.1132
  H  H130  1  0.764900  0.111100  0.562500  1.0  0.1051
  H  H131  1  0.674500  0.192300  0.432300  1.0  0.1136
  H  H132  1  0.582100  0.281900  0.253900  1.0  0.1172
  H  H133  1  0.522100  0.353200  0.093900  1.0  0.0905
  H  H134  1  0.681400  0.296800  0.036400  1.0  0.115
  H  H135  1  0.853800  0.269300  0.231900  1.0  0.0765
  H  H136  1  0.906700  0.216900  0.332100  1.0  0.0822
  H  H137  1  0.836700  0.316700  0.360300  1.0  0.0746
  H  H138  1  0.896500  0.265900  0.462100  1.0  0.0756
  H  H139  1  0.976800  0.355800  0.501800  1.0  0.1132
  H  H140  1  0.010600  0.299600  0.473700  1.0  0.1128
  H  H141  1  0.951000  0.349500  0.370000  1.0  0.1107
  H  H142  1  0.809800  0.136200  0.178900  1.0  0.078
  H  H143  1  0.759900  0.188600  0.077500  1.0  0.0823
  H  H144  1  0.686300  0.102100  0.126600  1.0  0.0672
  H  H145  1  0.635800  0.155100  0.026300  1.0  0.0721
  H  H146  1  0.623200  0.060300  0.925300  1.0  0.1205
  H  H147  1  0.671700  0.109600  0.909400  1.0  0.1143
  H  H148  1  0.723100  0.056900  0.010000  1.0  0.1162
  H  H149  1  0.375000  0.612500  0.407600  1.0  0.1132
  H  H150  1  0.264900  0.611100  0.562500  1.0  0.1051
  H  H151  1  0.174500  0.692300  0.432300  1.0  0.1136
  H  H152  1  0.082100  0.781900  0.253900  1.0  0.1172
  H  H153  1  0.022100  0.853200  0.093900  1.0  0.0905
  H  H154  1  0.181400  0.796800  0.036400  1.0  0.115
  H  H155  1  0.353800  0.769300  0.231900  1.0  0.0765
  H  H156  1  0.406700  0.716900  0.332100  1.0  0.0822
  H  H157  1  0.336700  0.816700  0.360300  1.0  0.0746
  H  H158  1  0.396500  0.765900  0.462100  1.0  0.0756
  H  H159  1  0.476800  0.855800  0.501800  1.0  0.1132
  H  H160  1  0.510600  0.799600  0.473700  1.0  0.1128
  H  H161  1  0.451000  0.849500  0.370000  1.0  0.1107
  H  H162  1  0.309800  0.636200  0.178900  1.0  0.078
  H  H163  1  0.259900  0.688600  0.077500  1.0  0.0823
  H  H164  1  0.186300  0.602100  0.126600  1.0  0.0672
  H  H165  1  0.135800  0.655100  0.026300  1.0  0.0721
  H  H166  1  0.123200  0.560300  0.925300  1.0  0.1205
  H  H167  1  0.171700  0.609600  0.909400  1.0  0.1143
  H  H168  1  0.223100  0.556900  0.010000  1.0  0.1162
  C  C169  1  0.834600  0.872100  0.911800  1.0  -0.0712
  C  C170  1  0.828800  0.895800  0.998700  1.0  -0.1124
  C  C171  1  0.768500  0.872300  0.005000  1.0  -0.032
  C  C172  1  0.713500  0.824200  0.926300  1.0  -0.1048
  C  C173  1  0.602000  0.714900  0.710700  1.0  -0.0677
  C  C174  1  0.565900  0.672700  0.614500  1.0  -0.036
  C  C175  1  0.594400  0.668300  0.547300  1.0  -0.1452
  C  C176  1  0.661700  0.706100  0.579900  1.0  -0.071
  C  C177  1  0.774400  0.792400  0.732700  1.0  0.1235
  C  C178  1  0.778500  0.824800  0.831500  1.0  -0.0232
  C  C179  1  0.718400  0.801300  0.837900  1.0  -0.0178
  C  C180  1  0.668700  0.752900  0.742500  1.0  -0.0384
  C  C181  1  0.698800  0.748000  0.677700  1.0  -0.0039
  C  C182  1  0.887500  0.947600  0.084800  1.0  0.6936
  C  C183  1  0.556700  0.622300  0.443200  1.0  0.6764
  C  C184  1  0.860100  0.753800  0.796700  1.0  -0.1773
  C  C185  1  0.884100  0.711200  0.892500  1.0  -0.0973
  C  C186  1  0.963000  0.673000  0.938800  1.0  -0.3144
  C  C187  1  0.761100  0.835900  0.636500  1.0  -0.1523
  C  C188  1  0.685000  0.872300  0.568600  1.0  -0.0972
  C  C189  1  0.674800  0.915700  0.468400  1.0  -0.3337
  C  C190  1  0.334600  0.372100  0.911800  1.0  -0.0712
  C  C191  1  0.328800  0.395800  0.998700  1.0  -0.1124
  C  C192  1  0.268500  0.372300  0.005000  1.0  -0.032
  C  C193  1  0.213500  0.324200  0.926300  1.0  -0.1048
  C  C194  1  0.102000  0.214900  0.710700  1.0  -0.0677
  C  C195  1  0.065900  0.172700  0.614500  1.0  -0.036
  C  C196  1  0.094400  0.168300  0.547300  1.0  -0.1452
  C  C197  1  0.161700  0.206100  0.579900  1.0  -0.071
  C  C198  1  0.274400  0.292400  0.732700  1.0  0.1235
  C  C199  1  0.278500  0.324800  0.831500  1.0  -0.0232
  C  C200  1  0.218400  0.301300  0.837900  1.0  -0.0178
  C  C201  1  0.168700  0.252900  0.742500  1.0  -0.0384
  C  C202  1  0.198800  0.248000  0.677700  1.0  -0.0039
  C  C203  1  0.387500  0.447600  0.084800  1.0  0.6936
  C  C204  1  0.056700  0.122300  0.443200  1.0  0.6764
  C  C205  1  0.360100  0.253800  0.796700  1.0  -0.1773
  C  C206  1  0.384100  0.211200  0.892500  1.0  -0.0973
  C  C207  1  0.463000  0.173000  0.938800  1.0  -0.3144
  C  C208  1  0.261100  0.335900  0.636500  1.0  -0.1523
  C  C209  1  0.185000  0.372300  0.568600  1.0  -0.0972
  C  C210  1  0.174800  0.415700  0.468400  1.0  -0.3337
  C  C211  1  0.165400  0.872100  0.588200  1.0  -0.0717
  C  C212  1  0.171200  0.895800  0.501300  1.0  -0.1117
  C  C213  1  0.231500  0.872300  0.495000  1.0  -0.0325
  C  C214  1  0.286500  0.824200  0.573700  1.0  -0.1062
  C  C215  1  0.398000  0.714900  0.789300  1.0  -0.0641
  C  C216  1  0.434100  0.672700  0.885500  1.0  -0.0363
  C  C217  1  0.405600  0.668300  0.952700  1.0  -0.1444
  C  C218  1  0.338300  0.706100  0.920100  1.0  -0.0706
  C  C219  1  0.225600  0.792400  0.767300  1.0  0.1246
  C  C220  1  0.221500  0.824800  0.668500  1.0  -0.0209
  C  C221  1  0.281600  0.801300  0.662100  1.0  -0.0168
  C  C222  1  0.331300  0.752900  0.757500  1.0  -0.0386
  C  C223  1  0.301200  0.748000  0.822300  1.0  -0.003
  C  C224  1  0.112500  0.947600  0.415200  1.0  0.6943
  C  C225  1  0.443300  0.622300  0.056800  1.0  0.6763
  C  C226  1  0.139900  0.753800  0.703300  1.0  -0.1787
  C  C227  1  0.115900  0.711200  0.607500  1.0  -0.0961
  C  C228  1  0.037000  0.673000  0.561200  1.0  -0.314
  C  C229  1  0.238900  0.835900  0.863500  1.0  -0.1532
  C  C230  1  0.315000  0.872300  0.931400  1.0  -0.0933
  C  C231  1  0.325200  0.915700  0.031600  1.0  -0.3336
  C  C232  1  0.665400  0.372100  0.588200  1.0  -0.0717
  C  C233  1  0.671200  0.395800  0.501300  1.0  -0.1117
  C  C234  1  0.731500  0.372300  0.495000  1.0  -0.0325
  C  C235  1  0.786500  0.324200  0.573700  1.0  -0.1062
  C  C236  1  0.898000  0.214900  0.789300  1.0  -0.0641
  C  C237  1  0.934100  0.172700  0.885500  1.0  -0.0363
  C  C238  1  0.905600  0.168300  0.952700  1.0  -0.1444
  C  C239  1  0.838300  0.206100  0.920100  1.0  -0.0706
  C  C240  1  0.725600  0.292400  0.767300  1.0  0.1246
  C  C241  1  0.721500  0.324800  0.668500  1.0  -0.0209
  C  C242  1  0.781600  0.301300  0.662100  1.0  -0.0168
  C  C243  1  0.831300  0.252900  0.757500  1.0  -0.0386
  C  C244  1  0.801200  0.248000  0.822300  1.0  -0.003
  C  C245  1  0.612500  0.447600  0.415200  1.0  0.6943
  C  C246  1  0.943300  0.122300  0.056800  1.0  0.6763
  C  C247  1  0.639900  0.253800  0.703300  1.0  -0.1787
  C  C248  1  0.615900  0.211200  0.607500  1.0  -0.0961
  C  C249  1  0.537000  0.173000  0.561200  1.0  -0.314
  C  C250  1  0.738900  0.335900  0.863500  1.0  -0.1532
  C  C251  1  0.815000  0.372300  0.931400  1.0  -0.0933
  C  C252  1  0.825200  0.415700  0.031600  1.0  -0.3336
  C  C253  1  0.165400  0.127900  0.088200  1.0  -0.0703
  C  C254  1  0.171200  0.104200  0.001300  1.0  -0.1134
  C  C255  1  0.231500  0.127700  0.995000  1.0  -0.0314
  C  C256  1  0.286500  0.175800  0.073700  1.0  -0.107
  C  C257  1  0.398000  0.285100  0.289300  1.0  -0.0646
  C  C258  1  0.434100  0.327300  0.385500  1.0  -0.0361
  C  C259  1  0.405600  0.331700  0.452700  1.0  -0.1443
  C  C260  1  0.338300  0.293900  0.420100  1.0  -0.0714
  C  C261  1  0.225600  0.207600  0.267300  1.0  0.1248
  C  C262  1  0.221500  0.175200  0.168500  1.0  -0.023
  C  C263  1  0.281600  0.198700  0.162100  1.0  -0.0176
  C  C264  1  0.331300  0.247100  0.257500  1.0  -0.0386
  C  C265  1  0.301200  0.252000  0.322300  1.0  -0.0022
  C  C266  1  0.112500  0.052400  0.915200  1.0  0.6938
  C  C267  1  0.443300  0.377700  0.556800  1.0  0.6762
  C  C268  1  0.139900  0.246200  0.203300  1.0  -0.1787
  C  C269  1  0.115900  0.288800  0.107500  1.0  -0.0974
  C  C270  1  0.037000  0.327000  0.061200  1.0  -0.3151
  C  C271  1  0.238900  0.164100  0.363500  1.0  -0.1523
  C  C272  1  0.315000  0.127700  0.431400  1.0  -0.0923
  C  C273  1  0.325200  0.084300  0.531600  1.0  -0.3327
  C  C274  1  0.665400  0.627900  0.088200  1.0  -0.0703
  C  C275  1  0.671200  0.604200  0.001300  1.0  -0.1134
  C  C276  1  0.731500  0.627700  0.995000  1.0  -0.0314
  C  C277  1  0.786500  0.675800  0.073700  1.0  -0.107
  C  C278  1  0.898000  0.785100  0.289300  1.0  -0.0646
  C  C279  1  0.934100  0.827300  0.385500  1.0  -0.0361
  C  C280  1  0.905600  0.831700  0.452700  1.0  -0.1443
  C  C281  1  0.838300  0.793900  0.420100  1.0  -0.0714
  C  C282  1  0.725600  0.707600  0.267300  1.0  0.1248
  C  C283  1  0.721500  0.675200  0.168500  1.0  -0.023
  C  C284  1  0.781600  0.698700  0.162100  1.0  -0.0176
  C  C285  1  0.831300  0.747100  0.257500  1.0  -0.0386
  C  C286  1  0.801200  0.752000  0.322300  1.0  -0.0022
  C  C287  1  0.612500  0.552400  0.915200  1.0  0.6938
  C  C288  1  0.943300  0.877700  0.556800  1.0  0.6762
  C  C289  1  0.639900  0.746200  0.203300  1.0  -0.1787
  C  C290  1  0.615900  0.788800  0.107500  1.0  -0.0974
  C  C291  1  0.537000  0.827000  0.061200  1.0  -0.3151
  C  C292  1  0.738900  0.664100  0.363500  1.0  -0.1523
  C  C293  1  0.815000  0.627700  0.431400  1.0  -0.0923
  C  C294  1  0.825200  0.584300  0.531600  1.0  -0.3327
  C  C295  1  0.834600  0.127900  0.411800  1.0  -0.0702
  C  C296  1  0.828800  0.104200  0.498700  1.0  -0.1133
  C  C297  1  0.768500  0.127700  0.505000  1.0  -0.0317
  C  C298  1  0.713500  0.175800  0.426300  1.0  -0.1039
  C  C299  1  0.602000  0.285100  0.210700  1.0  -0.0679
  C  C300  1  0.565900  0.327300  0.114500  1.0  -0.0365
  C  C301  1  0.594400  0.331700  0.047300  1.0  -0.1442
  C  C302  1  0.661700  0.293900  0.079900  1.0  -0.0718
  C  C303  1  0.774400  0.207600  0.232700  1.0  0.1237
  C  C304  1  0.778500  0.175200  0.331500  1.0  -0.0239
  C  C305  1  0.718400  0.198700  0.337900  1.0  -0.0187
  C  C306  1  0.668700  0.247100  0.242500  1.0  -0.0381
  C  C307  1  0.698800  0.252000  0.177700  1.0  -0.0036
  C  C308  1  0.887500  0.052400  0.584800  1.0  0.6933
  C  C309  1  0.556700  0.377700  0.943200  1.0  0.677
  C  C310  1  0.860100  0.246200  0.296700  1.0  -0.1767
  C  C311  1  0.884100  0.288800  0.392500  1.0  -0.0988
  C  C312  1  0.963000  0.327000  0.438800  1.0  -0.3138
  C  C313  1  0.761100  0.164100  0.136500  1.0  -0.1513
  C  C314  1  0.685000  0.127700  0.068600  1.0  -0.0953
  C  C315  1  0.674800  0.084300  0.968400  1.0  -0.333
  C  C316  1  0.334600  0.627900  0.411800  1.0  -0.0702
  C  C317  1  0.328800  0.604200  0.498700  1.0  -0.1133
  C  C318  1  0.268500  0.627700  0.505000  1.0  -0.0317
  C  C319  1  0.213500  0.675800  0.426300  1.0  -0.1039
  C  C320  1  0.102000  0.785100  0.210700  1.0  -0.0679
  C  C321  1  0.065900  0.827300  0.114500  1.0  -0.0365
  C  C322  1  0.094400  0.831700  0.047300  1.0  -0.1442
  C  C323  1  0.161700  0.793900  0.079900  1.0  -0.0718
  C  C324  1  0.274400  0.707600  0.232700  1.0  0.1237
  C  C325  1  0.278500  0.675200  0.331500  1.0  -0.0239
  C  C326  1  0.218400  0.698700  0.337900  1.0  -0.0187
  C  C327  1  0.168700  0.747100  0.242500  1.0  -0.0381
  C  C328  1  0.198800  0.752000  0.177700  1.0  -0.0036
  C  C329  1  0.387500  0.552400  0.584800  1.0  0.6933
  C  C330  1  0.056700  0.877700  0.943200  1.0  0.677
  C  C331  1  0.360100  0.746200  0.296700  1.0  -0.1767
  C  C332  1  0.384100  0.788800  0.392500  1.0  -0.0988
  C  C333  1  0.463000  0.827000  0.438800  1.0  -0.3138
  C  C334  1  0.261100  0.664100  0.136500  1.0  -0.1513
  C  C335  1  0.185000  0.627700  0.068600  1.0  -0.0953
  C  C336  1  0.174800  0.584300  0.968400  1.0  -0.333
  O  O337  1  0.872500  0.977800  0.144600  1.0  -0.6309
  O  O338  1  0.952800  0.959690  0.096100  1.0  -0.6896
  O  O339  1  0.588200  0.617600  0.392000  1.0  -0.5776
  O  O340  1  0.492800  0.589150  0.408700  1.0  -0.7122
  O  O341  1  0.372500  0.477800  0.144600  1.0  -0.6309
  O  O342  1  0.452800  0.459690  0.096100  1.0  -0.6896
  O  O343  1  0.088200  0.117600  0.392000  1.0  -0.5776
  O  O344  1  0.992800  0.089150  0.408700  1.0  -0.7122
  O  O345  1  0.127500  0.977800  0.355400  1.0  -0.6287
  O  O346  1  0.047200  0.959690  0.403900  1.0  -0.6915
  O  O347  1  0.411800  0.617600  0.108000  1.0  -0.5785
  O  O348  1  0.507200  0.589150  0.091300  1.0  -0.712
  O  O349  1  0.627500  0.477800  0.355400  1.0  -0.6287
  O  O350  1  0.547200  0.459690  0.403900  1.0  -0.6915
  O  O351  1  0.911800  0.117600  0.108000  1.0  -0.5785
  O  O352  1  0.007200  0.089150  0.091300  1.0  -0.712
  O  O353  1  0.127500  0.022200  0.855400  1.0  -0.6289
  O  O354  1  0.047200  0.040310  0.903900  1.0  -0.6912
  O  O355  1  0.411800  0.382400  0.608000  1.0  -0.5783
  O  O356  1  0.507200  0.410850  0.591300  1.0  -0.712
  O  O357  1  0.627500  0.522200  0.855400  1.0  -0.6289
  O  O358  1  0.547200  0.540310  0.903900  1.0  -0.6912
  O  O359  1  0.911800  0.882400  0.608000  1.0  -0.5783
  O  O360  1  0.007200  0.910850  0.591300  1.0  -0.712
  O  O361  1  0.872500  0.022200  0.644600  1.0  -0.6299
  O  O362  1  0.952800  0.040310  0.596100  1.0  -0.6901
  O  O363  1  0.588200  0.382400  0.892000  1.0  -0.5775
  O  O364  1  0.492800  0.410850  0.908700  1.0  -0.7112
  O  O365  1  0.372500  0.522200  0.644600  1.0  -0.6299
  O  O366  1  0.452800  0.540310  0.596100  1.0  -0.6901
  O  O367  1  0.088200  0.882400  0.892000  1.0  -0.5775
  O  O368  1  0.992800  0.910850  0.908700  1.0  -0.7112
