# generated using pymatgen
data_CuH8(C7O2)2
_symmetry_space_group_name_H-M   'P 1'
_cell_length_a   12.93500000
_cell_length_b   14.35190000
_cell_length_c   14.35190000
_cell_angle_alpha   78.28320000
_cell_angle_beta   63.21540000
_cell_angle_gamma   63.21540000
_symmetry_Int_Tables_number   1
_chemical_formula_structural   CuH8(C7O2)2
_chemical_formula_sum   'Cu4 H32 C56 O16'
_cell_volume   2123.25955404
_cell_formula_units_Z   4
loop_
 _symmetry_equiv_pos_site_id
 _symmetry_equiv_pos_as_xyz
  1  'x, y, z'
loop_
 _atom_site_type_symbol
 _atom_site_label
 _atom_site_symmetry_multiplicity
 _atom_site_fract_x
 _atom_site_fract_y
 _atom_site_fract_z
 _atom_site_occupancy
 _atom_site_charge
  Cu  Cu1  1  0.464370  0.399790  0.476970  1.0  0.896
  Cu  Cu2  1  0.341130  0.600210  0.523030  1.0  0.8942
  Cu  Cu3  1  0.191340  0.023030  0.899790  1.0  0.8935
  Cu  Cu4  1  0.114160  0.976970  0.100210  1.0  0.8909
  H  H5  1  0.588500  0.723500  0.295900  1.0  0.1101
  H  H6  1  0.739800  0.771500  0.162500  1.0  0.1145
  H  H7  1  0.974400  0.467100  0.099300  1.0  0.107
  H  H8  1  0.818700  0.422400  0.229400  1.0  0.1034
  H  H9  1  0.038800  0.543800  0.930800  1.0  0.0841
  H  H10  1  0.196900  0.584300  0.796300  1.0  0.1095
  H  H11  1  0.216700  0.732600  0.813200  1.0  0.1155
  H  H12  1  0.935600  0.781400  0.099200  1.0  0.1195
  H  H13  1  0.607900  0.276500  0.704100  1.0  0.1082
  H  H14  1  0.673800  0.228500  0.837500  1.0  0.1154
  H  H15  1  0.540800  0.532900  0.900700  1.0  0.1067
  H  H16  1  0.470500  0.577600  0.770600  1.0  0.1025
  H  H17  1  0.513400  0.456200  0.069200  1.0  0.0848
  H  H18  1  0.577500  0.415700  0.203700  1.0  0.1095
  H  H19  1  0.762500  0.267400  0.186800  1.0  0.115
  H  H20  1  0.816200  0.218600  0.900800  1.0  0.1197
  H  H21  1  0.134400  0.204100  0.223500  1.0  0.1094
  H  H22  1  0.152300  0.337500  0.271500  1.0  0.1161
  H  H23  1  0.323700  0.400700  0.967100  1.0  0.1055
  H  H24  1  0.298100  0.270600  0.922400  1.0  0.1036
  H  H25  1  0.219600  0.569200  0.043800  1.0  0.0836
  H  H26  1  0.243200  0.703700  0.084300  1.0  0.1093
  H  H27  1  0.279900  0.686800  0.232600  1.0  0.1151
  H  H28  1  0.284800  0.400800  0.281400  1.0  0.1182
  H  H29  1  0.562000  0.795900  0.776500  1.0  0.1082
  H  H30  1  0.761300  0.662500  0.728500  1.0  0.1161
  H  H31  1  0.691500  0.599300  0.032900  1.0  0.1074
  H  H32  1  0.491100  0.729400  0.077600  1.0  0.1034
  H  H33  1  0.832600  0.430800  0.956200  1.0  0.0836
  H  H34  1  0.031200  0.296300  0.915700  1.0  0.1087
  H  H35  1  0.199300  0.313200  0.767400  1.0  0.1145
  H  H36  1  0.967000  0.599200  0.718600  1.0  0.1193
  C  C37  1  0.590200  0.538400  0.362800  1.0  0.7117
  C  C38  1  0.686200  0.567500  0.280900  1.0  -0.1615
  C  C39  1  0.666000  0.671700  0.256700  1.0  -0.0188
  C  C40  1  0.757800  0.700900  0.175900  1.0  -0.1393
  C  C41  1  0.874700  0.627700  0.115500  1.0  0.0738
  C  C42  1  0.896900  0.519100  0.138300  1.0  -0.1456
  C  C43  1  0.803400  0.492700  0.217500  1.0  -0.03
  C  C44  1  0.977900  0.651500  0.032100  1.0  0.0342
  C  C45  1  0.051900  0.599600  0.939200  1.0  -0.1017
  C  C46  1  0.145000  0.624600  0.856600  1.0  -0.093
  C  C47  1  0.157500  0.711200  0.867600  1.0  -0.0415
  C  C48  1  0.082600  0.765700  0.958700  1.0  -0.1124
  C  C49  1  0.989600  0.739700  0.039900  1.0  -0.1138
  C  C50  1  0.103400  0.859400  0.974600  1.0  0.6886
  C  C51  1  0.491400  0.461600  0.637200  1.0  0.7145
  C  C52  1  0.534600  0.432500  0.719100  1.0  -0.1641
  C  C53  1  0.594400  0.328300  0.743300  1.0  -0.0213
  C  C54  1  0.634600  0.299100  0.824100  1.0  -0.1447
  C  C55  1  0.617900  0.372300  0.884500  1.0  0.0744
  C  C56  1  0.554300  0.480900  0.861700  1.0  -0.1444
  C  C57  1  0.513600  0.507300  0.782500  1.0  -0.0291
  C  C58  1  0.661500  0.348500  0.967900  1.0  0.0348
  C  C59  1  0.590700  0.400400  0.060800  1.0  -0.1019
  C  C60  1  0.626200  0.375400  0.143400  1.0  -0.0915
  C  C61  1  0.736300  0.288800  0.132400  1.0  -0.0449
  C  C62  1  0.807000  0.234300  0.041300  1.0  -0.1126
  C  C63  1  0.769200  0.260300  0.960100  1.0  -0.11
  C  C64  1  0.937400  0.140600  0.025400  1.0  0.69
  C  C65  1  0.203000  0.137200  0.038400  1.0  0.7123
  C  C66  1  0.217100  0.219100  0.067500  1.0  -0.1621
  C  C67  1  0.172700  0.243300  0.171700  1.0  -0.0185
  C  C68  1  0.183700  0.324100  0.200900  1.0  -0.1463
  C  C69  1  0.240200  0.384500  0.127700  1.0  0.0731
  C  C70  1  0.285200  0.361700  0.019100  1.0  -0.1428
  C  C71  1  0.270900  0.282500  0.992700  1.0  -0.0285
  C  C72  1  0.260000  0.467900  0.151500  1.0  0.0334
  C  C73  1  0.241100  0.560800  0.099600  1.0  -0.0996
  C  C74  1  0.251600  0.643400  0.124600  1.0  -0.091
  C  C75  1  0.275100  0.632400  0.211200  1.0  -0.0444
  C  C76  1  0.291300  0.541300  0.265700  1.0  -0.1131
  C  C77  1  0.279500  0.460100  0.239700  1.0  -0.1012
  C  C78  1  0.328000  0.525400  0.359400  1.0  0.6913
  C  C79  1  0.378600  0.862800  0.961600  1.0  0.7129
  C  C80  1  0.503700  0.780900  0.932500  1.0  -0.1603
  C  C81  1  0.587700  0.756700  0.828300  1.0  -0.019
  C  C82  1  0.708700  0.675900  0.799100  1.0  -0.1434
  C  C83  1  0.752400  0.615500  0.872300  1.0  0.0738
  C  C84  1  0.666000  0.638300  0.980900  1.0  -0.1432
  C  C85  1  0.546100  0.717500  0.007300  1.0  -0.0303
  C  C86  1  0.879400  0.532100  0.848500  1.0  0.0341
  C  C87  1  0.901500  0.439200  0.900400  1.0  -0.0992
  C  C88  1  0.019600  0.356600  0.875400  1.0  -0.092
  C  C89  1  0.118700  0.367600  0.788800  1.0  -0.0461
  C  C90  1  0.098300  0.458700  0.734300  1.0  -0.1109
  C  C91  1  0.979300  0.539900  0.760300  1.0  -0.099
  C  C92  1  0.212800  0.474600  0.640600  1.0  0.6899
  O  O93  1  0.591300  0.452200  0.368000  1.0  -0.5752
  O  O94  1  0.497400  0.611700  0.426500  1.0  -0.61
  O  O95  1  0.058000  0.887000  0.064600  1.0  -0.5611
  O  O96  1  0.160500  0.899600  0.894400  1.0  -0.5659
  O  O97  1  0.411500  0.547800  0.632000  1.0  -0.5763
  O  O98  1  0.535600  0.388300  0.573500  1.0  -0.607
  O  O99  1  0.009600  0.113000  0.935400  1.0  -0.5598
  O  O100  1  0.954500  0.100400  0.105600  1.0  -0.5681
  O  O101  1  0.209300  0.132000  0.952200  1.0  -0.576
  O  O102  1  0.173900  0.073500  0.111700  1.0  -0.6086
  O  O103  1  0.372600  0.435400  0.387000  1.0  -0.5636
  O  O104  1  0.304900  0.605600  0.399600  1.0  -0.5682
  O  O105  1  0.293500  0.868000  0.047800  1.0  -0.5745
  O  O106  1  0.359100  0.926500  0.888300  1.0  -0.6108
  O  O107  1  0.195000  0.564600  0.613000  1.0  -0.5628
  O  O108  1  0.310100  0.394400  0.600400  1.0  -0.5641
