# generated using pymatgen
data_CuH8(C7O2)2
_symmetry_space_group_name_H-M   'P 1'
_cell_length_a   14.29700000
_cell_length_b   18.90170000
_cell_length_c   18.90170000
_cell_angle_alpha   66.13100000
_cell_angle_beta   75.39650000
_cell_angle_gamma   104.60300000
_symmetry_Int_Tables_number   1
_chemical_formula_structural   CuH8(C7O2)2
_chemical_formula_sum   'Cu6 H48 C84 O24'
_cell_volume   4142.42964224
_cell_formula_units_Z   6
loop_
 _symmetry_equiv_pos_site_id
 _symmetry_equiv_pos_as_xyz
  1  'x, y, z'
loop_
 _atom_site_type_symbol
 _atom_site_label
 _atom_site_symmetry_multiplicity
 _atom_site_fract_x
 _atom_site_fract_y
 _atom_site_fract_z
 _atom_site_occupancy
 _atom_site_charge
  Cu  Cu1  1  0.551910  0.579970  0.975010  1.0  0.882
  Cu  Cu2  1  0.526920  0.975010  0.445020  1.0  0.878
  Cu  Cu3  1  0.971940  0.445020  0.579970  1.0  0.8827
  Cu  Cu4  1  0.448090  0.420030  0.024990  1.0  0.8802
  Cu  Cu5  1  0.473080  0.024990  0.554980  1.0  0.8789
  Cu  Cu6  1  0.028060  0.554980  0.420030  1.0  0.883
  H  H7  1  0.254700  0.547700  0.610100  1.0  0.1079
  H  H8  1  0.529600  0.748300  0.483700  1.0  0.1098
  H  H9  1  0.496300  0.788200  0.363100  1.0  0.1054
  H  H10  1  0.341100  0.712000  0.366700  1.0  0.1139
  H  H11  1  0.346800  0.493200  0.688200  1.0  0.1108
  H  H12  1  0.380000  0.454400  0.807200  1.0  0.1101
  H  H13  1  0.522100  0.696900  0.736500  1.0  0.0869
  H  H14  1  0.490800  0.736400  0.615800  1.0  0.1093
  H  H15  1  0.864800  0.610100  0.842200  1.0  0.109
  H  H16  1  0.013300  0.483700  0.768000  1.0  0.1111
  H  H17  1  0.859400  0.363100  0.848700  1.0  0.1064
  H  H18  1  0.707800  0.366700  0.921300  1.0  0.1153
  H  H19  1  0.035000  0.688200  0.818600  1.0  0.1117
  H  H20  1  0.187200  0.807200  0.738400  1.0  0.11
  H  H21  1  0.258600  0.736500  0.566600  1.0  0.0869
  H  H22  1  0.106600  0.615800  0.647800  1.0  0.1094
  H  H23  1  0.707000  0.842200  0.547700  1.0  0.109
  H  H24  1  0.781300  0.768000  0.748300  1.0  0.1117
  H  H25  1  0.708100  0.848700  0.788200  1.0  0.1053
  H  H26  1  0.629100  0.921300  0.712000  1.0  0.1156
  H  H27  1  0.853600  0.818600  0.493200  1.0  0.1116
  H  H28  1  0.925600  0.738400  0.454400  1.0  0.1104
  H  H29  1  0.825200  0.566600  0.696900  1.0  0.0873
  H  H30  1  0.754400  0.647800  0.736400  1.0  0.1086
  H  H31  1  0.745300  0.452300  0.389900  1.0  0.108
  H  H32  1  0.470400  0.251700  0.516300  1.0  0.1098
  H  H33  1  0.503700  0.211800  0.636900  1.0  0.1051
  H  H34  1  0.658900  0.288000  0.633300  1.0  0.1145
  H  H35  1  0.653200  0.506800  0.311800  1.0  0.1123
  H  H36  1  0.620000  0.545600  0.192800  1.0  0.1099
  H  H37  1  0.477900  0.303100  0.263500  1.0  0.087
  H  H38  1  0.509200  0.263600  0.384200  1.0  0.1091
  H  H39  1  0.135200  0.389900  0.157800  1.0  0.1088
  H  H40  1  0.986700  0.516300  0.232000  1.0  0.1111
  H  H41  1  0.140600  0.636900  0.151300  1.0  0.1064
  H  H42  1  0.292200  0.633300  0.078700  1.0  0.1154
  H  H43  1  0.965000  0.311800  0.181400  1.0  0.1122
  H  H44  1  0.812800  0.192800  0.261600  1.0  0.1095
  H  H45  1  0.741400  0.263500  0.433400  1.0  0.0868
  H  H46  1  0.893400  0.384200  0.352200  1.0  0.1086
  H  H47  1  0.293000  0.157800  0.452300  1.0  0.1085
  H  H48  1  0.218700  0.232000  0.251700  1.0  0.1102
  H  H49  1  0.291900  0.151300  0.211800  1.0  0.105
  H  H50  1  0.370900  0.078700  0.288000  1.0  0.1147
  H  H51  1  0.146400  0.181400  0.506800  1.0  0.1112
  H  H52  1  0.074400  0.261600  0.545600  1.0  0.1098
  H  H53  1  0.174800  0.433400  0.303100  1.0  0.0879
  H  H54  1  0.245600  0.352200  0.263600  1.0  0.1087
  C  C55  1  0.176880  0.574900  0.493900  1.0  0.6876
  C  C56  1  0.282070  0.623040  0.489150  1.0  -0.1291
  C  C57  1  0.303170  0.597140  0.560540  1.0  -0.0811
  C  C58  1  0.396960  0.644660  0.559160  1.0  0.0321
  C  C59  1  0.467330  0.715870  0.485440  1.0  -0.1019
  C  C60  1  0.446750  0.740340  0.413190  1.0  -0.104
  C  C61  1  0.354890  0.694880  0.415070  1.0  -0.0493
  C  C62  1  0.416400  0.619120  0.637390  1.0  0.0668
  C  C63  1  0.383230  0.534950  0.697130  1.0  -0.1329
  C  C64  1  0.402370  0.511470  0.768690  1.0  -0.0412
  C  C65  1  0.454840  0.572090  0.784700  1.0  -0.1447
  C  C66  1  0.487040  0.655610  0.726620  1.0  -0.0184
  C  C67  1  0.468430  0.679490  0.653960  1.0  -0.1421
  C  C68  1  0.474820  0.546650  0.864050  1.0  0.6837
  C  C69  1  0.670780  0.493900  0.931200  1.0  0.6868
  C  C70  1  0.771220  0.489150  0.887810  1.0  -0.1285
  C  C71  1  0.863710  0.560540  0.842320  1.0  -0.0788
  C  C72  1  0.956120  0.559160  0.796180  1.0  0.0327
  C  C73  1  0.952770  0.485440  0.798690  1.0  -0.1094
  C  C74  1  0.859940  0.413190  0.846470  1.0  -0.1047
  C  C75  1  0.769960  0.415070  0.890050  1.0  -0.0456
  C  C76  1  0.053790  0.637390  0.743490  1.0  0.0685
  C  C77  1  0.080360  0.697130  0.767920  1.0  -0.1361
  C  C78  1  0.171060  0.768690  0.719840  1.0  -0.0486
  C  C79  1  0.239540  0.784700  0.643210  1.0  -0.1391
  C  C80  1  0.213660  0.726620  0.617770  1.0  -0.0179
  C  C81  1  0.122390  0.653960  0.666550  1.0  -0.141
  C  C82  1  0.338870  0.864050  0.589300  1.0  0.6828
  C  C83  1  0.601980  0.931200  0.574900  1.0  0.6876
  C  C84  1  0.659030  0.887810  0.623040  1.0  -0.1248
  C  C85  1  0.706030  0.842320  0.597140  1.0  -0.081
  C  C86  1  0.752300  0.796180  0.644660  1.0  0.0332
  C  C87  1  0.751460  0.798690  0.715870  1.0  -0.1077
  C  C88  1  0.706410  0.846470  0.740340  1.0  -0.1048
  C  C89  1  0.660010  0.890050  0.694880  1.0  -0.0473
  C  C90  1  0.797280  0.743490  0.619120  1.0  0.067
  C  C91  1  0.848280  0.767920  0.534950  1.0  -0.138
  C  C92  1  0.890900  0.719840  0.511470  1.0  -0.0468
  C  C93  1  0.882750  0.643210  0.572090  1.0  -0.1394
  C  C94  1  0.831430  0.617770  0.655610  1.0  -0.0159
  C  C95  1  0.788940  0.666550  0.679490  1.0  -0.1441
  C  C96  1  0.928170  0.589300  0.546650  1.0  0.6826
  C  C97  1  0.823120  0.425100  0.506100  1.0  0.6861
  C  C98  1  0.717930  0.376960  0.510850  1.0  -0.1283
  C  C99  1  0.696830  0.402860  0.439460  1.0  -0.0817
  C  C100  1  0.603040  0.355340  0.440840  1.0  0.033
  C  C101  1  0.532670  0.284130  0.514560  1.0  -0.1069
  C  C102  1  0.553250  0.259660  0.586810  1.0  -0.1067
  C  C103  1  0.645110  0.305120  0.584930  1.0  -0.0472
  C  C104  1  0.583600  0.380880  0.362610  1.0  0.0669
  C  C105  1  0.616770  0.465050  0.302870  1.0  -0.132
  C  C106  1  0.597630  0.488530  0.231310  1.0  -0.0385
  C  C107  1  0.545160  0.427910  0.215300  1.0  -0.1434
  C  C108  1  0.512960  0.344390  0.273380  1.0  -0.0184
  C  C109  1  0.531570  0.320510  0.346040  1.0  -0.1418
  C  C110  1  0.525180  0.453350  0.135950  1.0  0.6834
  C  C111  1  0.329220  0.506100  0.068800  1.0  0.6873
  C  C112  1  0.228780  0.510850  0.112190  1.0  -0.1269
  C  C113  1  0.136290  0.439460  0.157680  1.0  -0.0787
  C  C114  1  0.043880  0.440840  0.203820  1.0  0.0313
  C  C115  1  0.047230  0.514560  0.201310  1.0  -0.1087
  C  C116  1  0.140060  0.586810  0.153530  1.0  -0.1033
  C  C117  1  0.230040  0.584930  0.109950  1.0  -0.0388
  C  C118  1  0.946210  0.362610  0.256510  1.0  0.0698
  C  C119  1  0.919640  0.302870  0.232080  1.0  -0.136
  C  C120  1  0.828940  0.231310  0.280160  1.0  -0.046
  C  C121  1  0.760460  0.215300  0.356790  1.0  -0.1424
  C  C122  1  0.786340  0.273380  0.382230  1.0  -0.0174
  C  C123  1  0.877610  0.346040  0.333450  1.0  -0.1407
  C  C124  1  0.661130  0.135950  0.410700  1.0  0.6825
  C  C125  1  0.398020  0.068800  0.425100  1.0  0.6858
  C  C126  1  0.340970  0.112190  0.376960  1.0  -0.128
  C  C127  1  0.293970  0.157680  0.402860  1.0  -0.082
  C  C128  1  0.247700  0.203820  0.355340  1.0  0.0307
  C  C129  1  0.248540  0.201310  0.284130  1.0  -0.1071
  C  C130  1  0.293590  0.153530  0.259660  1.0  -0.1009
  C  C131  1  0.339990  0.109950  0.305120  1.0  -0.0486
  C  C132  1  0.202720  0.256510  0.380880  1.0  0.0662
  C  C133  1  0.151720  0.232080  0.465050  1.0  -0.1334
  C  C134  1  0.109100  0.280160  0.488530  1.0  -0.0445
  C  C135  1  0.117250  0.356790  0.427910  1.0  -0.1394
  C  C136  1  0.168570  0.382230  0.344390  1.0  -0.0167
  C  C137  1  0.211060  0.333450  0.320510  1.0  -0.1426
  C  C138  1  0.071830  0.410700  0.453350  1.0  0.6813
  O  O139  1  0.113250  0.511880  0.562850  1.0  -0.5613
  O  O140  1  0.161900  0.604360  0.426610  1.0  -0.5681
  O  O141  1  0.437630  0.469240  0.915070  1.0  -0.5705
  O  O142  1  0.524700  0.604450  0.873430  1.0  -0.561
  O  O143  1  0.676100  0.562850  0.925270  1.0  -0.5607
  O  O144  1  0.588510  0.426610  0.969030  1.0  -0.5682
  O  O145  1  0.352700  0.915070  0.615690  1.0  -0.5728
  O  O146  1  0.398130  0.873430  0.522120  1.0  -0.5626
  O  O147  1  0.601370  0.925270  0.511880  1.0  -0.5607
  O  O148  1  0.557540  0.969030  0.604360  1.0  -0.5681
  O  O149  1  0.968390  0.615690  0.469240  1.0  -0.5722
  O  O150  1  0.920250  0.522120  0.604450  1.0  -0.5618
  O  O151  1  0.886750  0.488120  0.437150  1.0  -0.5615
  O  O152  1  0.838100  0.395640  0.573390  1.0  -0.5693
  O  O153  1  0.562370  0.530760  0.084930  1.0  -0.5695
  O  O154  1  0.475300  0.395550  0.126570  1.0  -0.5611
  O  O155  1  0.323900  0.437150  0.074730  1.0  -0.5612
  O  O156  1  0.411490  0.573390  0.030970  1.0  -0.5662
  O  O157  1  0.647300  0.084930  0.384310  1.0  -0.5726
  O  O158  1  0.601870  0.126570  0.477880  1.0  -0.5618
  O  O159  1  0.398630  0.074730  0.488120  1.0  -0.5602
  O  O160  1  0.442460  0.030970  0.395640  1.0  -0.5683
  O  O161  1  0.031610  0.384310  0.530760  1.0  -0.5719
  O  O162  1  0.079750  0.477880  0.395550  1.0  -0.561
