# generated using pymatgen
data_TbH6(C3O5)2
_symmetry_space_group_name_H-M   'P 1'
_cell_length_a   5.99000000
_cell_length_b   7.43500000
_cell_length_c   13.32300000
_cell_angle_alpha   102.89000000
_cell_angle_beta   101.55000000
_cell_angle_gamma   90.85000000
_symmetry_Int_Tables_number   1
_chemical_formula_structural   TbH6(C3O5)2
_chemical_formula_sum   'Tb2 H12 C12 O20'
_cell_volume   565.58303988
_cell_formula_units_Z   2
loop_
 _symmetry_equiv_pos_site_id
 _symmetry_equiv_pos_as_xyz
  1  'x, y, z'
loop_
 _atom_site_type_symbol
 _atom_site_label
 _atom_site_symmetry_multiplicity
 _atom_site_fract_x
 _atom_site_fract_y
 _atom_site_fract_z
 _atom_site_occupancy
 _atom_site_charge
  Tb  Tb1  1  0.237670  0.637590  0.118570  1.0  2.2958
  Tb  Tb2  1  0.199530  0.999850  0.759470  1.0  2.2858
  H  H3  1  0.863100  0.859700  0.383700  1.0  0.1208
  H  H4  1  0.572200  0.919500  0.481400  1.0  0.1095
  H  H5  1  0.726600  0.503500  0.872000  1.0  0.1304
  H  H6  1  0.752400  0.541400  0.712900  1.0  0.1247
  H  H7  1  0.671900  0.219700  0.168600  1.0  0.1224
  H  H8  1  0.696900  0.067300  0.001400  1.0  0.1384
  H  H9  1  0.980300  0.566900  0.445300  1.0  0.4455
  H  H10  1  0.438500  0.687100  0.530000  1.0  0.4405
  H  H11  1  0.591000  0.216300  0.739900  1.0  0.4264
  H  H12  1  0.497500  0.050000  0.674100  1.0  0.4089
  H  H13  1  0.862500  0.841700  0.215000  1.0  0.4493
  H  H14  1  0.947200  0.836200  0.124200  1.0  0.4459
  C  C15  1  0.002000  0.881000  0.541300  1.0  0.6361
  C  C16  1  0.846000  0.789200  0.436000  1.0  0.0877
  C  C17  1  0.601000  0.792000  0.450500  1.0  0.0988
  C  C18  1  0.440000  0.732000  0.343500  1.0  0.632
  C  C19  1  0.057000  0.431700  0.868100  1.0  0.6984
  C  C20  1  0.869000  0.568400  0.870800  1.0  0.0804
  C  C21  1  0.838700  0.638100  0.770800  1.0  0.0462
  C  C22  1  0.706400  0.816600  0.775900  1.0  0.6877
  C  C23  1  0.724400  0.446600  0.108600  1.0  0.6944
  C  C24  1  0.592100  0.274100  0.111900  1.0  0.0448
  C  C25  1  0.554000  0.129300  0.003800  1.0  0.0641
  C  C26  1  0.374000  0.984500  0.005700  1.0  0.6948
  O  O27  1  0.177200  0.798200  0.580000  1.0  -0.6621
  O  O28  1  0.962900  0.036100  0.588500  1.0  -0.6246
  O  O29  1  0.894200  0.601900  0.398400  1.0  -0.5442
  O  O30  1  0.570500  0.683100  0.521600  1.0  -0.5416
  O  O31  1  0.299100  0.603600  0.319000  1.0  -0.6088
  O  O32  1  0.467800  0.830600  0.277100  1.0  -0.658
  O  O33  1  0.036300  0.296000  0.794200  1.0  -0.6306
  O  O34  1  0.230500  0.468200  0.945200  1.0  -0.6192
  O  O35  1  0.933800  0.713700  0.966600  1.0  -0.6173
  O  O36  1  0.055100  0.673800  0.746500  1.0  -0.515
  O  O37  1  0.503900  0.803700  0.782200  1.0  -0.6175
  O  O38  1  0.809900  0.957900  0.769100  1.0  -0.5926
  O  O39  1  0.626500  0.590300  0.110900  1.0  -0.5937
  O  O40  1  0.929000  0.429300  0.106600  1.0  -0.6261
  O  O41  1  0.372800  0.330600  0.131200  1.0  -0.5845
  O  O42  1  0.501900  0.200000  0.915100  1.0  -0.5889
  O  O43  1  0.201300  0.964000  0.931700  1.0  -0.6039
  O  O44  1  0.399300  0.902700  0.079500  1.0  -0.6886
  O  O45  1  0.472800  0.162800  0.696000  1.0  -0.7514
  O  O46  1  0.981600  0.852800  0.190800  1.0  -0.7409
