# generated using pymatgen
data_Zr3H35(C9O2)8
_symmetry_space_group_name_H-M   'P 1'
_cell_length_a   22.07100000
_cell_length_b   22.07100000
_cell_length_c   22.07100000
_cell_angle_alpha   90.00000000
_cell_angle_beta   90.00000000
_cell_angle_gamma   90.00000000
_symmetry_Int_Tables_number   1
_chemical_formula_structural   Zr3H35(C9O2)8
_chemical_formula_sum   'Zr6 H70 C144 O32'
_cell_volume   10751.42506391
_cell_formula_units_Z   2
loop_
 _symmetry_equiv_pos_site_id
 _symmetry_equiv_pos_as_xyz
  1  'x, y, z'
loop_
 _atom_site_type_symbol
 _atom_site_label
 _atom_site_symmetry_multiplicity
 _atom_site_fract_x
 _atom_site_fract_y
 _atom_site_fract_z
 _atom_site_occupancy
 _atom_site_charge
  Zr  Zr1  1  0.000230  0.000230  0.892960  1.0  1.808
  Zr  Zr2  1  0.107320  0.000220  0.000270  1.0  1.8052
  Zr  Zr3  1  0.893020  0.000360  0.999770  1.0  1.8061
  Zr  Zr4  1  0.000290  0.107390  0.000040  1.0  1.8055
  Zr  Zr5  1  0.999960  0.893170  0.000000  1.0  1.8065
  Zr  Zr6  1  0.000090  0.000180  0.107080  1.0  1.8126
  H  H7  1  0.498050  0.000290  0.287230  1.0  0.1482
  H  H8  1  0.401450  0.011330  0.454790  1.0  0.1122
  H  H9  1  0.597410  0.990340  0.452700  1.0  0.114
  H  H10  1  0.598870  0.011450  0.545280  1.0  0.1141
  H  H11  1  0.502280  0.000400  0.712850  1.0  0.1453
  H  H12  1  0.402940  0.990250  0.547390  1.0  0.1143
  H  H13  1  0.285800  0.500070  0.000140  1.0  0.145
  H  H14  1  0.453030  0.402980  0.009990  1.0  0.118
  H  H15  1  0.451910  0.599080  0.990590  1.0  0.1186
  H  H16  1  0.544800  0.599880  0.009880  1.0  0.1197
  H  H17  1  0.711800  0.502230  0.999900  1.0  0.1504
  H  H18  1  0.545820  0.403690  0.990460  1.0  0.1158
  H  H19  1  0.000320  0.284740  0.500050  1.0  0.1446
  H  H20  1  0.010680  0.451440  0.402070  1.0  0.1146
  H  H21  1  0.989760  0.451450  0.597970  1.0  0.1124
  H  H22  1  0.010840  0.544050  0.598010  1.0  0.1158
  H  H23  1  0.000060  0.710370  0.499990  1.0  0.153
  H  H24  1  0.989500  0.544020  0.402000  1.0  0.1163
  H  H25  1  0.080970  0.080840  0.919470  1.0  0.3516
  H  H26  1  0.919440  0.919660  0.919160  1.0  0.3529
  H  H27  1  0.919520  0.080910  0.080590  1.0  0.3519
  H  H28  1  0.080650  0.919470  0.080770  1.0  0.3541
  H  H29  1  0.222670  0.995420  0.335190  1.0  0.1506
  H  H30  1  0.136220  0.994100  0.264030  1.0  0.1247
  H  H31  1  0.261100  0.018690  0.115180  1.0  0.1201
  H  H32  1  0.345630  0.019820  0.185810  1.0  0.1338
  H  H33  1  0.655580  0.971940  0.184120  1.0  0.1346
  H  H34  1  0.740820  0.972650  0.114320  1.0  0.1168
  H  H35  1  0.862540  0.013110  0.262350  1.0  0.1259
  H  H36  1  0.775430  0.012050  0.332670  1.0  0.1439
  H  H37  1  0.654840  0.021400  0.814130  1.0  0.1337
  H  H38  1  0.739410  0.020350  0.884750  1.0  0.1201
  H  H39  1  0.864020  0.993400  0.736090  1.0  0.1253
  H  H40  1  0.777550  0.994650  0.664960  1.0  0.1483
  H  H41  1  0.344690  0.971460  0.815870  1.0  0.1334
  H  H42  1  0.259440  0.972110  0.885670  1.0  0.1197
  H  H43  1  0.137820  0.013270  0.737740  1.0  0.1255
  H  H44  1  0.224940  0.012270  0.667430  1.0  0.1424
  H  H45  1  0.184600  0.346130  0.021560  1.0  0.1347
  H  H46  1  0.114630  0.261050  0.020830  1.0  0.121
  H  H47  1  0.263930  0.137630  0.992050  1.0  0.1235
  H  H48  1  0.334440  0.224660  0.993020  1.0  0.1522
  H  H49  1  0.333500  0.775370  0.009520  1.0  0.1497
  H  H50  1  0.263200  0.862540  0.010420  1.0  0.1257
  H  H51  1  0.114240  0.739980  0.976520  1.0  0.1229
  H  H52  1  0.184020  0.654730  0.975910  1.0  0.1324
  H  H53  1  0.814240  0.654600  0.017570  1.0  0.1332
  H  H54  1  0.884980  0.739070  0.016620  1.0  0.1229
  H  H55  1  0.736040  0.864340  0.994720  1.0  0.1249
  H  H56  1  0.664800  0.777970  0.995830  1.0  0.1516
  H  H57  1  0.666280  0.224160  0.007300  1.0  0.1532
  H  H58  1  0.736930  0.137310  0.008300  1.0  0.1256
  H  H59  1  0.885940  0.260930  0.978680  1.0  0.1221
  H  H60  1  0.815800  0.345870  0.977940  1.0  0.1352
  H  H61  1  0.026650  0.184100  0.345180  1.0  0.1307
  H  H62  1  0.025880  0.114450  0.259840  1.0  0.1212
  H  H63  1  0.988670  0.263160  0.137930  1.0  0.1249
  H  H64  1  0.989770  0.333350  0.225200  1.0  0.1538
  H  H65  1  0.973710  0.184190  0.654940  1.0  0.131
  H  H66  1  0.974460  0.114560  0.740290  1.0  0.1206
  H  H67  1  0.012090  0.263200  0.862140  1.0  0.1256
  H  H68  1  0.011010  0.333390  0.774870  1.0  0.153
  H  H69  1  0.021770  0.814460  0.654990  1.0  0.1303
  H  H70  1  0.020730  0.885250  0.739420  1.0  0.122
  H  H71  1  0.992800  0.736870  0.864210  1.0  0.1231
  H  H72  1  0.994060  0.665600  0.777900  1.0  0.1513
  H  H73  1  0.006420  0.665600  0.222130  1.0  0.1537
  H  H74  1  0.007640  0.736860  0.135820  1.0  0.1233
  H  H75  1  0.978860  0.885150  0.260510  1.0  0.1235
  H  H76  1  0.977870  0.814370  0.344950  1.0  0.1297
  C  C77  1  0.498260  0.000480  0.336400  1.0  -0.1218
  C  C78  1  0.443370  0.004340  0.368270  1.0  0.1535
  C  C79  1  0.444380  0.005850  0.432140  1.0  -0.1128
  C  C80  1  0.499630  0.000890  0.465370  1.0  -0.0549
  C  C81  1  0.553960  0.995720  0.431080  1.0  -0.0827
  C  C82  1  0.553580  0.996810  0.367410  1.0  0.0524
  C  C83  1  0.500710  0.000900  0.534710  1.0  -0.0555
  C  C84  1  0.555950  0.005930  0.567940  1.0  -0.1148
  C  C85  1  0.556950  0.004450  0.631820  1.0  0.1436
  C  C86  1  0.502070  0.000560  0.663680  1.0  -0.1204
  C  C87  1  0.446750  0.996820  0.632670  1.0  0.0481
  C  C88  1  0.446380  0.995690  0.569000  1.0  -0.0816
  C  C89  1  0.334990  0.500320  0.000190  1.0  -0.115
  C  C90  1  0.366710  0.445280  0.003660  1.0  0.1306
  C  C91  1  0.430580  0.446050  0.004930  1.0  -0.1154
  C  C92  1  0.464090  0.501150  0.000290  1.0  -0.0531
  C  C93  1  0.429960  0.555740  0.995610  1.0  -0.1218
  C  C94  1  0.366140  0.555690  0.996780  1.0  0.1282
  C  C95  1  0.533560  0.501700  0.000220  1.0  -0.0593
  C  C96  1  0.567170  0.556760  0.004820  1.0  -0.1154
  C  C97  1  0.631070  0.557370  0.003500  1.0  0.1521
  C  C98  1  0.662630  0.502270  0.999990  1.0  -0.1185
  C  C99  1  0.631370  0.447050  0.996580  1.0  0.0556
  C  C100  1  0.567630  0.447080  0.995480  1.0  -0.0805
  C  C101  1  0.000290  0.333930  0.500040  1.0  -0.1174
  C  C102  1  0.003990  0.365390  0.444880  1.0  0.1244
  C  C103  1  0.005270  0.429190  0.445230  1.0  -0.1159
  C  C104  1  0.000220  0.462940  0.500020  1.0  -0.0584
  C  C105  1  0.995200  0.429200  0.554820  1.0  -0.1173
  C  C106  1  0.996560  0.365410  0.555190  1.0  0.1266
  C  C107  1  0.000180  0.532280  0.500010  1.0  -0.0529
  C  C108  1  0.005320  0.566070  0.554790  1.0  -0.0809
  C  C109  1  0.003980  0.629820  0.555050  1.0  0.0561
  C  C110  1  0.000090  0.661230  0.500000  1.0  -0.0708
  C  C111  1  0.996240  0.629810  0.444950  1.0  0.052
  C  C112  1  0.994990  0.566050  0.445230  1.0  -0.0813
  C  C113  1  0.860050  0.003890  0.862010  1.0  0.6951
  C  C114  1  0.140400  0.996300  0.862740  1.0  0.7039
  C  C115  1  0.996690  0.137800  0.859740  1.0  0.6945
  C  C116  1  0.003720  0.862540  0.859940  1.0  0.691
  C  C117  1  0.140290  0.003530  0.138020  1.0  0.6942
  C  C118  1  0.859930  0.996480  0.137310  1.0  0.7001
  C  C119  1  0.137960  0.140640  0.003550  1.0  0.691
  C  C120  1  0.137590  0.859860  0.996600  1.0  0.6954
  C  C121  1  0.862140  0.860120  0.003080  1.0  0.6945
  C  C122  1  0.862670  0.140650  0.996460  1.0  0.6939
  C  C123  1  0.003850  0.137740  0.140350  1.0  0.6927
  C  C124  1  0.996320  0.862490  0.140050  1.0  0.6879
  C  C125  1  0.290740  0.007680  0.265760  1.0  -0.0149
  C  C126  1  0.231040  0.000700  0.287130  1.0  -0.1
  C  C127  1  0.181610  0.999980  0.246380  1.0  -0.0699
  C  C128  1  0.191090  0.005970  0.183440  1.0  -0.1047
  C  C129  1  0.251280  0.013540  0.162960  1.0  -0.0677
  C  C130  1  0.300130  0.014350  0.203440  1.0  -0.0935
  C  C131  1  0.343220  0.007010  0.306180  1.0  -0.0448
  C  C132  1  0.389360  0.006120  0.336590  1.0  -0.0231
  C  C133  1  0.708990  0.992050  0.263460  1.0  0.0019
  C  C134  1  0.700560  0.980750  0.201720  1.0  -0.0914
  C  C135  1  0.749730  0.981380  0.161770  1.0  -0.0874
  C  C136  1  0.809130  0.993420  0.182330  1.0  -0.1155
  C  C137  1  0.817720  0.003690  0.244780  1.0  -0.0804
  C  C138  1  0.767960  0.003190  0.284990  1.0  -0.1016
  C  C139  1  0.656240  0.993320  0.303150  1.0  -0.0858
  C  C140  1  0.610180  0.994590  0.333400  1.0  -0.0811
  C  C141  1  0.709600  0.008070  0.734290  1.0  -0.0059
  C  C142  1  0.700300  0.015440  0.796550  1.0  -0.0897
  C  C143  1  0.749150  0.014670  0.837010  1.0  -0.0721
  C  C144  1  0.809270  0.006440  0.816590  1.0  -0.099
  C  C145  1  0.818690  0.999810  0.753700  1.0  -0.0684
  C  C146  1  0.769240  0.000480  0.712960  1.0  -0.1012
  C  C147  1  0.657100  0.007290  0.693900  1.0  -0.0447
  C  C148  1  0.610960  0.006310  0.663490  1.0  -0.0155
  C  C149  1  0.291340  0.991920  0.736590  1.0  -0.0039
  C  C150  1  0.299730  0.980400  0.798300  1.0  -0.0936
  C  C151  1  0.250550  0.981000  0.838240  1.0  -0.0811
  C  C152  1  0.191190  0.993220  0.817710  1.0  -0.1101
  C  C153  1  0.182620  0.003700  0.755280  1.0  -0.0787
  C  C154  1  0.232390  0.003230  0.715080  1.0  -0.0994
  C  C155  1  0.344090  0.993250  0.696920  1.0  -0.0947
  C  C156  1  0.390150  0.994550  0.666670  1.0  -0.0862
  C  C157  1  0.264740  0.292080  0.007280  1.0  0.0027
  C  C158  1  0.202480  0.300840  0.015250  1.0  -0.0985
  C  C159  1  0.162390  0.251660  0.014670  1.0  -0.0739
  C  C160  1  0.183150  0.191700  0.006020  1.0  -0.1053
  C  C161  1  0.246050  0.182810  0.998810  1.0  -0.0771
  C  C162  1  0.286430  0.232590  0.999300  1.0  -0.1023
  C  C163  1  0.304760  0.344930  0.006390  1.0  -0.0473
  C  C164  1  0.334960  0.391240  0.005400  1.0  -0.0272
  C  C165  1  0.263910  0.708430  0.992760  1.0  -0.0034
  C  C166  1  0.285610  0.767690  0.002090  1.0  -0.0968
  C  C167  1  0.245380  0.817520  0.002530  1.0  -0.0695
  C  C168  1  0.182650  0.808840  0.993930  1.0  -0.1063
  C  C169  1  0.161880  0.749120  0.983830  1.0  -0.0817
  C  C170  1  0.201850  0.699880  0.983300  1.0  -0.0958
  C  C171  1  0.303740  0.655570  0.993840  1.0  -0.0343
  C  C172  1  0.333990  0.609380  0.994940  1.0  0.0234
  C  C173  1  0.734230  0.709670  0.006740  1.0  -0.003
  C  C174  1  0.796620  0.700170  0.012710  1.0  -0.0975
  C  C175  1  0.837160  0.748990  0.012030  1.0  -0.0662
  C  C176  1  0.816700  0.809290  0.005290  1.0  -0.0973
  C  C177  1  0.753710  0.818880  0.999950  1.0  -0.0689
  C  C178  1  0.712900  0.769480  0.000560  1.0  -0.1001
  C  C179  1  0.693670  0.657260  0.006080  1.0  -0.0435
  C  C180  1  0.663060  0.611230  0.005200  1.0  -0.0195
  C  C181  1  0.735870  0.291590  0.992630  1.0  0.0067
  C  C182  1  0.714260  0.232150  0.000840  1.0  -0.1054
  C  C183  1  0.754700  0.182500  0.001340  1.0  -0.0753
  C  C184  1  0.817530  0.191570  0.993930  1.0  -0.1088
  C  C185  1  0.838220  0.251500  0.985020  1.0  -0.0841
  C  C186  1  0.798050  0.300550  0.984420  1.0  -0.0954
  C  C187  1  0.695780  0.344220  0.993580  1.0  -0.0765
  C  C188  1  0.665330  0.390250  0.994620  1.0  -0.1202
  C  C189  1  0.008180  0.263850  0.291800  1.0  0.0053
  C  C190  1  0.018530  0.201900  0.300150  1.0  -0.0942
  C  C191  1  0.017870  0.162020  0.250880  1.0  -0.0899
  C  C192  1  0.006760  0.182760  0.191340  1.0  -0.1037
  C  C193  1  0.997360  0.245390  0.182820  1.0  -0.0821
  C  C194  1  0.997900  0.285550  0.232700  1.0  -0.111
  C  C195  1  0.007070  0.303510  0.344740  1.0  -0.055
  C  C196  1  0.005930  0.333560  0.391040  1.0  -0.0099
  C  C197  1  0.992390  0.263910  0.708300  1.0  0.0044
  C  C198  1  0.981930  0.201990  0.699960  1.0  -0.0921
  C  C199  1  0.982570  0.162110  0.749240  1.0  -0.0835
  C  C200  1  0.993790  0.182830  0.808770  1.0  -0.1041
  C  C201  1  0.003320  0.245440  0.817270  1.0  -0.0847
  C  C202  1  0.002790  0.285600  0.767380  1.0  -0.1092
  C  C203  1  0.993510  0.303560  0.655350  1.0  -0.0617
  C  C204  1  0.994640  0.333590  0.609040  1.0  -0.0188
  C  C205  1  0.007950  0.734830  0.709950  1.0  0.0025
  C  C206  1  0.015600  0.797010  0.700460  1.0  -0.09
  C  C207  1  0.014830  0.837540  0.749210  1.0  -0.0804
  C  C208  1  0.006320  0.817180  0.809290  1.0  -0.1038
  C  C209  1  0.999430  0.754370  0.818860  1.0  -0.0745
  C  C210  1  0.000110  0.713580  0.769550  1.0  -0.104
  C  C211  1  0.007110  0.694370  0.657680  1.0  -0.0672
  C  C212  1  0.006070  0.663710  0.611830  1.0  -0.126
  C  C213  1  0.992110  0.734790  0.290040  1.0  0.0057
  C  C214  1  0.000170  0.713550  0.230460  1.0  -0.1056
  C  C215  1  0.000810  0.754340  0.181140  1.0  -0.0726
  C  C216  1  0.993690  0.817120  0.190690  1.0  -0.1064
  C  C217  1  0.984950  0.837460  0.250740  1.0  -0.0872
  C  C218  1  0.984210  0.796940  0.299490  1.0  -0.0919
  C  C219  1  0.993020  0.694340  0.342310  1.0  -0.0818
  C  C220  1  0.994100  0.663680  0.388170  1.0  -0.131
  O  O221  1  0.843500  0.002750  0.918380  1.0  -0.6066
  O  O222  1  0.156860  0.997630  0.919100  1.0  -0.5914
  O  O223  1  0.997980  0.081410  0.843340  1.0  -0.5988
  O  O224  1  0.002580  0.918910  0.843400  1.0  -0.5989
  O  O225  1  0.002230  0.843990  0.916180  1.0  -0.5926
  O  O226  1  0.998170  0.156480  0.915980  1.0  -0.5938
  O  O227  1  0.084210  0.997940  0.844010  1.0  -0.5897
  O  O228  1  0.916370  0.002420  0.843560  1.0  -0.591
  O  O229  1  0.055090  0.945320  0.945230  1.0  -0.9307
  O  O230  1  0.945310  0.055310  0.944980  1.0  -0.9298
  O  O231  1  0.055080  0.055000  0.945330  1.0  -0.8385
  O  O232  1  0.945290  0.945480  0.945090  1.0  -0.8389
  O  O233  1  0.156840  0.002390  0.081640  1.0  -0.6051
  O  O234  1  0.843470  0.997850  0.080950  1.0  -0.5922
  O  O235  1  0.081550  0.157050  0.002290  1.0  -0.6054
  O  O236  1  0.081170  0.843510  0.997710  1.0  -0.6026
  O  O237  1  0.918540  0.843620  0.002060  1.0  -0.6051
  O  O238  1  0.919070  0.157050  0.997750  1.0  -0.6057
  O  O239  1  0.002460  0.081340  0.156740  1.0  -0.598
  O  O240  1  0.997630  0.918860  0.156610  1.0  -0.5983
  O  O241  1  0.002430  0.156440  0.084120  1.0  -0.5955
  O  O242  1  0.997690  0.843970  0.083800  1.0  -0.5943
  O  O243  1  0.156540  0.084320  0.002290  1.0  -0.5863
  O  O244  1  0.843990  0.084410  0.997740  1.0  -0.5874
  O  O245  1  0.843670  0.916440  0.001740  1.0  -0.5854
  O  O246  1  0.156320  0.916100  0.998150  1.0  -0.5855
  O  O247  1  0.083970  0.002190  0.156460  1.0  -0.5899
  O  O248  1  0.916110  0.998020  0.156040  1.0  -0.5888
  O  O249  1  0.945030  0.945360  0.054850  1.0  -0.9234
  O  O250  1  0.055150  0.055220  0.055110  1.0  -0.9293
  O  O251  1  0.945370  0.055050  0.054710  1.0  -0.8392
  O  O252  1  0.054860  0.945360  0.054870  1.0  -0.838
