# generated using pymatgen
data_Zr3H35(C39O8)2
_symmetry_space_group_name_H-M   'P 1'
_cell_length_a   21.98300000
_cell_length_b   21.98300000
_cell_length_c   21.98300000
_cell_angle_alpha   90.00000000
_cell_angle_beta   90.00000000
_cell_angle_gamma   90.00000000
_symmetry_Int_Tables_number   1
_chemical_formula_structural   Zr3H35(C39O8)2
_chemical_formula_sum   'Zr6 H70 C156 O32'
_cell_volume   10623.33506909
_cell_formula_units_Z   2
loop_
 _symmetry_equiv_pos_site_id
 _symmetry_equiv_pos_as_xyz
  1  'x, y, z'
loop_
 _atom_site_type_symbol
 _atom_site_label
 _atom_site_symmetry_multiplicity
 _atom_site_fract_x
 _atom_site_fract_y
 _atom_site_fract_z
 _atom_site_occupancy
 _atom_site_charge
  Zr  Zr1  1  0.000100  0.999740  0.892580  1.0  1.8047
  Zr  Zr2  1  0.105550  0.000250  0.000200  1.0  1.8075
  Zr  Zr3  1  0.894430  0.999810  0.999830  1.0  1.8084
  Zr  Zr4  1  0.999860  0.109240  0.999950  1.0  1.803
  Zr  Zr5  1  0.000100  0.890740  0.000180  1.0  1.7977
  Zr  Zr6  1  0.999920  0.000170  0.107520  1.0  1.8105
  H  H7  1  0.655900  0.000430  0.552510  1.0  0.1091
  H  H8  1  0.655200  0.999980  0.443230  1.0  0.1078
  H  H9  1  0.347150  0.000010  0.554460  1.0  0.113
  H  H10  1  0.346310  0.000610  0.445170  1.0  0.1084
  H  H11  1  0.501970  0.000020  0.708790  1.0  0.1351
  H  H12  1  0.499770  0.000310  0.288600  1.0  0.1342
  H  H13  1  0.344090  0.447530  0.000610  1.0  0.1083
  H  H14  1  0.344810  0.556830  0.000180  1.0  0.1103
  H  H15  1  0.652830  0.445500  0.999950  1.0  0.1179
  H  H16  1  0.653700  0.554810  0.000570  1.0  0.108
  H  H17  1  0.497980  0.291260  0.000050  1.0  0.1365
  H  H18  1  0.500280  0.711360  0.000420  1.0  0.1368
  H  H19  1  0.000360  0.445190  0.346350  1.0  0.1102
  H  H20  1  0.000020  0.554440  0.347220  1.0  0.1119
  H  H21  1  0.000070  0.443140  0.655240  1.0  0.1098
  H  H22  1  0.000700  0.552390  0.655980  1.0  0.112
  H  H23  1  0.999910  0.288650  0.499750  1.0  0.1408
  H  H24  1  0.000460  0.708640  0.502090  1.0  0.1399
  H  H25  1  0.080620  0.081130  0.919080  1.0  0.3561
  H  H26  1  0.919430  0.918550  0.919090  1.0  0.3559
  H  H27  1  0.919100  0.081090  0.080770  1.0  0.3541
  H  H28  1  0.080730  0.919120  0.081160  1.0  0.3544
  H  H29  1  0.224840  0.988490  0.334490  1.0  0.1376
  H  H30  1  0.137380  0.989170  0.263920  1.0  0.1229
  H  H31  1  0.260920  0.021600  0.114400  1.0  0.1173
  H  H32  1  0.346560  0.020610  0.184520  1.0  0.131
  H  H33  1  0.653480  0.978390  0.183650  1.0  0.1322
  H  H34  1  0.739270  0.977260  0.113730  1.0  0.1146
  H  H35  1  0.862240  0.012280  0.263170  1.0  0.1235
  H  H36  1  0.774640  0.013070  0.333520  1.0  0.1364
  H  H37  1  0.777240  0.990910  0.664460  1.0  0.1392
  H  H38  1  0.864010  0.991380  0.735800  1.0  0.123
  H  H39  1  0.738610  0.017220  0.885060  1.0  0.1178
  H  H40  1  0.653600  0.016510  0.814110  1.0  0.1321
  H  H41  1  0.224470  0.011620  0.666120  1.0  0.1369
  H  H42  1  0.137150  0.010920  0.736770  1.0  0.122
  H  H43  1  0.260920  0.978800  0.886210  1.0  0.1149
  H  H44  1  0.346460  0.979800  0.815960  1.0  0.1334
  H  H45  1  0.223250  0.335590  0.989810  1.0  0.1434
  H  H46  1  0.136430  0.264420  0.990340  1.0  0.1187
  H  H47  1  0.261300  0.115200  0.018890  1.0  0.1171
  H  H48  1  0.346460  0.186050  0.018080  1.0  0.1321
  H  H49  1  0.346910  0.816600  0.979540  1.0  0.1323
  H  H50  1  0.261010  0.886450  0.978490  1.0  0.1154
  H  H51  1  0.138160  0.736580  0.012100  1.0  0.1193
  H  H52  1  0.225780  0.666370  0.012800  1.0  0.1388
  H  H53  1  0.774800  0.665350  0.988730  1.0  0.1381
  H  H54  1  0.862280  0.735780  0.989290  1.0  0.1188
  H  H55  1  0.738920  0.885650  0.020860  1.0  0.1144
  H  H56  1  0.653170  0.815580  0.019990  1.0  0.1327
  H  H57  1  0.774910  0.333820  0.012780  1.0  0.1432
  H  H58  1  0.862290  0.263360  0.012020  1.0  0.1202
  H  H59  1  0.739110  0.114010  0.977260  1.0  0.1156
  H  H60  1  0.653400  0.184150  0.978370  1.0  0.13
  H  H61  1  0.985960  0.334790  0.225370  1.0  0.1406
  H  H62  1  0.986640  0.264220  0.137940  1.0  0.1197
  H  H63  1  0.023310  0.115320  0.261100  1.0  0.1178
  H  H64  1  0.022240  0.185430  0.346690  1.0  0.1277
  H  H65  1  0.975460  0.184530  0.653470  1.0  0.1272
  H  H66  1  0.974180  0.114660  0.739270  1.0  0.1172
  H  H67  1  0.014390  0.263320  0.861630  1.0  0.1218
  H  H68  1  0.015230  0.333640  0.774040  1.0  0.1409
  H  H69  1  0.019920  0.813080  0.653600  1.0  0.1275
  H  H70  1  0.020870  0.884010  0.738570  1.0  0.1181
  H  H71  1  0.989730  0.735380  0.863570  1.0  0.1199
  H  H72  1  0.989100  0.664060  0.776820  1.0  0.1409
  H  H73  1  0.014460  0.665870  0.225180  1.0  0.1423
  H  H74  1  0.013610  0.736490  0.137860  1.0  0.1187
  H  H75  1  0.975700  0.885100  0.261040  1.0  0.1185
  H  H76  1  0.976960  0.814890  0.346570  1.0  0.1262
  C  C77  1  0.557770  0.000580  0.628070  1.0  0.0056
  C  C78  1  0.501990  0.000100  0.659410  1.0  -0.0831
  C  C79  1  0.446090  0.999690  0.628430  1.0  -0.0584
  C  C80  1  0.445540  0.000020  0.563920  1.0  0.0204
  C  C81  1  0.501380  0.000240  0.531240  1.0  -0.0056
  C  C82  1  0.557640  0.000400  0.563370  1.0  0.0098
  C  C83  1  0.612170  0.000360  0.529840  1.0  -0.094
  C  C84  1  0.611740  0.000080  0.466400  1.0  -0.1057
  C  C85  1  0.556750  0.000060  0.433510  1.0  0.0213
  C  C86  1  0.500900  0.000290  0.466220  1.0  0.0077
  C  C87  1  0.390550  0.000120  0.531200  1.0  -0.1043
  C  C88  1  0.390070  0.000480  0.467770  1.0  -0.1023
  C  C89  1  0.444590  0.000530  0.434170  1.0  0.0103
  C  C90  1  0.444320  0.000800  0.369490  1.0  0.0197
  C  C91  1  0.500040  0.000310  0.338020  1.0  -0.0739
  C  C92  1  0.556100  0.999810  0.368880  1.0  0.0408
  C  C93  1  0.442240  0.372000  0.000670  1.0  0.0129
  C  C94  1  0.497960  0.340650  0.000140  1.0  -0.084
  C  C95  1  0.553830  0.371610  0.999700  1.0  -0.0528
  C  C96  1  0.554430  0.436100  0.000040  1.0  0.0156
  C  C97  1  0.498620  0.468790  0.000310  1.0  -0.006
  C  C98  1  0.442350  0.436680  0.000500  1.0  0.0063
  C  C99  1  0.387810  0.470200  0.000510  1.0  -0.1009
  C  C100  1  0.388260  0.533630  0.000250  1.0  -0.1068
  C  C101  1  0.443270  0.566490  0.000190  1.0  0.0154
  C  C102  1  0.499100  0.533770  0.000360  1.0  -0.018
  C  C103  1  0.609440  0.468790  0.000100  1.0  -0.1074
  C  C104  1  0.609940  0.532200  0.000470  1.0  -0.1013
  C  C105  1  0.555420  0.565800  0.000570  1.0  0.0208
  C  C106  1  0.555660  0.630450  0.000850  1.0  0.0305
  C  C107  1  0.500000  0.661940  0.000420  1.0  -0.0848
  C  C108  1  0.443970  0.631100  0.999960  1.0  0.0374
  C  C109  1  0.000480  0.369590  0.444420  1.0  0.0314
  C  C110  1  0.000010  0.338070  0.500040  1.0  -0.0834
  C  C111  1  0.999660  0.368930  0.556050  1.0  0.0315
  C  C112  1  0.000030  0.433510  0.556760  1.0  0.0255
  C  C113  1  0.000250  0.466210  0.500950  1.0  -0.0009
  C  C114  1  0.000360  0.434210  0.444650  1.0  0.0193
  C  C115  1  0.000330  0.467780  0.390120  1.0  -0.0999
  C  C116  1  0.000120  0.531160  0.390620  1.0  -0.0984
  C  C117  1  0.000140  0.563810  0.445640  1.0  0.0256
  C  C118  1  0.000340  0.531150  0.501440  1.0  0.0038
  C  C119  1  0.000170  0.466330  0.611790  1.0  -0.1047
  C  C120  1  0.000550  0.529730  0.612240  1.0  -0.1084
  C  C121  1  0.000610  0.563230  0.557690  1.0  0.0236
  C  C122  1  0.000900  0.627860  0.557790  1.0  0.0204
  C  C123  1  0.000450  0.659250  0.502100  1.0  -0.0799
  C  C124  1  0.999960  0.628260  0.446260  1.0  -0.0428
  C  C125  1  0.859930  0.002530  0.861860  1.0  0.677
  C  C126  1  0.140310  0.996920  0.862460  1.0  0.6819
  C  C127  1  0.996580  0.138170  0.859090  1.0  0.6626
  C  C128  1  0.003400  0.861080  0.859490  1.0  0.6632
  C  C129  1  0.140240  0.003350  0.138040  1.0  0.6791
  C  C130  1  0.859620  0.996880  0.137570  1.0  0.6775
  C  C131  1  0.140150  0.138660  0.002930  1.0  0.6691
  C  C132  1  0.140580  0.862090  0.997230  1.0  0.6651
  C  C133  1  0.859630  0.861550  0.003140  1.0  0.6658
  C  C134  1  0.859510  0.138000  0.996620  1.0  0.6639
  C  C135  1  0.002890  0.138690  0.140820  1.0  0.673
  C  C136  1  0.996770  0.861720  0.140930  1.0  0.669
  C  C137  1  0.292300  0.004290  0.264650  1.0  -0.0059
  C  C138  1  0.232690  0.995870  0.286420  1.0  -0.1022
  C  C139  1  0.182700  0.996390  0.246030  1.0  -0.0692
  C  C140  1  0.191580  0.005120  0.183100  1.0  -0.1007
  C  C141  1  0.251670  0.014270  0.162220  1.0  -0.0661
  C  C142  1  0.301110  0.013830  0.202360  1.0  -0.1005
  C  C143  1  0.345120  0.002750  0.304870  1.0  -0.0904
  C  C144  1  0.391020  0.001730  0.335920  1.0  0.0652
  C  C145  1  0.707520  0.996020  0.263640  1.0  -0.0084
  C  C146  1  0.698850  0.985700  0.201490  1.0  -0.0952
  C  C147  1  0.748340  0.985180  0.161500  1.0  -0.0811
  C  C148  1  0.808280  0.995050  0.182460  1.0  -0.1072
  C  C149  1  0.817010  0.004500  0.245280  1.0  -0.0664
  C  C150  1  0.766970  0.005090  0.285510  1.0  -0.1036
  C  C151  1  0.654740  0.997700  0.303690  1.0  -0.0821
  C  C152  1  0.608990  0.998820  0.334830  1.0  0.085
  C  C153  1  0.708890  0.003500  0.734080  1.0  -0.0035
  C  C154  1  0.768820  0.996780  0.712650  1.0  -0.1052
  C  C155  1  0.818410  0.997150  0.753480  1.0  -0.0676
  C  C156  1  0.808830  0.004060  0.816550  1.0  -0.1015
  C  C157  1  0.748390  0.011390  0.837140  1.0  -0.0607
  C  C158  1  0.699340  0.011090  0.796530  1.0  -0.0959
  C  C159  1  0.656530  0.002240  0.693300  1.0  -0.0947
  C  C160  1  0.610920  0.001370  0.661850  1.0  0.0473
  C  C161  1  0.291960  0.995980  0.735960  1.0  -0.0034
  C  C162  1  0.232370  0.004300  0.714190  1.0  -0.0977
  C  C163  1  0.182500  0.003770  0.754600  1.0  -0.0775
  C  C164  1  0.191550  0.995130  0.817500  1.0  -0.1087
  C  C165  1  0.251630  0.986050  0.838380  1.0  -0.0866
  C  C166  1  0.300960  0.986510  0.798210  1.0  -0.0948
  C  C167  1  0.344540  0.997570  0.695700  1.0  -0.1166
  C  C168  1  0.390150  0.998660  0.664420  1.0  0.094
  C  C169  1  0.291340  0.265990  0.003750  1.0  0.0023
  C  C170  1  0.231550  0.287460  0.996300  1.0  -0.108
  C  C171  1  0.181940  0.246720  0.996720  1.0  -0.0706
  C  C172  1  0.191380  0.183730  0.004420  1.0  -0.1006
  C  C173  1  0.251680  0.163080  0.012460  1.0  -0.0619
  C  C174  1  0.300790  0.203610  0.012110  1.0  -0.0963
  C  C175  1  0.343650  0.306720  0.002420  1.0  -0.0813
  C  C176  1  0.389170  0.338210  0.001500  1.0  0.0643
  C  C177  1  0.292840  0.736450  0.996420  1.0  0.0045
  C  C178  1  0.301530  0.798680  0.986550  1.0  -0.0992
  C  C179  1  0.252000  0.838620  0.986080  1.0  -0.0692
  C  C180  1  0.192080  0.817470  0.995530  1.0  -0.1052
  C  C181  1  0.183380  0.754590  0.004610  1.0  -0.0733
  C  C182  1  0.233420  0.714440  0.005160  1.0  -0.1097
  C  C183  1  0.345530  0.696400  0.997980  1.0  -0.0831
  C  C184  1  0.391170  0.665190  0.999020  1.0  0.0854
  C  C185  1  0.707430  0.735350  0.004140  1.0  0.0071
  C  C186  1  0.766990  0.713460  0.995900  1.0  -0.1109
  C  C187  1  0.816980  0.753770  0.996360  1.0  -0.0738
  C  C188  1  0.808150  0.816740  0.004850  1.0  -0.1027
  C  C189  1  0.748090  0.837770  0.013760  1.0  -0.0636
  C  C190  1  0.698630  0.797680  0.013380  1.0  -0.0959
  C  C191  1  0.654700  0.695140  0.002700  1.0  -0.0894
  C  C192  1  0.608890  0.664040  0.001720  1.0  0.0838
  C  C193  1  0.707700  0.264030  0.995820  1.0  0.0013
  C  C194  1  0.767140  0.285820  0.004860  1.0  -0.1085
  C  C195  1  0.817040  0.245520  0.004280  1.0  -0.0716
  C  C196  1  0.808150  0.182710  0.994870  1.0  -0.1016
  C  C197  1  0.748220  0.161780  0.985110  1.0  -0.0719
  C  C198  1  0.698830  0.201880  0.985610  1.0  -0.1021
  C  C199  1  0.655180  0.304240  0.997480  1.0  -0.1156
  C  C200  1  0.609660  0.335590  0.998620  1.0  0.0953
  C  C201  1  0.003860  0.265170  0.292540  1.0  -0.0007
  C  C202  1  0.994280  0.286850  0.233100  1.0  -0.1098
  C  C203  1  0.994820  0.246490  0.183160  1.0  -0.0761
  C  C204  1  0.004720  0.183750  0.192010  1.0  -0.1155
  C  C205  1  0.015040  0.163000  0.251940  1.0  -0.0829
  C  C206  1  0.014570  0.203110  0.301310  1.0  -0.0952
  C  C207  1  0.002280  0.305240  0.345280  1.0  -0.0626
  C  C208  1  0.001300  0.336140  0.391170  1.0  0.0792
  C  C209  1  0.995640  0.264070  0.707290  1.0  0.0021
  C  C210  1  0.983840  0.202190  0.698730  1.0  -0.0965
  C  C211  1  0.983260  0.162250  0.748190  1.0  -0.0825
  C  C212  1  0.994560  0.183040  0.807910  1.0  -0.1054
  C  C213  1  0.005440  0.245630  0.816550  1.0  -0.076
  C  C214  1  0.006090  0.285810  0.766540  1.0  -0.114
  C  C215  1  0.997470  0.303950  0.654570  1.0  -0.0732
  C  C216  1  0.998640  0.334960  0.608850  1.0  0.0432
  C  C217  1  0.004300  0.733440  0.708770  1.0  0.004
  C  C218  1  0.013430  0.795660  0.699260  1.0  -0.0984
  C  C219  1  0.013860  0.836230  0.748270  1.0  -0.086
  C  C220  1  0.005100  0.815770  0.808530  1.0  -0.1044
  C  C221  1  0.996690  0.752900  0.818070  1.0  -0.0783
  C  C222  1  0.996200  0.712100  0.768530  1.0  -0.1086
  C  C223  1  0.002800  0.692820  0.656480  1.0  -0.0583
  C  C224  1  0.001800  0.661530  0.610870  1.0  0.0883
  C  C225  1  0.995990  0.735380  0.292290  1.0  -0.0042
  C  C226  1  0.005830  0.713760  0.232910  1.0  -0.1125
  C  C227  1  0.005180  0.754110  0.183070  1.0  -0.0763
  C  C228  1  0.994900  0.816760  0.192020  1.0  -0.108
  C  C229  1  0.984260  0.837460  0.251890  1.0  -0.0843
  C  C230  1  0.984840  0.797330  0.301180  1.0  -0.0972
  C  C231  1  0.997760  0.695300  0.344820  1.0  -0.0873
  C  C232  1  0.998920  0.664150  0.390420  1.0  0.1083
  O  O233  1  0.843860  0.001760  0.918580  1.0  -0.5878
  O  O234  1  0.156240  0.997990  0.919190  1.0  -0.584
  O  O235  1  0.997620  0.081410  0.842900  1.0  -0.6033
  O  O236  1  0.002550  0.917810  0.843080  1.0  -0.6092
  O  O237  1  0.002110  0.842000  0.915820  1.0  -0.5963
  O  O238  1  0.997890  0.157550  0.915330  1.0  -0.5987
  O  O239  1  0.084110  0.998060  0.843330  1.0  -0.5911
  O  O240  1  0.916230  0.001310  0.842980  1.0  -0.5885
  O  O241  1  0.054760  0.944180  0.945000  1.0  -0.9423
  O  O242  1  0.945400  0.055630  0.944660  1.0  -0.9407
  O  O243  1  0.054270  0.055570  0.945050  1.0  -0.8657
  O  O244  1  0.945760  0.944180  0.945030  1.0  -0.8672
  O  O245  1  0.156200  0.002520  0.081310  1.0  -0.5903
  O  O246  1  0.843730  0.997660  0.080830  1.0  -0.5833
  O  O247  1  0.084010  0.158050  0.001630  1.0  -0.5915
  O  O248  1  0.084540  0.842380  0.998510  1.0  -0.598
  O  O249  1  0.915760  0.842040  0.001970  1.0  -0.5962
  O  O250  1  0.915540  0.157660  0.998040  1.0  -0.5951
  O  O251  1  0.002050  0.081950  0.157110  1.0  -0.6105
  O  O252  1  0.997590  0.918470  0.157180  1.0  -0.6115
  O  O253  1  0.001590  0.157880  0.084490  1.0  -0.6016
  O  O254  1  0.998200  0.842380  0.084710  1.0  -0.6028
  O  O255  1  0.155970  0.081780  0.002270  1.0  -0.5901
  O  O256  1  0.843870  0.081110  0.997410  1.0  -0.5963
  O  O257  1  0.843930  0.918430  0.002170  1.0  -0.5816
  O  O258  1  0.156160  0.919000  0.998050  1.0  -0.58
  O  O259  1  0.083950  0.001980  0.157030  1.0  -0.5911
  O  O260  1  0.915820  0.998350  0.156740  1.0  -0.5899
  O  O261  1  0.945400  0.944210  0.055270  1.0  -0.9382
  O  O262  1  0.054530  0.056050  0.055350  1.0  -0.94
  O  O263  1  0.945530  0.055540  0.054870  1.0  -0.8667
  O  O264  1  0.054330  0.944600  0.055140  1.0  -0.8654
