# generated using pymatgen
data_Zn2H7C6N9O4
_symmetry_space_group_name_H-M   'P 1'
_cell_length_a   13.83800000
_cell_length_b   12.78400000
_cell_length_c   16.88500000
_cell_angle_alpha   90.00000000
_cell_angle_beta   90.00000000
_cell_angle_gamma   90.00000000
_symmetry_Int_Tables_number   1
_chemical_formula_structural   Zn2H7C6N9O4
_chemical_formula_sum   'Zn16 H56 C48 N72 O32'
_cell_volume   2987.04078992
_cell_formula_units_Z   8
loop_
 _symmetry_equiv_pos_site_id
 _symmetry_equiv_pos_as_xyz
  1  'x, y, z'
loop_
 _atom_site_type_symbol
 _atom_site_label
 _atom_site_symmetry_multiplicity
 _atom_site_fract_x
 _atom_site_fract_y
 _atom_site_fract_z
 _atom_site_occupancy
 _atom_site_charge
  Zn  Zn1  1  0.593540  0.976020  0.924130  1.0  0.8152
  Zn  Zn2  1  0.477530  0.431980  0.902130  1.0  0.8133
  Zn  Zn3  1  0.906460  0.023980  0.424130  1.0  0.8162
  Zn  Zn4  1  0.022470  0.568020  0.402130  1.0  0.8124
  Zn  Zn5  1  0.406460  0.476020  0.575870  1.0  0.8173
  Zn  Zn6  1  0.522470  0.931980  0.597870  1.0  0.8135
  Zn  Zn7  1  0.093540  0.523980  0.075870  1.0  0.816
  Zn  Zn8  1  0.977530  0.068020  0.097870  1.0  0.8135
  Zn  Zn9  1  0.406460  0.023980  0.075870  1.0  0.8166
  Zn  Zn10  1  0.522470  0.568020  0.097870  1.0  0.813
  Zn  Zn11  1  0.093540  0.976020  0.575870  1.0  0.8164
  Zn  Zn12  1  0.977530  0.431980  0.597870  1.0  0.8139
  Zn  Zn13  1  0.593540  0.523980  0.424130  1.0  0.8155
  Zn  Zn14  1  0.477530  0.068020  0.402130  1.0  0.8128
  Zn  Zn15  1  0.906460  0.476020  0.924130  1.0  0.8163
  Zn  Zn16  1  0.022470  0.931980  0.902130  1.0  0.8129
  H  H17  1  0.805200  0.955200  0.852800  1.0  0.1051
  H  H18  1  0.671000  0.177400  0.858800  1.0  0.3664
  H  H19  1  0.634300  0.284900  0.842900  1.0  0.349
  H  H20  1  0.760200  0.070600  0.129400  1.0  0.3588
  H  H21  1  0.667700  0.052200  0.086500  1.0  0.3641
  H  H22  1  0.292200  0.209700  0.029700  1.0  0.3391
  H  H23  1  0.306300  0.316300  0.996000  1.0  0.3078
  H  H24  1  0.694800  0.044800  0.352800  1.0  0.1048
  H  H25  1  0.829000  0.822600  0.358800  1.0  0.3654
  H  H26  1  0.865700  0.715100  0.342900  1.0  0.3481
  H  H27  1  0.739800  0.929400  0.629400  1.0  0.3585
  H  H28  1  0.832300  0.947800  0.586500  1.0  0.365
  H  H29  1  0.207800  0.790300  0.529700  1.0  0.339
  H  H30  1  0.193700  0.683700  0.496000  1.0  0.3071
  H  H31  1  0.194800  0.455200  0.647200  1.0  0.105
  H  H32  1  0.329000  0.677400  0.641200  1.0  0.3662
  H  H33  1  0.365700  0.784900  0.657100  1.0  0.3499
  H  H34  1  0.239800  0.570600  0.370600  1.0  0.3584
  H  H35  1  0.332300  0.552200  0.413500  1.0  0.3654
  H  H36  1  0.707800  0.709700  0.470300  1.0  0.339
  H  H37  1  0.693700  0.816300  0.504000  1.0  0.3078
  H  H38  1  0.305200  0.544800  0.147200  1.0  0.1048
  H  H39  1  0.171000  0.322600  0.141200  1.0  0.3647
  H  H40  1  0.134300  0.215100  0.157100  1.0  0.3491
  H  H41  1  0.260200  0.429400  0.870600  1.0  0.359
  H  H42  1  0.167700  0.447800  0.913500  1.0  0.3649
  H  H43  1  0.792200  0.290300  0.970300  1.0  0.3388
  H  H44  1  0.806300  0.183700  0.004000  1.0  0.3073
  H  H45  1  0.194800  0.044800  0.147200  1.0  0.105
  H  H46  1  0.329000  0.822600  0.141200  1.0  0.3656
  H  H47  1  0.365700  0.715100  0.157100  1.0  0.3493
  H  H48  1  0.239800  0.929400  0.870600  1.0  0.3586
  H  H49  1  0.332300  0.947800  0.913500  1.0  0.3652
  H  H50  1  0.707800  0.790300  0.970300  1.0  0.3387
  H  H51  1  0.693700  0.683700  0.004000  1.0  0.3073
  H  H52  1  0.305200  0.955200  0.647200  1.0  0.105
  H  H53  1  0.171000  0.177400  0.641200  1.0  0.366
  H  H54  1  0.134300  0.284900  0.657100  1.0  0.3498
  H  H55  1  0.260200  0.070600  0.370600  1.0  0.3587
  H  H56  1  0.167700  0.052200  0.413500  1.0  0.3652
  H  H57  1  0.792200  0.209700  0.470300  1.0  0.3387
  H  H58  1  0.806300  0.316300  0.504000  1.0  0.3077
  H  H59  1  0.805200  0.544800  0.352800  1.0  0.1049
  H  H60  1  0.671000  0.322600  0.358800  1.0  0.3648
  H  H61  1  0.634300  0.215100  0.342900  1.0  0.348
  H  H62  1  0.760200  0.429400  0.629400  1.0  0.3593
  H  H63  1  0.667700  0.447800  0.586500  1.0  0.3639
  H  H64  1  0.292200  0.290300  0.529700  1.0  0.3388
  H  H65  1  0.306300  0.183700  0.496000  1.0  0.3071
  H  H66  1  0.694800  0.455200  0.852800  1.0  0.1051
  H  H67  1  0.829000  0.677400  0.858800  1.0  0.3659
  H  H68  1  0.865700  0.784900  0.842900  1.0  0.3494
  H  H69  1  0.739800  0.570600  0.129400  1.0  0.3582
  H  H70  1  0.832300  0.552200  0.086500  1.0  0.365
  H  H71  1  0.207800  0.709700  0.029700  1.0  0.3397
  H  H72  1  0.193700  0.816300  0.996000  1.0  0.3079
  C  C73  1  0.589600  0.978200  0.754600  1.0  0.6503
  C  C74  1  0.493800  0.925800  0.777900  1.0  0.5523
  C  C75  1  0.548100  0.205300  0.912400  1.0  0.4368
  C  C76  1  0.417800  0.224700  0.976600  1.0  0.3534
  C  C77  1  0.779900  0.021400  0.022200  1.0  0.6413
  C  C78  1  0.812000  0.975700  0.905400  1.0  0.23
  C  C79  1  0.910400  0.021800  0.254600  1.0  0.6494
  C  C80  1  0.006200  0.074200  0.277900  1.0  0.5514
  C  C81  1  0.951900  0.794700  0.412400  1.0  0.4372
  C  C82  1  0.082200  0.775300  0.476600  1.0  0.3542
  C  C83  1  0.720100  0.978600  0.522200  1.0  0.6424
  C  C84  1  0.688000  0.024300  0.405400  1.0  0.2301
  C  C85  1  0.410400  0.478200  0.745400  1.0  0.6498
  C  C86  1  0.506200  0.425800  0.722100  1.0  0.5517
  C  C87  1  0.451900  0.705300  0.587600  1.0  0.4379
  C  C88  1  0.582200  0.724700  0.523400  1.0  0.3538
  C  C89  1  0.220100  0.521400  0.477800  1.0  0.6411
  C  C90  1  0.188000  0.475700  0.594600  1.0  0.2304
  C  C91  1  0.089600  0.521800  0.245400  1.0  0.6494
  C  C92  1  0.993800  0.574200  0.222100  1.0  0.552
  C  C93  1  0.048100  0.294700  0.087600  1.0  0.4375
  C  C94  1  0.917800  0.275300  0.023400  1.0  0.3537
  C  C95  1  0.279900  0.478600  0.977800  1.0  0.6435
  C  C96  1  0.312000  0.524300  0.094600  1.0  0.2307
  C  C97  1  0.410400  0.021800  0.245400  1.0  0.6492
  C  C98  1  0.506200  0.074200  0.222100  1.0  0.5514
  C  C99  1  0.451900  0.794700  0.087600  1.0  0.4379
  C  C100  1  0.582200  0.775300  0.023400  1.0  0.3542
  C  C101  1  0.220100  0.978600  0.977800  1.0  0.6434
  C  C102  1  0.188000  0.024300  0.094600  1.0  0.2304
  C  C103  1  0.089600  0.978200  0.745400  1.0  0.6504
  C  C104  1  0.993800  0.925800  0.722100  1.0  0.5522
  C  C105  1  0.048100  0.205300  0.587600  1.0  0.4375
  C  C106  1  0.917800  0.224700  0.523400  1.0  0.3533
  C  C107  1  0.279900  0.021400  0.477800  1.0  0.6412
  C  C108  1  0.312000  0.975700  0.594600  1.0  0.2307
  C  C109  1  0.589600  0.521800  0.254600  1.0  0.6493
  C  C110  1  0.493800  0.574200  0.277900  1.0  0.552
  C  C111  1  0.548100  0.294700  0.412400  1.0  0.4367
  C  C112  1  0.417800  0.275300  0.476600  1.0  0.3538
  C  C113  1  0.779900  0.478600  0.522200  1.0  0.6425
  C  C114  1  0.812000  0.524300  0.405400  1.0  0.2298
  C  C115  1  0.910400  0.478200  0.754600  1.0  0.65
  C  C116  1  0.006200  0.425800  0.777900  1.0  0.5516
  C  C117  1  0.951900  0.705300  0.912400  1.0  0.4373
  C  C118  1  0.082200  0.724700  0.976600  1.0  0.3539
  C  C119  1  0.720100  0.521400  0.022200  1.0  0.6412
  C  C120  1  0.688000  0.475700  0.905400  1.0  0.2303
  N  N121  1  0.478900  0.277100  0.927400  1.0  -0.5772
  N  N122  1  0.532600  0.115600  0.949100  1.0  -0.3711
  N  N123  1  0.447300  0.128200  0.990600  1.0  -0.353
  N  N124  1  0.627800  0.225000  0.865500  1.0  -0.7279
  N  N125  1  0.895900  0.988700  0.939800  1.0  -0.2571
  N  N126  1  0.875600  0.018000  0.017600  1.0  -0.3233
  N  N127  1  0.737000  0.994700  0.953400  1.0  -0.4144
  N  N128  1  0.729800  0.051700  0.087300  1.0  -0.6797
  N  N129  1  0.327000  0.254000  0.004000  1.0  -0.6994
  N  N130  1  0.021100  0.722900  0.427400  1.0  -0.5774
  N  N131  1  0.967400  0.884400  0.449100  1.0  -0.3714
  N  N132  1  0.052700  0.871800  0.490600  1.0  -0.353
  N  N133  1  0.872200  0.775000  0.365500  1.0  -0.7275
  N  N134  1  0.604100  0.011300  0.439800  1.0  -0.2558
  N  N135  1  0.624400  0.982000  0.517600  1.0  -0.3245
  N  N136  1  0.763000  0.005300  0.453400  1.0  -0.4129
  N  N137  1  0.770200  0.948300  0.587300  1.0  -0.6807
  N  N138  1  0.173000  0.746000  0.504000  1.0  -0.6979
  N  N139  1  0.521100  0.777100  0.572600  1.0  -0.5778
  N  N140  1  0.467400  0.615600  0.550900  1.0  -0.3723
  N  N141  1  0.552700  0.628200  0.509400  1.0  -0.3535
  N  N142  1  0.372200  0.725000  0.634500  1.0  -0.7287
  N  N143  1  0.104100  0.488700  0.560200  1.0  -0.2554
  N  N144  1  0.124400  0.518000  0.482400  1.0  -0.3243
  N  N145  1  0.263000  0.494700  0.546600  1.0  -0.4124
  N  N146  1  0.270200  0.551700  0.412700  1.0  -0.6813
  N  N147  1  0.673000  0.754000  0.496000  1.0  -0.6982
  N  N148  1  0.978900  0.222900  0.072600  1.0  -0.5783
  N  N149  1  0.032600  0.384400  0.050900  1.0  -0.3712
  N  N150  1  0.947300  0.371800  0.009400  1.0  -0.3531
  N  N151  1  0.127800  0.275000  0.134500  1.0  -0.7284
  N  N152  1  0.395900  0.511300  0.060200  1.0  -0.2576
  N  N153  1  0.375600  0.482000  0.982400  1.0  -0.3245
  N  N154  1  0.237000  0.505300  0.046600  1.0  -0.4136
  N  N155  1  0.229800  0.448300  0.912700  1.0  -0.6799
  N  N156  1  0.827000  0.246000  0.996000  1.0  -0.699
  N  N157  1  0.521100  0.722900  0.072600  1.0  -0.5775
  N  N158  1  0.467400  0.884400  0.050900  1.0  -0.3718
  N  N159  1  0.552700  0.871800  0.009400  1.0  -0.353
  N  N160  1  0.372200  0.775000  0.134500  1.0  -0.7284
  N  N161  1  0.104100  0.011300  0.060200  1.0  -0.2561
  N  N162  1  0.124400  0.982000  0.982400  1.0  -0.3239
  N  N163  1  0.263000  0.005300  0.046600  1.0  -0.4123
  N  N164  1  0.270200  0.948300  0.912700  1.0  -0.6809
  N  N165  1  0.673000  0.746000  0.996000  1.0  -0.6978
  N  N166  1  0.978900  0.277100  0.572600  1.0  -0.5781
  N  N167  1  0.032600  0.115600  0.550900  1.0  -0.3714
  N  N168  1  0.947300  0.128200  0.509400  1.0  -0.3534
  N  N169  1  0.127800  0.225000  0.634500  1.0  -0.7288
  N  N170  1  0.395900  0.988700  0.560200  1.0  -0.2574
  N  N171  1  0.375600  0.018000  0.482400  1.0  -0.3249
  N  N172  1  0.237000  0.994700  0.546600  1.0  -0.414
  N  N173  1  0.229800  0.051700  0.412700  1.0  -0.6801
  N  N174  1  0.827000  0.254000  0.496000  1.0  -0.699
  N  N175  1  0.478900  0.222900  0.427400  1.0  -0.578
  N  N176  1  0.532600  0.384400  0.449100  1.0  -0.3709
  N  N177  1  0.447300  0.371800  0.490600  1.0  -0.3531
  N  N178  1  0.627800  0.275000  0.365500  1.0  -0.7273
  N  N179  1  0.895900  0.511300  0.439800  1.0  -0.2574
  N  N180  1  0.875600  0.482000  0.517600  1.0  -0.3237
  N  N181  1  0.737000  0.505300  0.453400  1.0  -0.4141
  N  N182  1  0.729800  0.448300  0.587300  1.0  -0.6801
  N  N183  1  0.327000  0.246000  0.504000  1.0  -0.6995
  N  N184  1  0.021100  0.777100  0.927400  1.0  -0.5772
  N  N185  1  0.967400  0.615600  0.949100  1.0  -0.3719
  N  N186  1  0.052700  0.628200  0.990600  1.0  -0.353
  N  N187  1  0.872200  0.725000  0.865500  1.0  -0.728
  N  N188  1  0.604100  0.488700  0.939800  1.0  -0.255
  N  N189  1  0.624400  0.518000  0.017600  1.0  -0.3239
  N  N190  1  0.763000  0.494700  0.953400  1.0  -0.4128
  N  N191  1  0.770200  0.551700  0.087300  1.0  -0.6806
  N  N192  1  0.173000  0.754000  0.004000  1.0  -0.6985
  O  O193  1  0.643800  0.007100  0.809400  1.0  -0.5474
  O  O194  1  0.478400  0.916200  0.850300  1.0  -0.5728
  O  O195  1  0.606300  0.992000  0.682300  1.0  -0.56
  O  O196  1  0.441600  0.897300  0.720900  1.0  -0.6011
  O  O197  1  0.856200  0.992900  0.309400  1.0  -0.5475
  O  O198  1  0.021600  0.083800  0.350300  1.0  -0.5725
  O  O199  1  0.893700  0.008000  0.182300  1.0  -0.5583
  O  O200  1  0.058400  0.102700  0.220900  1.0  -0.6029
  O  O201  1  0.356200  0.507100  0.690600  1.0  -0.5472
  O  O202  1  0.521600  0.416200  0.649700  1.0  -0.5713
  O  O203  1  0.393700  0.492000  0.817700  1.0  -0.5597
  O  O204  1  0.558400  0.397300  0.779100  1.0  -0.6029
  O  O205  1  0.143800  0.492900  0.190600  1.0  -0.547
  O  O206  1  0.978400  0.583800  0.149700  1.0  -0.5723
  O  O207  1  0.106300  0.508000  0.317700  1.0  -0.5588
  O  O208  1  0.941600  0.602700  0.279100  1.0  -0.6012
  O  O209  1  0.356200  0.992900  0.190600  1.0  -0.5468
  O  O210  1  0.521600  0.083800  0.149700  1.0  -0.5716
  O  O211  1  0.393700  0.008000  0.317700  1.0  -0.5582
  O  O212  1  0.558400  0.102700  0.279100  1.0  -0.6032
  O  O213  1  0.143800  0.007100  0.690600  1.0  -0.5472
  O  O214  1  0.978400  0.916200  0.649700  1.0  -0.5724
  O  O215  1  0.106300  0.992000  0.817700  1.0  -0.5603
  O  O216  1  0.941600  0.897300  0.779100  1.0  -0.601
  O  O217  1  0.643800  0.492900  0.309400  1.0  -0.5479
  O  O218  1  0.478400  0.583800  0.350300  1.0  -0.573
  O  O219  1  0.606300  0.508000  0.182300  1.0  -0.5586
  O  O220  1  0.441600  0.602700  0.220900  1.0  -0.601
  O  O221  1  0.856200  0.507100  0.809400  1.0  -0.547
  O  O222  1  0.021600  0.416200  0.850300  1.0  -0.5719
  O  O223  1  0.893700  0.492000  0.682300  1.0  -0.5597
  O  O224  1  0.058400  0.397300  0.720900  1.0  -0.603
