# generated using pymatgen
data_MgH24C40(NO4)2
_symmetry_space_group_name_H-M   'P 1'
_cell_length_a   15.72720000
_cell_length_b   23.55500000
_cell_length_c   23.55500000
_cell_angle_alpha   64.56170000
_cell_angle_beta   70.49800000
_cell_angle_gamma   70.49800000
_symmetry_Int_Tables_number   1
_chemical_formula_structural   MgH24C40(NO4)2
_chemical_formula_sum   'Mg4 H96 C160 N8 O32'
_cell_volume   7239.68504984
_cell_formula_units_Z   4
loop_
 _symmetry_equiv_pos_site_id
 _symmetry_equiv_pos_as_xyz
  1  'x, y, z'
loop_
 _atom_site_type_symbol
 _atom_site_label
 _atom_site_symmetry_multiplicity
 _atom_site_fract_x
 _atom_site_fract_y
 _atom_site_fract_z
 _atom_site_occupancy
 _atom_site_charge
  Mg  Mg1  1  0.169010  0.494870  0.494870  1.0  1.6488
  Mg  Mg2  1  0.658750  0.005130  0.005130  1.0  1.648
  Mg  Mg3  1  0.341250  0.994870  0.994870  1.0  1.6481
  Mg  Mg4  1  0.830990  0.505130  0.505130  1.0  1.649
  H  H5  1  0.942300  0.643800  0.246600  1.0  0.1126
  H  H6  1  0.004100  0.598300  0.336300  1.0  0.0901
  H  H7  1  0.241300  0.523300  0.236700  1.0  0.1084
  H  H8  1  0.178200  0.568600  0.146600  1.0  0.1157
  H  H9  1  0.049800  0.734700  0.136700  1.0  0.1267
  H  H10  1  0.963100  0.840900  0.116700  1.0  0.0952
  H  H11  1  0.794600  0.801700  0.049900  1.0  0.0935
  H  H12  1  0.875100  0.695400  0.076600  1.0  0.1083
  H  H13  1  0.022800  0.517800  0.162200  1.0  0.1071
  H  H14  1  0.064200  0.459000  0.097600  1.0  0.1148
  H  H15  1  0.107800  0.612300  0.942300  1.0  0.1539
  H  H16  1  0.067300  0.675000  0.007400  1.0  0.1273
  H  H17  1  0.332700  0.856200  0.253400  1.0  0.1117
  H  H18  1  0.438700  0.901700  0.163700  1.0  0.0905
  H  H19  1  0.501300  0.976700  0.263300  1.0  0.1091
  H  H20  1  0.393400  0.931400  0.353400  1.0  0.115
  H  H21  1  0.421200  0.765300  0.363300  1.0  0.127
  H  H22  1  0.420700  0.659100  0.383300  1.0  0.0963
  H  H23  1  0.146200  0.698300  0.450100  1.0  0.0939
  H  H24  1  0.147100  0.804600  0.423400  1.0  0.1082
  H  H25  1  0.202800  0.982200  0.337800  1.0  0.1068
  H  H26  1  0.120800  0.041000  0.402400  1.0  0.1112
  H  H27  1  0.162400  0.887700  0.557700  1.0  0.1539
  H  H28  1  0.249700  0.825000  0.492600  1.0  0.1288
  H  H29  1  0.332700  0.253400  0.856200  1.0  0.1122
  H  H30  1  0.438700  0.163700  0.901700  1.0  0.0891
  H  H31  1  0.501300  0.263300  0.976700  1.0  0.1088
  H  H32  1  0.393400  0.353400  0.931400  1.0  0.1157
  H  H33  1  0.421200  0.363300  0.765300  1.0  0.1274
  H  H34  1  0.420700  0.383300  0.659100  1.0  0.0968
  H  H35  1  0.146200  0.450100  0.698300  1.0  0.0943
  H  H36  1  0.147100  0.423400  0.804600  1.0  0.1096
  H  H37  1  0.202800  0.337800  0.982200  1.0  0.1062
  H  H38  1  0.120800  0.402400  0.041000  1.0  0.1157
  H  H39  1  0.162400  0.557700  0.887700  1.0  0.1514
  H  H40  1  0.249700  0.492600  0.825000  1.0  0.1279
  H  H41  1  0.942300  0.246600  0.643800  1.0  0.1156
  H  H42  1  0.004100  0.336300  0.598300  1.0  0.0893
  H  H43  1  0.241300  0.236700  0.523300  1.0  0.1082
  H  H44  1  0.178200  0.146600  0.568600  1.0  0.1153
  H  H45  1  0.049800  0.136700  0.734700  1.0  0.1265
  H  H46  1  0.963100  0.116700  0.840900  1.0  0.0972
  H  H47  1  0.794600  0.049900  0.801700  1.0  0.0937
  H  H48  1  0.875100  0.076600  0.695400  1.0  0.1107
  H  H49  1  0.022800  0.162200  0.517800  1.0  0.1053
  H  H50  1  0.064200  0.097600  0.459000  1.0  0.1156
  H  H51  1  0.107800  0.942300  0.612300  1.0  0.1523
  H  H52  1  0.067300  0.007400  0.675000  1.0  0.1265
  H  H53  1  0.667300  0.746600  0.143800  1.0  0.1116
  H  H54  1  0.561300  0.836300  0.098300  1.0  0.089
  H  H55  1  0.498700  0.736700  0.023300  1.0  0.1084
  H  H56  1  0.606600  0.646600  0.068600  1.0  0.1148
  H  H57  1  0.578800  0.636700  0.234700  1.0  0.1277
  H  H58  1  0.579300  0.616700  0.340900  1.0  0.0958
  H  H59  1  0.853800  0.549900  0.301700  1.0  0.0952
  H  H60  1  0.852900  0.576600  0.195400  1.0  0.11
  H  H61  1  0.797200  0.662200  0.017800  1.0  0.1051
  H  H62  1  0.879200  0.597600  0.959000  1.0  0.1159
  H  H63  1  0.837600  0.442300  0.112300  1.0  0.1501
  H  H64  1  0.750300  0.507400  0.175000  1.0  0.1281
  H  H65  1  0.057700  0.753400  0.356200  1.0  0.1147
  H  H66  1  0.995900  0.663700  0.401700  1.0  0.0893
  H  H67  1  0.758700  0.763300  0.476700  1.0  0.1082
  H  H68  1  0.821800  0.853400  0.431400  1.0  0.1159
  H  H69  1  0.950200  0.863300  0.265300  1.0  0.1257
  H  H70  1  0.036900  0.883300  0.159100  1.0  0.0975
  H  H71  1  0.205400  0.950100  0.198300  1.0  0.0944
  H  H72  1  0.124900  0.923400  0.304600  1.0  0.1101
  H  H73  1  0.977200  0.837800  0.482200  1.0  0.1046
  H  H74  1  0.935800  0.902400  0.541000  1.0  0.1154
  H  H75  1  0.892200  0.057700  0.387700  1.0  0.1518
  H  H76  1  0.932700  0.992600  0.325000  1.0  0.1261
  H  H77  1  0.057700  0.356200  0.753400  1.0  0.1131
  H  H78  1  0.995900  0.401700  0.663700  1.0  0.0898
  H  H79  1  0.758700  0.476700  0.763300  1.0  0.1087
  H  H80  1  0.821800  0.431400  0.853400  1.0  0.1157
  H  H81  1  0.950200  0.265300  0.863300  1.0  0.1262
  H  H82  1  0.036900  0.159100  0.883300  1.0  0.0953
  H  H83  1  0.205400  0.198300  0.950100  1.0  0.0952
  H  H84  1  0.124900  0.304600  0.923400  1.0  0.1083
  H  H85  1  0.977200  0.482200  0.837800  1.0  0.1068
  H  H86  1  0.935800  0.541000  0.902400  1.0  0.1158
  H  H87  1  0.892200  0.387700  0.057700  1.0  0.153
  H  H88  1  0.932700  0.325000  0.992600  1.0  0.1283
  H  H89  1  0.667300  0.143800  0.746600  1.0  0.1109
  H  H90  1  0.561300  0.098300  0.836300  1.0  0.0906
  H  H91  1  0.498700  0.023300  0.736700  1.0  0.1076
  H  H92  1  0.606600  0.068600  0.646600  1.0  0.116
  H  H93  1  0.578800  0.234700  0.636700  1.0  0.127
  H  H94  1  0.579300  0.340900  0.616700  1.0  0.0961
  H  H95  1  0.853800  0.301700  0.549900  1.0  0.0951
  H  H96  1  0.852900  0.195400  0.576600  1.0  0.1083
  H  H97  1  0.797200  0.017800  0.662200  1.0  0.1074
  H  H98  1  0.879200  0.959000  0.597600  1.0  0.1114
  H  H99  1  0.837600  0.112300  0.442300  1.0  0.1537
  H  H100  1  0.750300  0.175000  0.507400  1.0  0.128
  C  C101  1  0.053860  0.610490  0.188190  1.0  0.1506
  C  C102  1  0.002570  0.619190  0.244470  1.0  -0.1892
  C  C103  1  0.040000  0.591570  0.298430  1.0  -0.0354
  C  C104  1  0.127480  0.555020  0.297620  1.0  -0.1173
  C  C105  1  0.180570  0.547130  0.239130  1.0  -0.0394
  C  C106  1  0.142930  0.574570  0.184970  1.0  -0.2001
  C  C107  1  0.174090  0.524210  0.352210  1.0  0.6929
  C  C108  1  0.964790  0.704910  0.114110  1.0  0.1961
  C  C109  1  0.995960  0.747840  0.121840  1.0  -0.2102
  C  C110  1  0.945950  0.812250  0.107250  1.0  -0.0643
  C  C111  1  0.871430  0.833410  0.078930  1.0  -0.1419
  C  C112  1  0.845040  0.788470  0.068450  1.0  -0.0277
  C  C113  1  0.892300  0.724600  0.085000  1.0  -0.2176
  C  C114  1  0.815870  0.901930  0.058530  1.0  0.703
  C  C115  1  0.038950  0.602050  0.092450  1.0  0.1908
  C  C116  1  0.040490  0.537810  0.117810  1.0  -0.2109
  C  C117  1  0.067630  0.502170  0.078770  1.0  -0.1143
  C  C118  1  0.100180  0.528120  0.012120  1.0  0.0637
  C  C119  1  0.093900  0.592300  0.986900  1.0  -0.1539
  C  C120  1  0.066600  0.631300  0.026100  1.0  -0.1948
  C  C121  1  0.352540  0.889510  0.311810  1.0  0.1504
  C  C122  1  0.366230  0.880810  0.255530  1.0  -0.1859
  C  C123  1  0.430000  0.908430  0.201570  1.0  -0.0394
  C  C124  1  0.480120  0.944980  0.202380  1.0  -0.1168
  C  C125  1  0.466830  0.952870  0.260870  1.0  -0.0383
  C  C126  1  0.402470  0.925430  0.315030  1.0  -0.1974
  C  C127  1  0.550510  0.975790  0.147790  1.0  0.6849
  C  C128  1  0.283810  0.795090  0.385890  1.0  0.1968
  C  C129  1  0.365640  0.752160  0.378160  1.0  -0.2125
  C  C130  1  0.365450  0.687750  0.392750  1.0  -0.0611
  C  C131  1  0.283770  0.666590  0.421070  1.0  -0.1426
  C  C132  1  0.201960  0.711530  0.431550  1.0  -0.0283
  C  C133  1  0.201900  0.775400  0.415000  1.0  -0.2181
  C  C134  1  0.276330  0.598070  0.441470  1.0  0.7015
  C  C135  1  0.233450  0.897950  0.407550  1.0  0.189
  C  C136  1  0.196110  0.962190  0.382190  1.0  -0.213
  C  C137  1  0.148570  0.997830  0.421230  1.0  -0.1086
  C  C138  1  0.140420  0.971880  0.487880  1.0  0.0576
  C  C139  1  0.173100  0.907700  0.513100  1.0  -0.1466
  C  C140  1  0.224000  0.868700  0.473900  1.0  -0.1915
  C  C141  1  0.352540  0.311810  0.889510  1.0  0.1509
  C  C142  1  0.366230  0.255530  0.880810  1.0  -0.1893
  C  C143  1  0.430000  0.201570  0.908430  1.0  -0.0405
  C  C144  1  0.480120  0.202380  0.944980  1.0  -0.1156
  C  C145  1  0.466830  0.260870  0.952870  1.0  -0.039
  C  C146  1  0.402470  0.315030  0.925430  1.0  -0.1947
  C  C147  1  0.550510  0.147790  0.975790  1.0  0.6853
  C  C148  1  0.283810  0.385890  0.795090  1.0  0.1963
  C  C149  1  0.365640  0.378160  0.752160  1.0  -0.2076
  C  C150  1  0.365450  0.392750  0.687750  1.0  -0.0592
  C  C151  1  0.283770  0.421070  0.666590  1.0  -0.1455
  C  C152  1  0.201960  0.431550  0.711530  1.0  -0.0297
  C  C153  1  0.201900  0.415000  0.775400  1.0  -0.2187
  C  C154  1  0.276330  0.441470  0.598070  1.0  0.709
  C  C155  1  0.233450  0.407550  0.897950  1.0  0.1884
  C  C156  1  0.196110  0.382190  0.962190  1.0  -0.2127
  C  C157  1  0.148570  0.421230  0.997830  1.0  -0.1129
  C  C158  1  0.140420  0.487880  0.971880  1.0  0.0566
  C  C159  1  0.173100  0.513100  0.907700  1.0  -0.1466
  C  C160  1  0.224000  0.473900  0.868700  1.0  -0.191
  C  C161  1  0.053860  0.188190  0.610490  1.0  0.1517
  C  C162  1  0.002570  0.244470  0.619190  1.0  -0.1895
  C  C163  1  0.040000  0.298430  0.591570  1.0  -0.0407
  C  C164  1  0.127480  0.297620  0.555020  1.0  -0.1152
  C  C165  1  0.180570  0.239130  0.547130  1.0  -0.0385
  C  C166  1  0.142930  0.184970  0.574570  1.0  -0.2
  C  C167  1  0.174090  0.352210  0.524210  1.0  0.6857
  C  C168  1  0.964790  0.114110  0.704910  1.0  0.1945
  C  C169  1  0.995960  0.121840  0.747840  1.0  -0.2113
  C  C170  1  0.945950  0.107250  0.812250  1.0  -0.0626
  C  C171  1  0.871430  0.078930  0.833410  1.0  -0.1459
  C  C172  1  0.845040  0.068450  0.788470  1.0  -0.0275
  C  C173  1  0.892300  0.085000  0.724600  1.0  -0.2197
  C  C174  1  0.815870  0.058530  0.901930  1.0  0.7046
  C  C175  1  0.038950  0.092450  0.602050  1.0  0.1891
  C  C176  1  0.040490  0.117810  0.537810  1.0  -0.212
  C  C177  1  0.067630  0.078770  0.502170  1.0  -0.1121
  C  C178  1  0.100180  0.012120  0.528120  1.0  0.0624
  C  C179  1  0.093900  0.986900  0.592300  1.0  -0.1567
  C  C180  1  0.066600  0.026100  0.631300  1.0  -0.1896
  C  C181  1  0.647460  0.688190  0.110490  1.0  0.1492
  C  C182  1  0.633770  0.744470  0.119190  1.0  -0.1869
  C  C183  1  0.570000  0.798430  0.091570  1.0  -0.0404
  C  C184  1  0.519880  0.797620  0.055020  1.0  -0.1174
  C  C185  1  0.533170  0.739130  0.047130  1.0  -0.0402
  C  C186  1  0.597530  0.684970  0.074570  1.0  -0.1957
  C  C187  1  0.449490  0.852210  0.024210  1.0  0.6849
  C  C188  1  0.716190  0.614110  0.204910  1.0  0.1953
  C  C189  1  0.634360  0.621840  0.247840  1.0  -0.2098
  C  C190  1  0.634550  0.607250  0.312250  1.0  -0.0599
  C  C191  1  0.716230  0.578930  0.333410  1.0  -0.1475
  C  C192  1  0.798040  0.568450  0.288470  1.0  -0.0282
  C  C193  1  0.798100  0.585000  0.224600  1.0  -0.2208
  C  C194  1  0.723670  0.558530  0.401930  1.0  0.7082
  C  C195  1  0.766550  0.592450  0.102050  1.0  0.1879
  C  C196  1  0.803890  0.617810  0.037810  1.0  -0.2158
  C  C197  1  0.851430  0.578770  0.002170  1.0  -0.1091
  C  C198  1  0.859580  0.512120  0.028120  1.0  0.0559
  C  C199  1  0.826900  0.486900  0.092300  1.0  -0.1482
  C  C200  1  0.776000  0.526100  0.131300  1.0  -0.1923
  C  C201  1  0.946140  0.811810  0.389510  1.0  0.1505
  C  C202  1  0.997430  0.755530  0.380810  1.0  -0.1913
  C  C203  1  0.960000  0.701570  0.408430  1.0  -0.0396
  C  C204  1  0.872520  0.702380  0.444980  1.0  -0.115
  C  C205  1  0.819430  0.760870  0.452870  1.0  -0.0424
  C  C206  1  0.857070  0.815030  0.425430  1.0  -0.2019
  C  C207  1  0.825910  0.647790  0.475790  1.0  0.6857
  C  C208  1  0.035210  0.885890  0.295090  1.0  0.1958
  C  C209  1  0.004040  0.878160  0.252160  1.0  -0.2099
  C  C210  1  0.054050  0.892750  0.187750  1.0  -0.0617
  C  C211  1  0.128570  0.921070  0.166590  1.0  -0.1438
  C  C212  1  0.154960  0.931550  0.211530  1.0  -0.0292
  C  C213  1  0.107700  0.915000  0.275400  1.0  -0.2184
  C  C214  1  0.184130  0.941470  0.098070  1.0  0.7053
  C  C215  1  0.961050  0.907550  0.397950  1.0  0.1886
  C  C216  1  0.959510  0.882190  0.462190  1.0  -0.2112
  C  C217  1  0.932370  0.921230  0.497830  1.0  -0.111
  C  C218  1  0.899820  0.987880  0.471880  1.0  0.0628
  C  C219  1  0.906100  0.013100  0.407700  1.0  -0.1551
  C  C220  1  0.933400  0.973900  0.368700  1.0  -0.189
  C  C221  1  0.946140  0.389510  0.811810  1.0  0.149
  C  C222  1  0.997430  0.380810  0.755530  1.0  -0.1912
  C  C223  1  0.960000  0.408430  0.701570  1.0  -0.0351
  C  C224  1  0.872520  0.444980  0.702380  1.0  -0.1159
  C  C225  1  0.819430  0.452870  0.760870  1.0  -0.0435
  C  C226  1  0.857070  0.425430  0.815030  1.0  -0.2023
  C  C227  1  0.825910  0.475790  0.647790  1.0  0.6913
  C  C228  1  0.035210  0.295090  0.885890  1.0  0.195
  C  C229  1  0.004040  0.252160  0.878160  1.0  -0.2104
  C  C230  1  0.054050  0.187750  0.892750  1.0  -0.0641
  C  C231  1  0.128570  0.166590  0.921070  1.0  -0.1427
  C  C232  1  0.154960  0.211530  0.931550  1.0  -0.0266
  C  C233  1  0.107700  0.275400  0.915000  1.0  -0.2179
  C  C234  1  0.184130  0.098070  0.941470  1.0  0.7022
  C  C235  1  0.961050  0.397950  0.907550  1.0  0.1897
  C  C236  1  0.959510  0.462190  0.882190  1.0  -0.2136
  C  C237  1  0.932370  0.497830  0.921230  1.0  -0.1131
  C  C238  1  0.899820  0.471880  0.987880  1.0  0.0631
  C  C239  1  0.906100  0.407700  0.013100  1.0  -0.1557
  C  C240  1  0.933400  0.368700  0.973900  1.0  -0.1953
  C  C241  1  0.647460  0.110490  0.688190  1.0  0.1497
  C  C242  1  0.633770  0.119190  0.744470  1.0  -0.1865
  C  C243  1  0.570000  0.091570  0.798430  1.0  -0.0399
  C  C244  1  0.519880  0.055020  0.797620  1.0  -0.1166
  C  C245  1  0.533170  0.047130  0.739130  1.0  -0.0435
  C  C246  1  0.597530  0.074570  0.684970  1.0  -0.1992
  C  C247  1  0.449490  0.024210  0.852210  1.0  0.6854
  C  C248  1  0.716190  0.204910  0.614110  1.0  0.1959
  C  C249  1  0.634360  0.247840  0.621840  1.0  -0.2123
  C  C250  1  0.634550  0.312250  0.607250  1.0  -0.0606
  C  C251  1  0.716230  0.333410  0.578930  1.0  -0.1413
  C  C252  1  0.798040  0.288470  0.568450  1.0  -0.027
  C  C253  1  0.798100  0.224600  0.585000  1.0  -0.2192
  C  C254  1  0.723670  0.401930  0.558530  1.0  0.7032
  C  C255  1  0.766550  0.102050  0.592450  1.0  0.1892
  C  C256  1  0.803890  0.037810  0.617810  1.0  -0.2147
  C  C257  1  0.851430  0.002170  0.578770  1.0  -0.1127
  C  C258  1  0.859580  0.028120  0.512120  1.0  0.058
  C  C259  1  0.826900  0.092300  0.486900  1.0  -0.1477
  C  C260  1  0.776000  0.131300  0.526100  1.0  -0.1908
  N  N261  1  0.016030  0.639170  0.131970  1.0  -0.1555
  N  N262  1  0.287170  0.860830  0.368030  1.0  -0.1555
  N  N263  1  0.287170  0.368030  0.860830  1.0  -0.1557
  N  N264  1  0.016030  0.131970  0.639170  1.0  -0.1554
  N  N265  1  0.712830  0.631970  0.139170  1.0  -0.1563
  N  N266  1  0.983970  0.868030  0.360830  1.0  -0.1565
  N  N267  1  0.983970  0.360830  0.868030  1.0  -0.1567
  N  N268  1  0.712830  0.139170  0.631970  1.0  -0.1563
  O  O269  1  0.748440  0.918550  0.037570  1.0  -0.5848
  O  O270  1  0.853980  0.939200  0.066240  1.0  -0.442
  O  O271  1  0.124200  0.525980  0.407620  1.0  -0.6081
  O  O272  1  0.258660  0.500040  0.341840  1.0  -0.4575
  O  O273  1  0.204560  0.581450  0.462430  1.0  -0.585
  O  O274  1  0.359420  0.560800  0.433760  1.0  -0.4394
  O  O275  1  0.557800  0.974020  0.092380  1.0  -0.6086
  O  O276  1  0.600540  0.999960  0.158160  1.0  -0.4573
  O  O277  1  0.204560  0.462430  0.581450  1.0  -0.5855
  O  O278  1  0.359420  0.433760  0.560800  1.0  -0.44
  O  O279  1  0.557800  0.092380  0.974020  1.0  -0.6096
  O  O280  1  0.600540  0.158160  0.999960  1.0  -0.4592
  O  O281  1  0.748440  0.037570  0.918550  1.0  -0.5854
  O  O282  1  0.853980  0.066240  0.939200  1.0  -0.4417
  O  O283  1  0.124200  0.407620  0.525980  1.0  -0.61
  O  O284  1  0.258660  0.341840  0.500040  1.0  -0.4594
  O  O285  1  0.795440  0.537570  0.418550  1.0  -0.5856
  O  O286  1  0.640580  0.566240  0.439200  1.0  -0.4422
  O  O287  1  0.442200  0.907620  0.025980  1.0  -0.6103
  O  O288  1  0.399460  0.841840  0.000040  1.0  -0.4579
  O  O289  1  0.251560  0.962430  0.081450  1.0  -0.5868
  O  O290  1  0.146020  0.933760  0.060800  1.0  -0.4389
  O  O291  1  0.875800  0.592380  0.474020  1.0  -0.6098
  O  O292  1  0.741340  0.658160  0.499960  1.0  -0.4626
  O  O293  1  0.251560  0.081450  0.962430  1.0  -0.5851
  O  O294  1  0.146020  0.060800  0.933760  1.0  -0.4423
  O  O295  1  0.875800  0.474020  0.592380  1.0  -0.6097
  O  O296  1  0.741340  0.499960  0.658160  1.0  -0.4593
  O  O297  1  0.795440  0.418550  0.537570  1.0  -0.5866
  O  O298  1  0.640580  0.439200  0.566240  1.0  -0.4427
  O  O299  1  0.442200  0.025980  0.907620  1.0  -0.6071
  O  O300  1  0.399460  0.000040  0.841840  1.0  -0.4576
