# generated using pymatgen
data_CdH3C2N4Cl
_symmetry_space_group_name_H-M   'P 1'
_cell_length_a   18.27210000
_cell_length_b   18.27210000
_cell_length_c   18.27210000
_cell_angle_alpha   105.05100000
_cell_angle_beta   105.05100000
_cell_angle_gamma   118.72800000
_symmetry_Int_Tables_number   1
_chemical_formula_structural   CdH3C2N4Cl
_chemical_formula_sum   'Cd24 H72 C48 N96 Cl24'
_cell_volume   4602.88163688
_cell_formula_units_Z   24
loop_
 _symmetry_equiv_pos_site_id
 _symmetry_equiv_pos_as_xyz
  1  'x, y, z'
loop_
 _atom_site_type_symbol
 _atom_site_label
 _atom_site_symmetry_multiplicity
 _atom_site_fract_x
 _atom_site_fract_y
 _atom_site_fract_z
 _atom_site_occupancy
 _atom_site_charge
  Cd  Cd1  1  0.409600  0.922160  0.123100  1.0  0.6941
  Cd  Cd2  1  0.566780  0.186200  0.215060  1.0  0.8087
  Cd  Cd3  1  0.570850  0.829890  0.206240  1.0  0.6655
  Cd  Cd4  1  0.799060  0.286500  0.876900  1.0  0.6988
  Cd  Cd5  1  0.971140  0.351720  0.784940  1.0  0.8105
  Cd  Cd6  1  0.623650  0.364610  0.793760  1.0  0.6352
  Cd  Cd7  1  0.077840  0.200940  0.487440  1.0  0.6983
  Cd  Cd8  1  0.813800  0.028860  0.380580  1.0  0.8059
  Cd  Cd9  1  0.170110  0.376350  0.740970  1.0  0.6812
  Cd  Cd10  1  0.713500  0.590400  0.512560  1.0  0.6903
  Cd  Cd11  1  0.648280  0.433220  0.619420  1.0  0.8082
  Cd  Cd12  1  0.635390  0.429150  0.259040  1.0  0.689
  Cd  Cd13  1  0.200940  0.077840  0.487440  1.0  0.6885
  Cd  Cd14  1  0.028860  0.813800  0.380580  1.0  0.8014
  Cd  Cd15  1  0.376350  0.170110  0.740970  1.0  0.6682
  Cd  Cd16  1  0.590400  0.713500  0.512560  1.0  0.7037
  Cd  Cd17  1  0.433220  0.648280  0.619420  1.0  0.7981
  Cd  Cd18  1  0.429150  0.635390  0.259040  1.0  0.69
  Cd  Cd19  1  0.286500  0.799060  0.876900  1.0  0.6981
  Cd  Cd20  1  0.351720  0.971140  0.784940  1.0  0.8095
  Cd  Cd21  1  0.364610  0.623650  0.793760  1.0  0.665
  Cd  Cd22  1  0.922160  0.409600  0.123100  1.0  0.7062
  Cd  Cd23  1  0.186200  0.566780  0.215060  1.0  0.8052
  Cd  Cd24  1  0.829890  0.570850  0.206240  1.0  0.6521
  H  H25  1  0.771540  0.272090  0.424920  1.0  0.1355
  H  H26  1  0.816890  0.273840  0.344710  1.0  0.122
  H  H27  1  0.851040  0.236030  0.424660  1.0  0.1431
  H  H28  1  0.146730  0.710550  0.158900  1.0  0.1475
  H  H29  1  0.199740  0.790940  0.113520  1.0  0.1423
  H  H30  1  0.228000  0.839430  0.228030  1.0  0.145
  H  H31  1  0.927720  0.474930  0.655200  1.0  0.1484
  H  H32  1  0.808540  0.421870  0.572520  1.0  0.1455
  H  H33  1  0.851400  0.348390  0.577990  1.0  0.1368
  H  H34  1  0.616080  0.003680  0.773790  1.0  0.1467
  H  H35  1  0.549320  0.984690  0.836820  1.0  0.1467
  H  H36  1  0.675060  0.085650  0.888940  1.0  0.1422
  H  H37  1  0.763960  0.192610  0.612530  1.0  0.142
  H  H38  1  0.728060  0.072960  0.549000  1.0  0.1507
  H  H39  1  0.726030  0.146760  0.495990  1.0  0.1378
  H  H40  1  0.255260  0.355500  0.425570  1.0  0.1492
  H  H41  1  0.259260  0.458910  0.424380  1.0  0.134
  H  H42  1  0.144560  0.345130  0.383600  1.0  0.1523
  H  H43  1  0.534990  0.189710  0.466390  1.0  0.1356
  H  H44  1  0.656460  0.225210  0.494060  1.0  0.1312
  H  H45  1  0.563370  0.145610  0.382040  1.0  0.1452
  H  H46  1  0.008190  0.854410  0.562990  1.0  0.1478
  H  H47  1  0.004370  0.774490  0.610130  1.0  0.1458
  H  H48  1  0.913420  0.796630  0.593320  1.0  0.1506
  H  H49  1  0.079260  0.732480  0.562010  1.0  0.1452
  H  H50  1  0.199780  0.763270  0.605520  1.0  0.1478
  H  H51  1  0.133300  0.722290  0.489990  1.0  0.127
  H  H52  1  0.400750  0.169190  0.391540  1.0  0.1384
  H  H53  1  0.441080  0.293160  0.437780  1.0  0.1438
  H  H54  1  0.317700  0.196730  0.404230  1.0  0.1563
  H  H55  1  0.231770  0.645900  0.508370  1.0  0.134
  H  H56  1  0.173120  0.519100  0.442070  1.0  0.1396
  H  H57  1  0.155630  0.589810  0.392050  1.0  0.1479
  H  H58  1  0.848020  0.023100  0.567380  1.0  0.1479
  H  H59  1  0.811820  0.917290  0.584490  1.0  0.155
  H  H60  1  0.765690  0.985590  0.614570  1.0  0.1538
  H  H61  1  0.482140  0.921530  0.653520  1.0  0.1485
  H  H62  1  0.355770  0.865250  0.587910  1.0  0.1337
  H  H63  1  0.407270  0.800890  0.564280  1.0  0.1471
  H  H64  1  0.984150  0.548930  0.836060  1.0  0.1459
  H  H65  1  0.004360  0.616920  0.774140  1.0  0.1439
  H  H66  1  0.085510  0.674610  0.889350  1.0  0.1447
  H  H67  1  0.237090  0.840220  0.438510  1.0  0.1381
  H  H68  1  0.266190  0.831890  0.347670  1.0  0.1438
  H  H69  1  0.278670  0.767360  0.408100  1.0  0.1381
  H  H70  1  0.746270  0.171300  0.100270  1.0  0.1467
  H  H71  1  0.739280  0.164220  0.198310  1.0  0.1286
  H  H72  1  0.855360  0.238960  0.201870  1.0  0.1534
  H  H73  1  0.541860  0.189190  0.931860  1.0  0.1365
  H  H74  1  0.644860  0.230940  0.029240  1.0  0.1492
  H  H75  1  0.554550  0.247930  0.038900  1.0  0.1444
  H  H76  1  0.569950  0.711080  0.939920  1.0  0.1525
  H  H77  1  0.524420  0.650020  0.001790  1.0  0.156
  H  H78  1  0.631470  0.773090  0.058290  1.0  0.1568
  H  H79  1  0.189970  0.580680  0.942050  1.0  0.1378
  H  H80  1  0.228510  0.524130  0.997570  1.0  0.1446
  H  H81  1  0.249570  0.636450  0.060380  1.0  0.1349
  H  H82  1  0.655910  0.530160  0.011750  1.0  0.169
  H  H83  1  0.700710  0.560980  0.935800  1.0  0.1561
  H  H84  1  0.777580  0.634710  0.052450  1.0  0.1524
  H  H85  1  0.812080  0.746610  0.375640  1.0  0.1349
  H  H86  1  0.762620  0.778300  0.297240  1.0  0.1474
  H  H87  1  0.757250  0.807040  0.400330  1.0  0.1417
  H  H88  1  0.336970  0.358480  0.873870  1.0  0.1696
  H  H89  1  0.309490  0.242540  0.861760  1.0  0.1598
  H  H90  1  0.219340  0.264790  0.856020  1.0  0.1484
  H  H91  1  0.435580  0.370390  0.623540  1.0  0.1308
  H  H92  1  0.357150  0.407580  0.600300  1.0  0.1357
  H  H93  1  0.466010  0.480770  0.702950  1.0  0.1537
  H  H94  1  0.441330  0.376280  0.139350  1.0  0.1679
  H  H95  1  0.468180  0.482500  0.125830  1.0  0.1643
  H  H96  1  0.364650  0.415380  0.143170  1.0  0.1493
  C  C97  1  0.709800  0.137200  0.324000  1.0  0.4404
  C  C98  1  0.792100  0.235500  0.383000  1.0  -0.4665
  C  C99  1  0.292900  0.772900  0.193800  1.0  0.4246
  C  C100  1  0.212100  0.778800  0.172300  1.0  -0.4754
  C  C101  1  0.813200  0.385800  0.676000  1.0  0.4458
  C  C102  1  0.852500  0.409100  0.617000  1.0  -0.4571
  C  C103  1  0.579100  0.099100  0.806200  1.0  0.4276
  C  C104  1  0.606500  0.039800  0.827700  1.0  -0.4651
  C  C105  1  0.862800  0.186800  0.572600  1.0  0.4344
  C  C106  1  0.764500  0.147500  0.556600  1.0  -0.4585
  C  C107  1  0.227100  0.420900  0.520000  1.0  0.4267
  C  C108  1  0.221200  0.393500  0.433300  1.0  -0.4715
  C  C109  1  0.614200  0.290200  0.427400  1.0  0.4355
  C  C110  1  0.590900  0.207900  0.443400  1.0  -0.452
  C  C111  1  0.900900  0.707100  0.480000  1.0  0.4237
  C  C112  1  0.960200  0.787900  0.566700  1.0  -0.4748
  C  C113  1  0.186800  0.862800  0.572600  1.0  0.4302
  C  C114  1  0.147500  0.764500  0.556600  1.0  -0.4681
  C  C115  1  0.420900  0.227100  0.520000  1.0  0.4254
  C  C116  1  0.393500  0.221200  0.433300  1.0  -0.478
  C  C117  1  0.290200  0.614200  0.427400  1.0  0.4335
  C  C118  1  0.207900  0.590900  0.443400  1.0  -0.4717
  C  C119  1  0.707100  0.900900  0.480000  1.0  0.4312
  C  C120  1  0.787900  0.960200  0.566700  1.0  -0.4761
  C  C121  1  0.385800  0.813200  0.676000  1.0  0.4364
  C  C122  1  0.409100  0.852500  0.617000  1.0  -0.4606
  C  C123  1  0.099100  0.579100  0.806200  1.0  0.4267
  C  C124  1  0.039800  0.606500  0.827700  1.0  -0.4758
  C  C125  1  0.137200  0.709800  0.324000  1.0  0.434
  C  C126  1  0.235500  0.792100  0.383000  1.0  -0.4725
  C  C127  1  0.772900  0.292900  0.193800  1.0  0.4391
  C  C128  1  0.778800  0.212100  0.172300  1.0  -0.4735
  C  C129  1  0.512900  0.104900  0.000000  1.0  0.4368
  C  C130  1  0.566900  0.199100  0.000000  1.0  -0.4624
  C  C131  1  0.501600  0.754400  0.000000  1.0  0.4307
  C  C132  1  0.560200  0.720200  0.000000  1.0  -0.494
  C  C133  1  0.104900  0.512900  0.000000  1.0  0.4313
  C  C134  1  0.199100  0.566900  0.000000  1.0  -0.48
  C  C135  1  0.754400  0.501600  0.000000  1.0  0.4539
  C  C136  1  0.720200  0.560200  0.000000  1.0  -0.4914
  C  C137  1  0.895100  0.895100  0.408000  1.0  0.422
  C  C138  1  0.800900  0.800900  0.367800  1.0  -0.4682
  C  C139  1  0.245600  0.245600  0.747200  1.0  0.457
  C  C140  1  0.279800  0.279800  0.840000  1.0  -0.482
  C  C141  1  0.487100  0.487100  0.592000  1.0  0.4259
  C  C142  1  0.433100  0.433100  0.632200  1.0  -0.4686
  C  C143  1  0.498400  0.498400  0.252800  1.0  0.448
  C  C144  1  0.439800  0.439800  0.160000  1.0  -0.4829
  N  N145  1  0.629400  0.111700  0.264500  1.0  -0.3215
  N  N146  1  0.575000  0.017100  0.226700  1.0  -0.0396
  N  N147  1  0.620200  0.988500  0.261700  1.0  -0.0084
  N  N148  1  0.705000  0.061800  0.323600  1.0  -0.3127
  N  N149  1  0.459100  0.000400  0.041700  1.0  -0.0153
  N  N150  1  0.520400  0.093500  0.070500  1.0  -0.3076
  N  N151  1  0.297300  0.713700  0.222600  1.0  -0.3208
  N  N152  1  0.379800  0.730200  0.233000  1.0  -0.0173
  N  N153  1  0.424300  0.796100  0.211800  1.0  -0.0498
  N  N154  1  0.370800  0.825300  0.187900  1.0  -0.2765
  N  N155  1  0.504100  0.804900  0.068800  1.0  -0.2723
  N  N156  1  0.439400  0.820600  0.041400  1.0  -0.0321
  N  N157  1  0.847200  0.364900  0.735500  1.0  -0.3253
  N  N158  1  0.790400  0.348300  0.773300  1.0  -0.0388
  N  N159  1  0.726800  0.358500  0.738300  1.0  -0.0036
  N  N160  1  0.738200  0.381400  0.676400  1.0  -0.3032
  N  N161  1  0.958700  0.417400  0.958300  1.0  -0.0166
  N  N162  1  0.023000  0.449900  0.929500  1.0  -0.3088
  N  N163  1  0.491100  0.074700  0.777400  1.0  -0.3213
  N  N164  1  0.497200  0.146800  0.767000  1.0  -0.0137
  N  N165  1  0.584300  0.212500  0.788200  1.0  -0.0373
  N  N166  1  0.637400  0.182900  0.812100  1.0  -0.275
  N  N167  1  0.736100  0.435300  0.931200  1.0  -0.2678
  N  N168  1  0.779200  0.398000  0.958600  1.0  -0.0321
  N  N169  1  0.888300  0.152800  0.517700  1.0  -0.3253
  N  N170  1  0.982900  0.209600  0.557900  1.0  -0.0473
  N  N171  1  0.011500  0.273200  0.631700  1.0  -0.005
  N  N172  1  0.938200  0.261800  0.643200  1.0  -0.3093
  N  N173  1  0.999600  0.041300  0.458700  1.0  -0.0121
  N  N174  1  0.906500  0.977000  0.426900  1.0  -0.3124
  N  N175  1  0.286300  0.508900  0.583600  1.0  -0.3187
  N  N176  1  0.269800  0.502800  0.649600  1.0  -0.011
  N  N177  1  0.203900  0.415700  0.628200  1.0  -0.0475
  N  N178  1  0.174700  0.362600  0.545500  1.0  -0.2743
  N  N179  1  0.195100  0.263900  0.699200  1.0  -0.2701
  N  N180  1  0.179400  0.220800  0.618800  1.0  -0.0358
  N  N181  1  0.635100  0.370600  0.482300  1.0  -0.326
  N  N182  1  0.651700  0.425000  0.442100  1.0  -0.0397
  N  N183  1  0.641500  0.379800  0.368300  1.0  -0.0014
  N  N184  1  0.618600  0.295000  0.356800  1.0  -0.3057
  N  N185  1  0.582600  0.540900  0.541300  1.0  -0.0097
  N  N186  1  0.550100  0.479600  0.573100  1.0  -0.3134
  N  N187  1  0.925300  0.702700  0.416400  1.0  -0.3173
  N  N188  1  0.853200  0.620200  0.350400  1.0  -0.0144
  N  N189  1  0.787500  0.575700  0.371800  1.0  -0.0496
  N  N190  1  0.817100  0.629200  0.454500  1.0  -0.2828
  N  N191  1  0.564700  0.495900  0.300800  1.0  -0.2731
  N  N192  1  0.602000  0.560600  0.381200  1.0  -0.0365
  N  N193  1  0.152800  0.888300  0.517700  1.0  -0.3225
  N  N194  1  0.209600  0.982900  0.557900  1.0  -0.0406
  N  N195  1  0.273200  0.011500  0.631700  1.0  -0.006
  N  N196  1  0.261800  0.938200  0.643200  1.0  -0.3073
  N  N197  1  0.041300  0.999600  0.458700  1.0  -0.0088
  N  N198  1  0.977000  0.906500  0.426900  1.0  -0.309
  N  N199  1  0.508900  0.286300  0.583600  1.0  -0.322
  N  N200  1  0.502800  0.269800  0.649600  1.0  -0.0063
  N  N201  1  0.415700  0.203900  0.628200  1.0  -0.0651
  N  N202  1  0.362600  0.174700  0.545500  1.0  -0.2786
  N  N203  1  0.263900  0.195100  0.699200  1.0  -0.2729
  N  N204  1  0.220800  0.179400  0.618800  1.0  -0.036
  N  N205  1  0.370600  0.635100  0.482300  1.0  -0.3303
  N  N206  1  0.425000  0.651700  0.442100  1.0  -0.0404
  N  N207  1  0.379800  0.641500  0.368300  1.0  -0.0037
  N  N208  1  0.295000  0.618600  0.356800  1.0  -0.3037
  N  N209  1  0.540900  0.582600  0.541300  1.0  -0.0158
  N  N210  1  0.479600  0.550100  0.573100  1.0  -0.308
  N  N211  1  0.702700  0.925300  0.416400  1.0  -0.319
  N  N212  1  0.620200  0.853200  0.350400  1.0  -0.0119
  N  N213  1  0.575700  0.787500  0.371800  1.0  -0.048
  N  N214  1  0.629200  0.817100  0.454500  1.0  -0.2752
  N  N215  1  0.495900  0.564700  0.300800  1.0  -0.2716
  N  N216  1  0.560600  0.602000  0.381200  1.0  -0.0357
  N  N217  1  0.364900  0.847200  0.735500  1.0  -0.322
  N  N218  1  0.348300  0.790400  0.773300  1.0  -0.0386
  N  N219  1  0.358500  0.726800  0.738300  1.0  -0.002
  N  N220  1  0.381400  0.738200  0.676400  1.0  -0.3081
  N  N221  1  0.417400  0.958700  0.958300  1.0  -0.0208
  N  N222  1  0.449900  0.023000  0.929500  1.0  -0.314
  N  N223  1  0.074700  0.491100  0.777400  1.0  -0.3224
  N  N224  1  0.146800  0.497200  0.767000  1.0  -0.0107
  N  N225  1  0.212500  0.584300  0.788200  1.0  -0.0494
  N  N226  1  0.182900  0.637400  0.812100  1.0  -0.2737
  N  N227  1  0.435300  0.736100  0.931200  1.0  -0.2638
  N  N228  1  0.398000  0.779200  0.958600  1.0  -0.0315
  N  N229  1  0.111700  0.629400  0.264500  1.0  -0.3209
  N  N230  1  0.017100  0.575000  0.226700  1.0  -0.0421
  N  N231  1  0.988500  0.620200  0.261700  1.0  -0.0041
  N  N232  1  0.061800  0.705000  0.323600  1.0  -0.3032
  N  N233  1  0.000400  0.459100  0.041700  1.0  -0.0183
  N  N234  1  0.093500  0.520400  0.070500  1.0  -0.3094
  N  N235  1  0.713700  0.297300  0.222600  1.0  -0.3123
  N  N236  1  0.730200  0.379800  0.233000  1.0  0.0016
  N  N237  1  0.796100  0.424300  0.211800  1.0  -0.0411
  N  N238  1  0.825300  0.370800  0.187900  1.0  -0.2824
  N  N239  1  0.804900  0.504100  0.068800  1.0  -0.2797
  N  N240  1  0.820600  0.439400  0.041400  1.0  -0.0359
  Cl  Cl241  1  0.415230  0.057900  0.212950  1.0  -0.4841
  Cl  Cl242  1  0.493930  0.263100  0.161350  1.0  -0.4526
  Cl  Cl243  1  0.844950  0.202280  0.787050  1.0  -0.4895
  Cl  Cl244  1  0.101750  0.332580  0.838650  1.0  -0.4509
  Cl  Cl245  1  0.942100  0.155050  0.357330  1.0  -0.4758
  Cl  Cl246  1  0.736900  0.898250  0.230830  1.0  -0.4556
  Cl  Cl247  1  0.797720  0.584770  0.642670  1.0  -0.4821
  Cl  Cl248  1  0.667420  0.506070  0.769170  1.0  -0.4513
  Cl  Cl249  1  0.155050  0.942100  0.357330  1.0  -0.4914
  Cl  Cl250  1  0.898250  0.736900  0.230830  1.0  -0.4628
  Cl  Cl251  1  0.584770  0.797720  0.642670  1.0  -0.4932
  Cl  Cl252  1  0.506070  0.667420  0.769170  1.0  -0.4566
  Cl  Cl253  1  0.202280  0.844950  0.787050  1.0  -0.4855
  Cl  Cl254  1  0.332580  0.101750  0.838650  1.0  -0.4535
  Cl  Cl255  1  0.057900  0.415230  0.212950  1.0  -0.4762
  Cl  Cl256  1  0.263100  0.493930  0.161350  1.0  -0.4461
  Cl  Cl257  1  0.244480  0.819420  0.000000  1.0  -0.4632
  Cl  Cl258  1  0.819420  0.244480  0.000000  1.0  -0.4936
  Cl  Cl259  1  0.180580  0.180580  0.425060  1.0  -0.4763
  Cl  Cl260  1  0.755520  0.755520  0.574940  1.0  -0.4823
  Cl  Cl261  1  0.500000  0.657880  0.157880  1.0  -0.4449
  Cl  Cl262  1  0.500000  0.342120  0.842120  1.0  -0.452
  Cl  Cl263  1  0.342120  0.500000  0.842120  1.0  -0.4597
  Cl  Cl264  1  0.657880  0.500000  0.157880  1.0  -0.4548
