# generated using pymatgen
data_ZnH4(C3O)4
_symmetry_space_group_name_H-M   'P 1'
_cell_length_a   30.30240000
_cell_length_b   30.30240000
_cell_length_c   30.30240000
_cell_angle_alpha   60.00000000
_cell_angle_beta   60.00000000
_cell_angle_gamma   60.00000000
_symmetry_Int_Tables_number   1
_chemical_formula_structural   ZnH4(C3O)4
_chemical_formula_sum   'Zn24 H96 C288 O96'
_cell_volume   19675.06076303
_cell_formula_units_Z   24
loop_
 _symmetry_equiv_pos_site_id
 _symmetry_equiv_pos_as_xyz
  1  'x, y, z'
loop_
 _atom_site_type_symbol
 _atom_site_label
 _atom_site_symmetry_multiplicity
 _atom_site_fract_x
 _atom_site_fract_y
 _atom_site_fract_z
 _atom_site_occupancy
 _atom_site_charge
  Zn  Zn1  1  0.757800  0.500000  0.500000  1.0  1.1019
  Zn  Zn2  1  0.857290  0.500000  0.500000  1.0  1.1137
  Zn  Zn3  1  0.500000  0.757800  0.242200  1.0  1.1024
  Zn  Zn4  1  0.500000  0.857290  0.142710  1.0  1.1094
  Zn  Zn5  1  0.500000  0.242200  0.757800  1.0  1.1008
  Zn  Zn6  1  0.500000  0.142710  0.857290  1.0  1.1105
  Zn  Zn7  1  0.242200  0.500000  0.500000  1.0  1.1045
  Zn  Zn8  1  0.142710  0.500000  0.500000  1.0  1.1131
  Zn  Zn9  1  0.757800  0.500000  0.242200  1.0  1.1034
  Zn  Zn10  1  0.857290  0.500000  0.142710  1.0  1.1144
  Zn  Zn11  1  0.500000  0.242200  0.500000  1.0  1.109
  Zn  Zn12  1  0.500000  0.142710  0.500000  1.0  1.1099
  Zn  Zn13  1  0.500000  0.757800  0.500000  1.0  1.1019
  Zn  Zn14  1  0.500000  0.857290  0.500000  1.0  1.1173
  Zn  Zn15  1  0.242200  0.500000  0.757800  1.0  1.1031
  Zn  Zn16  1  0.142710  0.500000  0.857290  1.0  1.1136
  Zn  Zn17  1  0.757800  0.242200  0.500000  1.0  1.1028
  Zn  Zn18  1  0.857290  0.142710  0.500000  1.0  1.1117
  Zn  Zn19  1  0.500000  0.500000  0.757800  1.0  1.0981
  Zn  Zn20  1  0.500000  0.500000  0.857290  1.0  1.1086
  Zn  Zn21  1  0.500000  0.500000  0.242200  1.0  1.0994
  Zn  Zn22  1  0.500000  0.500000  0.142710  1.0  1.1069
  Zn  Zn23  1  0.242200  0.757800  0.500000  1.0  1.1019
  Zn  Zn24  1  0.142710  0.857290  0.500000  1.0  1.111
  H  H25  1  0.805000  0.464000  0.671400  1.0  0.1185
  H  H26  1  0.464000  0.805000  0.059600  1.0  0.1189
  H  H27  1  0.671400  0.059600  0.805000  1.0  0.1184
  H  H28  1  0.059600  0.671400  0.464000  1.0  0.1179
  H  H29  1  0.805000  0.671400  0.059600  1.0  0.1183
  H  H30  1  0.464000  0.059600  0.671400  1.0  0.1187
  H  H31  1  0.671400  0.805000  0.464000  1.0  0.1181
  H  H32  1  0.059600  0.464000  0.805000  1.0  0.1181
  H  H33  1  0.805000  0.059600  0.464000  1.0  0.1183
  H  H34  1  0.464000  0.671400  0.805000  1.0  0.1178
  H  H35  1  0.671400  0.464000  0.059600  1.0  0.1181
  H  H36  1  0.059600  0.805000  0.671400  1.0  0.1194
  H  H37  1  0.536000  0.195000  0.328600  1.0  0.1189
  H  H38  1  0.195000  0.536000  0.940400  1.0  0.1194
  H  H39  1  0.940400  0.328600  0.195000  1.0  0.1177
  H  H40  1  0.328600  0.940400  0.536000  1.0  0.1176
  H  H41  1  0.328600  0.195000  0.940400  1.0  0.1178
  H  H42  1  0.940400  0.536000  0.328600  1.0  0.1176
  H  H43  1  0.195000  0.328600  0.536000  1.0  0.1178
  H  H44  1  0.536000  0.940400  0.195000  1.0  0.1181
  H  H45  1  0.940400  0.195000  0.536000  1.0  0.1197
  H  H46  1  0.328600  0.536000  0.195000  1.0  0.1185
  H  H47  1  0.536000  0.328600  0.940400  1.0  0.1173
  H  H48  1  0.195000  0.940400  0.328600  1.0  0.1175
  H  H49  1  0.195000  0.536000  0.328600  1.0  0.1191
  H  H50  1  0.536000  0.195000  0.940400  1.0  0.1195
  H  H51  1  0.328600  0.940400  0.195000  1.0  0.1176
  H  H52  1  0.940400  0.328600  0.536000  1.0  0.1175
  H  H53  1  0.195000  0.328600  0.940400  1.0  0.1168
  H  H54  1  0.536000  0.940400  0.328600  1.0  0.1177
  H  H55  1  0.328600  0.195000  0.536000  1.0  0.1181
  H  H56  1  0.940400  0.536000  0.195000  1.0  0.1185
  H  H57  1  0.195000  0.940400  0.536000  1.0  0.1178
  H  H58  1  0.536000  0.328600  0.195000  1.0  0.1186
  H  H59  1  0.328600  0.536000  0.940400  1.0  0.1172
  H  H60  1  0.940400  0.195000  0.328600  1.0  0.1193
  H  H61  1  0.464000  0.805000  0.671400  1.0  0.1195
  H  H62  1  0.805000  0.464000  0.059600  1.0  0.1181
  H  H63  1  0.059600  0.671400  0.805000  1.0  0.1181
  H  H64  1  0.671400  0.059600  0.464000  1.0  0.1184
  H  H65  1  0.671400  0.805000  0.059600  1.0  0.1187
  H  H66  1  0.059600  0.464000  0.671400  1.0  0.118
  H  H67  1  0.805000  0.671400  0.464000  1.0  0.1178
  H  H68  1  0.464000  0.059600  0.805000  1.0  0.1184
  H  H69  1  0.059600  0.805000  0.464000  1.0  0.1191
  H  H70  1  0.671400  0.464000  0.805000  1.0  0.1173
  H  H71  1  0.464000  0.671400  0.059600  1.0  0.1186
  H  H72  1  0.805000  0.059600  0.671400  1.0  0.1186
  H  H73  1  0.665200  0.484800  0.665200  1.0  0.1116
  H  H74  1  0.484800  0.665200  0.184800  1.0  0.1116
  H  H75  1  0.665200  0.184800  0.665200  1.0  0.1122
  H  H76  1  0.184800  0.665200  0.484800  1.0  0.1107
  H  H77  1  0.665200  0.665200  0.184800  1.0  0.1112
  H  H78  1  0.484800  0.184800  0.665200  1.0  0.1127
  H  H79  1  0.665200  0.665200  0.484800  1.0  0.111
  H  H80  1  0.184800  0.484800  0.665200  1.0  0.1119
  H  H81  1  0.665200  0.184800  0.484800  1.0  0.1121
  H  H82  1  0.484800  0.665200  0.665200  1.0  0.1111
  H  H83  1  0.665200  0.484800  0.184800  1.0  0.1121
  H  H84  1  0.184800  0.665200  0.665200  1.0  0.1109
  H  H85  1  0.515200  0.334800  0.334800  1.0  0.1116
  H  H86  1  0.334800  0.515200  0.815200  1.0  0.1114
  H  H87  1  0.815200  0.334800  0.334800  1.0  0.1109
  H  H88  1  0.334800  0.815200  0.515200  1.0  0.1125
  H  H89  1  0.334800  0.334800  0.815200  1.0  0.1111
  H  H90  1  0.815200  0.515200  0.334800  1.0  0.1116
  H  H91  1  0.334800  0.334800  0.515200  1.0  0.1112
  H  H92  1  0.515200  0.815200  0.334800  1.0  0.1127
  H  H93  1  0.815200  0.334800  0.515200  1.0  0.1113
  H  H94  1  0.334800  0.515200  0.334800  1.0  0.1119
  H  H95  1  0.515200  0.334800  0.815200  1.0  0.1111
  H  H96  1  0.334800  0.815200  0.334800  1.0  0.1122
  H  H97  1  0.894800  0.447400  0.763000  1.0  0.1121
  H  H98  1  0.447400  0.894800  0.894800  1.0  0.1117
  H  H99  1  0.763000  0.894800  0.894800  1.0  0.1119
  H  H100  1  0.894800  0.763000  0.447400  1.0  0.1139
  H  H101  1  0.894800  0.763000  0.894800  1.0  0.1144
  H  H102  1  0.447400  0.894800  0.763000  1.0  0.1115
  H  H103  1  0.763000  0.894800  0.447400  1.0  0.1113
  H  H104  1  0.894800  0.447400  0.894800  1.0  0.1121
  H  H105  1  0.894800  0.894800  0.447400  1.0  0.112
  H  H106  1  0.447400  0.763000  0.894800  1.0  0.1142
  H  H107  1  0.763000  0.447400  0.894800  1.0  0.1123
  H  H108  1  0.894800  0.894800  0.763000  1.0  0.1118
  H  H109  1  0.552600  0.105200  0.237000  1.0  0.112
  H  H110  1  0.105200  0.552600  0.105200  1.0  0.1119
  H  H111  1  0.105200  0.237000  0.105200  1.0  0.1128
  H  H112  1  0.237000  0.105200  0.552600  1.0  0.1125
  H  H113  1  0.237000  0.105200  0.105200  1.0  0.112
  H  H114  1  0.105200  0.552600  0.237000  1.0  0.1122
  H  H115  1  0.105200  0.237000  0.552600  1.0  0.1137
  H  H116  1  0.552600  0.105200  0.105200  1.0  0.1119
  H  H117  1  0.105200  0.105200  0.552600  1.0  0.1112
  H  H118  1  0.237000  0.552600  0.105200  1.0  0.1123
  H  H119  1  0.552600  0.237000  0.105200  1.0  0.1135
  H  H120  1  0.105200  0.105200  0.237000  1.0  0.1121
  C  C121  1  0.764910  0.483790  0.600530  1.0  0.6994
  C  C122  1  0.738330  0.477130  0.659350  1.0  -0.1548
  C  C123  1  0.767680  0.468360  0.688120  1.0  -0.0585
  C  C124  1  0.483790  0.764910  0.150770  1.0  0.699
  C  C125  1  0.477130  0.738330  0.125190  1.0  -0.1555
  C  C126  1  0.468360  0.767680  0.075840  1.0  -0.0617
  C  C127  1  0.600530  0.150770  0.764910  1.0  0.6997
  C  C128  1  0.659350  0.125190  0.738330  1.0  -0.1551
  C  C129  1  0.688120  0.075840  0.767680  1.0  -0.0617
  C  C130  1  0.150770  0.600530  0.483790  1.0  0.6987
  C  C131  1  0.125190  0.659350  0.477130  1.0  -0.1548
  C  C132  1  0.075840  0.688120  0.468360  1.0  -0.0619
  C  C133  1  0.764910  0.600530  0.150770  1.0  0.6982
  C  C134  1  0.738330  0.659350  0.125190  1.0  -0.1551
  C  C135  1  0.767680  0.688120  0.075840  1.0  -0.0594
  C  C136  1  0.483790  0.150770  0.600530  1.0  0.6997
  C  C137  1  0.477130  0.125190  0.659350  1.0  -0.1551
  C  C138  1  0.468360  0.075840  0.688120  1.0  -0.0625
  C  C139  1  0.600530  0.764910  0.483790  1.0  0.6995
  C  C140  1  0.659350  0.738330  0.477130  1.0  -0.1558
  C  C141  1  0.688120  0.767680  0.468360  1.0  -0.0617
  C  C142  1  0.150770  0.483790  0.764910  1.0  0.6999
  C  C143  1  0.125190  0.477130  0.738330  1.0  -0.1555
  C  C144  1  0.075840  0.468360  0.767680  1.0  -0.0612
  C  C145  1  0.764910  0.150770  0.483790  1.0  0.6983
  C  C146  1  0.738330  0.125190  0.477130  1.0  -0.1547
  C  C147  1  0.767680  0.075840  0.468360  1.0  -0.0591
  C  C148  1  0.483790  0.600530  0.764910  1.0  0.6982
  C  C149  1  0.477130  0.659350  0.738330  1.0  -0.155
  C  C150  1  0.468360  0.688120  0.767680  1.0  -0.0621
  C  C151  1  0.600530  0.483790  0.150770  1.0  0.7004
  C  C152  1  0.659350  0.477130  0.125190  1.0  -0.1549
  C  C153  1  0.688120  0.468360  0.075840  1.0  -0.0618
  C  C154  1  0.150770  0.764910  0.600530  1.0  0.6985
  C  C155  1  0.125190  0.738330  0.659350  1.0  -0.1549
  C  C156  1  0.075840  0.767680  0.688120  1.0  -0.0615
  C  C157  1  0.516210  0.235090  0.399470  1.0  0.7
  C  C158  1  0.522870  0.261670  0.340650  1.0  -0.1561
  C  C159  1  0.531640  0.232320  0.311880  1.0  -0.0625
  C  C160  1  0.235090  0.516210  0.849230  1.0  0.6992
  C  C161  1  0.261670  0.522870  0.874810  1.0  -0.155
  C  C162  1  0.232320  0.531640  0.924160  1.0  -0.0595
  C  C163  1  0.849230  0.399470  0.235090  1.0  0.6988
  C  C164  1  0.874810  0.340650  0.261670  1.0  -0.1546
  C  C165  1  0.924160  0.311880  0.232320  1.0  -0.0612
  C  C166  1  0.399470  0.849230  0.516210  1.0  0.6984
  C  C167  1  0.340650  0.874810  0.522870  1.0  -0.1548
  C  C168  1  0.311880  0.924160  0.531640  1.0  -0.0616
  C  C169  1  0.399470  0.235090  0.849230  1.0  0.6985
  C  C170  1  0.340650  0.261670  0.874810  1.0  -0.1546
  C  C171  1  0.311880  0.232320  0.924160  1.0  -0.0612
  C  C172  1  0.849230  0.516210  0.399470  1.0  0.6998
  C  C173  1  0.874810  0.522870  0.340650  1.0  -0.1563
  C  C174  1  0.924160  0.531640  0.311880  1.0  -0.0594
  C  C175  1  0.235090  0.399470  0.516210  1.0  0.6987
  C  C176  1  0.261670  0.340650  0.522870  1.0  -0.1549
  C  C177  1  0.232320  0.311880  0.531640  1.0  -0.0604
  C  C178  1  0.516210  0.849230  0.235090  1.0  0.7001
  C  C179  1  0.522870  0.874810  0.261670  1.0  -0.1555
  C  C180  1  0.531640  0.924160  0.232320  1.0  -0.0625
  C  C181  1  0.849230  0.235090  0.516210  1.0  0.6979
  C  C182  1  0.874810  0.261670  0.522870  1.0  -0.1554
  C  C183  1  0.924160  0.232320  0.531640  1.0  -0.0596
  C  C184  1  0.399470  0.516210  0.235090  1.0  0.6989
  C  C185  1  0.340650  0.522870  0.261670  1.0  -0.1545
  C  C186  1  0.311880  0.531640  0.232320  1.0  -0.0607
  C  C187  1  0.516210  0.399470  0.849230  1.0  0.699
  C  C188  1  0.522870  0.340650  0.874810  1.0  -0.1551
  C  C189  1  0.531640  0.311880  0.924160  1.0  -0.0609
  C  C190  1  0.235090  0.849230  0.399470  1.0  0.6977
  C  C191  1  0.261670  0.874810  0.340650  1.0  -0.1546
  C  C192  1  0.232320  0.924160  0.311880  1.0  -0.0614
  C  C193  1  0.235090  0.516210  0.399470  1.0  0.6991
  C  C194  1  0.261670  0.522870  0.340650  1.0  -0.1554
  C  C195  1  0.232320  0.531640  0.311880  1.0  -0.0597
  C  C196  1  0.516210  0.235090  0.849230  1.0  0.7001
  C  C197  1  0.522870  0.261670  0.874810  1.0  -0.1558
  C  C198  1  0.531640  0.232320  0.924160  1.0  -0.0625
  C  C199  1  0.399470  0.849230  0.235090  1.0  0.6988
  C  C200  1  0.340650  0.874810  0.261670  1.0  -0.1549
  C  C201  1  0.311880  0.924160  0.232320  1.0  -0.0629
  C  C202  1  0.849230  0.399470  0.516210  1.0  0.6987
  C  C203  1  0.874810  0.340650  0.522870  1.0  -0.1546
  C  C204  1  0.924160  0.311880  0.531640  1.0  -0.06
  C  C205  1  0.235090  0.399470  0.849230  1.0  0.6987
  C  C206  1  0.261670  0.340650  0.874810  1.0  -0.1549
  C  C207  1  0.232320  0.311880  0.924160  1.0  -0.0601
  C  C208  1  0.516210  0.849230  0.399470  1.0  0.7004
  C  C209  1  0.522870  0.874810  0.340650  1.0  -0.1558
  C  C210  1  0.531640  0.924160  0.311880  1.0  -0.0613
  C  C211  1  0.399470  0.235090  0.516210  1.0  0.6984
  C  C212  1  0.340650  0.261670  0.522870  1.0  -0.1546
  C  C213  1  0.311880  0.232320  0.531640  1.0  -0.0613
  C  C214  1  0.849230  0.516210  0.235090  1.0  0.6996
  C  C215  1  0.874810  0.522870  0.261670  1.0  -0.1559
  C  C216  1  0.924160  0.531640  0.232320  1.0  -0.0601
  C  C217  1  0.235090  0.849230  0.516210  1.0  0.698
  C  C218  1  0.261670  0.874810  0.522870  1.0  -0.1551
  C  C219  1  0.232320  0.924160  0.531640  1.0  -0.0612
  C  C220  1  0.516210  0.399470  0.235090  1.0  0.6989
  C  C221  1  0.522870  0.340650  0.261670  1.0  -0.155
  C  C222  1  0.531640  0.311880  0.232320  1.0  -0.0619
  C  C223  1  0.399470  0.516210  0.849230  1.0  0.6988
  C  C224  1  0.340650  0.522870  0.874810  1.0  -0.1546
  C  C225  1  0.311880  0.531640  0.924160  1.0  -0.0597
  C  C226  1  0.849230  0.235090  0.399470  1.0  0.6977
  C  C227  1  0.874810  0.261670  0.340650  1.0  -0.1547
  C  C228  1  0.924160  0.232320  0.311880  1.0  -0.0598
  C  C229  1  0.483790  0.764910  0.600530  1.0  0.6991
  C  C230  1  0.477130  0.738330  0.659350  1.0  -0.155
  C  C231  1  0.468360  0.767680  0.688120  1.0  -0.0613
  C  C232  1  0.764910  0.483790  0.150770  1.0  0.6994
  C  C233  1  0.738330  0.477130  0.125190  1.0  -0.1552
  C  C234  1  0.767680  0.468360  0.075840  1.0  -0.0585
  C  C235  1  0.150770  0.600530  0.764910  1.0  0.6983
  C  C236  1  0.125190  0.659350  0.738330  1.0  -0.1546
  C  C237  1  0.075840  0.688120  0.767680  1.0  -0.0619
  C  C238  1  0.600530  0.150770  0.483790  1.0  0.7001
  C  C239  1  0.659350  0.125190  0.477130  1.0  -0.155
  C  C240  1  0.688120  0.075840  0.468360  1.0  -0.0623
  C  C241  1  0.600530  0.764910  0.150770  1.0  0.6993
  C  C242  1  0.659350  0.738330  0.125190  1.0  -0.1559
  C  C243  1  0.688120  0.767680  0.075840  1.0  -0.0622
  C  C244  1  0.150770  0.483790  0.600530  1.0  0.6996
  C  C245  1  0.125190  0.477130  0.659350  1.0  -0.1551
  C  C246  1  0.075840  0.468360  0.688120  1.0  -0.061
  C  C247  1  0.764910  0.600530  0.483790  1.0  0.6983
  C  C248  1  0.738330  0.659350  0.477130  1.0  -0.1551
  C  C249  1  0.767680  0.688120  0.468360  1.0  -0.0589
  C  C250  1  0.483790  0.150770  0.764910  1.0  0.6999
  C  C251  1  0.477130  0.125190  0.738330  1.0  -0.1557
  C  C252  1  0.468360  0.075840  0.767680  1.0  -0.062
  C  C253  1  0.150770  0.764910  0.483790  1.0  0.6981
  C  C254  1  0.125190  0.738330  0.477130  1.0  -0.1545
  C  C255  1  0.075840  0.767680  0.468360  1.0  -0.0616
  C  C256  1  0.600530  0.483790  0.764910  1.0  0.7004
  C  C257  1  0.659350  0.477130  0.738330  1.0  -0.1549
  C  C258  1  0.688120  0.468360  0.767680  1.0  -0.0618
  C  C259  1  0.483790  0.600530  0.150770  1.0  0.6982
  C  C260  1  0.477130  0.659350  0.125190  1.0  -0.155
  C  C261  1  0.468360  0.688120  0.075840  1.0  -0.0621
  C  C262  1  0.764910  0.150770  0.600530  1.0  0.6987
  C  C263  1  0.738330  0.125190  0.659350  1.0  -0.1551
  C  C264  1  0.767680  0.075840  0.688120  1.0  -0.0589
  C  C265  1  0.684640  0.480340  0.684640  1.0  0.0059
  C  C266  1  0.741540  0.466100  0.741540  1.0  0.0776
  C  C267  1  0.772100  0.455300  0.772100  1.0  -0.089
  C  C268  1  0.797700  0.445900  0.797700  1.0  -0.058
  C  C269  1  0.824600  0.447000  0.824600  1.0  0.0844
  C  C270  1  0.480340  0.684640  0.150380  1.0  0.0062
  C  C271  1  0.466100  0.741540  0.050820  1.0  0.0775
  C  C272  1  0.455300  0.772100  0.000500  1.0  -0.0891
  C  C273  1  0.445900  0.797700  0.958700  1.0  -0.0539
  C  C274  1  0.447000  0.824600  0.903800  1.0  0.0885
  C  C275  1  0.684640  0.150380  0.684640  1.0  0.0074
  C  C276  1  0.741540  0.050820  0.741540  1.0  0.0769
  C  C277  1  0.772100  0.000500  0.772100  1.0  -0.0864
  C  C278  1  0.797700  0.958700  0.797700  1.0  -0.0543
  C  C279  1  0.824600  0.903800  0.824600  1.0  0.0897
  C  C280  1  0.150380  0.684640  0.480340  1.0  0.0078
  C  C281  1  0.050820  0.741540  0.466100  1.0  0.0748
  C  C282  1  0.000500  0.772100  0.455300  1.0  -0.091
  C  C283  1  0.958700  0.797700  0.445900  1.0  -0.0527
  C  C284  1  0.903800  0.824600  0.447000  1.0  0.0884
  C  C285  1  0.684640  0.684640  0.150380  1.0  0.0059
  C  C286  1  0.741540  0.741540  0.050820  1.0  0.0776
  C  C287  1  0.772100  0.772100  0.000500  1.0  -0.0868
  C  C288  1  0.797700  0.797700  0.958700  1.0  -0.0543
  C  C289  1  0.824600  0.824600  0.903800  1.0  0.0875
  C  C290  1  0.480340  0.150380  0.684640  1.0  0.0084
  C  C291  1  0.466100  0.050820  0.741540  1.0  0.0744
  C  C292  1  0.455300  0.000500  0.772100  1.0  -0.088
  C  C293  1  0.445900  0.958700  0.797700  1.0  -0.055
  C  C294  1  0.447000  0.903800  0.824600  1.0  0.0889
  C  C295  1  0.684640  0.684640  0.480340  1.0  0.0059
  C  C296  1  0.741540  0.741540  0.466100  1.0  0.077
  C  C297  1  0.772100  0.772100  0.455300  1.0  -0.0869
  C  C298  1  0.797700  0.797700  0.445900  1.0  -0.0581
  C  C299  1  0.824600  0.824600  0.447000  1.0  0.0818
  C  C300  1  0.150380  0.480340  0.684640  1.0  0.008
  C  C301  1  0.050820  0.466100  0.741540  1.0  0.0751
  C  C302  1  0.000500  0.455300  0.772100  1.0  -0.0888
  C  C303  1  0.958700  0.445900  0.797700  1.0  -0.0544
  C  C304  1  0.903800  0.447000  0.824600  1.0  0.0884
  C  C305  1  0.684640  0.150380  0.480340  1.0  0.0068
  C  C306  1  0.741540  0.050820  0.466100  1.0  0.0769
  C  C307  1  0.772100  0.000500  0.455300  1.0  -0.087
  C  C308  1  0.797700  0.958700  0.445900  1.0  -0.0551
  C  C309  1  0.824600  0.903800  0.447000  1.0  0.089
  C  C310  1  0.480340  0.684640  0.684640  1.0  0.0067
  C  C311  1  0.466100  0.741540  0.741540  1.0  0.0771
  C  C312  1  0.455300  0.772100  0.772100  1.0  -0.0877
  C  C313  1  0.445900  0.797700  0.797700  1.0  -0.0568
  C  C314  1  0.447000  0.824600  0.824600  1.0  0.0834
  C  C315  1  0.684640  0.480340  0.150380  1.0  0.0048
  C  C316  1  0.741540  0.466100  0.050820  1.0  0.0777
  C  C317  1  0.772100  0.455300  0.000500  1.0  -0.0906
  C  C318  1  0.797700  0.445900  0.958700  1.0  -0.0546
  C  C319  1  0.824600  0.447000  0.903800  1.0  0.0888
  C  C320  1  0.150380  0.684640  0.684640  1.0  0.0078
  C  C321  1  0.050820  0.741540  0.741540  1.0  0.0748
  C  C322  1  0.000500  0.772100  0.772100  1.0  -0.0904
  C  C323  1  0.958700  0.797700  0.797700  1.0  -0.0514
  C  C324  1  0.903800  0.824600  0.824600  1.0  0.09
  C  C325  1  0.519660  0.315360  0.315360  1.0  0.0053
  C  C326  1  0.533900  0.258460  0.258460  1.0  0.076
  C  C327  1  0.544700  0.227900  0.227900  1.0  -0.0896
  C  C328  1  0.554100  0.202300  0.202300  1.0  -0.0546
  C  C329  1  0.553000  0.175400  0.175400  1.0  0.0847
  C  C330  1  0.315360  0.519660  0.849620  1.0  0.0063
  C  C331  1  0.258460  0.533900  0.949180  1.0  0.076
  C  C332  1  0.227900  0.544700  0.999500  1.0  -0.0887
  C  C333  1  0.202300  0.554100  0.041300  1.0  -0.0556
  C  C334  1  0.175400  0.553000  0.096200  1.0  0.0882
  C  C335  1  0.849620  0.315360  0.315360  1.0  0.0081
  C  C336  1  0.949180  0.258460  0.258460  1.0  0.0767
  C  C337  1  0.999500  0.227900  0.227900  1.0  -0.0887
  C  C338  1  0.041300  0.202300  0.202300  1.0  -0.0518
  C  C339  1  0.096200  0.175400  0.175400  1.0  0.0874
  C  C340  1  0.315360  0.849620  0.519660  1.0  0.0092
  C  C341  1  0.258460  0.949180  0.533900  1.0  0.0768
  C  C342  1  0.227900  0.999500  0.544700  1.0  -0.087
  C  C343  1  0.202300  0.041300  0.554100  1.0  -0.0546
  C  C344  1  0.175400  0.096200  0.553000  1.0  0.0883
  C  C345  1  0.315360  0.315360  0.849620  1.0  0.0065
  C  C346  1  0.258460  0.258460  0.949180  1.0  0.0722
  C  C347  1  0.227900  0.227900  0.999500  1.0  -0.0906
  C  C348  1  0.202300  0.202300  0.041300  1.0  -0.0535
  C  C349  1  0.175400  0.175400  0.096200  1.0  0.0886
  C  C350  1  0.849620  0.519660  0.315360  1.0  0.0071
  C  C351  1  0.949180  0.533900  0.258460  1.0  0.0759
  C  C352  1  0.999500  0.544700  0.227900  1.0  -0.0859
  C  C353  1  0.041300  0.554100  0.202300  1.0  -0.0547
  C  C354  1  0.096200  0.553000  0.175400  1.0  0.086
  C  C355  1  0.315360  0.315360  0.519660  1.0  0.0062
  C  C356  1  0.258460  0.258460  0.533900  1.0  0.0723
  C  C357  1  0.227900  0.227900  0.544700  1.0  -0.0907
  C  C358  1  0.202300  0.202300  0.554100  1.0  -0.0556
  C  C359  1  0.175400  0.175400  0.553000  1.0  0.0835
  C  C360  1  0.519660  0.849620  0.315360  1.0  0.0079
  C  C361  1  0.533900  0.949180  0.258460  1.0  0.0768
  C  C362  1  0.544700  0.999500  0.227900  1.0  -0.0878
  C  C363  1  0.554100  0.041300  0.202300  1.0  -0.055
  C  C364  1  0.553000  0.096200  0.175400  1.0  0.0876
  C  C365  1  0.849620  0.315360  0.519660  1.0  0.0083
  C  C366  1  0.949180  0.258460  0.533900  1.0  0.077
  C  C367  1  0.999500  0.227900  0.544700  1.0  -0.0883
  C  C368  1  0.041300  0.202300  0.554100  1.0  -0.0529
  C  C369  1  0.096200  0.175400  0.553000  1.0  0.0861
  C  C370  1  0.315360  0.519660  0.315360  1.0  0.0058
  C  C371  1  0.258460  0.533900  0.258460  1.0  0.0747
  C  C372  1  0.227900  0.544700  0.227900  1.0  -0.0903
  C  C373  1  0.202300  0.554100  0.202300  1.0  -0.0564
  C  C374  1  0.175400  0.553000  0.175400  1.0  0.0846
  C  C375  1  0.519660  0.315360  0.849620  1.0  0.0062
  C  C376  1  0.533900  0.258460  0.949180  1.0  0.0763
  C  C377  1  0.544700  0.227900  0.999500  1.0  -0.0879
  C  C378  1  0.554100  0.202300  0.041300  1.0  -0.0547
  C  C379  1  0.553000  0.175400  0.096200  1.0  0.0884
  C  C380  1  0.315360  0.849620  0.315360  1.0  0.0088
  C  C381  1  0.258460  0.949180  0.258460  1.0  0.0768
  C  C382  1  0.227900  0.999500  0.227900  1.0  -0.0877
  C  C383  1  0.202300  0.041300  0.202300  1.0  -0.0531
  C  C384  1  0.175400  0.096200  0.175400  1.0  0.0889
  C  C385  1  0.876800  0.447200  0.799200  1.0  -0.0654
  C  C386  1  0.447200  0.876800  0.876800  1.0  -0.0653
  C  C387  1  0.799200  0.876800  0.876800  1.0  -0.0658
  C  C388  1  0.876800  0.799200  0.447200  1.0  -0.0657
  C  C389  1  0.876800  0.799200  0.876800  1.0  -0.0657
  C  C390  1  0.447200  0.876800  0.799200  1.0  -0.0655
  C  C391  1  0.799200  0.876800  0.447200  1.0  -0.0652
  C  C392  1  0.876800  0.447200  0.876800  1.0  -0.0643
  C  C393  1  0.876800  0.876800  0.447200  1.0  -0.0632
  C  C394  1  0.447200  0.799200  0.876800  1.0  -0.0605
  C  C395  1  0.799200  0.447200  0.876800  1.0  -0.0593
  C  C396  1  0.876800  0.876800  0.799200  1.0  -0.0642
  C  C397  1  0.552800  0.123200  0.200800  1.0  -0.0594
  C  C398  1  0.123200  0.552800  0.123200  1.0  -0.0588
  C  C399  1  0.123200  0.200800  0.123200  1.0  -0.0662
  C  C400  1  0.200800  0.123200  0.552800  1.0  -0.0643
  C  C401  1  0.200800  0.123200  0.123200  1.0  -0.0594
  C  C402  1  0.123200  0.552800  0.200800  1.0  -0.0603
  C  C403  1  0.123200  0.200800  0.552800  1.0  -0.0668
  C  C404  1  0.552800  0.123200  0.123200  1.0  -0.0575
  C  C405  1  0.123200  0.123200  0.552800  1.0  -0.0595
  C  C406  1  0.200800  0.552800  0.123200  1.0  -0.0623
  C  C407  1  0.552800  0.200800  0.123200  1.0  -0.066
  C  C408  1  0.123200  0.123200  0.200800  1.0  -0.0571
  O  O409  1  0.737710  0.486810  0.578350  1.0  -0.6215
  O  O410  1  0.811250  0.487170  0.578130  1.0  -0.6272
  O  O411  1  0.486810  0.737710  0.197130  1.0  -0.6224
  O  O412  1  0.487170  0.811250  0.123450  1.0  -0.6264
  O  O413  1  0.578350  0.197130  0.737710  1.0  -0.6218
  O  O414  1  0.578130  0.123450  0.811250  1.0  -0.6271
  O  O415  1  0.197130  0.578350  0.486810  1.0  -0.6218
  O  O416  1  0.123450  0.578130  0.487170  1.0  -0.6257
  O  O417  1  0.737710  0.578350  0.197130  1.0  -0.6216
  O  O418  1  0.811250  0.578130  0.123450  1.0  -0.6258
  O  O419  1  0.486810  0.197130  0.578350  1.0  -0.622
  O  O420  1  0.487170  0.123450  0.578130  1.0  -0.6271
  O  O421  1  0.578350  0.737710  0.486810  1.0  -0.6226
  O  O422  1  0.578130  0.811250  0.487170  1.0  -0.6258
  O  O423  1  0.197130  0.486810  0.737710  1.0  -0.623
  O  O424  1  0.123450  0.487170  0.811250  1.0  -0.6259
  O  O425  1  0.737710  0.197130  0.486810  1.0  -0.623
  O  O426  1  0.811250  0.123450  0.487170  1.0  -0.6278
  O  O427  1  0.486810  0.578350  0.737710  1.0  -0.6224
  O  O428  1  0.487170  0.578130  0.811250  1.0  -0.6246
  O  O429  1  0.578350  0.486810  0.197130  1.0  -0.621
  O  O430  1  0.578130  0.487170  0.123450  1.0  -0.6276
  O  O431  1  0.197130  0.737710  0.578350  1.0  -0.6238
  O  O432  1  0.123450  0.811250  0.578130  1.0  -0.6278
  O  O433  1  0.513190  0.262290  0.421650  1.0  -0.6213
  O  O434  1  0.512830  0.188750  0.421870  1.0  -0.6264
  O  O435  1  0.262290  0.513190  0.802870  1.0  -0.6217
  O  O436  1  0.188750  0.512830  0.876550  1.0  -0.6264
  O  O437  1  0.802870  0.421650  0.262290  1.0  -0.6214
  O  O438  1  0.876550  0.421870  0.188750  1.0  -0.6255
  O  O439  1  0.421650  0.802870  0.513190  1.0  -0.6235
  O  O440  1  0.421870  0.876550  0.512830  1.0  -0.6268
  O  O441  1  0.421650  0.262290  0.802870  1.0  -0.6225
  O  O442  1  0.421870  0.188750  0.876550  1.0  -0.6272
  O  O443  1  0.802870  0.513190  0.421650  1.0  -0.622
  O  O444  1  0.876550  0.512830  0.421870  1.0  -0.6265
  O  O445  1  0.262290  0.421650  0.513190  1.0  -0.6218
  O  O446  1  0.188750  0.421870  0.512830  1.0  -0.6258
  O  O447  1  0.513190  0.802870  0.262290  1.0  -0.6225
  O  O448  1  0.512830  0.876550  0.188750  1.0  -0.6258
  O  O449  1  0.802870  0.262290  0.513190  1.0  -0.6233
  O  O450  1  0.876550  0.188750  0.512830  1.0  -0.6274
  O  O451  1  0.421650  0.513190  0.262290  1.0  -0.6219
  O  O452  1  0.421870  0.512830  0.188750  1.0  -0.6274
  O  O453  1  0.513190  0.421650  0.802870  1.0  -0.6228
  O  O454  1  0.512830  0.421870  0.876550  1.0  -0.6242
  O  O455  1  0.262290  0.802870  0.421650  1.0  -0.6232
  O  O456  1  0.188750  0.876550  0.421870  1.0  -0.6276
  O  O457  1  0.262290  0.513190  0.421650  1.0  -0.6216
  O  O458  1  0.188750  0.512830  0.421870  1.0  -0.6264
  O  O459  1  0.513190  0.262290  0.802870  1.0  -0.6216
  O  O460  1  0.512830  0.188750  0.876550  1.0  -0.627
  O  O461  1  0.421650  0.802870  0.262290  1.0  -0.623
  O  O462  1  0.421870  0.876550  0.188750  1.0  -0.6267
  O  O463  1  0.802870  0.421650  0.513190  1.0  -0.6219
  O  O464  1  0.876550  0.421870  0.512830  1.0  -0.6256
  O  O465  1  0.262290  0.421650  0.802870  1.0  -0.6228
  O  O466  1  0.188750  0.421870  0.876550  1.0  -0.6256
  O  O467  1  0.513190  0.802870  0.421650  1.0  -0.6229
  O  O468  1  0.512830  0.876550  0.421870  1.0  -0.6264
  O  O469  1  0.421650  0.262290  0.513190  1.0  -0.6227
  O  O470  1  0.421870  0.188750  0.512830  1.0  -0.6273
  O  O471  1  0.802870  0.513190  0.262290  1.0  -0.6215
  O  O472  1  0.876550  0.512830  0.188750  1.0  -0.6252
  O  O473  1  0.262290  0.802870  0.513190  1.0  -0.6232
  O  O474  1  0.188750  0.876550  0.512830  1.0  -0.6276
  O  O475  1  0.513190  0.421650  0.262290  1.0  -0.6207
  O  O476  1  0.512830  0.421870  0.188750  1.0  -0.6254
  O  O477  1  0.421650  0.513190  0.802870  1.0  -0.6224
  O  O478  1  0.421870  0.512830  0.876550  1.0  -0.6269
  O  O479  1  0.802870  0.262290  0.421650  1.0  -0.6232
  O  O480  1  0.876550  0.188750  0.421870  1.0  -0.6275
  O  O481  1  0.486810  0.737710  0.578350  1.0  -0.6228
  O  O482  1  0.487170  0.811250  0.578130  1.0  -0.6262
  O  O483  1  0.737710  0.486810  0.197130  1.0  -0.6211
  O  O484  1  0.811250  0.487170  0.123450  1.0  -0.627
  O  O485  1  0.197130  0.578350  0.737710  1.0  -0.6218
  O  O486  1  0.123450  0.578130  0.811250  1.0  -0.6258
  O  O487  1  0.578350  0.197130  0.486810  1.0  -0.6214
  O  O488  1  0.578130  0.123450  0.487170  1.0  -0.6271
  O  O489  1  0.578350  0.737710  0.197130  1.0  -0.6221
  O  O490  1  0.578130  0.811250  0.123450  1.0  -0.6257
  O  O491  1  0.197130  0.486810  0.578350  1.0  -0.623
  O  O492  1  0.123450  0.487170  0.578130  1.0  -0.6253
  O  O493  1  0.737710  0.578350  0.486810  1.0  -0.6215
  O  O494  1  0.811250  0.578130  0.487170  1.0  -0.6261
  O  O495  1  0.486810  0.197130  0.737710  1.0  -0.6224
  O  O496  1  0.487170  0.123450  0.811250  1.0  -0.6272
  O  O497  1  0.197130  0.737710  0.486810  1.0  -0.6238
  O  O498  1  0.123450  0.811250  0.487170  1.0  -0.6278
  O  O499  1  0.578350  0.486810  0.737710  1.0  -0.623
  O  O500  1  0.578130  0.487170  0.811250  1.0  -0.6263
  O  O501  1  0.486810  0.578350  0.197130  1.0  -0.622
  O  O502  1  0.487170  0.578130  0.123450  1.0  -0.6256
  O  O503  1  0.737710  0.197130  0.578350  1.0  -0.6233
  O  O504  1  0.811250  0.123450  0.578130  1.0  -0.6278
