# generated using pymatgen
data_CuH4(C3O)4
_symmetry_space_group_name_H-M   'P 1'
_cell_length_a   30.28750000
_cell_length_b   30.28750000
_cell_length_c   30.28750000
_cell_angle_alpha   60.00000000
_cell_angle_beta   60.00000000
_cell_angle_gamma   60.00000000
_symmetry_Int_Tables_number   1
_chemical_formula_structural   CuH4(C3O)4
_chemical_formula_sum   'Cu24 H96 C288 O96'
_cell_volume   19646.05174593
_cell_formula_units_Z   24
loop_
 _symmetry_equiv_pos_site_id
 _symmetry_equiv_pos_as_xyz
  1  'x, y, z'
loop_
 _atom_site_type_symbol
 _atom_site_label
 _atom_site_symmetry_multiplicity
 _atom_site_fract_x
 _atom_site_fract_y
 _atom_site_fract_z
 _atom_site_occupancy
 _atom_site_charge
  Cu  Cu1  1  0.350390  0.649610  0.000000  1.0  0.8861
  Cu  Cu2  1  0.262440  0.737560  0.000000  1.0  0.8865
  Cu  Cu3  1  0.649610  0.350390  0.000000  1.0  0.8873
  Cu  Cu4  1  0.737560  0.262440  0.000000  1.0  0.886
  Cu  Cu5  1  0.000000  0.000000  0.350390  1.0  0.8871
  Cu  Cu6  1  0.000000  0.000000  0.262440  1.0  0.8863
  Cu  Cu7  1  0.000000  0.000000  0.649610  1.0  0.8867
  Cu  Cu8  1  0.000000  0.000000  0.737560  1.0  0.8864
  Cu  Cu9  1  0.350390  0.000000  0.000000  1.0  0.8864
  Cu  Cu10  1  0.262440  0.000000  0.000000  1.0  0.8866
  Cu  Cu11  1  0.649610  0.000000  0.000000  1.0  0.8869
  Cu  Cu12  1  0.737560  0.000000  0.000000  1.0  0.8862
  Cu  Cu13  1  0.000000  0.350390  0.649610  1.0  0.8868
  Cu  Cu14  1  0.000000  0.262440  0.737560  1.0  0.8868
  Cu  Cu15  1  0.000000  0.649610  0.350390  1.0  0.8865
  Cu  Cu16  1  0.000000  0.737560  0.262440  1.0  0.8862
  Cu  Cu17  1  0.350390  0.000000  0.649610  1.0  0.887
  Cu  Cu18  1  0.262440  0.000000  0.737560  1.0  0.8868
  Cu  Cu19  1  0.649610  0.000000  0.350390  1.0  0.8867
  Cu  Cu20  1  0.737560  0.000000  0.262440  1.0  0.8865
  Cu  Cu21  1  0.000000  0.649610  0.000000  1.0  0.8863
  Cu  Cu22  1  0.000000  0.737560  0.000000  1.0  0.8859
  Cu  Cu23  1  0.000000  0.350390  0.000000  1.0  0.8867
  Cu  Cu24  1  0.000000  0.262440  0.000000  1.0  0.8865
  H  H25  1  0.302800  0.558600  0.968800  1.0  0.0992
  H  H26  1  0.558600  0.302800  0.169800  1.0  0.0995
  H  H27  1  0.968800  0.169800  0.302800  1.0  0.0991
  H  H28  1  0.169800  0.968800  0.558600  1.0  0.1
  H  H29  1  0.302800  0.968800  0.169800  1.0  0.1003
  H  H30  1  0.558600  0.169800  0.968800  1.0  0.0999
  H  H31  1  0.968800  0.302800  0.558600  1.0  0.1001
  H  H32  1  0.169800  0.558600  0.302800  1.0  0.0995
  H  H33  1  0.302800  0.169800  0.558600  1.0  0.0999
  H  H34  1  0.558600  0.968800  0.302800  1.0  0.1001
  H  H35  1  0.968800  0.558600  0.169800  1.0  0.1001
  H  H36  1  0.169800  0.302800  0.968800  1.0  0.0996
  H  H37  1  0.441400  0.697200  0.031200  1.0  0.0999
  H  H38  1  0.697200  0.441400  0.830200  1.0  0.0991
  H  H39  1  0.830200  0.031200  0.697200  1.0  0.0998
  H  H40  1  0.031200  0.830200  0.441400  1.0  0.0986
  H  H41  1  0.031200  0.697200  0.830200  1.0  0.1005
  H  H42  1  0.830200  0.441400  0.031200  1.0  0.0989
  H  H43  1  0.697200  0.031200  0.441400  1.0  0.1011
  H  H44  1  0.441400  0.830200  0.697200  1.0  0.1
  H  H45  1  0.830200  0.697200  0.441400  1.0  0.099
  H  H46  1  0.031200  0.441400  0.697200  1.0  0.0995
  H  H47  1  0.441400  0.031200  0.830200  1.0  0.0993
  H  H48  1  0.697200  0.830200  0.031200  1.0  0.0993
  H  H49  1  0.697200  0.441400  0.031200  1.0  0.0992
  H  H50  1  0.441400  0.697200  0.830200  1.0  0.0997
  H  H51  1  0.031200  0.830200  0.697200  1.0  0.0995
  H  H52  1  0.830200  0.031200  0.441400  1.0  0.099
  H  H53  1  0.697200  0.031200  0.830200  1.0  0.101
  H  H54  1  0.441400  0.830200  0.031200  1.0  0.0991
  H  H55  1  0.031200  0.697200  0.441400  1.0  0.1006
  H  H56  1  0.830200  0.441400  0.697200  1.0  0.0994
  H  H57  1  0.697200  0.830200  0.441400  1.0  0.0993
  H  H58  1  0.441400  0.031200  0.697200  1.0  0.0998
  H  H59  1  0.031200  0.441400  0.830200  1.0  0.0994
  H  H60  1  0.830200  0.697200  0.031200  1.0  0.0995
  H  H61  1  0.558600  0.302800  0.968800  1.0  0.0995
  H  H62  1  0.302800  0.558600  0.169800  1.0  0.0994
  H  H63  1  0.169800  0.968800  0.302800  1.0  0.0993
  H  H64  1  0.968800  0.169800  0.558600  1.0  0.0999
  H  H65  1  0.968800  0.302800  0.169800  1.0  0.1004
  H  H66  1  0.169800  0.558600  0.968800  1.0  0.1
  H  H67  1  0.302800  0.968800  0.558600  1.0  0.1001
  H  H68  1  0.558600  0.169800  0.302800  1.0  0.0995
  H  H69  1  0.169800  0.302800  0.558600  1.0  0.0996
  H  H70  1  0.968800  0.558600  0.302800  1.0  0.0999
  H  H71  1  0.558600  0.968800  0.169800  1.0  0.1001
  H  H72  1  0.302800  0.169800  0.968800  1.0  0.0997
  H  H73  1  0.165100  0.686100  0.983700  1.0  0.0941
  H  H74  1  0.686100  0.165100  0.165100  1.0  0.0926
  H  H75  1  0.983700  0.165100  0.165100  1.0  0.093
  H  H76  1  0.165100  0.983700  0.686100  1.0  0.0937
  H  H77  1  0.165100  0.983700  0.165100  1.0  0.0935
  H  H78  1  0.686100  0.165100  0.983700  1.0  0.0923
  H  H79  1  0.983700  0.165100  0.686100  1.0  0.0933
  H  H80  1  0.165100  0.686100  0.165100  1.0  0.0944
  H  H81  1  0.165100  0.165100  0.686100  1.0  0.093
  H  H82  1  0.686100  0.983700  0.165100  1.0  0.0933
  H  H83  1  0.983700  0.686100  0.165100  1.0  0.0944
  H  H84  1  0.165100  0.165100  0.983700  1.0  0.093
  H  H85  1  0.313900  0.834900  0.016300  1.0  0.093
  H  H86  1  0.834900  0.313900  0.834900  1.0  0.0937
  H  H87  1  0.834900  0.016300  0.834900  1.0  0.0934
  H  H88  1  0.016300  0.834900  0.313900  1.0  0.0934
  H  H89  1  0.016300  0.834900  0.834900  1.0  0.0935
  H  H90  1  0.834900  0.313900  0.016300  1.0  0.0941
  H  H91  1  0.834900  0.016300  0.313900  1.0  0.0931
  H  H92  1  0.313900  0.834900  0.834900  1.0  0.0926
  H  H93  1  0.834900  0.834900  0.313900  1.0  0.0931
  H  H94  1  0.016300  0.313900  0.834900  1.0  0.0945
  H  H95  1  0.313900  0.016300  0.834900  1.0  0.093
  H  H96  1  0.834900  0.834900  0.016300  1.0  0.093
  H  H97  1  0.261400  0.394600  0.949400  1.0  0.109
  H  H98  1  0.394600  0.261400  0.394600  1.0  0.1121
  H  H99  1  0.949400  0.394600  0.261400  1.0  0.1083
  H  H100  1  0.394600  0.949400  0.394600  1.0  0.1089
  H  H101  1  0.261400  0.949400  0.394600  1.0  0.1072
  H  H102  1  0.394600  0.394600  0.949400  1.0  0.1096
  H  H103  1  0.949400  0.261400  0.394600  1.0  0.1109
  H  H104  1  0.394600  0.394600  0.261400  1.0  0.1088
  H  H105  1  0.261400  0.394600  0.394600  1.0  0.1095
  H  H106  1  0.394600  0.949400  0.261400  1.0  0.1087
  H  H107  1  0.949400  0.394600  0.394600  1.0  0.1089
  H  H108  1  0.394600  0.261400  0.949400  1.0  0.1116
  H  H109  1  0.605400  0.738600  0.050600  1.0  0.1112
  H  H110  1  0.738600  0.605400  0.605400  1.0  0.1094
  H  H111  1  0.605400  0.050600  0.738600  1.0  0.1093
  H  H112  1  0.050600  0.605400  0.605400  1.0  0.1087
  H  H113  1  0.050600  0.738600  0.605400  1.0  0.1099
  H  H114  1  0.605400  0.605400  0.050600  1.0  0.108
  H  H115  1  0.738600  0.050600  0.605400  1.0  0.1084
  H  H116  1  0.605400  0.605400  0.738600  1.0  0.109
  H  H117  1  0.605400  0.738600  0.605400  1.0  0.1101
  H  H118  1  0.050600  0.605400  0.738600  1.0  0.1088
  H  H119  1  0.605400  0.050600  0.605400  1.0  0.1085
  H  H120  1  0.738600  0.605400  0.050600  1.0  0.1095
  C  C121  1  0.264020  0.651600  0.984140  1.0  0.6743
  C  C122  1  0.238080  0.626460  0.977060  1.0  -0.1781
  C  C123  1  0.266130  0.576210  0.970390  1.0  -0.0472
  C  C124  1  0.651600  0.264020  0.100240  1.0  0.6747
  C  C125  1  0.626460  0.238080  0.158400  1.0  -0.1775
  C  C126  1  0.576210  0.266130  0.187270  1.0  -0.0487
  C  C127  1  0.984140  0.100240  0.264020  1.0  0.6745
  C  C128  1  0.977060  0.158400  0.238080  1.0  -0.1781
  C  C129  1  0.970390  0.187270  0.266130  1.0  -0.0502
  C  C130  1  0.100240  0.984140  0.651600  1.0  0.6756
  C  C131  1  0.158400  0.977060  0.626460  1.0  -0.1776
  C  C132  1  0.187270  0.970390  0.576210  1.0  -0.0513
  C  C133  1  0.264020  0.984140  0.100240  1.0  0.6756
  C  C134  1  0.238080  0.977060  0.158400  1.0  -0.1775
  C  C135  1  0.266130  0.970390  0.187270  1.0  -0.0474
  C  C136  1  0.651600  0.100240  0.984140  1.0  0.675
  C  C137  1  0.626460  0.158400  0.977060  1.0  -0.1773
  C  C138  1  0.576210  0.187270  0.970390  1.0  -0.0504
  C  C139  1  0.984140  0.264020  0.651600  1.0  0.6755
  C  C140  1  0.977060  0.238080  0.626460  1.0  -0.1782
  C  C141  1  0.970390  0.266130  0.576210  1.0  -0.0485
  C  C142  1  0.100240  0.651600  0.264020  1.0  0.6751
  C  C143  1  0.158400  0.626460  0.238080  1.0  -0.1779
  C  C144  1  0.187270  0.576210  0.266130  1.0  -0.0484
  C  C145  1  0.264020  0.100240  0.651600  1.0  0.6748
  C  C146  1  0.238080  0.158400  0.626460  1.0  -0.1781
  C  C147  1  0.266130  0.187270  0.576210  1.0  -0.0484
  C  C148  1  0.651600  0.984140  0.264020  1.0  0.6754
  C  C149  1  0.626460  0.977060  0.238080  1.0  -0.1783
  C  C150  1  0.576210  0.970390  0.266130  1.0  -0.0507
  C  C151  1  0.984140  0.651600  0.100240  1.0  0.6758
  C  C152  1  0.977060  0.626460  0.158400  1.0  -0.1781
  C  C153  1  0.970390  0.576210  0.187270  1.0  -0.0516
  C  C154  1  0.100240  0.264020  0.984140  1.0  0.6749
  C  C155  1  0.158400  0.238080  0.977060  1.0  -0.1783
  C  C156  1  0.187270  0.266130  0.970390  1.0  -0.0492
  C  C157  1  0.348400  0.735980  0.015860  1.0  0.6745
  C  C158  1  0.373540  0.761920  0.022940  1.0  -0.1781
  C  C159  1  0.423790  0.733870  0.029610  1.0  -0.0481
  C  C160  1  0.735980  0.348400  0.899760  1.0  0.674
  C  C161  1  0.761920  0.373540  0.841600  1.0  -0.1779
  C  C162  1  0.733870  0.423790  0.812730  1.0  -0.0498
  C  C163  1  0.899760  0.015860  0.735980  1.0  0.6752
  C  C164  1  0.841600  0.022940  0.761920  1.0  -0.1775
  C  C165  1  0.812730  0.029610  0.733870  1.0  -0.0492
  C  C166  1  0.015860  0.899760  0.348400  1.0  0.6752
  C  C167  1  0.022940  0.841600  0.373540  1.0  -0.1784
  C  C168  1  0.029610  0.812730  0.423790  1.0  -0.0499
  C  C169  1  0.015860  0.735980  0.899760  1.0  0.6758
  C  C170  1  0.022940  0.761920  0.841600  1.0  -0.1782
  C  C171  1  0.029610  0.733870  0.812730  1.0  -0.0497
  C  C172  1  0.899760  0.348400  0.015860  1.0  0.6748
  C  C173  1  0.841600  0.373540  0.022940  1.0  -0.1778
  C  C174  1  0.812730  0.423790  0.029610  1.0  -0.0489
  C  C175  1  0.735980  0.015860  0.348400  1.0  0.6755
  C  C176  1  0.761920  0.022940  0.373540  1.0  -0.1777
  C  C177  1  0.733870  0.029610  0.423790  1.0  -0.0488
  C  C178  1  0.348400  0.899760  0.735980  1.0  0.675
  C  C179  1  0.373540  0.841600  0.761920  1.0  -0.1773
  C  C180  1  0.423790  0.812730  0.733870  1.0  -0.0494
  C  C181  1  0.899760  0.735980  0.348400  1.0  0.6753
  C  C182  1  0.841600  0.761920  0.373540  1.0  -0.1777
  C  C183  1  0.812730  0.733870  0.423790  1.0  -0.0495
  C  C184  1  0.015860  0.348400  0.735980  1.0  0.6757
  C  C185  1  0.022940  0.373540  0.761920  1.0  -0.1782
  C  C186  1  0.029610  0.423790  0.733870  1.0  -0.0507
  C  C187  1  0.348400  0.015860  0.899760  1.0  0.6762
  C  C188  1  0.373540  0.022940  0.841600  1.0  -0.1788
  C  C189  1  0.423790  0.029610  0.812730  1.0  -0.0482
  C  C190  1  0.735980  0.899760  0.015860  1.0  0.6749
  C  C191  1  0.761920  0.841600  0.022940  1.0  -0.1779
  C  C192  1  0.733870  0.812730  0.029610  1.0  -0.0497
  C  C193  1  0.735980  0.348400  0.015860  1.0  0.6744
  C  C194  1  0.761920  0.373540  0.022940  1.0  -0.1782
  C  C195  1  0.733870  0.423790  0.029610  1.0  -0.0499
  C  C196  1  0.348400  0.735980  0.899760  1.0  0.6741
  C  C197  1  0.373540  0.761920  0.841600  1.0  -0.1778
  C  C198  1  0.423790  0.733870  0.812730  1.0  -0.0481
  C  C199  1  0.015860  0.899760  0.735980  1.0  0.6751
  C  C200  1  0.022940  0.841600  0.761920  1.0  -0.1784
  C  C201  1  0.029610  0.812730  0.733870  1.0  -0.0506
  C  C202  1  0.899760  0.015860  0.348400  1.0  0.6751
  C  C203  1  0.841600  0.022940  0.373540  1.0  -0.1776
  C  C204  1  0.812730  0.029610  0.423790  1.0  -0.0488
  C  C205  1  0.735980  0.015860  0.899760  1.0  0.6751
  C  C206  1  0.761920  0.022940  0.841600  1.0  -0.1782
  C  C207  1  0.733870  0.029610  0.812730  1.0  -0.0491
  C  C208  1  0.348400  0.899760  0.015860  1.0  0.6751
  C  C209  1  0.373540  0.841600  0.022940  1.0  -0.1773
  C  C210  1  0.423790  0.812730  0.029610  1.0  -0.048
  C  C211  1  0.015860  0.735980  0.348400  1.0  0.6761
  C  C212  1  0.022940  0.761920  0.373540  1.0  -0.178
  C  C213  1  0.029610  0.733870  0.423790  1.0  -0.0493
  C  C214  1  0.899760  0.348400  0.735980  1.0  0.675
  C  C215  1  0.841600  0.373540  0.761920  1.0  -0.1778
  C  C216  1  0.812730  0.423790  0.733870  1.0  -0.0501
  C  C217  1  0.735980  0.899760  0.348400  1.0  0.6749
  C  C218  1  0.761920  0.841600  0.373540  1.0  -0.1777
  C  C219  1  0.733870  0.812730  0.423790  1.0  -0.0496
  C  C220  1  0.348400  0.015860  0.735980  1.0  0.6766
  C  C221  1  0.373540  0.022940  0.761920  1.0  -0.1784
  C  C222  1  0.423790  0.029610  0.733870  1.0  -0.0491
  C  C223  1  0.015860  0.348400  0.899760  1.0  0.6755
  C  C224  1  0.022940  0.373540  0.841600  1.0  -0.1787
  C  C225  1  0.029610  0.423790  0.812730  1.0  -0.0494
  C  C226  1  0.899760  0.735980  0.015860  1.0  0.6751
  C  C227  1  0.841600  0.761920  0.022940  1.0  -0.1779
  C  C228  1  0.812730  0.733870  0.029610  1.0  -0.0492
  C  C229  1  0.651600  0.264020  0.984140  1.0  0.6742
  C  C230  1  0.626460  0.238080  0.977060  1.0  -0.1774
  C  C231  1  0.576210  0.266130  0.970390  1.0  -0.0486
  C  C232  1  0.264020  0.651600  0.100240  1.0  0.6747
  C  C233  1  0.238080  0.626460  0.158400  1.0  -0.1781
  C  C234  1  0.266130  0.576210  0.187270  1.0  -0.0475
  C  C235  1  0.100240  0.984140  0.264020  1.0  0.6756
  C  C236  1  0.158400  0.977060  0.238080  1.0  -0.1777
  C  C237  1  0.187270  0.970390  0.266130  1.0  -0.0517
  C  C238  1  0.984140  0.100240  0.651600  1.0  0.6746
  C  C239  1  0.977060  0.158400  0.626460  1.0  -0.178
  C  C240  1  0.970390  0.187270  0.576210  1.0  -0.0503
  C  C241  1  0.984140  0.264020  0.100240  1.0  0.6758
  C  C242  1  0.977060  0.238080  0.158400  1.0  -0.1777
  C  C243  1  0.970390  0.266130  0.187270  1.0  -0.0481
  C  C244  1  0.100240  0.651600  0.984140  1.0  0.6753
  C  C245  1  0.158400  0.626460  0.977060  1.0  -0.1779
  C  C246  1  0.187270  0.576210  0.970390  1.0  -0.0498
  C  C247  1  0.264020  0.984140  0.651600  1.0  0.6753
  C  C248  1  0.238080  0.977060  0.626460  1.0  -0.1777
  C  C249  1  0.266130  0.970390  0.576210  1.0  -0.0474
  C  C250  1  0.651600  0.100240  0.264020  1.0  0.6747
  C  C251  1  0.626460  0.158400  0.238080  1.0  -0.1773
  C  C252  1  0.576210  0.187270  0.266130  1.0  -0.0496
  C  C253  1  0.100240  0.264020  0.651600  1.0  0.6748
  C  C254  1  0.158400  0.238080  0.626460  1.0  -0.1786
  C  C255  1  0.187270  0.266130  0.576210  1.0  -0.0492
  C  C256  1  0.984140  0.651600  0.264020  1.0  0.6754
  C  C257  1  0.977060  0.626460  0.238080  1.0  -0.1787
  C  C258  1  0.970390  0.576210  0.266130  1.0  -0.0505
  C  C259  1  0.651600  0.984140  0.100240  1.0  0.6759
  C  C260  1  0.626460  0.977060  0.158400  1.0  -0.1777
  C  C261  1  0.576210  0.970390  0.187270  1.0  -0.0506
  C  C262  1  0.264020  0.100240  0.984140  1.0  0.675
  C  C263  1  0.238080  0.158400  0.977060  1.0  -0.1778
  C  C264  1  0.266130  0.187270  0.970390  1.0  -0.0484
  C  C265  1  0.241300  0.551340  0.966060  1.0  0.0287
  C  C266  1  0.184390  0.651390  0.979830  1.0  0.0023
  C  C267  1  0.272100  0.498900  0.956900  1.0  0.0143
  C  C268  1  0.294600  0.455600  0.955200  1.0  0.0246
  C  C269  1  0.322400  0.401800  0.953400  1.0  0.1554
  C  C270  1  0.551340  0.241300  0.241300  1.0  0.0287
  C  C271  1  0.651390  0.184390  0.184390  1.0  0.003
  C  C272  1  0.498900  0.272100  0.272100  1.0  0.0147
  C  C273  1  0.455600  0.294600  0.294600  1.0  0.0241
  C  C274  1  0.401800  0.322400  0.322400  1.0  0.156
  C  C275  1  0.966060  0.241300  0.241300  1.0  0.0318
  C  C276  1  0.979830  0.184390  0.184390  1.0  0.002
  C  C277  1  0.956900  0.272100  0.272100  1.0  0.0153
  C  C278  1  0.955200  0.294600  0.294600  1.0  0.0222
  C  C279  1  0.953400  0.322400  0.322400  1.0  0.1553
  C  C280  1  0.241300  0.966060  0.551340  1.0  0.0323
  C  C281  1  0.184390  0.979830  0.651390  1.0  0.0015
  C  C282  1  0.272100  0.956900  0.498900  1.0  0.0147
  C  C283  1  0.294600  0.955200  0.455600  1.0  0.0217
  C  C284  1  0.322400  0.953400  0.401800  1.0  0.1547
  C  C285  1  0.241300  0.966060  0.241300  1.0  0.0315
  C  C286  1  0.184390  0.979830  0.184390  1.0  0.0021
  C  C287  1  0.272100  0.956900  0.272100  1.0  0.0147
  C  C288  1  0.294600  0.955200  0.294600  1.0  0.0196
  C  C289  1  0.322400  0.953400  0.322400  1.0  0.1551
  C  C290  1  0.551340  0.241300  0.966060  1.0  0.0286
  C  C291  1  0.651390  0.184390  0.979830  1.0  0.0026
  C  C292  1  0.498900  0.272100  0.956900  1.0  0.0132
  C  C293  1  0.455600  0.294600  0.955200  1.0  0.0242
  C  C294  1  0.401800  0.322400  0.953400  1.0  0.1563
  C  C295  1  0.966060  0.241300  0.551340  1.0  0.0325
  C  C296  1  0.979830  0.184390  0.651390  1.0  0.0021
  C  C297  1  0.956900  0.272100  0.498900  1.0  0.0152
  C  C298  1  0.955200  0.294600  0.455600  1.0  0.0244
  C  C299  1  0.953400  0.322400  0.401800  1.0  0.1553
  C  C300  1  0.241300  0.551340  0.241300  1.0  0.0289
  C  C301  1  0.184390  0.651390  0.184390  1.0  0.0029
  C  C302  1  0.272100  0.498900  0.272100  1.0  0.0157
  C  C303  1  0.294600  0.455600  0.294600  1.0  0.0245
  C  C304  1  0.322400  0.401800  0.322400  1.0  0.1555
  C  C305  1  0.241300  0.241300  0.551340  1.0  0.0298
  C  C306  1  0.184390  0.184390  0.651390  1.0  0.0016
  C  C307  1  0.272100  0.272100  0.498900  1.0  0.0169
  C  C308  1  0.294600  0.294600  0.455600  1.0  0.0215
  C  C309  1  0.322400  0.322400  0.401800  1.0  0.1531
  C  C310  1  0.551340  0.966060  0.241300  1.0  0.0289
  C  C311  1  0.651390  0.979830  0.184390  1.0  0.0034
  C  C312  1  0.498900  0.956900  0.272100  1.0  0.0144
  C  C313  1  0.455600  0.955200  0.294600  1.0  0.025
  C  C314  1  0.401800  0.953400  0.322400  1.0  0.1555
  C  C315  1  0.966060  0.551340  0.241300  1.0  0.0291
  C  C316  1  0.979830  0.651390  0.184390  1.0  0.0032
  C  C317  1  0.956900  0.498900  0.272100  1.0  0.0159
  C  C318  1  0.955200  0.455600  0.294600  1.0  0.0236
  C  C319  1  0.953400  0.401800  0.322400  1.0  0.1555
  C  C320  1  0.241300  0.241300  0.966060  1.0  0.0299
  C  C321  1  0.184390  0.184390  0.979830  1.0  0.0013
  C  C322  1  0.272100  0.272100  0.956900  1.0  0.0169
  C  C323  1  0.294600  0.294600  0.955200  1.0  0.02
  C  C324  1  0.322400  0.322400  0.953400  1.0  0.1527
  C  C325  1  0.448660  0.758700  0.033940  1.0  0.0302
  C  C326  1  0.348610  0.815610  0.020170  1.0  0.0036
  C  C327  1  0.501100  0.727900  0.043100  1.0  0.0148
  C  C328  1  0.544400  0.705400  0.044800  1.0  0.0228
  C  C329  1  0.598200  0.677600  0.046600  1.0  0.1555
  C  C330  1  0.758700  0.448660  0.758700  1.0  0.0266
  C  C331  1  0.815610  0.348610  0.815610  1.0  0.0034
  C  C332  1  0.727900  0.501100  0.727900  1.0  0.0149
  C  C333  1  0.705400  0.544400  0.705400  1.0  0.0254
  C  C334  1  0.677600  0.598200  0.677600  1.0  0.1565
  C  C335  1  0.758700  0.033940  0.758700  1.0  0.031
  C  C336  1  0.815610  0.020170  0.815610  1.0  0.0019
  C  C337  1  0.727900  0.043100  0.727900  1.0  0.0124
  C  C338  1  0.705400  0.044800  0.705400  1.0  0.0237
  C  C339  1  0.677600  0.046600  0.677600  1.0  0.1548
  C  C340  1  0.033940  0.758700  0.448660  1.0  0.0318
  C  C341  1  0.020170  0.815610  0.348610  1.0  0.0014
  C  C342  1  0.043100  0.727900  0.501100  1.0  0.0145
  C  C343  1  0.044800  0.705400  0.544400  1.0  0.0227
  C  C344  1  0.046600  0.677600  0.598200  1.0  0.1566
  C  C345  1  0.033940  0.758700  0.758700  1.0  0.032
  C  C346  1  0.020170  0.815610  0.815610  1.0  0.0015
  C  C347  1  0.043100  0.727900  0.727900  1.0  0.0147
  C  C348  1  0.044800  0.705400  0.705400  1.0  0.0251
  C  C349  1  0.046600  0.677600  0.677600  1.0  0.1558
  C  C350  1  0.758700  0.448660  0.033940  1.0  0.0265
  C  C351  1  0.815610  0.348610  0.020170  1.0  0.0036
  C  C352  1  0.727900  0.501100  0.043100  1.0  0.0161
  C  C353  1  0.705400  0.544400  0.044800  1.0  0.0254
  C  C354  1  0.677600  0.598200  0.046600  1.0  0.1564
  C  C355  1  0.758700  0.033940  0.448660  1.0  0.0302
  C  C356  1  0.815610  0.020170  0.348610  1.0  0.0014
  C  C357  1  0.727900  0.043100  0.501100  1.0  0.0125
  C  C358  1  0.705400  0.044800  0.544400  1.0  0.0214
  C  C359  1  0.677600  0.046600  0.598200  1.0  0.1556
  C  C360  1  0.448660  0.758700  0.758700  1.0  0.0299
  C  C361  1  0.348610  0.815610  0.815610  1.0  0.0032
  C  C362  1  0.501100  0.727900  0.727900  1.0  0.0136
  C  C363  1  0.544400  0.705400  0.705400  1.0  0.023
  C  C364  1  0.598200  0.677600  0.677600  1.0  0.1555
  C  C365  1  0.758700  0.758700  0.448660  1.0  0.0279
  C  C366  1  0.815610  0.815610  0.348610  1.0  0.0017
  C  C367  1  0.727900  0.727900  0.501100  1.0  0.0141
  C  C368  1  0.705400  0.705400  0.544400  1.0  0.0231
  C  C369  1  0.677600  0.677600  0.598200  1.0  0.1544
  C  C370  1  0.033940  0.448660  0.758700  1.0  0.0285
  C  C371  1  0.020170  0.348610  0.815610  1.0  0.0028
  C  C372  1  0.043100  0.501100  0.727900  1.0  0.0168
  C  C373  1  0.044800  0.544400  0.705400  1.0  0.0247
  C  C374  1  0.046600  0.598200  0.677600  1.0  0.156
  C  C375  1  0.448660  0.033940  0.758700  1.0  0.0305
  C  C376  1  0.348610  0.020170  0.815610  1.0  0.0017
  C  C377  1  0.501100  0.043100  0.727900  1.0  0.0161
  C  C378  1  0.544400  0.044800  0.705400  1.0  0.0234
  C  C379  1  0.598200  0.046600  0.677600  1.0  0.154
  C  C380  1  0.758700  0.758700  0.033940  1.0  0.0275
  C  C381  1  0.815610  0.815610  0.020170  1.0  0.0017
  C  C382  1  0.727900  0.727900  0.043100  1.0  0.0142
  C  C383  1  0.705400  0.705400  0.044800  1.0  0.0243
  C  C384  1  0.677600  0.677600  0.046600  1.0  0.1546
  C  C385  1  0.296900  0.375700  0.951700  1.0  -0.1051
  C  C386  1  0.375700  0.296900  0.375700  1.0  -0.1048
  C  C387  1  0.951700  0.375700  0.296900  1.0  -0.1047
  C  C388  1  0.375700  0.951700  0.375700  1.0  -0.1028
  C  C389  1  0.296900  0.951700  0.375700  1.0  -0.1034
  C  C390  1  0.375700  0.375700  0.951700  1.0  -0.1049
  C  C391  1  0.951700  0.296900  0.375700  1.0  -0.1054
  C  C392  1  0.375700  0.375700  0.296900  1.0  -0.1054
  C  C393  1  0.296900  0.375700  0.375700  1.0  -0.1058
  C  C394  1  0.375700  0.951700  0.296900  1.0  -0.1029
  C  C395  1  0.951700  0.375700  0.375700  1.0  -0.1043
  C  C396  1  0.375700  0.296900  0.951700  1.0  -0.1045
  C  C397  1  0.624300  0.703100  0.048300  1.0  -0.1072
  C  C398  1  0.703100  0.624300  0.624300  1.0  -0.1036
  C  C399  1  0.624300  0.048300  0.703100  1.0  -0.1062
  C  C400  1  0.048300  0.624300  0.624300  1.0  -0.1022
  C  C401  1  0.048300  0.703100  0.624300  1.0  -0.1053
  C  C402  1  0.624300  0.624300  0.048300  1.0  -0.1057
  C  C403  1  0.703100  0.048300  0.624300  1.0  -0.1034
  C  C404  1  0.624300  0.624300  0.703100  1.0  -0.1056
  C  C405  1  0.624300  0.703100  0.624300  1.0  -0.1065
  C  C406  1  0.048300  0.624300  0.703100  1.0  -0.103
  C  C407  1  0.624300  0.048300  0.624300  1.0  -0.1041
  C  C408  1  0.703100  0.624300  0.048300  1.0  -0.1032
  O  O409  1  0.311320  0.624500  0.986900  1.0  -0.576
  O  O410  1  0.236860  0.699140  0.987140  1.0  -0.5786
  O  O411  1  0.624500  0.311320  0.077280  1.0  -0.5762
  O  O412  1  0.699140  0.236860  0.076860  1.0  -0.5787
  O  O413  1  0.986900  0.077280  0.311320  1.0  -0.5733
  O  O414  1  0.987140  0.076860  0.236860  1.0  -0.5764
  O  O415  1  0.077280  0.986900  0.624500  1.0  -0.5757
  O  O416  1  0.076860  0.987140  0.699140  1.0  -0.5772
  O  O417  1  0.311320  0.986900  0.077280  1.0  -0.5745
  O  O418  1  0.236860  0.987140  0.076860  1.0  -0.5759
  O  O419  1  0.624500  0.077280  0.986900  1.0  -0.5747
  O  O420  1  0.699140  0.076860  0.987140  1.0  -0.5772
  O  O421  1  0.986900  0.311320  0.624500  1.0  -0.5748
  O  O422  1  0.987140  0.236860  0.699140  1.0  -0.5778
  O  O423  1  0.077280  0.624500  0.311320  1.0  -0.5758
  O  O424  1  0.076860  0.699140  0.236860  1.0  -0.5782
  O  O425  1  0.311320  0.077280  0.624500  1.0  -0.5745
  O  O426  1  0.236860  0.076860  0.699140  1.0  -0.5771
  O  O427  1  0.624500  0.986900  0.311320  1.0  -0.5745
  O  O428  1  0.699140  0.987140  0.236860  1.0  -0.5772
  O  O429  1  0.986900  0.624500  0.077280  1.0  -0.5763
  O  O430  1  0.987140  0.699140  0.076860  1.0  -0.5786
  O  O431  1  0.077280  0.311320  0.986900  1.0  -0.5751
  O  O432  1  0.076860  0.236860  0.987140  1.0  -0.5789
  O  O433  1  0.375500  0.688680  0.013100  1.0  -0.5758
  O  O434  1  0.300860  0.763140  0.012860  1.0  -0.5784
  O  O435  1  0.688680  0.375500  0.922720  1.0  -0.5764
  O  O436  1  0.763140  0.300860  0.923140  1.0  -0.5785
  O  O437  1  0.922720  0.013100  0.688680  1.0  -0.5758
  O  O438  1  0.923140  0.012860  0.763140  1.0  -0.5768
  O  O439  1  0.013100  0.922720  0.375500  1.0  -0.5734
  O  O440  1  0.012860  0.923140  0.300860  1.0  -0.5769
  O  O441  1  0.013100  0.688680  0.922720  1.0  -0.5752
  O  O442  1  0.012860  0.763140  0.923140  1.0  -0.5785
  O  O443  1  0.922720  0.375500  0.013100  1.0  -0.5748
  O  O444  1  0.923140  0.300860  0.012860  1.0  -0.5783
  O  O445  1  0.688680  0.013100  0.375500  1.0  -0.5746
  O  O446  1  0.763140  0.012860  0.300860  1.0  -0.5764
  O  O447  1  0.375500  0.922720  0.688680  1.0  -0.5739
  O  O448  1  0.300860  0.923140  0.763140  1.0  -0.5762
  O  O449  1  0.922720  0.688680  0.375500  1.0  -0.5757
  O  O450  1  0.923140  0.763140  0.300860  1.0  -0.5789
  O  O451  1  0.013100  0.375500  0.688680  1.0  -0.576
  O  O452  1  0.012860  0.300860  0.763140  1.0  -0.578
  O  O453  1  0.375500  0.013100  0.922720  1.0  -0.5741
  O  O454  1  0.300860  0.012860  0.923140  1.0  -0.5772
  O  O455  1  0.688680  0.922720  0.013100  1.0  -0.5749
  O  O456  1  0.763140  0.923140  0.012860  1.0  -0.5768
  O  O457  1  0.688680  0.375500  0.013100  1.0  -0.5763
  O  O458  1  0.763140  0.300860  0.012860  1.0  -0.5785
  O  O459  1  0.375500  0.688680  0.922720  1.0  -0.5758
  O  O460  1  0.300860  0.763140  0.923140  1.0  -0.5784
  O  O461  1  0.013100  0.922720  0.688680  1.0  -0.5741
  O  O462  1  0.012860  0.923140  0.763140  1.0  -0.5764
  O  O463  1  0.922720  0.013100  0.375500  1.0  -0.575
  O  O464  1  0.923140  0.012860  0.300860  1.0  -0.5768
  O  O465  1  0.688680  0.013100  0.922720  1.0  -0.5742
  O  O466  1  0.763140  0.012860  0.923140  1.0  -0.5766
  O  O467  1  0.375500  0.922720  0.013100  1.0  -0.5741
  O  O468  1  0.300860  0.923140  0.012860  1.0  -0.5767
  O  O469  1  0.013100  0.688680  0.375500  1.0  -0.5757
  O  O470  1  0.012860  0.763140  0.300860  1.0  -0.5782
  O  O471  1  0.922720  0.375500  0.688680  1.0  -0.5751
  O  O472  1  0.923140  0.300860  0.763140  1.0  -0.5785
  O  O473  1  0.688680  0.922720  0.375500  1.0  -0.5746
  O  O474  1  0.763140  0.923140  0.300860  1.0  -0.5776
  O  O475  1  0.375500  0.013100  0.688680  1.0  -0.5745
  O  O476  1  0.300860  0.012860  0.763140  1.0  -0.5773
  O  O477  1  0.013100  0.375500  0.922720  1.0  -0.5755
  O  O478  1  0.012860  0.300860  0.923140  1.0  -0.5787
  O  O479  1  0.922720  0.688680  0.013100  1.0  -0.5754
  O  O480  1  0.923140  0.763140  0.012860  1.0  -0.5787
  O  O481  1  0.624500  0.311320  0.986900  1.0  -0.5759
  O  O482  1  0.699140  0.236860  0.987140  1.0  -0.5786
  O  O483  1  0.311320  0.624500  0.077280  1.0  -0.5758
  O  O484  1  0.236860  0.699140  0.076860  1.0  -0.5789
  O  O485  1  0.077280  0.986900  0.311320  1.0  -0.5745
  O  O486  1  0.076860  0.987140  0.236860  1.0  -0.5775
  O  O487  1  0.986900  0.077280  0.624500  1.0  -0.5741
  O  O488  1  0.987140  0.076860  0.699140  1.0  -0.5766
  O  O489  1  0.986900  0.311320  0.077280  1.0  -0.5753
  O  O490  1  0.987140  0.236860  0.076860  1.0  -0.578
  O  O491  1  0.077280  0.624500  0.986900  1.0  -0.5752
  O  O492  1  0.076860  0.699140  0.987140  1.0  -0.5786
  O  O493  1  0.311320  0.986900  0.624500  1.0  -0.574
  O  O494  1  0.236860  0.987140  0.699140  1.0  -0.5755
  O  O495  1  0.624500  0.077280  0.311320  1.0  -0.5748
  O  O496  1  0.699140  0.076860  0.236860  1.0  -0.5768
  O  O497  1  0.077280  0.311320  0.624500  1.0  -0.5749
  O  O498  1  0.076860  0.236860  0.699140  1.0  -0.5783
  O  O499  1  0.986900  0.624500  0.311320  1.0  -0.5759
  O  O500  1  0.987140  0.699140  0.236860  1.0  -0.5786
  O  O501  1  0.624500  0.986900  0.077280  1.0  -0.5747
  O  O502  1  0.699140  0.987140  0.076860  1.0  -0.5768
  O  O503  1  0.311320  0.077280  0.986900  1.0  -0.5745
  O  O504  1  0.236860  0.076860  0.987140  1.0  -0.5775
