# generated using pymatgen
data_NdH2C6(NO3)2
_symmetry_space_group_name_H-M   'P 1'
_cell_length_a   7.98410000
_cell_length_b   8.35770000
_cell_length_c   17.59300000
_cell_angle_alpha   90.00000000
_cell_angle_beta   90.00000000
_cell_angle_gamma   109.49000000
_symmetry_Int_Tables_number   1
_chemical_formula_structural   NdH2C6(NO3)2
_chemical_formula_sum   'Nd4 H8 C24 N8 O24'
_cell_volume   1106.69012435
_cell_formula_units_Z   4
loop_
 _symmetry_equiv_pos_site_id
 _symmetry_equiv_pos_as_xyz
  1  'x, y, z'
loop_
 _atom_site_type_symbol
 _atom_site_label
 _atom_site_symmetry_multiplicity
 _atom_site_fract_x
 _atom_site_fract_y
 _atom_site_fract_z
 _atom_site_occupancy
 _atom_site_charge
  Nd  Nd1  1  0.741290  0.718170  0.477880  1.0  2.2866
  Nd  Nd2  1  0.758710  0.281830  0.977880  1.0  2.2864
  Nd  Nd3  1  0.258710  0.281830  0.522120  1.0  2.2871
  Nd  Nd4  1  0.241290  0.718170  0.022120  1.0  2.2871
  H  H5  1  0.662300  0.372800  0.210200  1.0  0.1337
  H  H6  1  0.367600  0.094100  0.372000  1.0  0.267
  H  H7  1  0.837700  0.627200  0.710200  1.0  0.1344
  H  H8  1  0.132400  0.905900  0.872000  1.0  0.2654
  H  H9  1  0.337700  0.627200  0.789800  1.0  0.1343
  H  H10  1  0.632400  0.905900  0.628000  1.0  0.2657
  H  H11  1  0.162300  0.372800  0.289800  1.0  0.1338
  H  H12  1  0.867600  0.094100  0.128000  1.0  0.2672
  C  C13  1  0.071000  0.564000  0.474500  1.0  0.5843
  C  C14  1  0.607000  0.413100  0.375000  1.0  0.7435
  C  C15  1  0.549700  0.280000  0.315400  1.0  -0.1145
  C  C16  1  0.586700  0.281800  0.237400  1.0  -0.1154
  C  C17  1  0.493400  0.128300  0.209000  1.0  0.0263
  C  C18  1  0.483000  0.058900  0.131100  1.0  0.8147
  C  C19  1  0.429000  0.436000  0.974500  1.0  0.5827
  C  C20  1  0.893000  0.586900  0.875000  1.0  0.7423
  C  C21  1  0.950300  0.720000  0.815400  1.0  -0.1146
  C  C22  1  0.913300  0.718200  0.737400  1.0  -0.1152
  C  C23  1  0.006600  0.871700  0.709000  1.0  0.0267
  C  C24  1  0.017000  0.941100  0.631100  1.0  0.8177
  C  C25  1  0.929000  0.436000  0.525500  1.0  0.5832
  C  C26  1  0.393000  0.586900  0.625000  1.0  0.7426
  C  C27  1  0.450300  0.720000  0.684600  1.0  -0.1153
  C  C28  1  0.413300  0.718200  0.762600  1.0  -0.1147
  C  C29  1  0.506600  0.871700  0.791000  1.0  0.0269
  C  C30  1  0.517000  0.941100  0.868900  1.0  0.816
  C  C31  1  0.571000  0.564000  0.025500  1.0  0.5834
  C  C32  1  0.107000  0.413100  0.125000  1.0  0.7437
  C  C33  1  0.049700  0.280000  0.184600  1.0  -0.1145
  C  C34  1  0.086700  0.281800  0.262600  1.0  -0.1156
  C  C35  1  0.993400  0.128300  0.291000  1.0  0.0272
  C  C36  1  0.983000  0.058900  0.368900  1.0  0.814
  N  N37  1  0.421000  0.125600  0.329200  1.0  -0.0146
  N  N38  1  0.390500  0.033000  0.266000  1.0  -0.2823
  N  N39  1  0.079000  0.874400  0.829200  1.0  -0.014
  N  N40  1  0.109500  0.967000  0.766000  1.0  -0.2824
  N  N41  1  0.579000  0.874400  0.670800  1.0  -0.0343
  N  N42  1  0.609500  0.967000  0.734000  1.0  -0.2824
  N  N43  1  0.921000  0.125600  0.170800  1.0  -0.0352
  N  N44  1  0.890500  0.033000  0.234000  1.0  -0.2825
  O  O45  1  0.049700  0.702300  0.459100  1.0  -0.6288
  O  O46  1  0.200500  0.522100  0.456900  1.0  -0.6393
  O  O47  1  0.508500  0.391100  0.434400  1.0  -0.9061
  O  O48  1  0.739700  0.531400  0.367500  1.0  -0.5831
  O  O49  1  0.582800  0.150800  0.083300  1.0  -0.806
  O  O50  1  0.374000  0.918200  0.119100  1.0  -0.7546
  O  O51  1  0.450300  0.297700  0.959100  1.0  -0.6304
  O  O52  1  0.299500  0.477900  0.956900  1.0  -0.6403
  O  O53  1  0.991500  0.608900  0.934400  1.0  -0.9068
  O  O54  1  0.760300  0.468600  0.867500  1.0  -0.5844
  O  O55  1  0.917200  0.849200  0.583300  1.0  -0.8065
  O  O56  1  0.126000  0.081800  0.619100  1.0  -0.7552
  O  O57  1  0.950300  0.297700  0.540900  1.0  -0.6287
  O  O58  1  0.799500  0.477900  0.543100  1.0  -0.6395
  O  O59  1  0.491500  0.608900  0.565600  1.0  -0.9058
  O  O60  1  0.260300  0.468600  0.632500  1.0  -0.5843
  O  O61  1  0.417200  0.849200  0.916700  1.0  -0.8055
  O  O62  1  0.626000  0.081800  0.880900  1.0  -0.7555
  O  O63  1  0.549700  0.702300  0.040900  1.0  -0.6278
  O  O64  1  0.700500  0.522100  0.043100  1.0  -0.64
  O  O65  1  0.008500  0.391100  0.065600  1.0  -0.905
  O  O66  1  0.239700  0.531400  0.132500  1.0  -0.5834
  O  O67  1  0.082800  0.150800  0.416700  1.0  -0.8052
  O  O68  1  0.874000  0.918200  0.380900  1.0  -0.7546
