# generated using pymatgen
data_ErHC6(NO3)2
_symmetry_space_group_name_H-M   'P 1'
_cell_length_a   7.76640000
_cell_length_b   8.26100000
_cell_length_c   17.32390000
_cell_angle_alpha   90.00000000
_cell_angle_beta   90.00000000
_cell_angle_gamma   108.05600000
_symmetry_Int_Tables_number   1
_chemical_formula_structural   ErHC6(NO3)2
_chemical_formula_sum   'Er4 H4 C24 N8 O24'
_cell_volume   1056.73531566
_cell_formula_units_Z   4
loop_
 _symmetry_equiv_pos_site_id
 _symmetry_equiv_pos_as_xyz
  1  'x, y, z'
loop_
 _atom_site_type_symbol
 _atom_site_label
 _atom_site_symmetry_multiplicity
 _atom_site_fract_x
 _atom_site_fract_y
 _atom_site_fract_z
 _atom_site_occupancy
 _atom_site_charge
  Er  Er1  1  0.749660  0.774840  0.977630  1.0  1.5304
  Er  Er2  1  0.750340  0.225160  0.477630  1.0  1.5295
  Er  Er3  1  0.250340  0.225160  0.022370  1.0  1.5297
  Er  Er4  1  0.249660  0.774840  0.522370  1.0  1.5301
  H  H5  1  0.163600  0.870800  0.287400  1.0  0.1504
  H  H6  1  0.336400  0.129200  0.787400  1.0  0.1499
  H  H7  1  0.836400  0.129200  0.712600  1.0  0.15
  H  H8  1  0.663600  0.870800  0.212600  1.0  0.1504
  C  C9  1  0.982000  0.560000  0.371500  1.0  0.7044
  C  C10  1  0.987000  0.623000  0.291400  1.0  0.0354
  C  C11  1  0.085000  0.780000  0.260700  1.0  -0.1349
  C  C12  1  0.045000  0.774000  0.183200  1.0  0.0212
  C  C13  1  0.091000  0.898000  0.119200  1.0  0.688
  C  C14  1  0.572000  0.062000  0.026000  1.0  0.5362
  C  C15  1  0.518000  0.440000  0.871500  1.0  0.7049
  C  C16  1  0.513000  0.377000  0.791400  1.0  0.036
  C  C17  1  0.415000  0.220000  0.760700  1.0  -0.1352
  C  C18  1  0.455000  0.226000  0.683200  1.0  0.0207
  C  C19  1  0.409000  0.102000  0.619200  1.0  0.6879
  C  C20  1  0.928000  0.938000  0.526000  1.0  0.5361
  C  C21  1  0.018000  0.440000  0.628500  1.0  0.7056
  C  C22  1  0.013000  0.377000  0.708600  1.0  0.0353
  C  C23  1  0.915000  0.220000  0.739300  1.0  -0.1356
  C  C24  1  0.955000  0.226000  0.816800  1.0  0.0214
  C  C25  1  0.909000  0.102000  0.880800  1.0  0.6868
  C  C26  1  0.428000  0.938000  0.974000  1.0  0.5362
  C  C27  1  0.482000  0.560000  0.128500  1.0  0.7041
  C  C28  1  0.487000  0.623000  0.208600  1.0  0.0344
  C  C29  1  0.585000  0.780000  0.239300  1.0  -0.135
  C  C30  1  0.545000  0.774000  0.316800  1.0  0.0212
  C  C31  1  0.591000  0.898000  0.380800  1.0  0.6867
  C  C32  1  0.072000  0.062000  0.474000  1.0  0.5374
  N  N33  1  0.921000  0.615000  0.168700  1.0  -0.116
  N  N34  1  0.892000  0.527800  0.234600  1.0  -0.0369
  N  N35  1  0.579000  0.385000  0.668700  1.0  -0.1222
  N  N36  1  0.608000  0.472200  0.734600  1.0  -0.0382
  N  N37  1  0.079000  0.385000  0.831300  1.0  -0.1171
  N  N38  1  0.108000  0.472200  0.765400  1.0  -0.0382
  N  N39  1  0.421000  0.615000  0.331300  1.0  -0.1132
  N  N40  1  0.392000  0.527800  0.265400  1.0  -0.0364
  O  O41  1  0.072500  0.653600  0.421200  1.0  -0.6317
  O  O42  1  0.874500  0.407700  0.381400  1.0  -0.6143
  O  O43  1  0.228600  0.025900  0.124800  1.0  -0.5538
  O  O44  1  0.989600  0.867600  0.060600  1.0  -0.6593
  O  O45  1  0.706100  0.013900  0.042400  1.0  -0.4841
  O  O46  1  0.452400  0.801400  0.954500  1.0  -0.4379
  O  O47  1  0.427500  0.346400  0.921200  1.0  -0.6346
  O  O48  1  0.625500  0.592300  0.881400  1.0  -0.6111
  O  O49  1  0.271400  0.974100  0.624800  1.0  -0.5524
  O  O50  1  0.510400  0.132400  0.560600  1.0  -0.656
  O  O51  1  0.793900  0.986100  0.542400  1.0  -0.4835
  O  O52  1  0.047600  0.198600  0.454500  1.0  -0.4379
  O  O53  1  0.927500  0.346400  0.578800  1.0  -0.6317
  O  O54  1  0.125500  0.592300  0.618600  1.0  -0.6121
  O  O55  1  0.771400  0.974100  0.875200  1.0  -0.5522
  O  O56  1  0.010400  0.132400  0.939400  1.0  -0.6523
  O  O57  1  0.293900  0.986100  0.957600  1.0  -0.4863
  O  O58  1  0.547600  0.198600  0.045500  1.0  -0.4368
  O  O59  1  0.572500  0.653600  0.078800  1.0  -0.6299
  O  O60  1  0.374500  0.407700  0.118600  1.0  -0.6146
  O  O61  1  0.728600  0.025900  0.375200  1.0  -0.5523
  O  O62  1  0.489600  0.867600  0.439400  1.0  -0.6549
  O  O63  1  0.206100  0.013900  0.457600  1.0  -0.4854
  O  O64  1  0.952400  0.801400  0.545500  1.0  -0.4359
