# generated using pymatgen
data_EuH2C6(NO3)2
_symmetry_space_group_name_H-M   'P 1'
_cell_length_a   7.92040000
_cell_length_b   8.32100000
_cell_length_c   17.48090000
_cell_angle_alpha   90.00000000
_cell_angle_beta   90.00000000
_cell_angle_gamma   109.06900000
_symmetry_Int_Tables_number   1
_chemical_formula_structural   EuH2C6(NO3)2
_chemical_formula_sum   'Eu4 H8 C24 N8 O24'
_cell_volume   1088.87004750
_cell_formula_units_Z   4
loop_
 _symmetry_equiv_pos_site_id
 _symmetry_equiv_pos_as_xyz
  1  'x, y, z'
loop_
 _atom_site_type_symbol
 _atom_site_label
 _atom_site_symmetry_multiplicity
 _atom_site_fract_x
 _atom_site_fract_y
 _atom_site_fract_z
 _atom_site_occupancy
 _atom_site_charge
  Eu  Eu1  1  0.744240  0.719990  0.522200  1.0  2.1352
  Eu  Eu2  1  0.755760  0.280010  0.022200  1.0  2.1364
  Eu  Eu3  1  0.255760  0.280010  0.477800  1.0  2.1367
  Eu  Eu4  1  0.244240  0.719990  0.977800  1.0  2.1353
  H  H5  1  0.838700  0.632100  0.289300  1.0  0.1027
  H  H6  1  0.174600  0.073600  0.238700  1.0  0.3045
  H  H7  1  0.661300  0.367900  0.789300  1.0  0.1017
  H  H8  1  0.325400  0.926400  0.738700  1.0  0.3034
  H  H9  1  0.161300  0.367900  0.710700  1.0  0.1018
  H  H10  1  0.825400  0.926400  0.761300  1.0  0.3024
  H  H11  1  0.338700  0.632100  0.210700  1.0  0.1027
  H  H12  1  0.674600  0.073600  0.261300  1.0  0.3032
  C  C13  1  0.021000  0.939000  0.371200  1.0  0.7356
  C  C14  1  0.013000  0.876000  0.290900  1.0  0.1237
  C  C15  1  0.915000  0.722000  0.261800  1.0  -0.0686
  C  C16  1  0.948000  0.724000  0.185000  1.0  -0.0275
  C  C17  1  0.905000  0.592000  0.122700  1.0  0.663
  C  C18  1  0.928000  0.435000  0.475100  1.0  0.5618
  C  C19  1  0.479000  0.061000  0.871200  1.0  0.7347
  C  C20  1  0.487000  0.124000  0.790900  1.0  0.1231
  C  C21  1  0.585000  0.278000  0.761800  1.0  -0.0673
  C  C22  1  0.552000  0.276000  0.685000  1.0  -0.0265
  C  C23  1  0.595000  0.408000  0.622700  1.0  0.6554
  C  C24  1  0.572000  0.565000  0.975100  1.0  0.5628
  C  C25  1  0.979000  0.061000  0.628800  1.0  0.7371
  C  C26  1  0.987000  0.124000  0.709100  1.0  0.1246
  C  C27  1  0.085000  0.278000  0.738200  1.0  -0.0667
  C  C28  1  0.052000  0.276000  0.815000  1.0  -0.0253
  C  C29  1  0.095000  0.408000  0.877300  1.0  0.6616
  C  C30  1  0.072000  0.565000  0.524900  1.0  0.5615
  C  C31  1  0.521000  0.939000  0.128800  1.0  0.7378
  C  C32  1  0.513000  0.876000  0.209100  1.0  0.125
  C  C33  1  0.415000  0.722000  0.238200  1.0  -0.0683
  C  C34  1  0.448000  0.724000  0.315000  1.0  -0.0249
  C  C35  1  0.405000  0.592000  0.377300  1.0  0.6561
  C  C36  1  0.428000  0.435000  0.024900  1.0  0.5621
  N  N37  1  0.107000  0.969000  0.234500  1.0  -0.0967
  N  N38  1  0.083000  0.878000  0.170300  1.0  -0.3336
  N  N39  1  0.393000  0.031000  0.734500  1.0  -0.0972
  N  N40  1  0.417000  0.122000  0.670300  1.0  -0.3345
  N  N41  1  0.893000  0.031000  0.765500  1.0  -0.0974
  N  N42  1  0.917000  0.122000  0.829700  1.0  -0.3319
  N  N43  1  0.607000  0.969000  0.265500  1.0  -0.0969
  N  N44  1  0.583000  0.878000  0.329700  1.0  -0.3321
  O  O45  1  0.925000  0.847500  0.418600  1.0  -0.7107
  O  O46  1  0.125600  0.082500  0.382600  1.0  -0.75
  O  O47  1  0.766500  0.469600  0.129200  1.0  -0.6135
  O  O48  1  0.000000  0.618000  0.063900  1.0  -0.8193
  O  O49  1  0.795800  0.480000  0.457500  1.0  -0.6146
  O  O50  1  0.951300  0.298400  0.456700  1.0  -0.5907
  O  O51  1  0.575000  0.152500  0.918600  1.0  -0.7105
  O  O52  1  0.374400  0.917500  0.882600  1.0  -0.7497
  O  O53  1  0.733500  0.530400  0.629200  1.0  -0.6149
  O  O54  1  0.500000  0.382000  0.563900  1.0  -0.8207
  O  O55  1  0.704200  0.520000  0.957500  1.0  -0.616
  O  O56  1  0.548700  0.701600  0.956700  1.0  -0.5894
  O  O57  1  0.075000  0.152500  0.581400  1.0  -0.7107
  O  O58  1  0.874400  0.917500  0.617400  1.0  -0.7502
  O  O59  1  0.233500  0.530400  0.870800  1.0  -0.6153
  O  O60  1  0.000000  0.382000  0.936100  1.0  -0.8191
  O  O61  1  0.204200  0.520000  0.542500  1.0  -0.6164
  O  O62  1  0.048700  0.701600  0.543300  1.0  -0.5891
  O  O63  1  0.425000  0.847500  0.081400  1.0  -0.7107
  O  O64  1  0.625600  0.082500  0.117400  1.0  -0.7494
  O  O65  1  0.266500  0.469600  0.370800  1.0  -0.6143
  O  O66  1  0.500000  0.618000  0.436100  1.0  -0.818
  O  O67  1  0.295800  0.480000  0.042500  1.0  -0.6133
  O  O68  1  0.451300  0.298400  0.043300  1.0  -0.59
