# generated using pymatgen
data_EuH2C6(NO3)2
_symmetry_space_group_name_H-M   'P 1'
_cell_length_a   7.92190000
_cell_length_b   8.31940000
_cell_length_c   17.47600000
_cell_angle_alpha   90.00000000
_cell_angle_beta   90.00000000
_cell_angle_gamma   109.00800000
_symmetry_Int_Tables_number   1
_chemical_formula_structural   EuH2C6(NO3)2
_chemical_formula_sum   'Eu4 H8 C24 N8 O24'
_cell_volume   1088.96163323
_cell_formula_units_Z   4
loop_
 _symmetry_equiv_pos_site_id
 _symmetry_equiv_pos_as_xyz
  1  'x, y, z'
loop_
 _atom_site_type_symbol
 _atom_site_label
 _atom_site_symmetry_multiplicity
 _atom_site_fract_x
 _atom_site_fract_y
 _atom_site_fract_z
 _atom_site_occupancy
 _atom_site_charge
  Eu  Eu1  1  0.755820  0.280300  0.977780  1.0  2.1642
  Eu  Eu2  1  0.744180  0.719700  0.477780  1.0  2.1633
  Eu  Eu3  1  0.244180  0.719700  0.022220  1.0  2.1641
  Eu  Eu4  1  0.255820  0.280300  0.522220  1.0  2.1653
  H  H5  1  0.831900  0.625400  0.712700  1.0  0.1404
  H  H6  1  0.110000  0.930000  0.869000  1.0  0.3492
  H  H7  1  0.668100  0.374600  0.212700  1.0  0.139
  H  H8  1  0.390000  0.070000  0.369000  1.0  0.3492
  H  H9  1  0.168100  0.374600  0.287300  1.0  0.1391
  H  H10  1  0.890000  0.070000  0.131000  1.0  0.3513
  H  H11  1  0.331900  0.625400  0.787300  1.0  0.1406
  H  H12  1  0.610000  0.930000  0.631000  1.0  0.3494
  C  C13  1  0.902200  0.594400  0.877000  1.0  0.7336
  C  C14  1  0.954300  0.722600  0.815200  1.0  0.0242
  C  C15  1  0.911100  0.716200  0.738900  1.0  -0.1003
  C  C16  1  0.010300  0.873900  0.708700  1.0  0.0329
  C  C17  1  0.019200  0.940500  0.630000  1.0  0.7672
  C  C18  1  0.429200  0.436600  0.974500  1.0  0.5396
  C  C19  1  0.597800  0.405600  0.377000  1.0  0.7329
  C  C20  1  0.545700  0.277400  0.315200  1.0  0.0237
  C  C21  1  0.588900  0.283800  0.238900  1.0  -0.0984
  C  C22  1  0.489700  0.126100  0.208700  1.0  0.0312
  C  C23  1  0.480800  0.059500  0.130000  1.0  0.7669
  C  C24  1  0.070800  0.563400  0.474500  1.0  0.5398
  C  C25  1  0.097800  0.405600  0.123000  1.0  0.7331
  C  C26  1  0.045700  0.277400  0.184800  1.0  0.0229
  C  C27  1  0.088900  0.283800  0.261100  1.0  -0.0985
  C  C28  1  0.989700  0.126100  0.291300  1.0  0.0331
  C  C29  1  0.980800  0.059500  0.370000  1.0  0.7672
  C  C30  1  0.570800  0.563400  0.025500  1.0  0.539
  C  C31  1  0.402200  0.594400  0.623000  1.0  0.7332
  C  C32  1  0.454300  0.722600  0.684800  1.0  0.0228
  C  C33  1  0.411100  0.716200  0.761100  1.0  -0.0997
  C  C34  1  0.510300  0.873900  0.791300  1.0  0.0342
  C  C35  1  0.519200  0.940500  0.870000  1.0  0.7665
  C  C36  1  0.929200  0.436600  0.525500  1.0  0.5396
  N  N37  1  0.078400  0.877600  0.829100  1.0  -0.3312
  N  N38  1  0.110300  0.970100  0.765000  1.0  -0.2406
  N  N39  1  0.421600  0.122400  0.329100  1.0  -0.3323
  N  N40  1  0.389700  0.029900  0.265000  1.0  -0.2407
  N  N41  1  0.921600  0.122400  0.170900  1.0  -0.3348
  N  N42  1  0.889700  0.029900  0.235000  1.0  -0.2408
  N  N43  1  0.578400  0.877600  0.670900  1.0  -0.3336
  N  N44  1  0.610300  0.970100  0.735000  1.0  -0.2407
  O  O45  1  0.999200  0.617300  0.936300  1.0  -0.8065
  O  O46  1  0.765000  0.469700  0.869200  1.0  -0.5948
  O  O47  1  0.124200  0.085700  0.618300  1.0  -0.7468
  O  O48  1  0.922900  0.847400  0.580900  1.0  -0.7423
  O  O49  1  0.451800  0.299500  0.956400  1.0  -0.591
  O  O50  1  0.295400  0.480000  0.957400  1.0  -0.5969
  O  O51  1  0.500800  0.382700  0.436300  1.0  -0.8071
  O  O52  1  0.735000  0.530300  0.369200  1.0  -0.5939
  O  O53  1  0.375800  0.914300  0.118300  1.0  -0.7469
  O  O54  1  0.577100  0.152600  0.080900  1.0  -0.7428
  O  O55  1  0.048200  0.700500  0.456400  1.0  -0.5884
  O  O56  1  0.204600  0.520000  0.457400  1.0  -0.5986
  O  O57  1  0.000800  0.382700  0.063700  1.0  -0.8065
  O  O58  1  0.235000  0.530300  0.130800  1.0  -0.5942
  O  O59  1  0.875800  0.914300  0.381700  1.0  -0.7469
  O  O60  1  0.077100  0.152600  0.419100  1.0  -0.7418
  O  O61  1  0.548200  0.700500  0.043600  1.0  -0.5891
  O  O62  1  0.704600  0.520000  0.042600  1.0  -0.5983
  O  O63  1  0.499200  0.617300  0.563700  1.0  -0.8061
  O  O64  1  0.265000  0.469700  0.630800  1.0  -0.5941
  O  O65  1  0.624200  0.085700  0.881700  1.0  -0.746
  O  O66  1  0.422900  0.847400  0.919100  1.0  -0.7421
  O  O67  1  0.951800  0.299500  0.543600  1.0  -0.59
  O  O68  1  0.795400  0.480000  0.542600  1.0  -0.5963
