# generated using pymatgen
data_Sm2MnH32C56(N2O5)4
_symmetry_space_group_name_H-M   'P 1'
_cell_length_a   10.18800000
_cell_length_b   10.83860000
_cell_length_c   13.87210000
_cell_angle_alpha   78.67300000
_cell_angle_beta   79.28100000
_cell_angle_gamma   86.12600000
_symmetry_Int_Tables_number   1
_chemical_formula_structural   Sm2MnH32C56(N2O5)4
_chemical_formula_sum   'Sm2 Mn1 H32 C56 N8 O20'
_cell_volume   1474.99836542
_cell_formula_units_Z   1
loop_
 _symmetry_equiv_pos_site_id
 _symmetry_equiv_pos_as_xyz
  1  'x, y, z'
loop_
 _atom_site_type_symbol
 _atom_site_label
 _atom_site_symmetry_multiplicity
 _atom_site_fract_x
 _atom_site_fract_y
 _atom_site_fract_z
 _atom_site_occupancy
 _atom_site_charge
  Sm  Sm1  1  0.319860  0.923360  0.296660  1.0  2.2028
  Sm  Sm2  1  0.680140  0.076640  0.703340  1.0  2.1992
  Mn  Mn3  1  0.000000  0.500000  0.500000  1.0  1.1181
  H  H4  1  0.827100  0.912100  0.278800  1.0  0.1026
  H  H5  1  0.088200  0.848100  0.039000  1.0  0.1174
  H  H6  1  0.694000  0.852400  0.037600  1.0  0.1145
  H  H7  1  0.013600  0.834300  0.719000  1.0  0.1252
  H  H8  1  0.032200  0.752300  0.575500  1.0  0.0832
  H  H9  1  0.013200  0.410800  0.727200  1.0  0.0731
  H  H10  1  0.010300  0.480700  0.875700  1.0  0.127
  H  H11  1  0.329100  0.670500  0.154400  1.0  0.1121
  H  H12  1  0.346800  0.330500  0.078300  1.0  0.1118
  H  H13  1  0.285200  0.360100  0.366700  1.0  0.1115
  H  H14  1  0.343400  0.775700  0.852200  1.0  0.123
  H  H15  1  0.357100  0.882900  0.690300  1.0  0.0778
  H  H16  1  0.362800  0.574300  0.589000  1.0  0.0838
  H  H17  1  0.356200  0.455300  0.745500  1.0  0.1174
  H  H18  1  0.876900  0.841300  0.884600  1.0  0.2912
  H  H19  1  0.380700  0.646700  0.982600  1.0  0.3071
  H  H20  1  0.172900  0.087900  0.721200  1.0  0.1023
  H  H21  1  0.911800  0.151900  0.961000  1.0  0.1173
  H  H22  1  0.306000  0.147600  0.962400  1.0  0.1148
  H  H23  1  0.986400  0.165700  0.281000  1.0  0.1252
  H  H24  1  0.967800  0.247700  0.424500  1.0  0.0836
  H  H25  1  0.986800  0.589200  0.272800  1.0  0.0719
  H  H26  1  0.989700  0.519300  0.124300  1.0  0.1274
  H  H27  1  0.670900  0.329500  0.845600  1.0  0.1118
  H  H28  1  0.653200  0.669500  0.921700  1.0  0.1117
  H  H29  1  0.714800  0.639900  0.633300  1.0  0.1123
  H  H30  1  0.656600  0.224300  0.147800  1.0  0.1229
  H  H31  1  0.642900  0.117100  0.309700  1.0  0.0755
  H  H32  1  0.637200  0.425700  0.411000  1.0  0.0845
  H  H33  1  0.643800  0.544700  0.254500  1.0  0.1162
  H  H34  1  0.123100  0.158700  0.115400  1.0  0.291
  H  H35  1  0.619300  0.353300  0.017400  1.0  0.3077
  C  C36  1  0.595200  0.900700  0.214300  1.0  0.6637
  C  C37  1  0.736600  0.885900  0.167400  1.0  -0.1663
  C  C38  1  0.844000  0.895400  0.214300  1.0  -0.0318
  C  C39  1  0.973000  0.881000  0.168600  1.0  -0.1438
  C  C40  1  0.000400  0.854800  0.071700  1.0  -0.1058
  C  C41  1  0.893900  0.838900  0.024900  1.0  0.1937
  C  C42  1  0.764100  0.858000  0.070900  1.0  -0.0973
  C  C43  1  0.092100  0.892900  0.216200  1.0  0.6772
  C  C44  1  0.004200  0.704500  0.911500  1.0  0.5386
  C  C45  1  0.008400  0.666000  0.813200  1.0  -0.0081
  C  C46  1  0.015200  0.747700  0.722500  1.0  -0.1879
  C  C47  1  0.024400  0.697500  0.636700  1.0  0.1707
  C  C48  1  0.015500  0.496800  0.725600  1.0  0.1608
  C  C49  1  0.011200  0.537800  0.816000  1.0  -0.148
  C  C50  1  0.272500  0.605500  0.352700  1.0  0.748
  C  C51  1  0.300300  0.527300  0.273100  1.0  -0.1467
  C  C52  1  0.323100  0.583500  0.172400  1.0  -0.1135
  C  C53  1  0.337000  0.511300  0.098200  1.0  0.2059
  C  C54  1  0.335600  0.380600  0.126600  1.0  -0.1497
  C  C55  1  0.317700  0.325400  0.226900  1.0  -0.087
  C  C56  1  0.298900  0.398200  0.299600  1.0  -0.0242
  C  C57  1  0.312600  0.189000  0.252100  1.0  0.6599
  C  C58  1  0.333900  0.518500  0.921000  1.0  0.5233
  C  C59  1  0.348400  0.602100  0.819300  1.0  -0.0227
  C  C60  1  0.348100  0.731700  0.800400  1.0  -0.1877
  C  C61  1  0.355000  0.795500  0.702600  1.0  0.1882
  C  C62  1  0.359300  0.614700  0.642700  1.0  0.1734
  C  C63  1  0.354900  0.542600  0.736600  1.0  -0.1413
  C  C64  1  0.404800  0.099300  0.785700  1.0  0.6622
  C  C65  1  0.263400  0.114100  0.832600  1.0  -0.1679
  C  C66  1  0.156000  0.104600  0.785700  1.0  -0.0315
  C  C67  1  0.027000  0.119000  0.831400  1.0  -0.1442
  C  C68  1  0.999600  0.145200  0.928300  1.0  -0.1061
  C  C69  1  0.106100  0.161100  0.975100  1.0  0.1937
  C  C70  1  0.235900  0.142000  0.929100  1.0  -0.0963
  C  C71  1  0.907900  0.107100  0.783800  1.0  0.6776
  C  C72  1  0.995800  0.295500  0.088500  1.0  0.5401
  C  C73  1  0.991600  0.334000  0.186800  1.0  -0.0077
  C  C74  1  0.984800  0.252300  0.277500  1.0  -0.1871
  C  C75  1  0.975600  0.302500  0.363300  1.0  0.1722
  C  C76  1  0.984500  0.503200  0.274400  1.0  0.162
  C  C77  1  0.988800  0.462200  0.184000  1.0  -0.1483
  C  C78  1  0.727500  0.394500  0.647300  1.0  0.7494
  C  C79  1  0.699700  0.472700  0.726900  1.0  -0.1451
  C  C80  1  0.676900  0.416500  0.827600  1.0  -0.113
  C  C81  1  0.663000  0.488700  0.901800  1.0  0.2056
  C  C82  1  0.664400  0.619400  0.873400  1.0  -0.1504
  C  C83  1  0.682300  0.674600  0.773100  1.0  -0.0875
  C  C84  1  0.701100  0.601800  0.700400  1.0  -0.0208
  C  C85  1  0.687400  0.811000  0.747900  1.0  0.6638
  C  C86  1  0.666100  0.481500  0.079000  1.0  0.5218
  C  C87  1  0.651600  0.397900  0.180700  1.0  -0.022
  C  C88  1  0.651900  0.268300  0.199600  1.0  -0.1856
  C  C89  1  0.645000  0.204500  0.297400  1.0  0.1921
  C  C90  1  0.640700  0.385300  0.357300  1.0  0.1725
  C  C91  1  0.645100  0.457400  0.263400  1.0  -0.1407
  N  N92  1  0.918000  0.801500  0.930800  1.0  -0.3714
  N  N93  1  0.022700  0.574100  0.638000  1.0  -0.3609
  N  N94  1  0.354500  0.570500  0.997000  1.0  -0.4051
  N  N95  1  0.358700  0.738800  0.625700  1.0  -0.4367
  N  N96  1  0.082000  0.198500  0.069200  1.0  -0.3709
  N  N97  1  0.977300  0.425900  0.362000  1.0  -0.3737
  N  N98  1  0.645500  0.429500  0.003000  1.0  -0.4055
  N  N99  1  0.641300  0.261200  0.374300  1.0  -0.431
  O  O100  1  0.562500  0.900900  0.307600  1.0  -0.7158
  O  O101  1  0.505700  0.914500  0.161700  1.0  -0.6501
  O  O102  1  0.071600  0.905300  0.308300  1.0  -0.7074
  O  O103  1  0.205800  0.888200  0.166000  1.0  -0.6219
  O  O104  1  0.076400  0.652800  0.968500  1.0  -0.4904
  O  O105  1  0.321300  0.711900  0.333500  1.0  -0.742
  O  O106  1  0.199600  0.562300  0.433500  1.0  -0.6693
  O  O107  1  0.325500  0.130700  0.339100  1.0  -0.6989
  O  O108  1  0.295900  0.126300  0.189200  1.0  -0.6452
  O  O109  1  0.304900  0.411400  0.928800  1.0  -0.4685
  O  O110  1  0.437500  0.099100  0.692400  1.0  -0.7172
  O  O111  1  0.494300  0.085500  0.838300  1.0  -0.6514
  O  O112  1  0.928400  0.094700  0.691700  1.0  -0.7071
  O  O113  1  0.794200  0.111800  0.834000  1.0  -0.6209
  O  O114  1  0.923600  0.347200  0.031500  1.0  -0.492
  O  O115  1  0.678700  0.288100  0.666500  1.0  -0.7432
  O  O116  1  0.800400  0.437700  0.566500  1.0  -0.668
  O  O117  1  0.674500  0.869300  0.660900  1.0  -0.6987
  O  O118  1  0.704100  0.873700  0.810800  1.0  -0.6433
  O  O119  1  0.695100  0.588600  0.071200  1.0  -0.4687
