# generated using pymatgen
data_Tb2C12(NO4)3
_symmetry_space_group_name_H-M   'P 1'
_cell_length_a   8.56270000
_cell_length_b   14.07800000
_cell_length_c   20.29700000
_cell_angle_alpha   88.56800000
_cell_angle_beta   86.32500000
_cell_angle_gamma   81.38200000
_symmetry_Int_Tables_number   1
_chemical_formula_structural   Tb2C12(NO4)3
_chemical_formula_sum   'Tb8 C48 N12 O48'
_cell_volume   2413.82292975
_cell_formula_units_Z   4
loop_
 _symmetry_equiv_pos_site_id
 _symmetry_equiv_pos_as_xyz
  1  'x, y, z'
loop_
 _atom_site_type_symbol
 _atom_site_label
 _atom_site_symmetry_multiplicity
 _atom_site_fract_x
 _atom_site_fract_y
 _atom_site_fract_z
 _atom_site_occupancy
 _atom_site_charge
  Tb  Tb1  1  0.273650  0.762720  0.980960  1.0  2.2088
  Tb  Tb2  1  0.235160  0.485610  0.247970  1.0  2.1727
  Tb  Tb3  1  0.117840  0.760330  0.514330  1.0  2.2276
  Tb  Tb4  1  0.211310  0.029850  0.241130  1.0  1.6706
  Tb  Tb5  1  0.726350  0.237280  0.019040  1.0  2.2085
  Tb  Tb6  1  0.764840  0.514390  0.752030  1.0  2.1726
  Tb  Tb7  1  0.882160  0.239670  0.485670  1.0  2.2275
  Tb  Tb8  1  0.788690  0.970150  0.758870  1.0  1.671
  C  C9  1  0.252100  0.586600  0.091500  1.0  0.6757
  C  C10  1  0.390000  0.537400  0.046400  1.0  0.1071
  C  C11  1  0.492100  0.453900  0.060800  1.0  0.0007
  C  C12  1  0.507000  0.388600  0.121600  1.0  0.6755
  C  C13  1  0.130000  0.932700  0.090900  1.0  0.66
  C  C14  1  0.976000  0.912400  0.062900  1.0  0.0539
  C  C15  1  0.822000  0.954700  0.076000  1.0  0.2147
  C  C16  1  0.721000  0.849200  0.016300  1.0  0.2007
  C  C17  1  0.865000  0.802500  0.996900  1.0  0.014
  C  C18  1  0.921000  0.719100  0.952000  1.0  0.6371
  C  C19  1  0.779000  0.044300  0.120300  1.0  0.6062
  C  C20  1  0.574000  0.813800  0.997300  1.0  0.6728
  C  C21  1  0.204000  0.581200  0.401900  1.0  0.6824
  C  C22  1  0.088000  0.538300  0.453000  1.0  0.1531
  C  C23  1  0.980100  0.547700  0.558000  1.0  0.0335
  C  C24  1  0.986000  0.601600  0.622300  1.0  0.6907
  C  C25  1  0.491000  0.023100  0.353300  1.0  0.6226
  C  C26  1  0.478000  0.944000  0.406500  1.0  0.0701
  C  C27  1  0.346000  0.902200  0.427200  1.0  0.1056
  C  C28  1  0.498000  0.800100  0.494900  1.0  0.1563
  C  C29  1  0.626000  0.839500  0.474700  1.0  0.1648
  C  C30  1  0.788000  0.806800  0.497600  1.0  0.6035
  C  C31  1  0.497000  0.717000  0.543900  1.0  0.6489
  C  C32  1  0.177000  0.933200  0.402300  1.0  0.6187
  C  C33  1  0.747900  0.413400  0.908500  1.0  0.6774
  C  C34  1  0.610000  0.462600  0.953600  1.0  0.1068
  C  C35  1  0.507900  0.546100  0.939200  1.0  -1e-04
  C  C36  1  0.493000  0.611400  0.878400  1.0  0.6733
  C  C37  1  0.870000  0.067300  0.909100  1.0  0.6606
  C  C38  1  0.024000  0.087600  0.937100  1.0  0.0516
  C  C39  1  0.178000  0.045300  0.924000  1.0  0.2134
  C  C40  1  0.279000  0.150800  0.983700  1.0  0.2003
  C  C41  1  0.135000  0.197500  0.003100  1.0  0.0126
  C  C42  1  0.079000  0.280900  0.048000  1.0  0.6386
  C  C43  1  0.221000  0.955700  0.879700  1.0  0.6132
  C  C44  1  0.426000  0.186200  0.002700  1.0  0.6742
  C  C45  1  0.796000  0.418800  0.598100  1.0  0.6805
  C  C46  1  0.912000  0.461700  0.547000  1.0  0.1528
  C  C47  1  0.019900  0.452300  0.442000  1.0  0.0321
  C  C48  1  0.014000  0.398400  0.377700  1.0  0.6927
  C  C49  1  0.509000  0.976900  0.646700  1.0  0.6247
  C  C50  1  0.522000  0.056000  0.593500  1.0  0.0679
  C  C51  1  0.654000  0.097800  0.572800  1.0  0.1064
  C  C52  1  0.502000  0.199900  0.505100  1.0  0.1568
  C  C53  1  0.374000  0.160500  0.525300  1.0  0.1658
  C  C54  1  0.212000  0.193200  0.502400  1.0  0.6036
  C  C55  1  0.503000  0.283000  0.456100  1.0  0.6479
  C  C56  1  0.823000  0.066800  0.597700  1.0  0.6175
  N  N57  1  0.400400  0.585600  0.988000  1.0  -0.3792
  N  N58  1  0.072100  0.574300  0.508300  1.0  -0.2635
  N  N59  1  0.999600  0.836000  0.022900  1.0  -0.415
  N  N60  1  0.694600  0.924100  0.056500  1.0  -0.3605
  N  N61  1  0.356800  0.832900  0.472300  1.0  -0.4091
  N  N62  1  0.622800  0.915700  0.431100  1.0  -0.377
  N  N63  1  0.599600  0.414400  0.012000  1.0  -0.3788
  N  N64  1  0.927900  0.425700  0.491700  1.0  -0.2638
  N  N65  1  0.000400  0.164000  0.977100  1.0  -0.4153
  N  N66  1  0.305400  0.075900  0.943500  1.0  -0.3608
  N  N67  1  0.643200  0.167100  0.527700  1.0  -0.4082
  N  N68  1  0.377200  0.084300  0.568900  1.0  -0.3725
  O  O69  1  0.212700  0.675100  0.079200  1.0  -0.6441
  O  O70  1  0.190000  0.542200  0.135800  1.0  -0.683
  O  O71  1  0.440100  0.417500  0.175200  1.0  -0.7326
  O  O72  1  0.589500  0.311300  0.114000  1.0  -0.6115
  O  O73  1  0.064200  0.688400  0.943300  1.0  -0.6238
  O  O74  1  0.807900  0.699800  0.920100  1.0  -0.5114
  O  O75  1  0.255200  0.891100  0.064700  1.0  -0.6163
  O  O76  1  0.111400  0.989700  0.136400  1.0  -0.7178
  O  O77  1  0.525600  0.746600  0.029200  1.0  -0.6236
  O  O78  1  0.500000  0.855700  0.949300  1.0  -0.6289
  O  O79  1  0.828700  0.119300  0.094700  1.0  -0.69
  O  O80  1  0.698400  0.036500  0.174300  1.0  -0.5284
  O  O81  1  0.273900  0.536200  0.355700  1.0  -0.6817
  O  O82  1  0.224000  0.664100  0.417700  1.0  -0.6692
  O  O83  1  0.028100  0.681600  0.613700  1.0  -0.6376
  O  O84  1  0.955300  0.562300  0.675200  1.0  -0.6859
  O  O85  1  0.457300  0.007500  0.291300  1.0  -0.6679
  O  O86  1  0.559800  0.091800  0.366700  1.0  -0.5
  O  O87  1  0.076900  0.885700  0.432500  1.0  -0.6734
  O  O88  1  0.148600  0.999700  0.363300  1.0  -0.6539
  O  O89  1  0.364900  0.693300  0.557100  1.0  -0.6503
  O  O90  1  0.620500  0.682700  0.566800  1.0  -0.475
  O  O91  1  0.845800  0.842200  0.545800  1.0  -0.6051
  O  O92  1  0.873100  0.740300  0.459200  1.0  -0.6383
  O  O93  1  0.787300  0.324900  0.920800  1.0  -0.6436
  O  O94  1  0.810000  0.457800  0.864200  1.0  -0.6833
  O  O95  1  0.559900  0.582500  0.824800  1.0  -0.7318
  O  O96  1  0.410500  0.688700  0.886000  1.0  -0.6084
  O  O97  1  0.935800  0.311600  0.056700  1.0  -0.6232
  O  O98  1  0.192100  0.300200  0.079900  1.0  -0.5105
  O  O99  1  0.744800  0.108900  0.935300  1.0  -0.6161
  O  O100  1  0.888600  0.010300  0.863600  1.0  -0.7179
  O  O101  1  0.474400  0.253400  0.970800  1.0  -0.621
  O  O102  1  0.500000  0.144300  0.050700  1.0  -0.629
  O  O103  1  0.171300  0.880700  0.905300  1.0  -0.6922
  O  O104  1  0.301600  0.963500  0.825700  1.0  -0.5305
  O  O105  1  0.726100  0.463800  0.644300  1.0  -0.6786
  O  O106  1  0.776000  0.335900  0.582300  1.0  -0.6692
  O  O107  1  0.971900  0.318400  0.386300  1.0  -0.6382
  O  O108  1  0.044700  0.437700  0.324800  1.0  -0.6897
  O  O109  1  0.542700  0.992500  0.708700  1.0  -0.6677
  O  O110  1  0.440200  0.908200  0.633300  1.0  -0.4986
  O  O111  1  0.923100  0.114300  0.567500  1.0  -0.6738
  O  O112  1  0.851400  0.000300  0.636700  1.0  -0.6534
  O  O113  1  0.635100  0.306700  0.442900  1.0  -0.6498
  O  O114  1  0.379500  0.317300  0.433200  1.0  -0.4745
  O  O115  1  0.154200  0.157800  0.454200  1.0  -0.6072
  O  O116  1  0.126900  0.259700  0.540800  1.0  -0.6378
