# generated using pymatgen
data_Gd2C12(NO4)3
_symmetry_space_group_name_H-M   'P 1'
_cell_length_a   8.56070000
_cell_length_b   14.10230000
_cell_length_c   20.29400000
_cell_angle_alpha   88.53920000
_cell_angle_beta   86.49980000
_cell_angle_gamma   81.25190000
_symmetry_Int_Tables_number   1
_chemical_formula_structural   Gd2C12(NO4)3
_chemical_formula_sum   'Gd8 C48 N12 O48'
_cell_volume   2416.65919843
_cell_formula_units_Z   4
loop_
 _symmetry_equiv_pos_site_id
 _symmetry_equiv_pos_as_xyz
  1  'x, y, z'
loop_
 _atom_site_type_symbol
 _atom_site_label
 _atom_site_symmetry_multiplicity
 _atom_site_fract_x
 _atom_site_fract_y
 _atom_site_fract_z
 _atom_site_occupancy
 _atom_site_charge
  Gd  Gd1  1  0.275040  0.762860  0.980960  1.0  2.1392
  Gd  Gd2  1  0.231670  0.485810  0.247660  1.0  2.1023
  Gd  Gd3  1  0.118990  0.759550  0.514280  1.0  2.163
  Gd  Gd4  1  0.211560  0.030190  0.241490  1.0  1.6643
  Gd  Gd5  1  0.724960  0.237140  0.019040  1.0  2.1392
  Gd  Gd6  1  0.768330  0.514190  0.752340  1.0  2.1022
  Gd  Gd7  1  0.881010  0.240450  0.485720  1.0  2.163
  Gd  Gd8  1  0.788440  0.969810  0.758510  1.0  1.6625
  C  C9  1  0.252500  0.588300  0.092270  1.0  0.6995
  C  C10  1  0.387300  0.536200  0.047260  1.0  0.0488
  C  C11  1  0.490500  0.450800  0.058740  1.0  0.0497
  C  C12  1  0.504300  0.387600  0.121800  1.0  0.6871
  C  C13  1  0.127100  0.932700  0.090110  1.0  0.6847
  C  C14  1  0.977600  0.910500  0.061900  1.0  0.1538
  C  C15  1  0.821600  0.956600  0.077650  1.0  0.1653
  C  C16  1  0.723800  0.848400  0.015940  1.0  0.1777
  C  C17  1  0.875400  0.803800  0.997910  1.0  0.0835
  C  C18  1  0.919000  0.721100  0.950200  1.0  0.6316
  C  C19  1  0.782300  0.045500  0.118900  1.0  0.7011
  C  C20  1  0.575600  0.812500  0.997200  1.0  0.6703
  C  C21  1  0.206300  0.582200  0.403440  1.0  0.6911
  C  C22  1  0.091500  0.535300  0.450650  1.0  0.0644
  C  C23  1  0.982500  0.545200  0.559020  1.0  0.051
  C  C24  1  0.989900  0.599900  0.621930  1.0  0.6755
  C  C25  1  0.492700  0.021500  0.352100  1.0  0.6997
  C  C26  1  0.481300  0.945200  0.406400  1.0  0.0359
  C  C27  1  0.345000  0.905400  0.426950  1.0  0.0621
  C  C28  1  0.495700  0.799100  0.496360  1.0  0.1505
  C  C29  1  0.631000  0.840600  0.474330  1.0  0.1386
  C  C30  1  0.795200  0.804400  0.497000  1.0  0.6798
  C  C31  1  0.496500  0.717300  0.544680  1.0  0.6373
  C  C32  1  0.177600  0.933100  0.405630  1.0  0.6859
  C  C33  1  0.747500  0.411700  0.907730  1.0  0.6995
  C  C34  1  0.612700  0.463800  0.952740  1.0  0.048
  C  C35  1  0.509500  0.549200  0.941260  1.0  0.0499
  C  C36  1  0.495700  0.612400  0.878200  1.0  0.6865
  C  C37  1  0.872900  0.067300  0.909890  1.0  0.6852
  C  C38  1  0.022400  0.089500  0.938100  1.0  0.1533
  C  C39  1  0.178400  0.043400  0.922350  1.0  0.1655
  C  C40  1  0.276200  0.151600  0.984060  1.0  0.1778
  C  C41  1  0.124600  0.196200  0.002090  1.0  0.0837
  C  C42  1  0.081000  0.278900  0.049800  1.0  0.6305
  C  C43  1  0.217700  0.954500  0.881100  1.0  0.7082
  C  C44  1  0.424400  0.187500  0.002800  1.0  0.6705
  C  C45  1  0.793700  0.417800  0.596560  1.0  0.6896
  C  C46  1  0.908500  0.464700  0.549350  1.0  0.0647
  C  C47  1  0.017500  0.454800  0.440980  1.0  0.0509
  C  C48  1  0.010100  0.400100  0.378070  1.0  0.6766
  C  C49  1  0.507300  0.978500  0.647900  1.0  0.7007
  C  C50  1  0.518700  0.054800  0.593600  1.0  0.035
  C  C51  1  0.655000  0.094600  0.573050  1.0  0.0613
  C  C52  1  0.504300  0.200900  0.503640  1.0  0.1506
  C  C53  1  0.369000  0.159400  0.525670  1.0  0.1388
  C  C54  1  0.204800  0.195600  0.503000  1.0  0.6792
  C  C55  1  0.503500  0.282700  0.455320  1.0  0.6381
  C  C56  1  0.822400  0.066900  0.594370  1.0  0.6865
  N  N57  1  0.071400  0.577700  0.509350  1.0  -0.3362
  N  N58  1  0.356500  0.833500  0.471820  1.0  -0.4148
  N  N59  1  0.000600  0.835800  0.022090  1.0  -0.3758
  N  N60  1  0.696400  0.923600  0.055610  1.0  -0.3776
  N  N61  1  0.621600  0.913700  0.431630  1.0  -0.3626
  N  N62  1  0.400600  0.582600  0.989070  1.0  -0.3466
  N  N63  1  0.928600  0.422300  0.490650  1.0  -0.3367
  N  N64  1  0.643500  0.166500  0.528180  1.0  -0.4142
  N  N65  1  0.999400  0.164200  0.977910  1.0  -0.3753
  N  N66  1  0.303600  0.076400  0.944390  1.0  -0.3787
  N  N67  1  0.378400  0.086300  0.568370  1.0  -0.3622
  N  N68  1  0.599400  0.417400  0.010930  1.0  -0.3459
  O  O69  1  0.215600  0.675700  0.079240  1.0  -0.6283
  O  O70  1  0.185700  0.542600  0.136310  1.0  -0.6952
  O  O71  1  0.438300  0.419800  0.174640  1.0  -0.7344
  O  O72  1  0.586800  0.306700  0.114740  1.0  -0.6466
  O  O73  1  0.065000  0.688200  0.942710  1.0  -0.6808
  O  O74  1  0.808900  0.695100  0.921190  1.0  -0.5174
  O  O75  1  0.254900  0.891200  0.063850  1.0  -0.6442
  O  O76  1  0.109800  0.989300  0.137750  1.0  -0.6918
  O  O77  1  0.530600  0.744300  0.030410  1.0  -0.6226
  O  O78  1  0.497500  0.855700  0.951530  1.0  -0.6103
  O  O79  1  0.830100  0.121000  0.095510  1.0  -0.6918
  O  O80  1  0.702100  0.039000  0.171630  1.0  -0.4802
  O  O81  1  0.278500  0.536200  0.356980  1.0  -0.6808
  O  O82  1  0.224600  0.666000  0.418490  1.0  -0.6722
  O  O83  1  0.033200  0.681100  0.613520  1.0  -0.638
  O  O84  1  0.962100  0.560300  0.676190  1.0  -0.7164
  O  O85  1  0.445500  0.003900  0.297440  1.0  -0.6884
  O  O86  1  0.557600  0.092000  0.365980  1.0  -0.4674
  O  O87  1  0.149300  0.000500  0.363640  1.0  -0.6941
  O  O88  1  0.076700  0.886500  0.432840  1.0  -0.655
  O  O89  1  0.361800  0.690600  0.558600  1.0  -0.6623
  O  O90  1  0.624400  0.681200  0.566840  1.0  -0.489
  O  O91  1  0.845700  0.840500  0.544510  1.0  -0.5427
  O  O92  1  0.876100  0.741100  0.459890  1.0  -0.6342
  O  O93  1  0.784400  0.324300  0.920760  1.0  -0.6286
  O  O94  1  0.814300  0.457400  0.863690  1.0  -0.6963
  O  O95  1  0.561700  0.580200  0.825360  1.0  -0.7335
  O  O96  1  0.413200  0.693300  0.885260  1.0  -0.643
  O  O97  1  0.935000  0.311800  0.057290  1.0  -0.6797
  O  O98  1  0.191100  0.304900  0.078810  1.0  -0.518
  O  O99  1  0.745100  0.108800  0.936150  1.0  -0.646
  O  O100  1  0.890200  0.010700  0.862250  1.0  -0.6915
  O  O101  1  0.469400  0.255700  0.969590  1.0  -0.6214
  O  O102  1  0.502500  0.144300  0.048470  1.0  -0.6088
  O  O103  1  0.169900  0.879000  0.904490  1.0  -0.6932
  O  O104  1  0.297900  0.961000  0.828370  1.0  -0.4832
  O  O105  1  0.721500  0.463800  0.643020  1.0  -0.6786
  O  O106  1  0.775400  0.334000  0.581510  1.0  -0.6719
  O  O107  1  0.966800  0.318900  0.386480  1.0  -0.6386
  O  O108  1  0.037900  0.439700  0.323810  1.0  -0.7175
  O  O109  1  0.554500  0.996100  0.702560  1.0  -0.6898
  O  O110  1  0.442400  0.908000  0.634020  1.0  -0.4653
  O  O111  1  0.850700  0.999500  0.636360  1.0  -0.6913
  O  O112  1  0.923300  0.113500  0.567160  1.0  -0.6554
  O  O113  1  0.638200  0.309400  0.441400  1.0  -0.6627
  O  O114  1  0.375600  0.318800  0.433160  1.0  -0.4883
  O  O115  1  0.154300  0.159500  0.455490  1.0  -0.5444
  O  O116  1  0.123900  0.258900  0.540110  1.0  -0.6339
