# generated using pymatgen
data_Ni2MoH52(C9N4)4
_symmetry_space_group_name_H-M   'P 1'
_cell_length_a   15.48100000
_cell_length_b   15.86570000
_cell_length_c   15.86570000
_cell_angle_alpha   76.23020000
_cell_angle_beta   60.79900000
_cell_angle_gamma   60.79900000
_symmetry_Int_Tables_number   1
_chemical_formula_structural   Ni2MoH52(C9N4)4
_chemical_formula_sum   'Ni4 Mo2 H104 C72 N32'
_cell_volume   2969.34027599
_cell_formula_units_Z   2
loop_
 _symmetry_equiv_pos_site_id
 _symmetry_equiv_pos_as_xyz
  1  'x, y, z'
loop_
 _atom_site_type_symbol
 _atom_site_label
 _atom_site_symmetry_multiplicity
 _atom_site_fract_x
 _atom_site_fract_y
 _atom_site_fract_z
 _atom_site_occupancy
 _atom_site_charge
  Ni  Ni1  1  0.500000  0.000000  0.000000  1.0  0.5655
  Ni  Ni2  1  0.000000  0.500000  0.500000  1.0  0.5655
  Ni  Ni3  1  0.000000  0.000000  0.500000  1.0  0.5676
  Ni  Ni4  1  0.000000  0.500000  0.000000  1.0  0.5676
  Mo  Mo5  1  0.875000  0.750000  0.750000  1.0  0.3738
  Mo  Mo6  1  0.125000  0.250000  0.250000  1.0  0.3739
  H  H7  1  0.289600  0.977100  0.088500  1.0  0.0718
  H  H8  1  0.322600  0.869000  0.073200  1.0  0.0628
  H  H9  1  0.474400  0.811800  0.891800  1.0  0.1023
  H  H10  1  0.419900  0.835600  0.176400  1.0  0.0636
  H  H11  1  0.388600  0.946800  0.173600  1.0  0.0866
  H  H12  1  0.498000  0.838200  0.006800  1.0  0.2104
  H  H13  1  0.855200  0.522900  0.411500  1.0  0.0758
  H  H14  1  0.764800  0.631000  0.426800  1.0  0.0613
  H  H15  1  0.678000  0.688200  0.608200  1.0  0.1044
  H  H16  1  0.931900  0.664400  0.323600  1.0  0.0618
  H  H17  1  0.009000  0.553200  0.326400  1.0  0.0875
  H  H18  1  0.843000  0.661800  0.493200  1.0  0.2085
  H  H19  1  0.878100  0.911500  0.477100  1.0  0.0711
  H  H20  1  0.895800  0.926800  0.369000  1.0  0.0608
  H  H21  1  0.866200  0.108200  0.311800  1.0  0.1035
  H  H22  1  0.096300  0.823600  0.335600  1.0  0.0591
  H  H23  1  0.062200  0.826400  0.446800  1.0  0.0852
  H  H24  1  0.004800  0.993200  0.338200  1.0  0.2086
  H  H25  1  0.766700  0.588500  0.022900  1.0  0.0725
  H  H26  1  0.691600  0.573200  0.131000  1.0  0.0646
  H  H27  1  0.786200  0.391800  0.188200  1.0  0.1035
  H  H28  1  0.755500  0.676400  0.164400  1.0  0.0582
  H  H29  1  0.835400  0.673600  0.053200  1.0  0.0843
  H  H30  1  0.836200  0.506800  0.161800  1.0  0.2168
  H  H31  1  0.144800  0.588500  0.477100  1.0  0.0725
  H  H32  1  0.235200  0.573200  0.369000  1.0  0.0679
  H  H33  1  0.322000  0.391800  0.311800  1.0  0.1024
  H  H34  1  0.068100  0.676400  0.335600  1.0  0.0597
  H  H35  1  0.991000  0.673600  0.446800  1.0  0.0842
  H  H36  1  0.157000  0.506800  0.338200  1.0  0.2118
  H  H37  1  0.710400  0.911500  0.022900  1.0  0.071
  H  H38  1  0.677400  0.926800  0.131000  1.0  0.0608
  H  H39  1  0.525600  0.108200  0.188200  1.0  0.1012
  H  H40  1  0.580100  0.823600  0.164400  1.0  0.0616
  H  H41  1  0.611400  0.826400  0.053200  1.0  0.0853
  H  H42  1  0.502000  0.993200  0.161800  1.0  0.2075
  H  H43  1  0.233300  0.977100  0.411500  1.0  0.0701
  H  H44  1  0.308400  0.869000  0.426800  1.0  0.0676
  H  H45  1  0.213800  0.811800  0.608200  1.0  0.1015
  H  H46  1  0.244500  0.835600  0.323600  1.0  0.0615
  H  H47  1  0.164600  0.946800  0.326400  1.0  0.0858
  H  H48  1  0.163800  0.838200  0.493200  1.0  0.2157
  H  H49  1  0.121900  0.522900  0.088500  1.0  0.0759
  H  H50  1  0.104200  0.631000  0.073200  1.0  0.0608
  H  H51  1  0.133800  0.688200  0.891800  1.0  0.1056
  H  H52  1  0.903700  0.664400  0.176400  1.0  0.0605
  H  H53  1  0.937800  0.553200  0.173600  1.0  0.0898
  H  H54  1  0.995200  0.661800  0.006800  1.0  0.2096
  H  H55  1  0.710400  0.022900  0.911500  1.0  0.0696
  H  H56  1  0.677400  0.131000  0.926800  1.0  0.0676
  H  H57  1  0.525600  0.188200  0.108200  1.0  0.1016
  H  H58  1  0.580100  0.164400  0.823600  1.0  0.0614
  H  H59  1  0.611400  0.053200  0.826400  1.0  0.0856
  H  H60  1  0.502000  0.161800  0.993200  1.0  0.2074
  H  H61  1  0.144800  0.477100  0.588500  1.0  0.0775
  H  H62  1  0.235200  0.369000  0.573200  1.0  0.0608
  H  H63  1  0.322000  0.311800  0.391800  1.0  0.1025
  H  H64  1  0.068100  0.335600  0.676400  1.0  0.0631
  H  H65  1  0.991000  0.446800  0.673600  1.0  0.0894
  H  H66  1  0.157000  0.338200  0.506800  1.0  0.2109
  H  H67  1  0.121900  0.088500  0.522900  1.0  0.0717
  H  H68  1  0.104200  0.073200  0.631000  1.0  0.0616
  H  H69  1  0.133800  0.891800  0.688200  1.0  0.1036
  H  H70  1  0.903700  0.176400  0.664400  1.0  0.0586
  H  H71  1  0.937800  0.173600  0.553200  1.0  0.0832
  H  H72  1  0.995200  0.006800  0.661800  1.0  0.2088
  H  H73  1  0.233300  0.411500  0.977100  1.0  0.0732
  H  H74  1  0.308400  0.426800  0.869000  1.0  0.0679
  H  H75  1  0.213800  0.608200  0.811800  1.0  0.1027
  H  H76  1  0.244500  0.323600  0.835600  1.0  0.0597
  H  H77  1  0.164600  0.326400  0.946800  1.0  0.0864
  H  H78  1  0.163800  0.493200  0.838200  1.0  0.2176
  H  H79  1  0.855200  0.411500  0.522900  1.0  0.0732
  H  H80  1  0.764800  0.426800  0.631000  1.0  0.064
  H  H81  1  0.678000  0.608200  0.688200  1.0  0.1035
  H  H82  1  0.931900  0.323600  0.664400  1.0  0.0612
  H  H83  1  0.009000  0.326400  0.553200  1.0  0.0866
  H  H84  1  0.843000  0.493200  0.661800  1.0  0.2095
  H  H85  1  0.289600  0.088500  0.977100  1.0  0.0719
  H  H86  1  0.322600  0.073200  0.869000  1.0  0.0616
  H  H87  1  0.474400  0.891800  0.811800  1.0  0.1012
  H  H88  1  0.419900  0.176400  0.835600  1.0  0.0592
  H  H89  1  0.388600  0.173600  0.946800  1.0  0.0839
  H  H90  1  0.498000  0.006800  0.838200  1.0  0.2085
  H  H91  1  0.766700  0.022900  0.588500  1.0  0.0719
  H  H92  1  0.691600  0.131000  0.573200  1.0  0.0655
  H  H93  1  0.786200  0.188200  0.391800  1.0  0.1022
  H  H94  1  0.755500  0.164400  0.676400  1.0  0.0613
  H  H95  1  0.835400  0.053200  0.673600  1.0  0.087
  H  H96  1  0.836200  0.161800  0.506800  1.0  0.2152
  H  H97  1  0.878100  0.477100  0.911500  1.0  0.0749
  H  H98  1  0.895800  0.369000  0.926800  1.0  0.0591
  H  H99  1  0.866200  0.311800  0.108200  1.0  0.105
  H  H100  1  0.096300  0.335600  0.823600  1.0  0.0619
  H  H101  1  0.062200  0.446800  0.826400  1.0  0.0872
  H  H102  1  0.004800  0.338200  0.993200  1.0  0.2095
  H  H103  1  0.281000  0.956100  0.956100  1.0  0.0959
  H  H104  1  0.693200  0.543900  0.543900  1.0  0.0942
  H  H105  1  0.737100  0.043900  0.456100  1.0  0.0968
  H  H106  1  0.737100  0.456100  0.043900  1.0  0.0963
  H  H107  1  0.306800  0.456100  0.456100  1.0  0.0952
  H  H108  1  0.719000  0.043900  0.043900  1.0  0.0951
  H  H109  1  0.262900  0.956100  0.543900  1.0  0.0951
  H  H110  1  0.262900  0.543900  0.956100  1.0  0.0953
  C  C111  1  0.344170  0.921220  0.046740  1.0  0.0278
  C  C112  1  0.440220  0.886370  0.138570  1.0  -0.0341
  C  C113  1  0.812130  0.578780  0.453260  1.0  0.0304
  C  C114  1  0.965160  0.613630  0.361430  1.0  -0.0308
  C  C115  1  0.890910  0.953260  0.421220  1.0  0.0252
  C  C116  1  0.078790  0.861430  0.386370  1.0  -0.0335
  C  C117  1  0.765390  0.546740  0.078780  1.0  0.0209
  C  C118  1  0.826590  0.638570  0.113630  1.0  -0.0376
  C  C119  1  0.187870  0.546740  0.421220  1.0  0.0205
  C  C120  1  0.034840  0.638570  0.386370  1.0  -0.0352
  C  C121  1  0.655830  0.953260  0.078780  1.0  0.0243
  C  C122  1  0.559780  0.861430  0.113630  1.0  -0.0331
  C  C123  1  0.234610  0.921220  0.453260  1.0  0.0209
  C  C124  1  0.173410  0.886370  0.361430  1.0  -0.0367
  C  C125  1  0.109090  0.578780  0.046740  1.0  0.0263
  C  C126  1  0.921210  0.613630  0.138570  1.0  -0.0347
  C  C127  1  0.655830  0.078780  0.953260  1.0  0.0232
  C  C128  1  0.559780  0.113630  0.861430  1.0  -0.0358
  C  C129  1  0.187870  0.421220  0.546740  1.0  0.0288
  C  C130  1  0.034840  0.386370  0.638570  1.0  -0.0318
  C  C131  1  0.109090  0.046740  0.578780  1.0  0.0227
  C  C132  1  0.921210  0.138570  0.613630  1.0  -0.0363
  C  C133  1  0.234610  0.453260  0.921220  1.0  0.0187
  C  C134  1  0.173410  0.361430  0.886370  1.0  -0.035
  C  C135  1  0.812130  0.453260  0.578780  1.0  0.0247
  C  C136  1  0.965160  0.361430  0.613630  1.0  -0.034
  C  C137  1  0.344170  0.046740  0.921220  1.0  0.0265
  C  C138  1  0.440220  0.138570  0.886370  1.0  -0.0334
  C  C139  1  0.765390  0.078780  0.546740  1.0  0.0245
  C  C140  1  0.826590  0.113630  0.638570  1.0  -0.0363
  C  C141  1  0.890910  0.421220  0.953260  1.0  0.0277
  C  C142  1  0.078790  0.386370  0.861430  1.0  -0.0308
  C  C143  1  0.915200  0.815500  0.815500  1.0  0.0862
  C  C144  1  0.730300  0.852100  0.852100  1.0  0.1228
  C  C145  1  0.353540  0.945360  0.945360  1.0  0.0923
  C  C146  1  0.427330  0.868470  0.868470  1.0  -0.2995
  C  C147  1  0.365000  0.838800  0.838800  1.0  -0.0793
  C  C148  1  0.046200  0.684500  0.684500  1.0  0.0866
  C  C149  1  0.934500  0.647900  0.647900  1.0  0.1195
  C  C150  1  0.744260  0.554640  0.554640  1.0  0.092
  C  C151  1  0.664270  0.631530  0.631530  1.0  -0.298
  C  C152  1  0.542600  0.661200  0.661200  1.0  -0.071
  C  C153  1  0.230700  0.184500  0.315500  1.0  0.0862
  C  C154  1  0.082400  0.147900  0.352100  1.0  0.1253
  C  C155  1  0.798900  0.054640  0.445360  1.0  0.0888
  C  C156  1  0.795800  0.131530  0.368470  1.0  -0.2982
  C  C157  1  0.703800  0.161200  0.338800  1.0  -0.0795
  C  C158  1  0.230700  0.315500  0.184500  1.0  0.0861
  C  C159  1  0.082400  0.352100  0.147900  1.0  0.1262
  C  C160  1  0.798900  0.445360  0.054640  1.0  0.0894
  C  C161  1  0.795800  0.368470  0.131530  1.0  -0.2979
  C  C162  1  0.703800  0.338800  0.161200  1.0  -0.0772
  C  C163  1  0.953800  0.315500  0.315500  1.0  0.0827
  C  C164  1  0.065500  0.352100  0.352100  1.0  0.1235
  C  C165  1  0.255740  0.445360  0.445360  1.0  0.0938
  C  C166  1  0.335730  0.368470  0.368470  1.0  -0.2975
  C  C167  1  0.457400  0.338800  0.338800  1.0  -0.073
  C  C168  1  0.084800  0.184500  0.184500  1.0  0.0784
  C  C169  1  0.269700  0.147900  0.147900  1.0  0.1235
  C  C170  1  0.646460  0.054640  0.054640  1.0  0.0919
  C  C171  1  0.572670  0.131530  0.131530  1.0  -0.3045
  C  C172  1  0.635000  0.161200  0.161200  1.0  -0.0809
  C  C173  1  0.769300  0.815500  0.684500  1.0  0.0784
  C  C174  1  0.917600  0.852100  0.647900  1.0  0.1298
  C  C175  1  0.201100  0.945360  0.554640  1.0  0.0903
  C  C176  1  0.204200  0.868470  0.631530  1.0  -0.301
  C  C177  1  0.296200  0.838800  0.661200  1.0  -0.0832
  C  C178  1  0.769300  0.684500  0.815500  1.0  0.0801
  C  C179  1  0.917600  0.647900  0.852100  1.0  0.1259
  C  C180  1  0.201100  0.554640  0.945360  1.0  0.091
  C  C181  1  0.204200  0.631530  0.868470  1.0  -0.296
  C  C182  1  0.296200  0.661200  0.838800  1.0  -0.0757
  N  N183  1  0.445040  0.894400  0.039520  1.0  -0.3288
  N  N184  1  0.878960  0.605600  0.460480  1.0  -0.3271
  N  N185  1  0.984560  0.960480  0.394400  1.0  -0.3489
  N  N186  1  0.839440  0.539520  0.105600  1.0  -0.3526
  N  N187  1  0.121040  0.539520  0.394400  1.0  -0.3328
  N  N188  1  0.554960  0.960480  0.105600  1.0  -0.3339
  N  N189  1  0.160560  0.894400  0.460480  1.0  -0.3459
  N  N190  1  0.015440  0.605600  0.039520  1.0  -0.3395
  N  N191  1  0.554960  0.105600  0.960480  1.0  -0.3269
  N  N192  1  0.121040  0.394400  0.539520  1.0  -0.3273
  N  N193  1  0.015440  0.039520  0.605600  1.0  -0.3444
  N  N194  1  0.160560  0.460480  0.894400  1.0  -0.3535
  N  N195  1  0.878960  0.460480  0.605600  1.0  -0.3333
  N  N196  1  0.445040  0.039520  0.894400  1.0  -0.334
  N  N197  1  0.839440  0.105600  0.539520  1.0  -0.3485
  N  N198  1  0.984560  0.394400  0.960480  1.0  -0.3396
  N  N199  1  0.939880  0.852400  0.852400  1.0  -0.4715
  N  N200  1  0.649850  0.907850  0.907850  1.0  -0.427
  N  N201  1  0.144680  0.647600  0.647600  1.0  -0.4635
  N  N202  1  0.965550  0.592150  0.592150  1.0  -0.4265
  N  N203  1  0.292280  0.147600  0.352400  1.0  -0.4681
  N  N204  1  0.057700  0.092150  0.407850  1.0  -0.4207
  N  N205  1  0.292280  0.352400  0.147600  1.0  -0.4661
  N  N206  1  0.057700  0.407850  0.092150  1.0  -0.425
  N  N207  1  0.855320  0.352400  0.352400  1.0  -0.4643
  N  N208  1  0.034450  0.407850  0.407850  1.0  -0.4248
  N  N209  1  0.060120  0.147600  0.147600  1.0  -0.4707
  N  N210  1  0.350150  0.092150  0.092150  1.0  -0.4263
  N  N211  1  0.707720  0.852400  0.647600  1.0  -0.469
  N  N212  1  0.942300  0.907850  0.592150  1.0  -0.4241
  N  N213  1  0.707720  0.647600  0.852400  1.0  -0.468
  N  N214  1  0.942300  0.592150  0.907850  1.0  -0.4202
