# generated using pymatgen
data_Zn3H8C14(NO)6
_symmetry_space_group_name_H-M   'P 1'
_cell_length_a   17.92700000
_cell_length_b   12.86900000
_cell_length_c   11.05500000
_cell_angle_alpha   90.00000000
_cell_angle_beta   93.14000000
_cell_angle_gamma   90.00000000
_symmetry_Int_Tables_number   1
_chemical_formula_structural   Zn3H8C14(NO)6
_chemical_formula_sum   'Zn12 H32 C56 N24 O24'
_cell_volume   2546.58782395
_cell_formula_units_Z   4
loop_
 _symmetry_equiv_pos_site_id
 _symmetry_equiv_pos_as_xyz
  1  'x, y, z'
loop_
 _atom_site_type_symbol
 _atom_site_label
 _atom_site_symmetry_multiplicity
 _atom_site_fract_x
 _atom_site_fract_y
 _atom_site_fract_z
 _atom_site_occupancy
 _atom_site_charge
  Zn  Zn1  1  0.419230  0.051850  0.998940  1.0  0.9566
  Zn  Zn2  1  0.919230  0.551850  0.998940  1.0  0.9566
  Zn  Zn3  1  0.580770  0.051850  0.501060  1.0  0.9569
  Zn  Zn4  1  0.080770  0.551850  0.501060  1.0  0.9569
  Zn  Zn5  1  0.580770  0.948150  0.001060  1.0  0.9558
  Zn  Zn6  1  0.080770  0.448150  0.001060  1.0  0.9558
  Zn  Zn7  1  0.419230  0.948150  0.498940  1.0  0.9557
  Zn  Zn8  1  0.919230  0.448150  0.498940  1.0  0.9557
  Zn  Zn9  1  0.500000  0.101860  0.750000  1.0  0.9847
  Zn  Zn10  1  0.000000  0.601860  0.750000  1.0  0.9847
  Zn  Zn11  1  0.500000  0.898140  0.250000  1.0  0.9857
  Zn  Zn12  1  0.000000  0.398140  0.250000  1.0  0.9857
  H  H13  1  0.249100  0.315400  0.934800  1.0  0.1231
  H  H14  1  0.242100  0.390000  0.516700  1.0  0.1276
  H  H15  1  0.336600  0.292200  0.606400  1.0  0.1006
  H  H16  1  0.538000  0.140000  0.967000  1.0  0.4572
  H  H17  1  0.749100  0.815400  0.934800  1.0  0.1231
  H  H18  1  0.742100  0.890000  0.516700  1.0  0.1276
  H  H19  1  0.836600  0.792200  0.606400  1.0  0.1006
  H  H20  1  0.038000  0.640000  0.967000  1.0  0.4572
  H  H21  1  0.750900  0.315400  0.565200  1.0  0.1238
  H  H22  1  0.757900  0.390000  0.983300  1.0  0.1278
  H  H23  1  0.663400  0.292200  0.893600  1.0  0.1009
  H  H24  1  0.462000  0.140000  0.533000  1.0  0.4577
  H  H25  1  0.250900  0.815400  0.565200  1.0  0.1238
  H  H26  1  0.257900  0.890000  0.983300  1.0  0.1278
  H  H27  1  0.163400  0.792200  0.893600  1.0  0.1009
  H  H28  1  0.962000  0.640000  0.533000  1.0  0.4577
  H  H29  1  0.750900  0.684600  0.065200  1.0  0.1239
  H  H30  1  0.757900  0.610000  0.483300  1.0  0.128
  H  H31  1  0.663400  0.707800  0.393600  1.0  0.1013
  H  H32  1  0.462000  0.860000  0.033000  1.0  0.4594
  H  H33  1  0.250900  0.184600  0.065200  1.0  0.1239
  H  H34  1  0.257900  0.110000  0.483300  1.0  0.128
  H  H35  1  0.163400  0.207800  0.393600  1.0  0.1013
  H  H36  1  0.962000  0.360000  0.033000  1.0  0.4594
  H  H37  1  0.249100  0.684600  0.434800  1.0  0.1233
  H  H38  1  0.242100  0.610000  0.016700  1.0  0.1275
  H  H39  1  0.336600  0.707800  0.106400  1.0  0.1015
  H  H40  1  0.538000  0.860000  0.467000  1.0  0.4586
  H  H41  1  0.749100  0.184600  0.434800  1.0  0.1233
  H  H42  1  0.742100  0.110000  0.016700  1.0  0.1275
  H  H43  1  0.836600  0.207800  0.106400  1.0  0.1015
  H  H44  1  0.038000  0.360000  0.467000  1.0  0.4586
  C  C45  1  0.365100  0.225600  0.829700  1.0  0.6913
  C  C46  1  0.301200  0.293000  0.779000  1.0  -0.1339
  C  C47  1  0.247200  0.329200  0.852200  1.0  -0.0734
  C  C48  1  0.188900  0.388400  0.795300  1.0  0.0981
  C  C49  1  0.187500  0.410100  0.671500  1.0  0.1783
  C  C50  1  0.243100  0.374700  0.599000  1.0  -0.1542
  C  C51  1  0.298800  0.316900  0.653000  1.0  -0.02
  C  C52  1  0.865100  0.725600  0.829700  1.0  0.6913
  C  C53  1  0.801200  0.793000  0.779000  1.0  -0.1339
  C  C54  1  0.747200  0.829200  0.852200  1.0  -0.0734
  C  C55  1  0.688900  0.888400  0.795300  1.0  0.0981
  C  C56  1  0.687500  0.910100  0.671500  1.0  0.1783
  C  C57  1  0.743100  0.874700  0.599000  1.0  -0.1542
  C  C58  1  0.798800  0.816900  0.653000  1.0  -0.02
  C  C59  1  0.634900  0.225600  0.670300  1.0  0.6909
  C  C60  1  0.698800  0.293000  0.721000  1.0  -0.1332
  C  C61  1  0.752800  0.329200  0.647800  1.0  -0.0723
  C  C62  1  0.811100  0.388400  0.704700  1.0  0.099
  C  C63  1  0.812500  0.410100  0.828500  1.0  0.1781
  C  C64  1  0.756900  0.374700  0.901000  1.0  -0.1546
  C  C65  1  0.701200  0.316900  0.847000  1.0  -0.0193
  C  C66  1  0.134900  0.725600  0.670300  1.0  0.6909
  C  C67  1  0.198800  0.793000  0.721000  1.0  -0.1332
  C  C68  1  0.252800  0.829200  0.647800  1.0  -0.0723
  C  C69  1  0.311100  0.888400  0.704700  1.0  0.099
  C  C70  1  0.312500  0.910100  0.828500  1.0  0.1781
  C  C71  1  0.256900  0.874700  0.901000  1.0  -0.1546
  C  C72  1  0.201200  0.816900  0.847000  1.0  -0.0193
  C  C73  1  0.634900  0.774400  0.170300  1.0  0.6913
  C  C74  1  0.698800  0.707000  0.221000  1.0  -0.1337
  C  C75  1  0.752800  0.670800  0.147800  1.0  -0.0726
  C  C76  1  0.811100  0.611600  0.204700  1.0  0.0993
  C  C77  1  0.812500  0.589900  0.328500  1.0  0.1783
  C  C78  1  0.756900  0.625300  0.401000  1.0  -0.1543
  C  C79  1  0.701200  0.683100  0.347000  1.0  -0.0188
  C  C80  1  0.134900  0.274400  0.170300  1.0  0.6913
  C  C81  1  0.198800  0.207000  0.221000  1.0  -0.1337
  C  C82  1  0.252800  0.170800  0.147800  1.0  -0.0726
  C  C83  1  0.311100  0.111600  0.204700  1.0  0.0993
  C  C84  1  0.312500  0.089900  0.328500  1.0  0.1783
  C  C85  1  0.256900  0.125300  0.401000  1.0  -0.1543
  C  C86  1  0.201200  0.183100  0.347000  1.0  -0.0188
  C  C87  1  0.365100  0.774400  0.329700  1.0  0.6912
  C  C88  1  0.301200  0.707000  0.279000  1.0  -0.1343
  C  C89  1  0.247200  0.670800  0.352200  1.0  -0.0733
  C  C90  1  0.188900  0.611600  0.295300  1.0  0.098
  C  C91  1  0.187500  0.589900  0.171500  1.0  0.1784
  C  C92  1  0.243100  0.625300  0.099000  1.0  -0.1545
  C  C93  1  0.298800  0.683100  0.153000  1.0  -0.0202
  C  C94  1  0.865100  0.274400  0.329700  1.0  0.6912
  C  C95  1  0.801200  0.207000  0.279000  1.0  -0.1343
  C  C96  1  0.747200  0.170800  0.352200  1.0  -0.0733
  C  C97  1  0.688900  0.111600  0.295300  1.0  0.098
  C  C98  1  0.687500  0.089900  0.171500  1.0  0.1784
  C  C99  1  0.743100  0.125300  0.099000  1.0  -0.1545
  C  C100  1  0.798800  0.183100  0.153000  1.0  -0.0202
  N  N101  1  0.127280  0.435200  0.838900  1.0  -0.2785
  N  N102  1  0.090470  0.482400  0.746100  1.0  -0.0882
  N  N103  1  0.125930  0.468700  0.644400  1.0  -0.3196
  N  N104  1  0.627280  0.935200  0.838900  1.0  -0.2785
  N  N105  1  0.590470  0.982400  0.746100  1.0  -0.0882
  N  N106  1  0.625930  0.968700  0.644400  1.0  -0.3196
  N  N107  1  0.872720  0.435200  0.661100  1.0  -0.2774
  N  N108  1  0.909530  0.482400  0.753900  1.0  -0.0878
  N  N109  1  0.874070  0.468700  0.855600  1.0  -0.3165
  N  N110  1  0.372720  0.935200  0.661100  1.0  -0.2774
  N  N111  1  0.409530  0.982400  0.753900  1.0  -0.0878
  N  N112  1  0.374070  0.968700  0.855600  1.0  -0.3165
  N  N113  1  0.872720  0.564800  0.161100  1.0  -0.2774
  N  N114  1  0.909530  0.517600  0.253900  1.0  -0.088
  N  N115  1  0.874070  0.531300  0.355600  1.0  -0.3169
  N  N116  1  0.372720  0.064800  0.161100  1.0  -0.2774
  N  N117  1  0.409530  0.017600  0.253900  1.0  -0.088
  N  N118  1  0.374070  0.031300  0.355600  1.0  -0.3169
  N  N119  1  0.127280  0.564800  0.338900  1.0  -0.2785
  N  N120  1  0.090470  0.517600  0.246100  1.0  -0.0889
  N  N121  1  0.125930  0.531300  0.144400  1.0  -0.3197
  N  N122  1  0.627280  0.064800  0.338900  1.0  -0.2785
  N  N123  1  0.590470  0.017600  0.246100  1.0  -0.0889
  N  N124  1  0.625930  0.031300  0.144400  1.0  -0.3197
  O  O125  1  0.359780  0.187000  0.933100  1.0  -0.5732
  O  O126  1  0.417890  0.212300  0.761000  1.0  -0.5934
  O  O127  1  0.517200  0.085400  0.934900  1.0  -0.9948
  O  O128  1  0.859780  0.687000  0.933100  1.0  -0.5732
  O  O129  1  0.917890  0.712300  0.761000  1.0  -0.5934
  O  O130  1  0.017200  0.585400  0.934900  1.0  -0.9948
  O  O131  1  0.640220  0.187000  0.566900  1.0  -0.5741
  O  O132  1  0.582110  0.212300  0.739000  1.0  -0.5951
  O  O133  1  0.482800  0.085400  0.565100  1.0  -0.9941
  O  O134  1  0.140220  0.687000  0.566900  1.0  -0.5741
  O  O135  1  0.082110  0.712300  0.739000  1.0  -0.5951
  O  O136  1  0.982800  0.585400  0.565100  1.0  -0.9941
  O  O137  1  0.640220  0.813000  0.066900  1.0  -0.5739
  O  O138  1  0.582110  0.787700  0.239000  1.0  -0.5965
  O  O139  1  0.482800  0.914600  0.065100  1.0  -0.9944
  O  O140  1  0.140220  0.313000  0.066900  1.0  -0.5739
  O  O141  1  0.082110  0.287700  0.239000  1.0  -0.5965
  O  O142  1  0.982800  0.414600  0.065100  1.0  -0.9944
  O  O143  1  0.359780  0.813000  0.433100  1.0  -0.5729
  O  O144  1  0.417890  0.787700  0.261000  1.0  -0.5927
  O  O145  1  0.517200  0.914600  0.434900  1.0  -0.9947
  O  O146  1  0.859780  0.313000  0.433100  1.0  -0.5729
  O  O147  1  0.917890  0.287700  0.261000  1.0  -0.5927
  O  O148  1  0.017200  0.414600  0.434900  1.0  -0.9947
