# generated using pymatgen
data_CuH4C7N4
_symmetry_space_group_name_H-M   'P 1'
_cell_length_a   14.69780000
_cell_length_b   19.39330000
_cell_length_c   10.35600000
_cell_angle_alpha   90.00000000
_cell_angle_beta   90.00000000
_cell_angle_gamma   90.00000000
_symmetry_Int_Tables_number   1
_chemical_formula_structural   CuH4C7N4
_chemical_formula_sum   'Cu16 H64 C112 N64'
_cell_volume   2951.86227613
_cell_formula_units_Z   16
loop_
 _symmetry_equiv_pos_site_id
 _symmetry_equiv_pos_as_xyz
  1  'x, y, z'
loop_
 _atom_site_type_symbol
 _atom_site_label
 _atom_site_symmetry_multiplicity
 _atom_site_fract_x
 _atom_site_fract_y
 _atom_site_fract_z
 _atom_site_occupancy
 _atom_site_charge
  Cu  Cu1  1  0.345520  0.382150  0.754520  1.0  0.4162
  Cu  Cu2  1  0.154480  0.117850  0.254520  1.0  0.4163
  Cu  Cu3  1  0.654480  0.382150  0.745480  1.0  0.4164
  Cu  Cu4  1  0.845520  0.117850  0.245480  1.0  0.4163
  Cu  Cu5  1  0.654480  0.617850  0.245480  1.0  0.4163
  Cu  Cu6  1  0.845520  0.882150  0.745480  1.0  0.4163
  Cu  Cu7  1  0.345520  0.617850  0.254520  1.0  0.4162
  Cu  Cu8  1  0.154480  0.882150  0.754520  1.0  0.4163
  Cu  Cu9  1  0.000000  0.264990  0.250000  1.0  0.4586
  Cu  Cu10  1  0.500000  0.235010  0.750000  1.0  0.4593
  Cu  Cu11  1  0.000000  0.735010  0.750000  1.0  0.4593
  Cu  Cu12  1  0.500000  0.764990  0.250000  1.0  0.4586
  Cu  Cu13  1  0.500000  0.509410  0.750000  1.0  0.2936
  Cu  Cu14  1  0.000000  0.990590  0.250000  1.0  0.2933
  Cu  Cu15  1  0.500000  0.490590  0.250000  1.0  0.2933
  Cu  Cu16  1  0.000000  0.009410  0.750000  1.0  0.2936
  H  H17  1  0.103700  0.404500  0.191300  1.0  0.0787
  H  H18  1  0.214500  0.473000  0.278300  1.0  0.1062
  H  H19  1  0.207000  0.355300  0.594600  1.0  0.0987
  H  H20  1  0.103800  0.286000  0.492100  1.0  0.0696
  H  H21  1  0.608900  0.805300  0.436700  1.0  0.1068
  H  H22  1  0.716100  0.875000  0.531700  1.0  0.0698
  H  H23  1  0.744000  0.746400  0.815800  1.0  0.0671
  H  H24  1  0.634600  0.674900  0.733500  1.0  0.1163
  H  H25  1  0.396300  0.095500  0.691300  1.0  0.079
  H  H26  1  0.285500  0.027000  0.778300  1.0  0.1057
  H  H27  1  0.293000  0.144700  0.094600  1.0  0.0985
  H  H28  1  0.396200  0.214000  0.992100  1.0  0.0696
  H  H29  1  0.891100  0.694700  0.936700  1.0  0.1066
  H  H30  1  0.783900  0.625000  0.031700  1.0  0.0688
  H  H31  1  0.756000  0.753600  0.315800  1.0  0.0669
  H  H32  1  0.865400  0.825100  0.233500  1.0  0.1159
  H  H33  1  0.896300  0.404500  0.308700  1.0  0.0787
  H  H34  1  0.785500  0.473000  0.221700  1.0  0.1058
  H  H35  1  0.793000  0.355300  0.905400  1.0  0.0994
  H  H36  1  0.896200  0.286000  0.007900  1.0  0.0701
  H  H37  1  0.391100  0.805300  0.063300  1.0  0.1066
  H  H38  1  0.283900  0.875000  0.968300  1.0  0.0693
  H  H39  1  0.256000  0.746400  0.684200  1.0  0.067
  H  H40  1  0.365400  0.674900  0.766500  1.0  0.1158
  H  H41  1  0.603700  0.095500  0.808700  1.0  0.079
  H  H42  1  0.714500  0.027000  0.721700  1.0  0.1061
  H  H43  1  0.707000  0.144700  0.405400  1.0  0.0992
  H  H44  1  0.603800  0.214000  0.507900  1.0  0.0697
  H  H45  1  0.108900  0.694700  0.563300  1.0  0.1066
  H  H46  1  0.216100  0.625000  0.468300  1.0  0.0697
  H  H47  1  0.244000  0.753600  0.184200  1.0  0.067
  H  H48  1  0.134600  0.825100  0.266500  1.0  0.1161
  H  H49  1  0.896300  0.595500  0.808700  1.0  0.0787
  H  H50  1  0.785500  0.527000  0.721700  1.0  0.1057
  H  H51  1  0.793000  0.644700  0.405400  1.0  0.0992
  H  H52  1  0.896200  0.714000  0.507900  1.0  0.0693
  H  H53  1  0.391100  0.194700  0.563300  1.0  0.1069
  H  H54  1  0.283900  0.125000  0.468300  1.0  0.0692
  H  H55  1  0.256000  0.253600  0.184200  1.0  0.067
  H  H56  1  0.365400  0.325100  0.266500  1.0  0.1159
  H  H57  1  0.603700  0.904500  0.308700  1.0  0.0787
  H  H58  1  0.714500  0.973000  0.221700  1.0  0.1058
  H  H59  1  0.707000  0.855300  0.905400  1.0  0.0993
  H  H60  1  0.603800  0.786000  0.007900  1.0  0.0693
  H  H61  1  0.108900  0.305300  0.063300  1.0  0.1064
  H  H62  1  0.216100  0.375000  0.968300  1.0  0.07
  H  H63  1  0.244000  0.246400  0.684200  1.0  0.0672
  H  H64  1  0.134600  0.174900  0.766500  1.0  0.1159
  H  H65  1  0.103700  0.595500  0.691300  1.0  0.0792
  H  H66  1  0.214500  0.527000  0.778300  1.0  0.1059
  H  H67  1  0.207000  0.644700  0.094600  1.0  0.0986
  H  H68  1  0.103800  0.714000  0.992100  1.0  0.0691
  H  H69  1  0.608900  0.194700  0.936700  1.0  0.1067
  H  H70  1  0.716100  0.125000  0.031700  1.0  0.0692
  H  H71  1  0.744000  0.253600  0.315800  1.0  0.0671
  H  H72  1  0.634600  0.325100  0.233500  1.0  0.1161
  H  H73  1  0.396300  0.904500  0.191300  1.0  0.0787
  H  H74  1  0.285500  0.973000  0.278300  1.0  0.1063
  H  H75  1  0.293000  0.855300  0.594600  1.0  0.0988
  H  H76  1  0.396200  0.786000  0.492100  1.0  0.0697
  H  H77  1  0.891100  0.305300  0.436700  1.0  0.1066
  H  H78  1  0.783900  0.375000  0.531700  1.0  0.0693
  H  H79  1  0.756000  0.246400  0.815800  1.0  0.0671
  H  H80  1  0.865400  0.174900  0.733500  1.0  0.116
  C  C81  1  0.127100  0.392900  0.271900  1.0  0.1658
  C  C82  1  0.193000  0.435300  0.324700  1.0  -0.1435
  C  C83  1  0.226600  0.421600  0.446500  1.0  0.0146
  C  C84  1  0.189400  0.365300  0.510400  1.0  -0.1982
  C  C85  1  0.126000  0.324300  0.448100  1.0  0.1809
  C  C86  1  0.299200  0.464200  0.503600  1.0  0.3146
  C  C87  1  0.393400  0.543100  0.522900  1.0  0.3424
  C  C88  1  0.448600  0.604900  0.497800  1.0  0.3475
  C  C89  1  0.540800  0.685100  0.517800  1.0  0.3116
  C  C90  1  0.608600  0.731900  0.573700  1.0  0.0177
  C  C91  1  0.634900  0.792300  0.514800  1.0  -0.1724
  C  C92  1  0.700500  0.833900  0.572200  1.0  0.1765
  C  C93  1  0.716000  0.758700  0.738600  1.0  0.1702
  C  C94  1  0.650500  0.715000  0.689600  1.0  -0.1569
  C  C95  1  0.372900  0.107100  0.771900  1.0  0.1653
  C  C96  1  0.307000  0.064700  0.824700  1.0  -0.1435
  C  C97  1  0.273400  0.078400  0.946500  1.0  0.014
  C  C98  1  0.310600  0.134700  0.010400  1.0  -0.1993
  C  C99  1  0.374000  0.175700  0.948100  1.0  0.1829
  C  C100  1  0.200800  0.035800  0.003600  1.0  0.3168
  C  C101  1  0.106600  0.956900  0.022900  1.0  0.3417
  C  C102  1  0.051400  0.895100  0.997800  1.0  0.3474
  C  C103  1  0.959200  0.814900  0.017800  1.0  0.3112
  C  C104  1  0.891400  0.768100  0.073700  1.0  0.0191
  C  C105  1  0.865100  0.707700  0.014800  1.0  -0.174
  C  C106  1  0.799500  0.666100  0.072200  1.0  0.1749
  C  C107  1  0.784000  0.741300  0.238600  1.0  0.1705
  C  C108  1  0.849500  0.785000  0.189600  1.0  -0.156
  C  C109  1  0.872900  0.392900  0.228100  1.0  0.1645
  C  C110  1  0.807000  0.435300  0.175300  1.0  -0.1433
  C  C111  1  0.773400  0.421600  0.053500  1.0  0.0151
  C  C112  1  0.810600  0.365300  0.989600  1.0  -0.199
  C  C113  1  0.874000  0.324300  0.051900  1.0  0.1827
  C  C114  1  0.700800  0.464200  0.996400  1.0  0.3164
  C  C115  1  0.606600  0.543100  0.977100  1.0  0.3418
  C  C116  1  0.551400  0.604900  0.002200  1.0  0.3479
  C  C117  1  0.459200  0.685100  0.982200  1.0  0.3117
  C  C118  1  0.391400  0.731900  0.926300  1.0  0.0191
  C  C119  1  0.365100  0.792300  0.985200  1.0  -0.1731
  C  C120  1  0.299500  0.833900  0.927800  1.0  0.1759
  C  C121  1  0.284000  0.758700  0.761400  1.0  0.1711
  C  C122  1  0.349500  0.715000  0.810400  1.0  -0.157
  C  C123  1  0.627100  0.107100  0.728100  1.0  0.1646
  C  C124  1  0.693000  0.064700  0.675300  1.0  -0.1447
  C  C125  1  0.726600  0.078400  0.553500  1.0  0.0138
  C  C126  1  0.689400  0.134700  0.489600  1.0  -0.1987
  C  C127  1  0.626000  0.175700  0.551900  1.0  0.1807
  C  C128  1  0.799200  0.035800  0.496400  1.0  0.3152
  C  C129  1  0.893400  0.956900  0.477100  1.0  0.3422
  C  C130  1  0.948600  0.895100  0.502200  1.0  0.3471
  C  C131  1  0.040800  0.814900  0.482200  1.0  0.3112
  C  C132  1  0.108600  0.768100  0.426300  1.0  0.0172
  C  C133  1  0.134900  0.707700  0.485200  1.0  -0.1732
  C  C134  1  0.200500  0.666100  0.427800  1.0  0.1761
  C  C135  1  0.216000  0.741300  0.261400  1.0  0.1713
  C  C136  1  0.150500  0.785000  0.310400  1.0  -0.1564
  C  C137  1  0.872900  0.607100  0.728100  1.0  0.1635
  C  C138  1  0.807000  0.564700  0.675300  1.0  -0.1438
  C  C139  1  0.773400  0.578400  0.553500  1.0  0.0141
  C  C140  1  0.810600  0.634700  0.489600  1.0  -0.1994
  C  C141  1  0.874000  0.675700  0.551900  1.0  0.1822
  C  C142  1  0.700800  0.535800  0.496400  1.0  0.3169
  C  C143  1  0.606600  0.456900  0.477100  1.0  0.3417
  C  C144  1  0.551400  0.395100  0.502200  1.0  0.3475
  C  C145  1  0.459200  0.314900  0.482200  1.0  0.311
  C  C146  1  0.391400  0.268100  0.426300  1.0  0.0189
  C  C147  1  0.365100  0.207700  0.485200  1.0  -0.1736
  C  C148  1  0.299500  0.166100  0.427800  1.0  0.1756
  C  C149  1  0.284000  0.241300  0.261400  1.0  0.1722
  C  C150  1  0.349500  0.285000  0.310400  1.0  -0.1566
  C  C151  1  0.627100  0.892900  0.228100  1.0  0.1644
  C  C152  1  0.693000  0.935300  0.175300  1.0  -0.1436
  C  C153  1  0.726600  0.921600  0.053500  1.0  0.0141
  C  C154  1  0.689400  0.865300  0.989600  1.0  -0.1987
  C  C155  1  0.626000  0.824300  0.051900  1.0  0.1814
  C  C156  1  0.799200  0.964200  0.996400  1.0  0.3148
  C  C157  1  0.893400  0.043100  0.977100  1.0  0.3425
  C  C158  1  0.948600  0.104900  0.002200  1.0  0.3475
  C  C159  1  0.040800  0.185100  0.982200  1.0  0.3118
  C  C160  1  0.108600  0.231900  0.926300  1.0  0.0173
  C  C161  1  0.134900  0.292300  0.985200  1.0  -0.1724
  C  C162  1  0.200500  0.333900  0.927800  1.0  0.1763
  C  C163  1  0.216000  0.258700  0.761400  1.0  0.1721
  C  C164  1  0.150500  0.215000  0.810400  1.0  -0.157
  C  C165  1  0.127100  0.607100  0.771900  1.0  0.1646
  C  C166  1  0.193000  0.564700  0.824700  1.0  -0.145
  C  C167  1  0.226600  0.578400  0.946500  1.0  0.0144
  C  C168  1  0.189400  0.634700  0.010400  1.0  -0.1987
  C  C169  1  0.126000  0.675700  0.948100  1.0  0.1813
  C  C170  1  0.299200  0.535800  0.003600  1.0  0.3151
  C  C171  1  0.393400  0.456900  0.022900  1.0  0.3423
  C  C172  1  0.448600  0.395100  0.997800  1.0  0.3472
  C  C173  1  0.540800  0.314900  0.017800  1.0  0.3111
  C  C174  1  0.608600  0.268100  0.073700  1.0  0.0176
  C  C175  1  0.634900  0.207700  0.014800  1.0  -0.1736
  C  C176  1  0.700500  0.166100  0.072200  1.0  0.1755
  C  C177  1  0.716000  0.241300  0.238600  1.0  0.1711
  C  C178  1  0.650500  0.285000  0.189600  1.0  -0.1557
  C  C179  1  0.372900  0.892900  0.271900  1.0  0.1647
  C  C180  1  0.307000  0.935300  0.324700  1.0  -0.1429
  C  C181  1  0.273400  0.921600  0.446500  1.0  0.0148
  C  C182  1  0.310600  0.865300  0.510400  1.0  -0.1982
  C  C183  1  0.374000  0.824300  0.448100  1.0  0.1822
  C  C184  1  0.200800  0.964200  0.503600  1.0  0.3162
  C  C185  1  0.106600  0.043100  0.522900  1.0  0.3418
  C  C186  1  0.051400  0.104900  0.497800  1.0  0.3479
  C  C187  1  0.959200  0.185100  0.517800  1.0  0.3117
  C  C188  1  0.891400  0.231900  0.573700  1.0  0.0193
  C  C189  1  0.865100  0.292300  0.514800  1.0  -0.1733
  C  C190  1  0.799500  0.333900  0.572200  1.0  0.1759
  C  C191  1  0.784000  0.258700  0.738600  1.0  0.171
  C  C192  1  0.849500  0.215000  0.689600  1.0  -0.1575
  N  N193  1  0.094700  0.335890  0.329600  1.0  -0.3397
  N  N194  1  0.327600  0.522420  0.444900  1.0  -0.4504
  N  N195  1  0.344200  0.450020  0.613400  1.0  -0.3331
  N  N196  1  0.406500  0.503040  0.625100  1.0  -0.3
  N  N197  1  0.509700  0.629760  0.582200  1.0  -0.4767
  N  N198  1  0.442300  0.640230  0.388300  1.0  -0.3081
  N  N199  1  0.503300  0.693550  0.400000  1.0  -0.3191
  N  N200  1  0.742100  0.817700  0.682400  1.0  -0.349
  N  N201  1  0.405300  0.164110  0.829600  1.0  -0.3392
  N  N202  1  0.172400  0.977580  0.944900  1.0  -0.4508
  N  N203  1  0.155800  0.049980  0.113400  1.0  -0.3334
  N  N204  1  0.093500  0.996960  0.125100  1.0  -0.2991
  N  N205  1  0.990300  0.870240  0.082200  1.0  -0.4778
  N  N206  1  0.057700  0.859770  0.888300  1.0  -0.3092
  N  N207  1  0.996700  0.806450  0.900000  1.0  -0.3193
  N  N208  1  0.757900  0.682300  0.182400  1.0  -0.3486
  N  N209  1  0.905300  0.335890  0.170400  1.0  -0.3393
  N  N210  1  0.672400  0.522420  0.055100  1.0  -0.4494
  N  N211  1  0.655800  0.450020  0.886600  1.0  -0.3325
  N  N212  1  0.593500  0.503040  0.874900  1.0  -0.2984
  N  N213  1  0.490300  0.629760  0.917800  1.0  -0.477
  N  N214  1  0.557700  0.640230  0.111700  1.0  -0.3086
  N  N215  1  0.496700  0.693550  0.100000  1.0  -0.3184
  N  N216  1  0.257900  0.817700  0.817600  1.0  -0.348
  N  N217  1  0.594700  0.164110  0.670400  1.0  -0.3398
  N  N218  1  0.827600  0.977580  0.555100  1.0  -0.4495
  N  N219  1  0.844200  0.049980  0.386600  1.0  -0.3329
  N  N220  1  0.906500  0.996960  0.374900  1.0  -0.2998
  N  N221  1  0.009700  0.870240  0.417800  1.0  -0.4759
  N  N222  1  0.942300  0.859770  0.611700  1.0  -0.3074
  N  N223  1  0.003300  0.806450  0.600000  1.0  -0.3185
  N  N224  1  0.242100  0.682300  0.317600  1.0  -0.3486
  N  N225  1  0.905300  0.664110  0.670400  1.0  -0.3389
  N  N226  1  0.672400  0.477580  0.555100  1.0  -0.4489
  N  N227  1  0.655800  0.549980  0.386600  1.0  -0.3328
  N  N228  1  0.593500  0.496960  0.374900  1.0  -0.2987
  N  N229  1  0.490300  0.370240  0.417800  1.0  -0.4763
  N  N230  1  0.557700  0.359770  0.611700  1.0  -0.3085
  N  N231  1  0.496700  0.306450  0.600000  1.0  -0.3203
  N  N232  1  0.257900  0.182300  0.317600  1.0  -0.3484
  N  N233  1  0.594700  0.835890  0.170400  1.0  -0.3397
  N  N234  1  0.827600  0.022420  0.055100  1.0  -0.45
  N  N235  1  0.844200  0.950020  0.886600  1.0  -0.3327
  N  N236  1  0.906500  0.003040  0.874900  1.0  -0.2995
  N  N237  1  0.009700  0.129760  0.917800  1.0  -0.477
  N  N238  1  0.942300  0.140230  0.111700  1.0  -0.3074
  N  N239  1  0.003300  0.193550  0.100000  1.0  -0.3202
  N  N240  1  0.242100  0.317700  0.817600  1.0  -0.3491
  N  N241  1  0.094700  0.664110  0.829600  1.0  -0.3396
  N  N242  1  0.327600  0.477580  0.944900  1.0  -0.4514
  N  N243  1  0.344200  0.549980  0.113400  1.0  -0.3336
  N  N244  1  0.406500  0.496960  0.125100  1.0  -0.3003
  N  N245  1  0.509700  0.370240  0.082200  1.0  -0.4774
  N  N246  1  0.442300  0.359770  0.888300  1.0  -0.3079
  N  N247  1  0.503300  0.306450  0.900000  1.0  -0.321
  N  N248  1  0.742100  0.182300  0.182400  1.0  -0.3487
  N  N249  1  0.405300  0.835890  0.329600  1.0  -0.3397
  N  N250  1  0.172400  0.022420  0.444900  1.0  -0.4501
  N  N251  1  0.155800  0.950020  0.613400  1.0  -0.3329
  N  N252  1  0.093500  0.003040  0.625100  1.0  -0.2989
  N  N253  1  0.990300  0.129760  0.582200  1.0  -0.4767
  N  N254  1  0.057700  0.140230  0.388300  1.0  -0.3094
  N  N255  1  0.996700  0.193550  0.400000  1.0  -0.3213
  N  N256  1  0.757900  0.317700  0.682400  1.0  -0.3479
