# generated using pymatgen
data_Cu6H93C69BrN30
_symmetry_space_group_name_H-M   'P 1'
_cell_length_a   19.00300000
_cell_length_b   19.00300000
_cell_length_c   16.91600000
_cell_angle_alpha   90.00000000
_cell_angle_beta   90.00000000
_cell_angle_gamma   120.00000000
_symmetry_Int_Tables_number   1
_chemical_formula_structural   Cu6H93C69BrN30
_chemical_formula_sum   'Cu12 H186 C138 Br2 N60'
_cell_volume   5290.20674470
_cell_formula_units_Z   2
loop_
 _symmetry_equiv_pos_site_id
 _symmetry_equiv_pos_as_xyz
  1  'x, y, z'
loop_
 _atom_site_type_symbol
 _atom_site_label
 _atom_site_symmetry_multiplicity
 _atom_site_fract_x
 _atom_site_fract_y
 _atom_site_fract_z
 _atom_site_occupancy
 _atom_site_charge
  Cu  Cu1  1  0.669320  0.667060  0.750000  1.0  0.5962
  Cu  Cu2  1  0.547740  0.366670  0.750000  1.0  0.417
  Cu  Cu3  1  0.332940  0.002260  0.750000  1.0  0.5965
  Cu  Cu4  1  0.633330  0.181070  0.750000  1.0  0.416
  Cu  Cu5  1  0.997740  0.330680  0.750000  1.0  0.5951
  Cu  Cu6  1  0.818930  0.452260  0.750000  1.0  0.4169
  Cu  Cu7  1  0.330680  0.332940  0.250000  1.0  0.5971
  Cu  Cu8  1  0.452260  0.633330  0.250000  1.0  0.4167
  Cu  Cu9  1  0.667060  0.997740  0.250000  1.0  0.5957
  Cu  Cu10  1  0.366670  0.818930  0.250000  1.0  0.4159
  Cu  Cu11  1  0.002260  0.669320  0.250000  1.0  0.5953
  Cu  Cu12  1  0.181070  0.547740  0.250000  1.0  0.416
  H  H13  1  0.507100  0.207700  0.661900  1.0  0.2364
  H  H14  1  0.235700  0.174300  0.351200  1.0  0.3096
  H  H15  1  0.186800  0.091200  0.474400  1.0  0.1234
  H  H16  1  0.250600  0.110800  0.541800  1.0  0.1273
  H  H17  1  0.251000  0.062700  0.466600  1.0  0.1232
  H  H18  1  0.451000  0.094600  0.570500  1.0  0.1115
  H  H19  1  0.473500  0.135900  0.487000  1.0  0.131
  H  H20  1  0.382500  0.087900  0.514100  1.0  0.1173
  H  H21  1  0.454900  0.411800  0.649500  1.0  0.1308
  H  H22  1  0.381100  0.368400  0.591300  1.0  0.1161
  H  H23  1  0.469000  0.423900  0.558000  1.0  0.1276
  H  H24  1  0.474900  0.422800  0.410400  1.0  0.1195
  H  H25  1  0.492200  0.385900  0.335000  1.0  0.1346
  H  H26  1  0.521900  0.374900  0.418100  1.0  0.1306
  H  H27  1  0.945400  0.701500  0.703700  1.0  0.1311
  H  H28  1  0.792300  0.299400  0.661900  1.0  0.2366
  H  H29  1  0.825700  0.061400  0.351200  1.0  0.3097
  H  H30  1  0.908800  0.095600  0.474400  1.0  0.1227
  H  H31  1  0.889200  0.139800  0.541800  1.0  0.126
  H  H32  1  0.937300  0.188300  0.466600  1.0  0.1243
  H  H33  1  0.905400  0.356400  0.570500  1.0  0.1121
  H  H34  1  0.864100  0.337600  0.487000  1.0  0.131
  H  H35  1  0.912100  0.294600  0.514100  1.0  0.1174
  H  H36  1  0.588200  0.043100  0.649500  1.0  0.1295
  H  H37  1  0.631600  0.012700  0.591300  1.0  0.1151
  H  H38  1  0.576100  0.045100  0.558000  1.0  0.126
  H  H39  1  0.577200  0.052100  0.410400  1.0  0.1182
  H  H40  1  0.614100  0.106300  0.335000  1.0  0.1339
  H  H41  1  0.625100  0.147000  0.418100  1.0  0.1298
  H  H42  1  0.298500  0.243900  0.703700  1.0  0.1334
  H  H43  1  0.700600  0.492900  0.661900  1.0  0.2372
  H  H44  1  0.938600  0.764300  0.351200  1.0  0.3108
  H  H45  1  0.904400  0.813200  0.474400  1.0  0.1256
  H  H46  1  0.860200  0.749400  0.541800  1.0  0.1234
  H  H47  1  0.811700  0.749000  0.466600  1.0  0.1224
  H  H48  1  0.643600  0.549000  0.570500  1.0  0.1116
  H  H49  1  0.662400  0.526500  0.487000  1.0  0.1316
  H  H50  1  0.705400  0.617500  0.514100  1.0  0.12
  H  H51  1  0.956900  0.545100  0.649500  1.0  0.1294
  H  H52  1  0.987300  0.618900  0.591300  1.0  0.114
  H  H53  1  0.954900  0.531000  0.558000  1.0  0.1274
  H  H54  1  0.947900  0.525100  0.410400  1.0  0.1188
  H  H55  1  0.893700  0.507800  0.335000  1.0  0.133
  H  H56  1  0.853000  0.478100  0.418100  1.0  0.1291
  H  H57  1  0.756100  0.054600  0.703700  1.0  0.1343
  H  H58  1  0.492900  0.792300  0.161900  1.0  0.2373
  H  H59  1  0.764300  0.825700  0.851200  1.0  0.3097
  H  H60  1  0.813200  0.908800  0.974400  1.0  0.1244
  H  H61  1  0.749400  0.889200  0.041800  1.0  0.1259
  H  H62  1  0.749000  0.937300  0.966600  1.0  0.125
  H  H63  1  0.549000  0.905400  0.070500  1.0  0.1115
  H  H64  1  0.526500  0.864100  0.987000  1.0  0.1308
  H  H65  1  0.617500  0.912100  0.014100  1.0  0.1181
  H  H66  1  0.545100  0.588200  0.149500  1.0  0.1308
  H  H67  1  0.618900  0.631600  0.091300  1.0  0.1156
  H  H68  1  0.531000  0.576100  0.058000  1.0  0.127
  H  H69  1  0.525100  0.577200  0.910400  1.0  0.118
  H  H70  1  0.507800  0.614100  0.835000  1.0  0.1337
  H  H71  1  0.478100  0.625100  0.918100  1.0  0.1291
  H  H72  1  0.054600  0.298500  0.203700  1.0  0.1321
  H  H73  1  0.207700  0.700600  0.161900  1.0  0.2372
  H  H74  1  0.174300  0.938600  0.851200  1.0  0.3109
  H  H75  1  0.091200  0.904400  0.974400  1.0  0.122
  H  H76  1  0.110800  0.860200  0.041800  1.0  0.1273
  H  H77  1  0.062700  0.811700  0.966600  1.0  0.1243
  H  H78  1  0.094600  0.643600  0.070500  1.0  0.1121
  H  H79  1  0.135900  0.662400  0.987000  1.0  0.1308
  H  H80  1  0.087900  0.705400  0.014100  1.0  0.1172
  H  H81  1  0.411800  0.956900  0.149500  1.0  0.1301
  H  H82  1  0.368400  0.987300  0.091300  1.0  0.1145
  H  H83  1  0.423900  0.954900  0.058000  1.0  0.127
  H  H84  1  0.422800  0.947900  0.910400  1.0  0.1176
  H  H85  1  0.385900  0.893700  0.835000  1.0  0.1357
  H  H86  1  0.374900  0.853000  0.918100  1.0  0.1298
  H  H87  1  0.701500  0.756100  0.203700  1.0  0.1336
  H  H88  1  0.299400  0.507100  0.161900  1.0  0.237
  H  H89  1  0.061400  0.235700  0.851200  1.0  0.3119
  H  H90  1  0.095600  0.186800  0.974400  1.0  0.1245
  H  H91  1  0.139800  0.250600  0.041800  1.0  0.124
  H  H92  1  0.188300  0.251000  0.966600  1.0  0.1211
  H  H93  1  0.356400  0.451000  0.070500  1.0  0.1111
  H  H94  1  0.337600  0.473500  0.987000  1.0  0.132
  H  H95  1  0.294600  0.382500  0.014100  1.0  0.1191
  H  H96  1  0.043100  0.454900  0.149500  1.0  0.1301
  H  H97  1  0.012700  0.381100  0.091300  1.0  0.1128
  H  H98  1  0.045100  0.469000  0.058000  1.0  0.1269
  H  H99  1  0.052100  0.474900  0.910400  1.0  0.1197
  H  H100  1  0.106300  0.492200  0.835000  1.0  0.1353
  H  H101  1  0.147000  0.521900  0.918100  1.0  0.1297
  H  H102  1  0.243900  0.945400  0.203700  1.0  0.1334
  H  H103  1  0.492900  0.792300  0.338100  1.0  0.2381
  H  H104  1  0.764300  0.825700  0.648800  1.0  0.3089
  H  H105  1  0.813200  0.908800  0.525600  1.0  0.1236
  H  H106  1  0.749400  0.889200  0.458200  1.0  0.1274
  H  H107  1  0.749000  0.937300  0.533400  1.0  0.1243
  H  H108  1  0.549000  0.905400  0.429500  1.0  0.111
  H  H109  1  0.526500  0.864100  0.513000  1.0  0.1319
  H  H110  1  0.617500  0.912100  0.485900  1.0  0.118
  H  H111  1  0.545100  0.588200  0.350500  1.0  0.1307
  H  H112  1  0.618900  0.631600  0.408700  1.0  0.1163
  H  H113  1  0.531000  0.576100  0.442000  1.0  0.1274
  H  H114  1  0.525100  0.577200  0.589600  1.0  0.1179
  H  H115  1  0.507800  0.614100  0.665000  1.0  0.1343
  H  H116  1  0.478100  0.625100  0.581900  1.0  0.1311
  H  H117  1  0.054600  0.298500  0.296300  1.0  0.1314
  H  H118  1  0.207700  0.700600  0.338100  1.0  0.2373
  H  H119  1  0.174300  0.938600  0.648800  1.0  0.31
  H  H120  1  0.091200  0.904400  0.525600  1.0  0.1216
  H  H121  1  0.110800  0.860200  0.458200  1.0  0.1263
  H  H122  1  0.062700  0.811700  0.533400  1.0  0.1235
  H  H123  1  0.094600  0.643600  0.429500  1.0  0.1117
  H  H124  1  0.135900  0.662400  0.513000  1.0  0.1313
  H  H125  1  0.087900  0.705400  0.485900  1.0  0.1171
  H  H126  1  0.411800  0.956900  0.350500  1.0  0.1298
  H  H127  1  0.368400  0.987300  0.408700  1.0  0.1147
  H  H128  1  0.423900  0.954900  0.442000  1.0  0.1272
  H  H129  1  0.422800  0.947900  0.589600  1.0  0.1173
  H  H130  1  0.385900  0.893700  0.665000  1.0  0.134
  H  H131  1  0.374900  0.853000  0.581900  1.0  0.1299
  H  H132  1  0.701500  0.756100  0.296300  1.0  0.1325
  H  H133  1  0.299400  0.507100  0.338100  1.0  0.2379
  H  H134  1  0.061400  0.235700  0.648800  1.0  0.3116
  H  H135  1  0.095600  0.186800  0.525600  1.0  0.1246
  H  H136  1  0.139800  0.250600  0.458200  1.0  0.1236
  H  H137  1  0.188300  0.251000  0.533400  1.0  0.1209
  H  H138  1  0.356400  0.451000  0.429500  1.0  0.1114
  H  H139  1  0.337600  0.473500  0.513000  1.0  0.1319
  H  H140  1  0.294600  0.382500  0.485900  1.0  0.1194
  H  H141  1  0.043100  0.454900  0.350500  1.0  0.1297
  H  H142  1  0.012700  0.381100  0.408700  1.0  0.1124
  H  H143  1  0.045100  0.469000  0.442000  1.0  0.1268
  H  H144  1  0.052100  0.474900  0.589600  1.0  0.1197
  H  H145  1  0.106300  0.492200  0.665000  1.0  0.1333
  H  H146  1  0.147000  0.521900  0.581900  1.0  0.1291
  H  H147  1  0.243900  0.945400  0.296300  1.0  0.1332
  H  H148  1  0.507100  0.207700  0.838100  1.0  0.237
  H  H149  1  0.235700  0.174300  0.148800  1.0  0.3095
  H  H150  1  0.186800  0.091200  0.025600  1.0  0.1234
  H  H151  1  0.250600  0.110800  0.958200  1.0  0.1263
  H  H152  1  0.251000  0.062700  0.033400  1.0  0.1236
  H  H153  1  0.451000  0.094600  0.929500  1.0  0.1114
  H  H154  1  0.473500  0.135900  0.013000  1.0  0.1312
  H  H155  1  0.382500  0.087900  0.985900  1.0  0.1175
  H  H156  1  0.454900  0.411800  0.850500  1.0  0.1307
  H  H157  1  0.381100  0.368400  0.908700  1.0  0.1155
  H  H158  1  0.469000  0.423900  0.942000  1.0  0.1276
  H  H159  1  0.474900  0.422800  0.089600  1.0  0.1192
  H  H160  1  0.492200  0.385900  0.165000  1.0  0.1331
  H  H161  1  0.521900  0.374900  0.081900  1.0  0.1302
  H  H162  1  0.945400  0.701500  0.796300  1.0  0.1306
  H  H163  1  0.792300  0.299400  0.838100  1.0  0.2387
  H  H164  1  0.825700  0.061400  0.148800  1.0  0.3105
  H  H165  1  0.908800  0.095600  0.025600  1.0  0.1228
  H  H166  1  0.889200  0.139800  0.958200  1.0  0.1269
  H  H167  1  0.937300  0.188300  0.033400  1.0  0.1242
  H  H168  1  0.905400  0.356400  0.929500  1.0  0.1118
  H  H169  1  0.864100  0.337600  0.013000  1.0  0.1321
  H  H170  1  0.912100  0.294600  0.985900  1.0  0.1178
  H  H171  1  0.588200  0.043100  0.850500  1.0  0.1295
  H  H172  1  0.631600  0.012700  0.908700  1.0  0.115
  H  H173  1  0.576100  0.045100  0.942000  1.0  0.1261
  H  H174  1  0.577200  0.052100  0.089600  1.0  0.1182
  H  H175  1  0.614100  0.106300  0.165000  1.0  0.1337
  H  H176  1  0.625100  0.147000  0.081900  1.0  0.1303
  H  H177  1  0.298500  0.243900  0.796300  1.0  0.1324
  H  H178  1  0.700600  0.492900  0.838100  1.0  0.2378
  H  H179  1  0.938600  0.764300  0.148800  1.0  0.3105
  H  H180  1  0.904400  0.813200  0.025600  1.0  0.1252
  H  H181  1  0.860200  0.749400  0.958200  1.0  0.1235
  H  H182  1  0.811700  0.749000  0.033400  1.0  0.1219
  H  H183  1  0.643600  0.549000  0.929500  1.0  0.111
  H  H184  1  0.662400  0.526500  0.013000  1.0  0.1327
  H  H185  1  0.705400  0.617500  0.985900  1.0  0.1198
  H  H186  1  0.956900  0.545100  0.850500  1.0  0.1295
  H  H187  1  0.987300  0.618900  0.908700  1.0  0.1147
  H  H188  1  0.954900  0.531000  0.942000  1.0  0.1277
  H  H189  1  0.947900  0.525100  0.089600  1.0  0.1185
  H  H190  1  0.893700  0.507800  0.165000  1.0  0.1332
  H  H191  1  0.853000  0.478100  0.081900  1.0  0.1306
  H  H192  1  0.756100  0.054600  0.796300  1.0  0.1337
  H  H193  1  0.977700  0.783400  0.750000  1.0  0.1538
  H  H194  1  0.216600  0.194300  0.750000  1.0  0.1528
  H  H195  1  0.805700  0.022300  0.750000  1.0  0.1522
  H  H196  1  0.022300  0.216600  0.250000  1.0  0.1556
  H  H197  1  0.783400  0.805700  0.250000  1.0  0.1549
  H  H198  1  0.194300  0.977700  0.250000  1.0  0.1516
  C  C199  1  0.374200  0.244300  0.466200  1.0  -0.1374
  C  C200  1  0.298400  0.182400  0.446200  1.0  0.1403
  C  C201  1  0.241700  0.104900  0.485700  1.0  -0.3908
  C  C202  1  0.401000  0.301000  0.402000  1.0  0.2032
  C  C203  1  0.421500  0.251500  0.538300  1.0  -0.1821
  C  C204  1  0.445700  0.197700  0.565600  1.0  0.1398
  C  C205  1  0.449800  0.314400  0.595300  1.0  0.2185
  C  C206  1  0.437500  0.122400  0.531300  1.0  -0.3689
  C  C207  1  0.437600  0.386000  0.598800  1.0  -0.4009
  C  C208  1  0.479500  0.378000  0.390400  1.0  -0.4051
  C  C209  1  0.755700  0.129900  0.466200  1.0  -0.1369
  C  C210  1  0.817600  0.116000  0.446200  1.0  0.1416
  C  C211  1  0.895100  0.136800  0.485700  1.0  -0.3923
  C  C212  1  0.699000  0.100000  0.402000  1.0  0.2026
  C  C213  1  0.748500  0.170000  0.538300  1.0  -0.1821
  C  C214  1  0.802300  0.248000  0.565600  1.0  0.1403
  C  C215  1  0.685600  0.135400  0.595300  1.0  0.2191
  C  C216  1  0.877600  0.315100  0.531300  1.0  -0.3696
  C  C217  1  0.614000  0.051600  0.598800  1.0  -0.4007
  C  C218  1  0.622000  0.101500  0.390400  1.0  -0.3997
  C  C219  1  0.870100  0.625800  0.466200  1.0  -0.1378
  C  C220  1  0.884000  0.701600  0.446200  1.0  0.1412
  C  C221  1  0.863200  0.758300  0.485700  1.0  -0.3892
  C  C222  1  0.900000  0.599000  0.402000  1.0  0.2023
  C  C223  1  0.830000  0.578500  0.538300  1.0  -0.1828
  C  C224  1  0.752000  0.554300  0.565600  1.0  0.139
  C  C225  1  0.864600  0.550200  0.595300  1.0  0.2185
  C  C226  1  0.684900  0.562500  0.531300  1.0  -0.37
  C  C227  1  0.948400  0.562400  0.598800  1.0  -0.4019
  C  C228  1  0.898500  0.520500  0.390400  1.0  -0.403
  C  C229  1  0.625800  0.755700  0.966200  1.0  -0.1378
  C  C230  1  0.701600  0.817600  0.946200  1.0  0.1411
  C  C231  1  0.758300  0.895100  0.985700  1.0  -0.3914
  C  C232  1  0.599000  0.699000  0.902000  1.0  0.2025
  C  C233  1  0.578500  0.748500  0.038300  1.0  -0.1827
  C  C234  1  0.554300  0.802300  0.065600  1.0  0.1402
  C  C235  1  0.550200  0.685600  0.095300  1.0  0.2179
  C  C236  1  0.562500  0.877600  0.031300  1.0  -0.3693
  C  C237  1  0.562400  0.614000  0.098800  1.0  -0.4011
  C  C238  1  0.520500  0.622000  0.890400  1.0  -0.4055
  C  C239  1  0.244300  0.870100  0.966200  1.0  -0.1377
  C  C240  1  0.182400  0.884000  0.946200  1.0  0.1408
  C  C241  1  0.104900  0.863200  0.985700  1.0  -0.39
  C  C242  1  0.301000  0.900000  0.902000  1.0  0.2008
  C  C243  1  0.251500  0.830000  0.038300  1.0  -0.1815
  C  C244  1  0.197700  0.752000  0.065600  1.0  0.1408
  C  C245  1  0.314400  0.864600  0.095300  1.0  0.2194
  C  C246  1  0.122400  0.684900  0.031300  1.0  -0.3696
  C  C247  1  0.386000  0.948400  0.098800  1.0  -0.4006
  C  C248  1  0.378000  0.898500  0.890400  1.0  -0.403
  C  C249  1  0.129900  0.374200  0.966200  1.0  -0.1376
  C  C250  1  0.116000  0.298400  0.946200  1.0  0.1414
  C  C251  1  0.136800  0.241700  0.985700  1.0  -0.3897
  C  C252  1  0.100000  0.401000  0.902000  1.0  0.2023
  C  C253  1  0.170000  0.421500  0.038300  1.0  -0.181
  C  C254  1  0.248000  0.445700  0.065600  1.0  0.1394
  C  C255  1  0.135400  0.449800  0.095300  1.0  0.2188
  C  C256  1  0.315100  0.437500  0.031300  1.0  -0.369
  C  C257  1  0.051600  0.437600  0.098800  1.0  -0.4017
  C  C258  1  0.101500  0.479500  0.890400  1.0  -0.4013
  C  C259  1  0.625800  0.755700  0.533800  1.0  -0.1357
  C  C260  1  0.701600  0.817600  0.553800  1.0  0.1408
  C  C261  1  0.758300  0.895100  0.514300  1.0  -0.3912
  C  C262  1  0.599000  0.699000  0.598000  1.0  0.2023
  C  C263  1  0.578500  0.748500  0.461700  1.0  -0.1836
  C  C264  1  0.554300  0.802300  0.434400  1.0  0.1405
  C  C265  1  0.550200  0.685600  0.404700  1.0  0.2184
  C  C266  1  0.562500  0.877600  0.468700  1.0  -0.3686
  C  C267  1  0.562400  0.614000  0.401200  1.0  -0.4011
  C  C268  1  0.520500  0.622000  0.609600  1.0  -0.4049
  C  C269  1  0.244300  0.870100  0.533800  1.0  -0.1355
  C  C270  1  0.182400  0.884000  0.553800  1.0  0.1405
  C  C271  1  0.104900  0.863200  0.514300  1.0  -0.3893
  C  C272  1  0.301000  0.900000  0.598000  1.0  0.2015
  C  C273  1  0.251500  0.830000  0.461700  1.0  -0.1825
  C  C274  1  0.197700  0.752000  0.434400  1.0  0.1411
  C  C275  1  0.314400  0.864600  0.404700  1.0  0.2197
  C  C276  1  0.122400  0.684900  0.468700  1.0  -0.3696
  C  C277  1  0.386000  0.948400  0.401200  1.0  -0.4006
  C  C278  1  0.378000  0.898500  0.609600  1.0  -0.4015
  C  C279  1  0.129900  0.374200  0.533800  1.0  -0.1359
  C  C280  1  0.116000  0.298400  0.553800  1.0  0.1415
  C  C281  1  0.136800  0.241700  0.514300  1.0  -0.3897
  C  C282  1  0.100000  0.401000  0.598000  1.0  0.2024
  C  C283  1  0.170000  0.421500  0.461700  1.0  -0.1822
  C  C284  1  0.248000  0.445700  0.434400  1.0  0.1395
  C  C285  1  0.135400  0.449800  0.404700  1.0  0.2193
  C  C286  1  0.315100  0.437500  0.468700  1.0  -0.3684
  C  C287  1  0.051600  0.437600  0.401200  1.0  -0.401
  C  C288  1  0.101500  0.479500  0.609600  1.0  -0.4014
  C  C289  1  0.374200  0.244300  0.033800  1.0  -0.1356
  C  C290  1  0.298400  0.182400  0.053800  1.0  0.1402
  C  C291  1  0.241700  0.104900  0.014300  1.0  -0.3905
  C  C292  1  0.401000  0.301000  0.098000  1.0  0.2033
  C  C293  1  0.421500  0.251500  0.961700  1.0  -0.1831
  C  C294  1  0.445700  0.197700  0.934400  1.0  0.1402
  C  C295  1  0.449800  0.314400  0.904700  1.0  0.2188
  C  C296  1  0.437500  0.122400  0.968700  1.0  -0.3687
  C  C297  1  0.437600  0.386000  0.901200  1.0  -0.4008
  C  C298  1  0.479500  0.378000  0.109600  1.0  -0.404
  C  C299  1  0.755700  0.129900  0.033800  1.0  -0.1347
  C  C300  1  0.817600  0.116000  0.053800  1.0  0.1414
  C  C301  1  0.895100  0.136800  0.014300  1.0  -0.3922
  C  C302  1  0.699000  0.100000  0.098000  1.0  0.202
  C  C303  1  0.748500  0.170000  0.961700  1.0  -0.1832
  C  C304  1  0.802300  0.248000  0.934400  1.0  0.1407
  C  C305  1  0.685600  0.135400  0.904700  1.0  0.2197
  C  C306  1  0.877600  0.315100  0.968700  1.0  -0.3686
  C  C307  1  0.614000  0.051600  0.901200  1.0  -0.4003
  C  C308  1  0.622000  0.101500  0.109600  1.0  -0.4002
  C  C309  1  0.870100  0.625800  0.033800  1.0  -0.1357
  C  C310  1  0.884000  0.701600  0.053800  1.0  0.1407
  C  C311  1  0.863200  0.758300  0.014300  1.0  -0.3887
  C  C312  1  0.900000  0.599000  0.098000  1.0  0.2022
  C  C313  1  0.830000  0.578500  0.961700  1.0  -0.184
  C  C314  1  0.752000  0.554300  0.934400  1.0  0.1393
  C  C315  1  0.864600  0.550200  0.904700  1.0  0.2189
  C  C316  1  0.684900  0.562500  0.968700  1.0  -0.3693
  C  C317  1  0.948400  0.562400  0.901200  1.0  -0.4018
  C  C318  1  0.898500  0.520500  0.109600  1.0  -0.4018
  C  C319  1  0.618300  0.553700  0.750000  1.0  0.0139
  C  C320  1  0.852800  0.715100  0.750000  1.0  0.2599
  C  C321  1  0.938300  0.726400  0.750000  1.0  -0.3934
  C  C322  1  0.446300  0.064600  0.750000  1.0  0.0141
  C  C323  1  0.284900  0.137700  0.750000  1.0  0.2611
  C  C324  1  0.273600  0.211900  0.750000  1.0  -0.3893
  C  C325  1  0.935400  0.381700  0.750000  1.0  0.0152
  C  C326  1  0.862300  0.147200  0.750000  1.0  0.257
  C  C327  1  0.788100  0.061700  0.750000  1.0  -0.3931
  C  C328  1  0.381700  0.446300  0.250000  1.0  0.0154
  C  C329  1  0.147200  0.284900  0.250000  1.0  0.2626
  C  C330  1  0.061700  0.273600  0.250000  1.0  -0.393
  C  C331  1  0.553700  0.935400  0.250000  1.0  0.0139
  C  C332  1  0.715100  0.862300  0.250000  1.0  0.258
  C  C333  1  0.726400  0.788100  0.250000  1.0  -0.3902
  C  C334  1  0.064600  0.618300  0.250000  1.0  0.0161
  C  C335  1  0.137700  0.852800  0.250000  1.0  0.2587
  C  C336  1  0.211900  0.938300  0.250000  1.0  -0.3914
  Br  Br337  1  0.666667  0.333333  0.750000  1.0  -0.2727
  Br  Br338  1  0.333333  0.666667  0.250000  1.0  -0.2727
  N  N339  1  0.485700  0.229800  0.633800  1.0  -0.0934
  N  N340  1  0.489000  0.300200  0.653600  1.0  -0.3431
  N  N341  1  0.280800  0.203300  0.375700  1.0  -0.243
  N  N342  1  0.342800  0.276000  0.347400  1.0  -0.4075
  N  N343  1  0.770200  0.255900  0.633800  1.0  -0.0938
  N  N344  1  0.699800  0.188800  0.653600  1.0  -0.3429
  N  N345  1  0.796700  0.077500  0.375700  1.0  -0.2445
  N  N346  1  0.724000  0.066800  0.347400  1.0  -0.4087
  N  N347  1  0.744100  0.514300  0.633800  1.0  -0.0928
  N  N348  1  0.811200  0.511000  0.653600  1.0  -0.3422
  N  N349  1  0.922500  0.719200  0.375700  1.0  -0.2444
  N  N350  1  0.933200  0.657200  0.347400  1.0  -0.4067
  N  N351  1  0.514300  0.770200  0.133800  1.0  -0.0935
  N  N352  1  0.511000  0.699800  0.153600  1.0  -0.3434
  N  N353  1  0.719200  0.796700  0.875700  1.0  -0.2439
  N  N354  1  0.657200  0.724000  0.847400  1.0  -0.4083
  N  N355  1  0.229800  0.744100  0.133800  1.0  -0.0928
  N  N356  1  0.300200  0.811200  0.153600  1.0  -0.3424
  N  N357  1  0.203300  0.922500  0.875700  1.0  -0.2427
  N  N358  1  0.276000  0.933200  0.847400  1.0  -0.4076
  N  N359  1  0.255900  0.485700  0.133800  1.0  -0.0922
  N  N360  1  0.188800  0.489000  0.153600  1.0  -0.3434
  N  N361  1  0.077500  0.280800  0.875700  1.0  -0.2439
  N  N362  1  0.066800  0.342800  0.847400  1.0  -0.4066
  N  N363  1  0.514300  0.770200  0.366200  1.0  -0.0938
  N  N364  1  0.511000  0.699800  0.346400  1.0  -0.3444
  N  N365  1  0.719200  0.796700  0.624300  1.0  -0.243
  N  N366  1  0.657200  0.724000  0.652600  1.0  -0.4043
  N  N367  1  0.229800  0.744100  0.366200  1.0  -0.0927
  N  N368  1  0.300200  0.811200  0.346400  1.0  -0.3428
  N  N369  1  0.203300  0.922500  0.624300  1.0  -0.2427
  N  N370  1  0.276000  0.933200  0.652600  1.0  -0.4047
  N  N371  1  0.255900  0.485700  0.366200  1.0  -0.0919
  N  N372  1  0.188800  0.489000  0.346400  1.0  -0.3432
  N  N373  1  0.077500  0.280800  0.624300  1.0  -0.2433
  N  N374  1  0.066800  0.342800  0.652600  1.0  -0.4032
  N  N375  1  0.485700  0.229800  0.866200  1.0  -0.0929
  N  N376  1  0.489000  0.300200  0.846400  1.0  -0.3432
  N  N377  1  0.280800  0.203300  0.124300  1.0  -0.2436
  N  N378  1  0.342800  0.276000  0.152600  1.0  -0.404
  N  N379  1  0.770200  0.255900  0.866200  1.0  -0.0938
  N  N380  1  0.699800  0.188800  0.846400  1.0  -0.3428
  N  N381  1  0.796700  0.077500  0.124300  1.0  -0.2436
  N  N382  1  0.724000  0.066800  0.152600  1.0  -0.404
  N  N383  1  0.744100  0.514300  0.866200  1.0  -0.093
  N  N384  1  0.811200  0.511000  0.846400  1.0  -0.3433
  N  N385  1  0.922500  0.719200  0.124300  1.0  -0.2452
  N  N386  1  0.933200  0.657200  0.152600  1.0  -0.4038
  N  N387  1  0.592900  0.482300  0.750000  1.0  -0.3247
  N  N388  1  0.792000  0.707900  0.750000  1.0  -0.4382
  N  N389  1  0.517700  0.110600  0.750000  1.0  -0.3267
  N  N390  1  0.292100  0.084100  0.750000  1.0  -0.4359
  N  N391  1  0.889400  0.407100  0.750000  1.0  -0.3281
  N  N392  1  0.915900  0.208000  0.750000  1.0  -0.436
  N  N393  1  0.407100  0.517700  0.250000  1.0  -0.3265
  N  N394  1  0.208000  0.292100  0.250000  1.0  -0.4371
  N  N395  1  0.482300  0.889400  0.250000  1.0  -0.3253
  N  N396  1  0.707900  0.915900  0.250000  1.0  -0.4373
  N  N397  1  0.110600  0.592900  0.250000  1.0  -0.3265
  N  N398  1  0.084100  0.792000  0.250000  1.0  -0.4363
