# generated using pymatgen
data_Co3H16C30(NO)8
_symmetry_space_group_name_H-M   'P 1'
_cell_length_a   9.25290000
_cell_length_b   10.63550000
_cell_length_c   11.04930000
_cell_angle_alpha   63.62200000
_cell_angle_beta   86.48900000
_cell_angle_gamma   74.90700000
_symmetry_Int_Tables_number   1
_chemical_formula_structural   Co3H16C30(NO)8
_chemical_formula_sum   'Co3 H16 C30 N8 O8'
_cell_volume   938.67173381
_cell_formula_units_Z   1
loop_
 _symmetry_equiv_pos_site_id
 _symmetry_equiv_pos_as_xyz
  1  'x, y, z'
loop_
 _atom_site_type_symbol
 _atom_site_label
 _atom_site_symmetry_multiplicity
 _atom_site_fract_x
 _atom_site_fract_y
 _atom_site_fract_z
 _atom_site_occupancy
 _atom_site_charge
  Co  Co1  1  0.221960  0.275290  0.481660  1.0  0.9318
  Co  Co2  1  0.778040  0.724710  0.518340  1.0  0.9313
  Co  Co3  1  0.500000  0.500000  0.500000  1.0  1.054
  H  H4  1  0.594000  0.202400  0.900800  1.0  0.0899
  H  H5  1  0.662400  0.036900  0.125200  1.0  0.094
  H  H6  1  0.627000  0.531800  0.154900  1.0  0.0999
  H  H7  1  0.690200  0.615900  0.930300  1.0  0.0969
  H  H8  1  0.885200  0.213400  0.316200  1.0  0.1268
  H  H9  1  0.851500  0.001800  0.327300  1.0  0.0771
  H  H10  1  0.700000  0.898400  0.686600  1.0  0.0772
  H  H11  1  0.724500  0.109300  0.683100  1.0  0.1117
  H  H12  1  0.406000  0.797600  0.099200  1.0  0.0894
  H  H13  1  0.337600  0.963100  0.874800  1.0  0.0941
  H  H14  1  0.373000  0.468200  0.845100  1.0  0.0996
  H  H15  1  0.309800  0.384100  0.069700  1.0  0.0969
  H  H16  1  0.114800  0.786600  0.683800  1.0  0.1272
  H  H17  1  0.148500  0.998200  0.672700  1.0  0.0777
  H  H18  1  0.300000  0.101600  0.313400  1.0  0.0781
  H  H19  1  0.275500  0.890700  0.316900  1.0  0.1122
  C  C20  1  0.416600  0.205600  0.718000  1.0  0.6793
  C  C21  1  0.460800  0.098500  0.864800  1.0  -0.1522
  C  C22  1  0.556500  0.120900  0.940400  1.0  -0.0378
  C  C23  1  0.596900  0.022100  0.075300  1.0  -0.036
  C  C24  1  0.421200  0.397400  0.279900  1.0  0.6741
  C  C25  1  0.462900  0.449200  0.134300  1.0  -0.1274
  C  C26  1  0.575900  0.518700  0.093300  1.0  -0.027
  C  C27  1  0.613400  0.569400  0.958300  1.0  -0.0415
  C  C28  1  0.945400  0.463200  0.501800  1.0  0.4515
  C  C29  1  0.839200  0.312400  0.502400  1.0  0.3044
  C  C30  1  0.810300  0.182800  0.501700  1.0  -0.0192
  C  C31  1  0.847600  0.150400  0.392500  1.0  -0.156
  C  C32  1  0.827500  0.023000  0.400400  1.0  0.1503
  C  C33  1  0.737700  0.962600  0.611200  1.0  0.1689
  C  C34  1  0.753000  0.088800  0.610300  1.0  -0.1787
  C  C35  1  0.583400  0.794400  0.282000  1.0  0.6787
  C  C36  1  0.539200  0.901500  0.135200  1.0  -0.1526
  C  C37  1  0.443500  0.879100  0.059600  1.0  -0.039
  C  C38  1  0.403100  0.977900  0.924700  1.0  -0.0355
  C  C39  1  0.578800  0.602600  0.720100  1.0  0.6745
  C  C40  1  0.537100  0.550800  0.865700  1.0  -0.1274
  C  C41  1  0.424100  0.481300  0.906700  1.0  -0.0268
  C  C42  1  0.386600  0.430600  0.041700  1.0  -0.0435
  C  C43  1  0.054600  0.536800  0.498200  1.0  0.4524
  C  C44  1  0.160800  0.687600  0.497600  1.0  0.304
  C  C45  1  0.189700  0.817200  0.498300  1.0  -0.019
  C  C46  1  0.152400  0.849600  0.607500  1.0  -0.154
  C  C47  1  0.172500  0.977000  0.599600  1.0  0.1493
  C  C48  1  0.262300  0.037400  0.388800  1.0  0.1697
  C  C49  1  0.247000  0.911200  0.389700  1.0  -0.1787
  N  N50  1  0.977900  0.338500  0.490500  1.0  -0.4668
  N  N51  1  0.805500  0.512500  0.521300  1.0  -0.337
  N  N52  1  0.734400  0.414100  0.521300  1.0  -0.2815
  N  N53  1  0.774900  0.928600  0.508400  1.0  -0.3261
  N  N54  1  0.022100  0.661500  0.509500  1.0  -0.4649
  N  N55  1  0.194500  0.487500  0.478700  1.0  -0.3365
  N  N56  1  0.265600  0.585900  0.478700  1.0  -0.2815
  N  N57  1  0.225100  0.071400  0.491600  1.0  -0.3226
  O  O58  1  0.473400  0.309000  0.667700  1.0  -0.6153
  O  O59  1  0.324200  0.176500  0.660800  1.0  -0.6168
  O  O60  1  0.490400  0.417100  0.359200  1.0  -0.6436
  O  O61  1  0.316300  0.333900  0.308900  1.0  -0.6042
  O  O62  1  0.526600  0.691000  0.332300  1.0  -0.6154
  O  O63  1  0.675800  0.823500  0.339200  1.0  -0.6159
  O  O64  1  0.509600  0.582900  0.640800  1.0  -0.6389
  O  O65  1  0.683700  0.666100  0.691100  1.0  -0.6035
