# generated using pymatgen
data_Cu2H28C21IN9
_symmetry_space_group_name_H-M   'P 1'
_cell_length_a   11.40600000
_cell_length_b   14.98100000
_cell_length_c   16.86700000
_cell_angle_alpha   90.00000000
_cell_angle_beta   90.00000000
_cell_angle_gamma   90.00000000
_symmetry_Int_Tables_number   1
_chemical_formula_structural   Cu2H28C21IN9
_chemical_formula_sum   'Cu8 H112 C84 I4 N36'
_cell_volume   2882.11971496
_cell_formula_units_Z   4
loop_
 _symmetry_equiv_pos_site_id
 _symmetry_equiv_pos_as_xyz
  1  'x, y, z'
loop_
 _atom_site_type_symbol
 _atom_site_label
 _atom_site_symmetry_multiplicity
 _atom_site_fract_x
 _atom_site_fract_y
 _atom_site_fract_z
 _atom_site_occupancy
 _atom_site_charge
  Cu  Cu1  1  0.311220  0.517160  0.750000  1.0  0.2874
  Cu  Cu2  1  0.430600  0.816640  0.750000  1.0  0.3515
  Cu  Cu3  1  0.188780  0.017160  0.250000  1.0  0.2877
  Cu  Cu4  1  0.069400  0.316640  0.250000  1.0  0.3526
  Cu  Cu5  1  0.688780  0.482840  0.250000  1.0  0.2878
  Cu  Cu6  1  0.569400  0.183360  0.250000  1.0  0.3537
  Cu  Cu7  1  0.811220  0.982840  0.750000  1.0  0.287
  Cu  Cu8  1  0.930600  0.683360  0.750000  1.0  0.3524
  H  H9  1  0.513400  0.449700  0.642500  1.0  0.3183
  H  H10  1  0.237300  0.185200  0.338200  1.0  0.2642
  H  H11  1  0.126200  0.392800  0.665900  1.0  0.134
  H  H12  1  0.108800  0.349000  0.582300  1.0  0.1284
  H  H13  1  0.102100  0.453000  0.591700  1.0  0.1219
  H  H14  1  0.613500  0.421800  0.506800  1.0  0.1223
  H  H15  1  0.542600  0.361900  0.447500  1.0  0.126
  H  H16  1  0.597900  0.319600  0.523800  1.0  0.1325
  H  H17  1  0.344700  0.114200  0.452500  1.0  0.1226
  H  H18  1  0.391100  0.178600  0.518700  1.0  0.1226
  H  H19  1  0.456500  0.172500  0.437100  1.0  0.1271
  H  H20  1  0.225200  0.501000  0.382500  1.0  0.1362
  H  H21  1  0.133200  0.478700  0.448700  1.0  0.1233
  H  H22  1  0.100800  0.465100  0.359200  1.0  0.1272
  H  H23  1  0.986600  0.949700  0.357500  1.0  0.3208
  H  H24  1  0.262700  0.685200  0.661800  1.0  0.2638
  H  H25  1  0.373800  0.892800  0.334100  1.0  0.1327
  H  H26  1  0.391200  0.849000  0.417700  1.0  0.1279
  H  H27  1  0.397900  0.953000  0.408300  1.0  0.1212
  H  H28  1  0.886500  0.921800  0.493200  1.0  0.1249
  H  H29  1  0.957400  0.861900  0.552500  1.0  0.1271
  H  H30  1  0.902100  0.819600  0.476200  1.0  0.1327
  H  H31  1  0.155300  0.614200  0.547500  1.0  0.1223
  H  H32  1  0.108900  0.678600  0.481300  1.0  0.1232
  H  H33  1  0.043500  0.672500  0.562900  1.0  0.1234
  H  H34  1  0.274800  0.001000  0.617500  1.0  0.1354
  H  H35  1  0.366800  0.978700  0.551300  1.0  0.1221
  H  H36  1  0.399200  0.965100  0.640800  1.0  0.1285
  H  H37  1  0.486600  0.550300  0.142500  1.0  0.321
  H  H38  1  0.762700  0.814800  0.838200  1.0  0.2668
  H  H39  1  0.873800  0.607200  0.165900  1.0  0.1333
  H  H40  1  0.891200  0.651000  0.082300  1.0  0.1276
  H  H41  1  0.897900  0.547000  0.091700  1.0  0.123
  H  H42  1  0.386500  0.578200  0.006800  1.0  0.1245
  H  H43  1  0.457400  0.638100  0.947500  1.0  0.126
  H  H44  1  0.402100  0.680400  0.023800  1.0  0.1318
  H  H45  1  0.655300  0.885800  0.952500  1.0  0.1227
  H  H46  1  0.608900  0.821400  0.018700  1.0  0.1227
  H  H47  1  0.543500  0.827500  0.937100  1.0  0.1241
  H  H48  1  0.774800  0.499000  0.882500  1.0  0.1349
  H  H49  1  0.866800  0.521300  0.948700  1.0  0.1228
  H  H50  1  0.899200  0.534900  0.859200  1.0  0.1268
  H  H51  1  0.013400  0.050300  0.857500  1.0  0.3194
  H  H52  1  0.737300  0.314800  0.161800  1.0  0.2643
  H  H53  1  0.626200  0.107200  0.834100  1.0  0.1323
  H  H54  1  0.608800  0.151000  0.917700  1.0  0.1279
  H  H55  1  0.602100  0.047000  0.908300  1.0  0.1213
  H  H56  1  0.113500  0.078200  0.993200  1.0  0.1251
  H  H57  1  0.042600  0.138100  0.052500  1.0  0.1264
  H  H58  1  0.097900  0.180400  0.976200  1.0  0.1328
  H  H59  1  0.844700  0.385800  0.047500  1.0  0.1233
  H  H60  1  0.891100  0.321400  0.981300  1.0  0.123
  H  H61  1  0.956500  0.327500  0.062900  1.0  0.127
  H  H62  1  0.725200  0.999000  0.117500  1.0  0.1364
  H  H63  1  0.633200  0.021300  0.051300  1.0  0.1223
  H  H64  1  0.600800  0.034900  0.140800  1.0  0.1282
  H  H65  1  0.486600  0.550300  0.357500  1.0  0.3213
  H  H66  1  0.762700  0.814800  0.661800  1.0  0.2648
  H  H67  1  0.873800  0.607200  0.334100  1.0  0.133
  H  H68  1  0.891200  0.651000  0.417700  1.0  0.1279
  H  H69  1  0.897900  0.547000  0.408300  1.0  0.122
  H  H70  1  0.386500  0.578200  0.493200  1.0  0.1252
  H  H71  1  0.457400  0.638100  0.552500  1.0  0.1272
  H  H72  1  0.402100  0.680400  0.476200  1.0  0.1326
  H  H73  1  0.655300  0.885800  0.547500  1.0  0.1227
  H  H74  1  0.608900  0.821400  0.481300  1.0  0.1232
  H  H75  1  0.543500  0.827500  0.562900  1.0  0.1238
  H  H76  1  0.774800  0.499000  0.617500  1.0  0.1358
  H  H77  1  0.866800  0.521300  0.551300  1.0  0.1222
  H  H78  1  0.899200  0.534900  0.640800  1.0  0.1293
  H  H79  1  0.013400  0.050300  0.642500  1.0  0.3185
  H  H80  1  0.737300  0.314800  0.338200  1.0  0.266
  H  H81  1  0.626200  0.107200  0.665900  1.0  0.1337
  H  H82  1  0.608800  0.151000  0.582300  1.0  0.1281
  H  H83  1  0.602100  0.047000  0.591700  1.0  0.1229
  H  H84  1  0.113500  0.078200  0.506800  1.0  0.1241
  H  H85  1  0.042600  0.138100  0.447500  1.0  0.1259
  H  H86  1  0.097900  0.180400  0.523800  1.0  0.1321
  H  H87  1  0.844700  0.385800  0.452500  1.0  0.123
  H  H88  1  0.891100  0.321400  0.518700  1.0  0.1226
  H  H89  1  0.956500  0.327500  0.437100  1.0  0.127
  H  H90  1  0.725200  0.999000  0.382500  1.0  0.1358
  H  H91  1  0.633200  0.021300  0.448700  1.0  0.1229
  H  H92  1  0.600800  0.034900  0.359200  1.0  0.1266
  H  H93  1  0.513400  0.449700  0.857500  1.0  0.3188
  H  H94  1  0.237300  0.185200  0.161800  1.0  0.264
  H  H95  1  0.126200  0.392800  0.834100  1.0  0.1326
  H  H96  1  0.108800  0.349000  0.917700  1.0  0.1282
  H  H97  1  0.102100  0.453000  0.908300  1.0  0.1211
  H  H98  1  0.613500  0.421800  0.993200  1.0  0.1237
  H  H99  1  0.542600  0.361900  0.052500  1.0  0.1263
  H  H100  1  0.597900  0.319600  0.976200  1.0  0.133
  H  H101  1  0.344700  0.114200  0.047500  1.0  0.1231
  H  H102  1  0.391100  0.178600  0.981300  1.0  0.1228
  H  H103  1  0.456500  0.172500  0.062900  1.0  0.1267
  H  H104  1  0.225200  0.501000  0.117500  1.0  0.1359
  H  H105  1  0.133200  0.478700  0.051300  1.0  0.1225
  H  H106  1  0.100800  0.465100  0.140800  1.0  0.128
  H  H107  1  0.986600  0.949700  0.142500  1.0  0.3204
  H  H108  1  0.262700  0.685200  0.838200  1.0  0.2645
  H  H109  1  0.373800  0.892800  0.165900  1.0  0.1337
  H  H110  1  0.391200  0.849000  0.082300  1.0  0.1278
  H  H111  1  0.397900  0.953000  0.091700  1.0  0.1216
  H  H112  1  0.886500  0.921800  0.006800  1.0  0.1241
  H  H113  1  0.957400  0.861900  0.947500  1.0  0.1261
  H  H114  1  0.902100  0.819600  0.023800  1.0  0.1329
  H  H115  1  0.155300  0.614200  0.952500  1.0  0.1222
  H  H116  1  0.108900  0.678600  0.018700  1.0  0.1227
  H  H117  1  0.043500  0.672500  0.937100  1.0  0.1241
  H  H118  1  0.274800  0.001000  0.882500  1.0  0.1356
  H  H119  1  0.366800  0.978700  0.948700  1.0  0.123
  H  H120  1  0.399200  0.965100  0.859200  1.0  0.1267
  C  C121  1  0.139900  0.399700  0.610100  1.0  -0.3987
  C  C122  1  0.269800  0.406200  0.595100  1.0  0.2187
  C  C123  1  0.333900  0.373000  0.529900  1.0  -0.1716
  C  C124  1  0.451300  0.391000  0.547000  1.0  0.1239
  C  C125  1  0.561100  0.371900  0.502300  1.0  -0.3784
  C  C126  1  0.381300  0.170800  0.462600  1.0  -0.3826
  C  C127  1  0.305600  0.244000  0.430600  1.0  0.167
  C  C128  1  0.285900  0.329800  0.457400  1.0  -0.1748
  C  C129  1  0.207500  0.368300  0.401300  1.0  0.2244
  C  C130  1  0.162700  0.461600  0.397600  1.0  -0.4059
  C  C131  1  0.360100  0.899700  0.389900  1.0  -0.3984
  C  C132  1  0.230200  0.906200  0.404900  1.0  0.2163
  C  C133  1  0.166100  0.873000  0.470100  1.0  -0.1727
  C  C134  1  0.048700  0.891000  0.453000  1.0  0.1236
  C  C135  1  0.938900  0.871900  0.497700  1.0  -0.3775
  C  C136  1  0.118700  0.670800  0.537400  1.0  -0.3826
  C  C137  1  0.194400  0.744000  0.569400  1.0  0.1663
  C  C138  1  0.214100  0.829800  0.542600  1.0  -0.1739
  C  C139  1  0.292500  0.868300  0.598700  1.0  0.2247
  C  C140  1  0.337300  0.961600  0.602400  1.0  -0.4056
  C  C141  1  0.860100  0.600300  0.110100  1.0  -0.3995
  C  C142  1  0.730200  0.593800  0.095100  1.0  0.2165
  C  C143  1  0.666100  0.627000  0.029900  1.0  -0.1715
  C  C144  1  0.548700  0.609000  0.047000  1.0  0.1222
  C  C145  1  0.438900  0.628100  0.002300  1.0  -0.3801
  C  C146  1  0.618700  0.829200  0.962600  1.0  -0.3827
  C  C147  1  0.694400  0.756000  0.930600  1.0  0.1669
  C  C148  1  0.714100  0.670200  0.957400  1.0  -0.1743
  C  C149  1  0.792500  0.631700  0.901300  1.0  0.2246
  C  C150  1  0.837300  0.538400  0.897600  1.0  -0.4073
  C  C151  1  0.639900  0.100300  0.889900  1.0  -0.3986
  C  C152  1  0.769800  0.093800  0.904900  1.0  0.2165
  C  C153  1  0.833900  0.127000  0.970100  1.0  -0.1727
  C  C154  1  0.951300  0.109000  0.953000  1.0  0.1216
  C  C155  1  0.061100  0.128100  0.997700  1.0  -0.3777
  C  C156  1  0.881300  0.329200  0.037400  1.0  -0.3823
  C  C157  1  0.805600  0.256000  0.069400  1.0  0.1665
  C  C158  1  0.785900  0.170200  0.042600  1.0  -0.1742
  C  C159  1  0.707500  0.131700  0.098700  1.0  0.2241
  C  C160  1  0.662700  0.038400  0.102400  1.0  -0.4057
  C  C161  1  0.860100  0.600300  0.389900  1.0  -0.3998
  C  C162  1  0.730200  0.593800  0.404900  1.0  0.2164
  C  C163  1  0.666100  0.627000  0.470100  1.0  -0.1726
  C  C164  1  0.548700  0.609000  0.453000  1.0  0.1225
  C  C165  1  0.438900  0.628100  0.497700  1.0  -0.3793
  C  C166  1  0.618700  0.829200  0.537400  1.0  -0.3826
  C  C167  1  0.694400  0.756000  0.569400  1.0  0.1664
  C  C168  1  0.714100  0.670200  0.542600  1.0  -0.1739
  C  C169  1  0.792500  0.631700  0.598700  1.0  0.2246
  C  C170  1  0.837300  0.538400  0.602400  1.0  -0.4067
  C  C171  1  0.639900  0.100300  0.610100  1.0  -0.3991
  C  C172  1  0.769800  0.093800  0.595100  1.0  0.2182
  C  C173  1  0.833900  0.127000  0.529900  1.0  -0.1718
  C  C174  1  0.951300  0.109000  0.547000  1.0  0.1214
  C  C175  1  0.061100  0.128100  0.502300  1.0  -0.3787
  C  C176  1  0.881300  0.329200  0.462600  1.0  -0.3825
  C  C177  1  0.805600  0.256000  0.430600  1.0  0.1669
  C  C178  1  0.785900  0.170200  0.457400  1.0  -0.175
  C  C179  1  0.707500  0.131700  0.401300  1.0  0.2242
  C  C180  1  0.662700  0.038400  0.397600  1.0  -0.407
  C  C181  1  0.139900  0.399700  0.889900  1.0  -0.3989
  C  C182  1  0.269800  0.406200  0.904900  1.0  0.216
  C  C183  1  0.333900  0.373000  0.970100  1.0  -0.173
  C  C184  1  0.451300  0.391000  0.953000  1.0  0.1236
  C  C185  1  0.561100  0.371900  0.997700  1.0  -0.3777
  C  C186  1  0.381300  0.170800  0.037400  1.0  -0.3824
  C  C187  1  0.305600  0.244000  0.069400  1.0  0.1664
  C  C188  1  0.285900  0.329800  0.042600  1.0  -0.174
  C  C189  1  0.207500  0.368300  0.098700  1.0  0.2243
  C  C190  1  0.162700  0.461600  0.102400  1.0  -0.405
  C  C191  1  0.360100  0.899700  0.110100  1.0  -0.3994
  C  C192  1  0.230200  0.906200  0.095100  1.0  0.2179
  C  C193  1  0.166100  0.873000  0.029900  1.0  -0.1713
  C  C194  1  0.048700  0.891000  0.047000  1.0  0.124
  C  C195  1  0.938900  0.871900  0.002300  1.0  -0.3781
  C  C196  1  0.118700  0.670800  0.962600  1.0  -0.3828
  C  C197  1  0.194400  0.744000  0.930600  1.0  0.1669
  C  C198  1  0.214100  0.829800  0.957400  1.0  -0.1743
  C  C199  1  0.292500  0.868300  0.901300  1.0  0.2248
  C  C200  1  0.337300  0.961600  0.897600  1.0  -0.4057
  C  C201  1  0.071800  0.613800  0.750000  1.0  0.1196
  C  C202  1  0.428200  0.113800  0.250000  1.0  0.1206
  C  C203  1  0.928200  0.386200  0.250000  1.0  0.1207
  C  C204  1  0.571800  0.886200  0.750000  1.0  0.1194
  I  I205  1  0.502930  0.625000  0.750000  1.0  -0.3795
  I  I206  1  0.997070  0.125000  0.250000  1.0  -0.3794
  I  I207  1  0.497070  0.375000  0.250000  1.0  -0.3792
  I  I208  1  0.002930  0.875000  0.750000  1.0  -0.3797
  N  N209  1  0.340300  0.443200  0.649120  1.0  -0.4023
  N  N210  1  0.450800  0.432300  0.618690  1.0  -0.1396
  N  N211  1  0.179200  0.308300  0.345880  1.0  -0.3075
  N  N212  1  0.240200  0.233900  0.365150  1.0  -0.0958
  N  N213  1  0.159700  0.943200  0.350880  1.0  -0.4028
  N  N214  1  0.049200  0.932300  0.381310  1.0  -0.1377
  N  N215  1  0.320800  0.808300  0.654120  1.0  -0.3015
  N  N216  1  0.259800  0.733900  0.634850  1.0  -0.0959
  N  N217  1  0.659700  0.556800  0.149120  1.0  -0.4018
  N  N218  1  0.549200  0.567700  0.118690  1.0  -0.1415
  N  N219  1  0.820800  0.691700  0.845880  1.0  -0.3059
  N  N220  1  0.759800  0.766100  0.865150  1.0  -0.0959
  N  N221  1  0.840300  0.056800  0.850880  1.0  -0.404
  N  N222  1  0.950800  0.067700  0.881310  1.0  -0.1386
  N  N223  1  0.679200  0.191700  0.154120  1.0  -0.3003
  N  N224  1  0.740200  0.266100  0.134850  1.0  -0.0964
  N  N225  1  0.659700  0.556800  0.350880  1.0  -0.4036
  N  N226  1  0.549200  0.567700  0.381310  1.0  -0.1384
  N  N227  1  0.820800  0.691700  0.654120  1.0  -0.3023
  N  N228  1  0.759800  0.766100  0.634850  1.0  -0.096
  N  N229  1  0.840300  0.056800  0.649120  1.0  -0.4018
  N  N230  1  0.950800  0.067700  0.618690  1.0  -0.1405
  N  N231  1  0.679200  0.191700  0.345880  1.0  -0.3039
  N  N232  1  0.740200  0.266100  0.365150  1.0  -0.0961
  N  N233  1  0.340300  0.443200  0.850880  1.0  -0.4034
  N  N234  1  0.450800  0.432300  0.881310  1.0  -0.1381
  N  N235  1  0.179200  0.308300  0.154120  1.0  -0.3038
  N  N236  1  0.240200  0.233900  0.134850  1.0  -0.0964
  N  N237  1  0.159700  0.943200  0.149120  1.0  -0.4017
  N  N238  1  0.049200  0.932300  0.118690  1.0  -0.1404
  N  N239  1  0.320800  0.808300  0.845880  1.0  -0.3064
  N  N240  1  0.259800  0.733900  0.865150  1.0  -0.0955
  N  N241  1  0.159000  0.578800  0.750000  1.0  -0.3485
  N  N242  1  0.341000  0.078800  0.250000  1.0  -0.3486
  N  N243  1  0.841000  0.421200  0.250000  1.0  -0.3493
  N  N244  1  0.659000  0.921200  0.750000  1.0  -0.3498
