# generated using pymatgen
data_In2P3H3C2O13
_symmetry_space_group_name_H-M   'P 1'
_cell_length_a   12.41430000
_cell_length_b   7.71660000
_cell_length_c   18.32700000
_cell_angle_alpha   90.00000000
_cell_angle_beta   90.00000000
_cell_angle_gamma   90.00000000
_symmetry_Int_Tables_number   1
_chemical_formula_structural   In2P3H3C2O13
_chemical_formula_sum   'In8 P12 H12 C8 O52'
_cell_volume   1755.65672611
_cell_formula_units_Z   4
loop_
 _symmetry_equiv_pos_site_id
 _symmetry_equiv_pos_as_xyz
  1  'x, y, z'
loop_
 _atom_site_type_symbol
 _atom_site_label
 _atom_site_symmetry_multiplicity
 _atom_site_fract_x
 _atom_site_fract_y
 _atom_site_fract_z
 _atom_site_occupancy
 _atom_site_charge
  In  In1  1  0.433620  0.711180  0.303510  1.0  1.5997
  In  In2  1  0.623050  0.284020  0.451640  1.0  1.6103
  In  In3  1  0.566380  0.288820  0.803510  1.0  1.6008
  In  In4  1  0.376950  0.715980  0.951640  1.0  1.6114
  In  In5  1  0.933620  0.788820  0.303510  1.0  1.6005
  In  In6  1  0.123050  0.215980  0.451640  1.0  1.6103
  In  In7  1  0.066380  0.211180  0.803510  1.0  1.5998
  In  In8  1  0.876950  0.784020  0.951640  1.0  1.6113
  P  P9  1  0.365400  0.370600  0.405900  1.0  1.582
  P  P10  1  0.191910  0.871700  0.350070  1.0  1.6467
  P  P11  1  0.447110  0.748600  0.122340  1.0  1.4393
  P  P12  1  0.634600  0.629400  0.905900  1.0  1.58
  P  P13  1  0.808090  0.128300  0.850070  1.0  1.6436
  P  P14  1  0.552890  0.251400  0.622340  1.0  1.4331
  P  P15  1  0.865400  0.129400  0.405900  1.0  1.5821
  P  P16  1  0.691910  0.628300  0.350070  1.0  1.6428
  P  P17  1  0.947110  0.751400  0.122340  1.0  1.4408
  P  P18  1  0.134600  0.870600  0.905900  1.0  1.5798
  P  P19  1  0.308090  0.371700  0.850070  1.0  1.6441
  P  P20  1  0.052890  0.248600  0.622340  1.0  1.4323
  H  H21  1  0.382000  0.220000  0.366000  1.0  -0.0722
  H  H22  1  0.171000  0.729000  0.384000  1.0  -0.0985
  H  H23  1  0.541000  0.703000  0.098000  1.0  -0.0919
  H  H24  1  0.618000  0.780000  0.866000  1.0  -0.0722
  H  H25  1  0.829000  0.271000  0.884000  1.0  -0.0979
  H  H26  1  0.459000  0.297000  0.598000  1.0  -0.0933
  H  H27  1  0.882000  0.280000  0.366000  1.0  -0.072
  H  H28  1  0.671000  0.771000  0.384000  1.0  -0.097
  H  H29  1  0.041000  0.797000  0.098000  1.0  -0.0913
  H  H30  1  0.118000  0.720000  0.866000  1.0  -0.0726
  H  H31  1  0.329000  0.229000  0.884000  1.0  -0.0991
  H  H32  1  0.959000  0.203000  0.598000  1.0  -0.0939
  C  C33  1  0.510900  0.956400  0.414700  1.0  0.691
  C  C34  1  0.542500  0.038900  0.340000  1.0  0.6482
  C  C35  1  0.489100  0.043600  0.914700  1.0  0.6902
  C  C36  1  0.457500  0.961100  0.840000  1.0  0.6496
  C  C37  1  0.010900  0.543600  0.414700  1.0  0.6904
  C  C38  1  0.042500  0.461100  0.340000  1.0  0.648
  C  C39  1  0.989100  0.456400  0.914700  1.0  0.6906
  C  C40  1  0.957500  0.538900  0.840000  1.0  0.6498
  O  O41  1  0.351500  0.496200  0.342300  1.0  -0.7745
  O  O42  1  0.290300  0.864700  0.299900  1.0  -0.7613
  O  O43  1  0.463300  0.814100  0.412800  1.0  -0.5988
  O  O44  1  0.518000  0.960200  0.283600  1.0  -0.564
  O  O45  1  0.091000  0.903600  0.305800  1.0  -0.7491
  O  O46  1  0.426300  0.649900  0.192800  1.0  -0.7532
  O  O47  1  0.467900  0.402800  0.448700  1.0  -0.7896
  O  O48  1  0.369200  0.682100  0.064000  1.0  -0.708
  O  O49  1  0.266800  0.367800  0.454400  1.0  -0.7441
  O  O50  1  0.205300  0.997900  0.413100  1.0  -0.7566
  O  O51  1  0.536600  0.035600  0.471000  1.0  -0.5664
  O  O52  1  0.592400  0.181200  0.341600  1.0  -0.5994
  O  O53  1  0.448600  0.944100  0.131300  1.0  -0.5844
  O  O54  1  0.648500  0.503800  0.842300  1.0  -0.7755
  O  O55  1  0.709700  0.135300  0.799900  1.0  -0.7611
  O  O56  1  0.536700  0.185900  0.912800  1.0  -0.6001
  O  O57  1  0.482000  0.039800  0.783600  1.0  -0.5645
  O  O58  1  0.909000  0.096400  0.805800  1.0  -0.7489
  O  O59  1  0.573700  0.350100  0.692800  1.0  -0.7524
  O  O60  1  0.532100  0.597200  0.948700  1.0  -0.7887
  O  O61  1  0.630800  0.317900  0.564000  1.0  -0.7066
  O  O62  1  0.733200  0.632200  0.954400  1.0  -0.7433
  O  O63  1  0.794700  0.002100  0.913100  1.0  -0.7564
  O  O64  1  0.463400  0.964400  0.971000  1.0  -0.5669
  O  O65  1  0.407600  0.818800  0.841600  1.0  -0.5977
  O  O66  1  0.551400  0.055900  0.631300  1.0  -0.5852
  O  O67  1  0.851500  0.003800  0.342300  1.0  -0.7748
  O  O68  1  0.790300  0.635300  0.299900  1.0  -0.7616
  O  O69  1  0.963300  0.685900  0.412800  1.0  -0.6006
  O  O70  1  0.018000  0.539800  0.283600  1.0  -0.5638
  O  O71  1  0.591000  0.596400  0.305800  1.0  -0.7499
  O  O72  1  0.926300  0.850100  0.192800  1.0  -0.7532
  O  O73  1  0.967900  0.097200  0.448700  1.0  -0.789
  O  O74  1  0.869200  0.817900  0.064000  1.0  -0.7075
  O  O75  1  0.766800  0.132200  0.454400  1.0  -0.7439
  O  O76  1  0.705300  0.502100  0.413100  1.0  -0.7564
  O  O77  1  0.036600  0.464400  0.471000  1.0  -0.5671
  O  O78  1  0.092400  0.318800  0.341600  1.0  -0.5989
  O  O79  1  0.948600  0.555900  0.131300  1.0  -0.5859
  O  O80  1  0.148500  0.996200  0.842300  1.0  -0.7752
  O  O81  1  0.209700  0.364700  0.799900  1.0  -0.761
  O  O82  1  0.036700  0.314100  0.912800  1.0  -0.6002
  O  O83  1  0.982000  0.460200  0.783600  1.0  -0.5649
  O  O84  1  0.409000  0.403600  0.805800  1.0  -0.7481
  O  O85  1  0.073700  0.149900  0.692800  1.0  -0.753
  O  O86  1  0.032100  0.902800  0.948700  1.0  -0.7897
  O  O87  1  0.130800  0.182100  0.564000  1.0  -0.7075
  O  O88  1  0.233200  0.867800  0.954400  1.0  -0.7431
  O  O89  1  0.294700  0.497900  0.913100  1.0  -0.7568
  O  O90  1  0.963400  0.535600  0.971000  1.0  -0.5663
  O  O91  1  0.907600  0.681200  0.841600  1.0  -0.5983
  O  O92  1  0.051400  0.444100  0.631300  1.0  -0.5834
